data_PCOD8231908
_publ_section_title
;
Structure prediction by ZEFSAII (Michael W. Deem and Ramdas Pophale) SiO2 
 PCOD8231908
Probable space group: P B C M
;
_chemical_formula_sum "Si O2"
_cell_formula_units_Z 48
_cell_length_a 8.768419
_cell_length_b 18.250975
_cell_length_c 16.737861
_cell_angle_alpha 90.000000
_cell_angle_beta 90.000000
_cell_angle_gamma 90.000000
_cell_volume 2678.596651
_symmetry_space_group_name_H-M "P B C M"
_symmetry_group_IT_number 57
_symmetry_cell_setting 'orthorhombic'
loop_
_space_group_symop_operation_xyz
x,y,z
-x,-y,1/2+z
x,1/2-y,-z
-x,1/2+y,1/2-z
-x,-y,-z
x,y,1/2-z
-x,1/2+y,z
x,1/2-y,1/2+z
loop_
_atom_site_type_symbol
_atom_site_label
_atom_site_fract_x
_atom_site_fract_y
_atom_site_fract_z
Si Si1 0.873332 0.168089 0.469397
Si Si2 0.697292 0.419597 0.843297
Si Si3 0.151751 0.072521 0.659047
Si Si4 0.786408 0.832091 0.487764
Si Si5 0.883213 0.465907 0.433756
Si Si6 0.587030 0.947603 0.560653
O O1 0.833472 0.250000 0.500000
O O2 0.791259 0.146343 0.386121
O O3 0.810225 0.109577 0.533320
O O4 0.056551 0.156512 0.462161
O O5 0.716169 0.404837 0.750000
O O6 0.755505 0.500437 0.868220
O O7 0.519484 0.421119 0.866803
O O8 0.185509 0.094567 0.750000
O O9 0.188691 0.142991 0.604229
O O10 0.974807 0.051175 0.647317
O O11 0.733834 0.750000 0.500000
O O12 0.639202 0.874553 0.517255
O O13 0.743161 0.516271 0.407888
O O14 0.000000 0.500000 0.500000
O O15 0.500000 0.000000 0.500000
#
# Coordination Sequence:
#
# PCOD8231908 Si02
#       6
#     8   8   8   8   8   8
#     4  10  19  36  58  84 110 153 197 237 282 352
#     4  11  22  36  56  87 119 150 187 240 297 343
#     4  10  19  35  59  85 114 146 188 245 291 334
#     4  10  20  36  59  86 109 152 203 237 286 352
#     4  11  17  35  59  82 111 149 203 235 272 348
#     4  12  19  34  58  83 116 153 195 237 281 355
#
# _framework density 17.919832
#
# number of rings (size 3 to 8) (size 9 to 14) (size 15 to 20)
#    0.000    1.333    8.333    0.000    0.000    1.333 
#    0.000    9.167    0.000    2.000    0.000    0.000 
#    0.000    0.000    0.000    0.000    0.000    0.000 
#
# Total GULP energy -594776.659009 kJ/mol
# GULP energy per Si atom -12391.180396 kJ/mol
# Density = 1.787905 g / cm^3
# Si number density = 17.919832 Si / 1000 Ang^3
#
#
#
# Elastic Constant Matrix: (Units=GPa)
#
#
# Indices 1 2 3 4 5 6 
#
# 1 95.4017 50.0073 48.4179 0.0000 0.0000 0.0000
# 2 50.0073 138.2469 57.1973 0.0000 0.0000 0.0000
# 3 48.4179 57.1973 85.2904 0.0000 0.0000 0.0000
# 4 0.0000 0.0000 0.0000 24.9528 0.0000 0.0000
# 5 0.0000 0.0000 0.0000 0.0000 27.1275 0.0000
# 6 0.0000 0.0000 0.0000 0.0000 0.0000 31.5672
#
#
#
# Elastic Compliance Matrix: (Units=1/GPa)
#
#
# Indices 1 2 3 4 5 6 
#
# 1 0.015423 -0.002708 -0.006940 0.000000 0.000000 0.000000
# 2 -0.002708 0.010486 -0.005495 0.000000 0.000000 0.000000
# 3 -0.006940 -0.005495 0.019349 0.000000 0.000000 0.000000
# 4 0.000000 0.000000 0.000000 0.040076 0.000000 0.000000
# 5 0.000000 0.000000 0.000000 0.000000 0.036863 0.000000
# 6 0.000000 0.000000 0.000000 0.000000 0.000000 0.031678
#
#
# Mechanical properties :
#
#
# Convention : Reuss Voigt Hill
#
# Bulk Modulus (GPa) = 66.78346 70.02045 68.40196
# Shear Modulus (GPa) = 26.43363 27.61727 27.02545
#
# Velocity S-wave (km/s) = 3.84488 3.93002 3.88768
# Velocity P-wave (km/s) = 7.55378 7.72997 7.64238
#
# Compressibility (1/GPa) = 0.01497377
#
# Stress axis : x y z
#
# Youngs Moduli (GPa) = 64.83670 95.36089 51.68126
#
# Poissons Ratio (x) = 0.25822 0.35865
# Poissons Ratio (y) = 0.17557 0.28400
# Poissons Ratio (z) = 0.44994 0.52403
#
# Static dielectric constant tensor:
#      x y z
#    x 3.500810 0.000000 0.000000 
#    y 0.000000 4.797950 0.000000 
#    z 0.000000 0.000000 3.043160 
# 
# 
# High freq. dielectric constant tensor:
#      x y z
#    x 1.697400 0.000000 0.000000 
#    y 0.000000 1.695070 0.000000 
#    z 0.000000 0.000000 1.665180 
# 
# From -- ./inp_files/21078.got.cif
#   From: 2010.03.12/outbox.cif.g09.slc.cpg/sg57_11_cif.got.tgz:21078.got - 2010.04.16 15:48:40.
