data_PCOD8231082
_publ_section_title
;
Structure prediction by ZEFSAII (Michael W. Deem and Ramdas Pophale) SiO2 
 PCOD8231082
Probable space group: P B C M
;
_chemical_formula_sum "Si O2"
_cell_formula_units_Z 64
_cell_length_a 14.965908
_cell_length_b 29.531387
_cell_length_c 9.046925
_cell_angle_alpha 90.000000
_cell_angle_beta 90.000000
_cell_angle_gamma 90.000000
_cell_volume 3998.415350
_symmetry_space_group_name_H-M "P B C M"
_symmetry_group_IT_number 57
_symmetry_cell_setting 'orthorhombic'
loop_
_space_group_symop_operation_xyz
x,y,z
-x,-y,1/2+z
x,1/2-y,-z
-x,1/2+y,1/2-z
-x,-y,-z
x,y,1/2-z
-x,1/2+y,z
x,1/2-y,1/2+z
loop_
_atom_site_type_symbol
_atom_site_label
_atom_site_fract_x
_atom_site_fract_y
_atom_site_fract_z
Si Si1 0.031812 0.608008 0.076097
Si Si2 0.141167 0.054129 0.426652
Si Si3 0.545652 0.561021 0.580947
Si Si4 0.715270 0.883891 0.422338
Si Si5 0.986796 0.704972 0.419718
Si Si6 0.380811 0.965060 0.576717
Si Si7 0.776519 0.704554 0.078545
Si Si8 0.179374 0.961972 0.924569
O O1 0.018854 0.612170 0.250000
O O2 0.032787 0.659540 0.012801
O O3 0.123692 0.583028 0.034344
O O4 0.947505 0.579684 0.015662
O O5 0.149299 0.054389 0.250000
O O6 0.226319 0.078361 0.496790
O O7 0.135983 0.003129 0.485813
O O8 0.518987 0.554570 0.750000
O O9 0.611325 0.603284 0.557933
O O10 0.453155 0.569244 0.493554
O O11 0.596404 0.515928 0.523919
O O12 0.742250 0.882104 0.250000
O O13 0.725962 0.835820 0.498373
O O14 0.022371 0.750000 0.500000
O O15 0.011773 0.711743 0.250000
O O16 0.881670 0.698083 0.442938
O O17 0.386993 0.959440 0.750000
O O18 0.280846 0.953188 0.523114
O O19 0.749903 0.705701 0.250000
O O20 0.743096 0.750000 0.000000
O O21 0.174135 0.973096 0.750000
#
# Coordination Sequence:
#
# PCOD8231082 Si02
#       8
#     8   8   8   8   8   8   8   8
#     4   9  18  32  48  66  94 128 160 194 234 278
#     4  11  20  31  45  67  97 130 164 196 229 275
#     4   9  18  31  46  66  91 120 154 194 237 279
#     4  11  20  32  49  70  96 128 163 196 238 285
#     4   9  17  31  47  67  92 121 155 192 232 274
#     4   9  17  30  46  67  90 118 157 196 235 278
#     4  10  19  32  49  71  98 126 159 195 236 284
#     4  10  19  33  49  66  93 128 162 199 238 281
#
# _framework density 16.006340000000002
#
# number of rings (size 3 to 8) (size 9 to 14) (size 15 to 20)
#    0.000    2.250    2.500    1.500    0.000    2.000 
#    0.000    1.250    0.000    0.000    0.000    0.875 
#    0.000    4.000    0.000    0.000    0.000    0.000 
#
# Total GULP energy -793526.763837 kJ/mol
# GULP energy per Si atom -12398.855685 kJ/mol
# Density = 1.596991 g / cm^3
# Si number density = 16.006340 Si / 1000 Ang^3
#
#
#
# Elastic Constant Matrix: (Units=GPa)
#
#
# Indices 1 2 3 4 5 6 
#
# 1 93.5564 55.5138 34.2741 0.0000 0.0000 0.0000
# 2 55.5138 127.7032 47.4521 0.0000 0.0000 0.0000
# 3 34.2741 47.4521 60.3667 0.0000 0.0000 0.0000
# 4 0.0000 0.0000 0.0000 27.2755 0.0000 0.0000
# 5 0.0000 0.0000 0.0000 0.0000 19.5521 0.0000
# 6 0.0000 0.0000 0.0000 0.0000 0.0000 19.5827
#
#
#
# Elastic Compliance Matrix: (Units=1/GPa)
#
#
# Indices 1 2 3 4 5 6 
#
# 1 0.015369 -0.004857 -0.004908 0.000000 0.000000 0.000000
# 2 -0.004857 0.012597 -0.007144 0.000000 0.000000 0.000000
# 3 -0.004908 -0.007144 0.024968 0.000000 0.000000 0.000000
# 4 0.000000 0.000000 0.000000 0.036663 0.000000 0.000000
# 5 0.000000 0.000000 0.000000 0.000000 0.051145 0.000000
# 6 0.000000 0.000000 0.000000 0.000000 0.000000 0.051065
#
#
# Mechanical properties :
#
#
# Convention : Reuss Voigt Hill
#
# Bulk Modulus (GPa) = 52.31505 61.78959 57.05232
# Shear Modulus (GPa) = 21.55201 22.90782 22.22992
#
# Velocity S-wave (km/s) = 3.67340 3.78719 3.73073
# Velocity P-wave (km/s) = 7.12368 7.60334 7.36741
#
# Compressibility (1/GPa) = 0.01911496
#
# Stress axis : x y z
#
# Youngs Moduli (GPa) = 65.06645 79.38527 40.05206
#
# Poissons Ratio (x) = 0.38561 0.19656
# Poissons Ratio (y) = 0.31605 0.28613
# Poissons Ratio (z) = 0.31933 0.56713
#
# Static dielectric constant tensor:
#      x y z
#    x 2.989100 0.000000 0.000000 
#    y 0.000000 3.354230 0.000000 
#    z 0.000000 0.000000 3.000810 
# 
# 
# High freq. dielectric constant tensor:
#      x y z
#    x 1.596470 0.000000 0.000000 
#    y 0.000000 1.604050 0.000000 
#    z 0.000000 0.000000 1.611400 
# 
# From -- ./inp_files/5976.got.cif
#   From: 2010.03.12/outbox.cif.g09.slc.cpg/sg57_3_cif.got.tgz:5976.got - 2010.04.16 15:48:40.
