data_PCOD8231513
_publ_section_title
;
Structure prediction by ZEFSAII (Michael W. Deem and Ramdas Pophale) SiO2 
 PCOD8231513
Probable space group: P B C M
;
_chemical_formula_sum "Si O2"
_cell_formula_units_Z 48
_cell_length_a 18.323971
_cell_length_b 8.586518
_cell_length_c 15.896661
_cell_angle_alpha 90.000000
_cell_angle_beta 90.000000
_cell_angle_gamma 90.000000
_cell_volume 2501.166443
_symmetry_space_group_name_H-M "P B C M"
_symmetry_group_IT_number 57
_symmetry_cell_setting 'orthorhombic'
loop_
_space_group_symop_operation_xyz
x,y,z
-x,-y,1/2+z
x,1/2-y,-z
-x,1/2+y,1/2-z
-x,-y,-z
x,y,1/2-z
-x,1/2+y,z
x,1/2-y,1/2+z
loop_
_atom_site_type_symbol
_atom_site_label
_atom_site_fract_x
_atom_site_fract_y
_atom_site_fract_z
Si Si1 0.430731 0.865527 0.844906
Si Si2 0.452188 0.541024 0.920121
Si Si3 0.319383 0.929889 0.519189
Si Si4 0.834097 0.567292 0.497444
Si Si5 0.086531 0.959153 0.345706
Si Si6 0.951220 0.149029 0.081274
O O1 0.406541 0.824665 0.750000
O O2 0.451720 0.722683 0.903299
O O3 0.363181 0.949510 0.892310
O O4 0.507243 0.961965 0.840783
O O5 0.500000 0.500000 0.000000
O O6 0.368286 0.496742 0.942546
O O7 0.298727 0.750000 0.500000
O O8 0.247606 0.033410 0.527432
O O9 0.850939 0.750000 0.500000
O O10 0.843465 0.505661 0.401678
O O11 0.887946 0.473784 0.559496
O O12 0.100199 0.010349 0.250000
O O13 0.018479 0.051100 0.384681
O O14 0.075013 0.772421 0.348488
O O15 0.974984 0.250000 0.000000
#
# Coordination Sequence:
#
# PCOD8231513 Si02
#       6
#     8   8   8   8   8   8
#     4  10  19  33  54  83 110 138 181 234 273 312
#     4   9  18  33  54  77 106 143 179 216 269 332
#     4   9  19  36  54  74 106 148 185 216 268 337
#     4  11  22  38  58  80 110 150 189 225 274 340
#     4  11  21  36  58  86 113 142 184 235 277 322
#     4  10  20  36  58  82 112 149 185 222 275 337
#
# _framework density 19.191047000000001
#
# number of rings (size 3 to 8) (size 9 to 14) (size 15 to 20)
#    0.000    2.000    0.000    7.500    0.000    2.667 
#    0.000   10.833    0.000    0.000    0.000    0.000 
#    0.000    0.000    0.000    0.000    0.000    0.000 
#
# Total GULP energy -594796.691196 kJ/mol
# GULP energy per Si atom -12391.597733 kJ/mol
# Density = 1.914737 g / cm^3
# Si number density = 19.191047 Si / 1000 Ang^3
#
#
#
# Elastic Constant Matrix: (Units=GPa)
#
#
# Indices 1 2 3 4 5 6 
#
# 1 95.4539 44.2399 48.4384 0.0000 0.0000 0.0000
# 2 44.2399 98.6538 29.5446 0.0000 0.0000 0.0000
# 3 48.4384 29.5446 103.4127 0.0000 0.0000 0.0000
# 4 0.0000 0.0000 0.0000 20.0135 0.0000 0.0000
# 5 0.0000 0.0000 0.0000 0.0000 13.1711 0.0000
# 6 0.0000 0.0000 0.0000 0.0000 0.0000 32.1727
#
#
#
# Elastic Compliance Matrix: (Units=1/GPa)
#
#
# Indices 1 2 3 4 5 6 
#
# 1 0.015995 -0.005390 -0.005952 0.000000 0.000000 0.000000
# 2 -0.005390 0.012901 -0.001161 0.000000 0.000000 0.000000
# 3 -0.005952 -0.001161 0.012790 0.000000 0.000000 0.000000
# 4 0.000000 0.000000 0.000000 0.049966 0.000000 0.000000
# 5 0.000000 0.000000 0.000000 0.000000 0.075924 0.000000
# 6 0.000000 0.000000 0.000000 0.000000 0.000000 0.031082
#
#
# Mechanical properties :
#
#
# Convention : Reuss Voigt Hill
#
# Bulk Modulus (GPa) = 59.95488 60.21848 60.08668
# Shear Modulus (GPa) = 21.81269 24.75797 23.28533
#
# Velocity S-wave (km/s) = 3.37502 3.59566 3.48709
# Velocity P-wave (km/s) = 6.81884 6.97746 6.89860
#
# Compressibility (1/GPa) = 0.01667921
#
# Stress axis : x y z
#
# Youngs Moduli (GPa) = 62.52033 77.51147 78.18839
#
# Poissons Ratio (x) = 0.41780 0.46538
# Poissons Ratio (y) = 0.33699 0.09079
# Poissons Ratio (z) = 0.37212 0.09000
#
# Static dielectric constant tensor:
#      x y z
#    x 3.552530 0.000000 0.000000 
#    y 0.000000 3.730750 0.000000 
#    z 0.000000 0.000000 3.569790 
# 
# 
# High freq. dielectric constant tensor:
#      x y z
#    x 1.740710 0.000000 0.000000 
#    y 0.000000 1.750460 0.000000 
#    z 0.000000 0.000000 1.732000 
# 
# From -- ./inp_files/22828.got.cif
#   From: 2010.03.12/outbox.cif.g09.slc.cpg/sg57_12_cif.got.tgz:22828.got - 2010.04.16 15:48:40.
