data_PCOD8231364
_publ_section_title
;
Structure prediction by ZEFSAII (Michael W. Deem and Ramdas Pophale) SiO2 
 PCOD8231364
Probable space group: P B C M
;
_chemical_formula_sum "Si O2"
_cell_formula_units_Z 40
_cell_length_a 25.988838
_cell_length_b 9.108465
_cell_length_c 8.916726
_cell_angle_alpha 90.000000
_cell_angle_beta 90.000000
_cell_angle_gamma 90.000000
_cell_volume 2110.753302
_symmetry_space_group_name_H-M "P B C M"
_symmetry_group_IT_number 57
_symmetry_cell_setting 'orthorhombic'
loop_
_space_group_symop_operation_xyz
x,y,z
-x,-y,1/2+z
x,1/2-y,-z
-x,1/2+y,1/2-z
-x,-y,-z
x,y,1/2-z
-x,1/2+y,z
x,1/2-y,1/2+z
loop_
_atom_site_type_symbol
_atom_site_label
_atom_site_fract_x
_atom_site_fract_y
_atom_site_fract_z
Si Si1 0.044430 0.408078 0.925918
Si Si2 0.544352 0.906940 0.424042
Si Si3 0.267017 0.089614 0.427181
Si Si4 0.354668 0.903839 0.575881
Si Si5 0.155061 0.097181 0.078123
O O1 0.033481 0.393686 0.750000
O O2 0.100814 0.486329 0.957080
O O3 0.043794 0.250000 0.000000
O O4 0.000000 0.500000 0.000000
O O5 0.548485 0.750000 0.500000
O O6 0.530987 0.886583 0.250000
O O7 0.500000 0.000000 0.500000
O O8 0.597998 0.987819 0.448710
O O9 0.274422 0.250000 0.500000
O O10 0.277456 0.103824 0.250000
O O11 0.209725 0.021416 0.463101
O O12 0.305171 0.973047 0.498118
O O13 0.368601 0.750000 0.500000
O O14 0.342870 0.877894 0.750000
O O15 0.156437 0.138186 0.250000
O O16 0.152723 0.250000 0.000000
#
# Coordination Sequence:
#
# PCOD8231364 Si02
#       5
#     8   8   8   8   8
#     4  10  19  33  52  76 105 138 177 221 269 323
#     4  11  24  41  63  89 118 150 187 228 273 322
#     4  10  19  34  57  83 109 140 179 224 271 323
#     4  11  24  40  58  83 114 149 185 226 273 323
#     4   8  16  30  50  75 103 135 174 219 267 319
#
# _framework density 18.950581
#
# number of rings (size 3 to 8) (size 9 to 14) (size 15 to 20)
#    0.000    2.000    0.000    3.600    0.000    8.000 
#    0.000    1.000    0.000    0.000    0.000    0.000 
#    0.000    0.000    0.000    0.000    0.000    0.000 
#
# Total GULP energy -495621.806946 kJ/mol
# GULP energy per Si atom -12390.545174 kJ/mol
# Density = 1.890745 g / cm^3
# Si number density = 18.950581 Si / 1000 Ang^3
#
#
#
# Elastic Constant Matrix: (Units=GPa)
#
#
# Indices 1 2 3 4 5 6 
#
# 1 150.5575 55.1556 84.3946 0.0000 0.0000 0.0000
# 2 55.1556 100.3063 63.0363 0.0000 0.0000 0.0000
# 3 84.3946 63.0363 128.0682 0.0000 0.0000 0.0000
# 4 0.0000 0.0000 0.0000 35.1336 0.0000 0.0000
# 5 0.0000 0.0000 0.0000 0.0000 33.2991 0.0000
# 6 0.0000 0.0000 0.0000 0.0000 0.0000 26.3384
#
#
#
# Elastic Compliance Matrix: (Units=1/GPa)
#
#
# Indices 1 2 3 4 5 6 
#
# 1 0.010838 -0.002130 -0.006094 0.000000 0.000000 0.000000
# 2 -0.002130 0.014853 -0.005907 0.000000 0.000000 0.000000
# 3 -0.006094 -0.005907 0.014731 0.000000 0.000000 0.000000
# 4 0.000000 0.000000 0.000000 0.028463 0.000000 0.000000
# 5 0.000000 0.000000 0.000000 0.000000 0.030031 0.000000
# 6 0.000000 0.000000 0.000000 0.000000 0.000000 0.037967
#
#
# Mechanical properties :
#
#
# Convention : Reuss Voigt Hill
#
# Bulk Modulus (GPa) = 82.23079 87.12277 84.67678
# Shear Modulus (GPa) = 29.55102 30.71059 30.13081
#
# Velocity S-wave (km/s) = 3.95317 4.02999 3.99177
# Velocity P-wave (km/s) = 8.02017 8.22969 8.12561
#
# Compressibility (1/GPa) = 0.01216090
#
# Stress axis : x y z
#
# Youngs Moduli (GPa) = 92.26696 67.32663 67.88179
#
# Poissons Ratio (x) = 0.14341 0.41365
# Poissons Ratio (y) = 0.19654 0.40098
# Poissons Ratio (z) = 0.56225 0.39770
#
# Static dielectric constant tensor:
#      x y z
#    x 4.410980 0.000000 0.000000 
#    y 0.000000 3.169330 0.000000 
#    z 0.000000 0.000000 3.729180 
# 
# 
# High freq. dielectric constant tensor:
#      x y z
#    x 1.767710 0.000000 0.000000 
#    y 0.000000 1.704760 0.000000 
#    z 0.000000 0.000000 1.755570 
# 
# From -- ./inp_files/8905.got.cif
#   From: 2010.03.12/outbox.cif.g09.slc.cpg/sg57_5_cif.got.tgz:8905.got - 2010.04.16 15:48:40.
