data_PCOD8231189
_publ_section_title
;
Structure prediction by ZEFSAII (Michael W. Deem and Ramdas Pophale) SiO2 
 PCOD8231189
Probable space group: P B C M
;
_chemical_formula_sum "Si O2"
_cell_formula_units_Z 56
_cell_length_a 22.522899
_cell_length_b 14.358727
_cell_length_c 8.961107
_cell_angle_alpha 90.000000
_cell_angle_beta 90.000000
_cell_angle_gamma 90.000000
_cell_volume 2898.023420
_symmetry_space_group_name_H-M "P B C M"
_symmetry_group_IT_number 57
_symmetry_cell_setting 'orthorhombic'
loop_
_space_group_symop_operation_xyz
x,y,z
-x,-y,1/2+z
x,1/2-y,-z
-x,1/2+y,1/2-z
-x,-y,-z
x,y,1/2-z
-x,1/2+y,z
x,1/2-y,1/2+z
loop_
_atom_site_type_symbol
_atom_site_label
_atom_site_fract_x
_atom_site_fract_y
_atom_site_fract_z
Si Si1 0.861235 0.041577 0.423545
Si Si2 0.635997 0.025867 0.075340
Si Si3 0.747824 0.149604 0.426539
Si Si4 0.987457 0.097033 0.074999
Si Si5 0.902138 0.659850 0.927576
Si Si6 0.531419 0.156523 0.424421
Si Si7 0.603904 0.654875 0.074246
O O1 0.850467 0.026338 0.250000
O O2 0.803089 0.090040 0.493134
O O3 0.916733 0.112243 0.450509
O O4 0.872458 0.936603 0.487516
O O5 0.637746 0.003178 0.250000
O O6 0.688490 0.094928 0.028776
O O7 0.573549 0.071832 0.026505
O O8 0.643707 0.929630 0.986385
O O9 0.746307 0.250000 0.500000
O O10 0.753507 0.162805 0.250000
O O11 0.003232 0.096444 0.250000
O O12 0.029724 0.168630 0.987763
O O13 0.000000 0.000000 0.000000
O O14 0.901681 0.666301 0.750000
O O15 0.868754 0.750000 0.000000
O O16 0.555529 0.250000 0.500000
O O17 0.535797 0.173860 0.250000
O O18 0.464174 0.135363 0.474747
O O19 0.611205 0.663599 0.250000
O O20 0.626924 0.750000 0.000000
#
# Coordination Sequence:
#
# PCOD8231189 Si02
#       7
#     8   8   8   8   8   8   8
#     4   8  17  34  53  73 102 138 172 208 254 303
#     4  10  20  34  53  76 105 137 171 211 256 301
#     4  10  21  38  57  77 102 134 171 213 256 302
#     4   9  16  29  49  73 102 134 168 207 251 300
#     4  10  19  32  51  76 105 136 171 212 258 310
#     4   9  18  31  49  77 107 137 170 209 255 303
#     4  10  20  34  53  76 105 136 170 210 255 307
#
# _framework density 19.323515
#
# number of rings (size 3 to 8) (size 9 to 14) (size 15 to 20)
#    0.000    2.571    0.000    3.000    0.000    2.286 
#    0.000    6.429    0.000    1.714    0.000    0.000 
#    0.000    0.000    0.000    0.000    0.000    0.000 
#
# Total GULP energy -694069.927980 kJ/mol
# GULP energy per Si atom -12394.105857 kJ/mol
# Density = 1.927953 g / cm^3
# Si number density = 19.323515 Si / 1000 Ang^3
#
#
#
# Elastic Constant Matrix: (Units=GPa)
#
#
# Indices 1 2 3 4 5 6 
#
# 1 76.0624 56.4068 28.4093 0.0000 0.0000 0.0000
# 2 56.4068 157.2849 46.8388 0.0000 0.0000 0.0000
# 3 28.4093 46.8388 58.5704 0.0000 0.0000 0.0000
# 4 0.0000 0.0000 0.0000 37.3043 0.0000 0.0000
# 5 0.0000 0.0000 0.0000 0.0000 18.8320 0.0000
# 6 0.0000 0.0000 0.0000 0.0000 0.0000 24.9362
#
#
#
# Elastic Compliance Matrix: (Units=1/GPa)
#
#
# Indices 1 2 3 4 5 6 
#
# 1 0.018935 -0.005323 -0.004927 0.000000 0.000000 0.000000
# 2 -0.005323 0.009842 -0.005288 0.000000 0.000000 0.000000
# 3 -0.004927 -0.005288 0.023693 0.000000 0.000000 0.000000
# 4 0.000000 0.000000 0.000000 0.026807 0.000000 0.000000
# 5 0.000000 0.000000 0.000000 0.000000 0.053101 0.000000
# 6 0.000000 0.000000 0.000000 0.000000 0.000000 0.040102
#
#
# Mechanical properties :
#
#
# Convention : Reuss Voigt Hill
#
# Bulk Modulus (GPa) = 46.74782 61.69194 54.21988
# Shear Modulus (GPa) = 23.73171 26.89868 25.31519
#
# Velocity S-wave (km/s) = 3.50826 3.73502 3.62342
# Velocity P-wave (km/s) = 6.37615 7.11306 6.75466
#
# Compressibility (1/GPa) = 0.02139137
#
# Stress axis : x y z
#
# Youngs Moduli (GPa) = 52.81176 101.60651 42.20717
#
# Poissons Ratio (x) = 0.54089 0.20797
# Poissons Ratio (y) = 0.28114 0.22321
# Poissons Ratio (z) = 0.26022 0.53735
#
# Static dielectric constant tensor:
#      x y z
#    x 3.780020 0.000000 0.000000 
#    y 0.000000 3.678080 0.000000 
#    z 0.000000 0.000000 3.493940 
# 
# 
# High freq. dielectric constant tensor:
#      x y z
#    x 1.733850 0.000000 0.000000 
#    y 0.000000 1.759710 0.000000 
#    z 0.000000 0.000000 1.737310 
# 
# From -- ./inp_files/8025.got.cif
#   From: 2010.03.12/outbox.cif.g09.slc.cpg/sg57_5_cif.got.tgz:8025.got - 2010.04.16 15:48:40.
