data_PCOD8231204
_publ_section_title
;
Structure prediction by ZEFSAII (Michael W. Deem and Ramdas Pophale) SiO2 
 PCOD8231204
Probable space group: P B C M
;
_chemical_formula_sum "Si O2"
_cell_formula_units_Z 64
_cell_length_a 16.659758
_cell_length_b 21.128018
_cell_length_c 9.119074
_cell_angle_alpha 90.000000
_cell_angle_beta 90.000000
_cell_angle_gamma 90.000000
_cell_volume 3209.801582
_symmetry_space_group_name_H-M "P B C M"
_symmetry_group_IT_number 57
_symmetry_cell_setting 'orthorhombic'
loop_
_space_group_symop_operation_xyz
x,y,z
-x,-y,1/2+z
x,1/2-y,-z
-x,1/2+y,1/2-z
-x,-y,-z
x,y,1/2-z
-x,1/2+y,z
x,1/2-y,1/2+z
loop_
_atom_site_type_symbol
_atom_site_label
_atom_site_fract_x
_atom_site_fract_y
_atom_site_fract_z
Si Si1 0.023300 0.419413 0.415411
Si Si2 0.853038 0.806415 0.414473
Si Si3 0.273524 0.376480 0.576192
Si Si4 0.710021 0.184682 0.076652
Si Si5 0.846595 0.519125 0.414417
Si Si6 0.582178 0.930467 0.080467
Si Si7 0.418213 0.575762 0.080624
Si Si8 0.148792 0.878738 0.416951
O O1 0.004051 0.443159 0.250000
O O2 0.090777 0.366524 0.417179
O O3 0.065468 0.476827 0.506082
O O4 0.941984 0.387882 0.479646
O O5 0.898547 0.750000 0.500000
O O6 0.831991 0.786044 0.250000
O O7 0.770091 0.816614 0.503764
O O8 0.278617 0.369476 0.750000
O O9 0.222591 0.437124 0.519446
O O10 0.361754 0.383758 0.511405
O O11 0.714582 0.195502 0.250000
O O12 0.649947 0.126919 0.036723
O O13 0.680896 0.250000 0.000000
O O14 0.799217 0.167836 0.017961
O O15 0.863455 0.541809 0.250000
O O16 0.811986 0.448378 0.422236
O O17 0.587008 0.912166 0.250000
O O18 0.610020 0.003285 0.055644
O O19 0.493400 0.914424 0.025001
O O20 0.443721 0.585215 0.250000
O O21 0.147983 0.852148 0.250000
#
# Coordination Sequence:
#
# PCOD8231204 Si02
#       8
#     8   8   8   8   8   8   8   8
#     4   9  19  33  51  76 107 141 178 225 276 324
#     4  10  20  35  52  71  98 135 177 219 264 313
#     4  10  19  32  51  78 110 141 172 210 258 312
#     4  11  24  41  59  79 107 146 188 228 271 320
#     4   9  18  31  51  79 111 145 179 219 269 322
#     4  10  19  33  58  89 114 137 171 215 264 321
#     4   9  20  38  58  82 112 143 175 216 269 323
#     4  10  20  35  54  79 109 141 181 226 271 320
#
# _framework density 19.938928000000001
#
# number of rings (size 3 to 8) (size 9 to 14) (size 15 to 20)
#    0.000    2.250    0.000    2.625    0.000    4.000 
#    0.000    1.875    0.000    1.500    0.000    0.000 
#    0.000    0.000    0.000    0.000    0.000    0.000 
#
# Total GULP energy -793304.349460 kJ/mol
# GULP energy per Si atom -12395.380460 kJ/mol
# Density = 1.989355 g / cm^3
# Si number density = 19.938928 Si / 1000 Ang^3
#
#
#
# Elastic Constant Matrix: (Units=GPa)
#
#
# Indices 1 2 3 4 5 6 
#
# 1 79.8391 17.2235 40.0958 0.0000 0.0000 0.0000
# 2 17.2235 50.0968 23.4287 0.0000 0.0000 0.0000
# 3 40.0958 23.4287 93.4555 0.0000 0.0000 0.0000
# 4 0.0000 0.0000 0.0000 31.3532 0.0000 0.0000
# 5 0.0000 0.0000 0.0000 0.0000 33.3200 0.0000
# 6 0.0000 0.0000 0.0000 0.0000 0.0000 16.8992
#
#
#
# Elastic Compliance Matrix: (Units=1/GPa)
#
#
# Indices 1 2 3 4 5 6 
#
# 1 0.016267 -0.002638 -0.006318 0.000000 0.000000 0.000000
# 2 -0.002638 0.023040 -0.004644 0.000000 0.000000 0.000000
# 3 -0.006318 -0.004644 0.014575 0.000000 0.000000 0.000000
# 4 0.000000 0.000000 0.000000 0.031895 0.000000 0.000000
# 5 0.000000 0.000000 0.000000 0.000000 0.030012 0.000000
# 6 0.000000 0.000000 0.000000 0.000000 0.000000 0.059174
#
#
# Mechanical properties :
#
#
# Convention : Reuss Voigt Hill
#
# Bulk Modulus (GPa) = 37.47803 42.76529 40.12166
# Shear Modulus (GPa) = 23.69015 25.82404 24.75709
#
# Velocity S-wave (km/s) = 3.45067 3.60273 3.52752
# Velocity P-wave (km/s) = 5.89181 6.22904 6.06277
#
# Compressibility (1/GPa) = 0.02668230
#
# Stress axis : x y z
#
# Youngs Moduli (GPa) = 61.47343 43.40217 68.60989
#
# Poissons Ratio (x) = 0.11450 0.43347
# Poissons Ratio (y) = 0.16217 0.31864
# Poissons Ratio (z) = 0.38838 0.20157
#
# Static dielectric constant tensor:
#      x y z
#    x 3.528740 0.000000 0.000000 
#    y 0.000000 3.620900 0.000000 
#    z 0.000000 0.000000 3.707670 
# 
# 
# High freq. dielectric constant tensor:
#      x y z
#    x 1.773740 0.000000 0.000000 
#    y 0.000000 1.768750 0.000000 
#    z 0.000000 0.000000 1.778790 
# 
# From -- ./inp_files/5533.got.cif
#   From: 2010.03.12/outbox.cif.g09.slc.cpg/sg57_3_cif.got.tgz:5533.got - 2010.04.16 15:48:40.
