data_PCOD8231846
_publ_section_title
;
Structure prediction by ZEFSAII (Michael W. Deem and Ramdas Pophale) SiO2 
 PCOD8231846
Probable space group: P B C M
;
_chemical_formula_sum "Si O2"
_cell_formula_units_Z 48
_cell_length_a 13.875012
_cell_length_b 9.906733
_cell_length_c 17.570666
_cell_angle_alpha 90.000000
_cell_angle_beta 90.000000
_cell_angle_gamma 90.000000
_cell_volume 2415.194155
_symmetry_space_group_name_H-M "P B C M"
_symmetry_group_IT_number 57
_symmetry_cell_setting 'orthorhombic'
loop_
_space_group_symop_operation_xyz
x,y,z
-x,-y,1/2+z
x,1/2-y,-z
-x,1/2+y,1/2-z
-x,-y,-z
x,y,1/2-z
-x,1/2+y,z
x,1/2-y,1/2+z
loop_
_atom_site_type_symbol
_atom_site_label
_atom_site_fract_x
_atom_site_fract_y
_atom_site_fract_z
Si Si1 0.700868 0.534121 0.078058
Si Si2 0.103444 0.124399 0.051259
Si Si3 0.294084 0.515244 0.400630
Si Si4 0.394315 0.230133 0.837554
Si Si5 0.408882 0.729016 0.588489
Si Si6 0.104537 0.873103 0.946147
O O1 0.807934 0.581826 0.107006
O O2 0.624954 0.637279 0.112783
O O3 0.674448 0.382474 0.102991
O O4 0.697330 0.538835 0.986666
O O5 0.000422 0.160146 0.093076
O O6 0.137475 0.250000 0.000000
O O7 0.083948 0.998591 0.998657
O O8 0.313442 0.386496 0.347281
O O9 0.372449 0.628390 0.379015
O O10 0.188579 0.584458 0.386781
O O11 0.398316 0.272240 0.750000
O O12 0.497584 0.176859 0.866420
O O13 0.433208 0.750000 0.500000
O O14 0.140641 0.750000 0.000000
#
# Coordination Sequence:
#
# PCOD8231846 Si02
#       6
#     8   8   8   8   8   8
#     4  10  19  35  57  81 108 137 172 217 267 318
#     4   9  16  27  49  81 112 135 159 202 259 311
#     4  10  19  35  57  80 106 136 172 216 266 317
#     4  12  25  37  51  74 105 143 184 222 263 312
#     4  10  21  36  56  79 103 134 176 222 269 319
#     4   9  16  28  50  83 112 131 161 208 258 309
#
# _framework density 19.874179000000002
#
# number of rings (size 3 to 8) (size 9 to 14) (size 15 to 20)
#    0.000    2.000    0.000    7.000    0.000    5.333 
#    0.000    0.000    0.000    1.000    0.000    2.333 
#    0.000    0.000    0.000    0.000    0.000    0.000 
#
# Total GULP energy -594678.163747 kJ/mol
# GULP energy per Si atom -12389.128411 kJ/mol
# Density = 1.982894 g / cm^3
# Si number density = 19.874179 Si / 1000 Ang^3
#
#
#
# Elastic Constant Matrix: (Units=GPa)
#
#
# Indices 1 2 3 4 5 6 
#
# 1 137.9149 32.4792 32.4049 0.0000 0.0000 0.0000
# 2 32.4792 114.8013 24.7827 0.0000 0.0000 0.0000
# 3 32.4049 24.7827 39.3585 0.0000 0.0000 0.0000
# 4 0.0000 0.0000 0.0000 9.8657 0.0000 0.0000
# 5 0.0000 0.0000 0.0000 0.0000 3.5172 0.0000
# 6 0.0000 0.0000 0.0000 0.0000 0.0000 32.2033
#
#
#
# Elastic Compliance Matrix: (Units=1/GPa)
#
#
# Indices 1 2 3 4 5 6 
#
# 1 0.009110 -0.001109 -0.006803 0.000000 0.000000 0.000000
# 2 -0.001109 0.010216 -0.005520 0.000000 0.000000 0.000000
# 3 -0.006803 -0.005520 0.034484 0.000000 0.000000 0.000000
# 4 0.000000 0.000000 0.000000 0.101362 0.000000 0.000000
# 5 0.000000 0.000000 0.000000 0.000000 0.284317 0.000000
# 6 0.000000 0.000000 0.000000 0.000000 0.000000 0.031053
#
#
# Mechanical properties :
#
#
# Convention : Reuss Voigt Hill
#
# Bulk Modulus (GPa) = 37.10873 52.37870 44.74371
# Shear Modulus (GPa) = 9.87388 22.61109 16.24248
#
# Velocity S-wave (km/s) = 2.23136 3.37666 2.86189
# Velocity P-wave (km/s) = 5.03498 6.45095 5.78644
#
# Compressibility (1/GPa) = 0.02694784
#
# Stress axis : x y z
#
# Youngs Moduli (GPa) = 109.76516 97.88571 28.99917
#
# Poissons Ratio (x) = 0.10855 0.19727
# Poissons Ratio (y) = 0.12173 0.16006
# Poissons Ratio (z) = 0.74668 0.54029
#
# Static dielectric constant tensor:
#      x y z
#    x 4.362330 0.000000 0.000000 
#    y 0.000000 3.674470 0.000000 
#    z 0.000000 0.000000 2.911270 
# 
# 
# High freq. dielectric constant tensor:
#      x y z
#    x 1.800430 0.000000 0.000000 
#    y 0.000000 1.800760 0.000000 
#    z 0.000000 0.000000 1.682230 
# 
# From -- ./inp_files/22488.got.cif
#   From: 2010.03.12/outbox.cif.g09.slc.cpg/sg57_12_cif.got.tgz:22488.got - 2010.04.16 15:48:40.
