data_PCOD8231388
_publ_section_title
;
Structure prediction by ZEFSAII (Michael W. Deem and Ramdas Pophale) SiO2 
 PCOD8231388
Probable space group: P B C M
;
_chemical_formula_sum "Si O2"
_cell_formula_units_Z 64
_cell_length_a 15.837242
_cell_length_b 24.535174
_cell_length_c 9.177657
_cell_angle_alpha 90.000000
_cell_angle_beta 90.000000
_cell_angle_gamma 90.000000
_cell_volume 3566.157483
_symmetry_space_group_name_H-M "P B C M"
_symmetry_group_IT_number 57
_symmetry_cell_setting 'orthorhombic'
loop_
_space_group_symop_operation_xyz
x,y,z
-x,-y,1/2+z
x,1/2-y,-z
-x,1/2+y,1/2-z
-x,-y,-z
x,y,1/2-z
-x,1/2+y,z
x,1/2-y,1/2+z
loop_
_atom_site_type_symbol
_atom_site_label
_atom_site_fract_x
_atom_site_fract_y
_atom_site_fract_z
Si Si1 0.650456 0.595446 0.922349
Si Si2 0.105139 0.695246 0.419939
Si Si3 0.016743 0.446709 0.090156
Si Si4 0.479306 0.553015 0.914786
Si Si5 0.833043 0.400628 0.089213
Si Si6 0.076227 0.351529 0.583029
Si Si7 0.256483 0.305744 0.578408
Si Si8 0.304329 0.516279 0.580373
O O1 0.670683 0.599993 0.750000
O O2 0.548329 0.599761 0.954864
O O3 0.692154 0.644737 0.008715
O O4 0.685363 0.537584 0.982182
O O5 0.130972 0.750000 0.500000
O O6 0.119600 0.702595 0.250000
O O7 0.170541 0.649410 0.476790
O O8 0.007599 0.682078 0.457128
O O9 0.052818 0.461525 0.250000
O O10 0.929705 0.415698 0.104901
O O11 0.000000 0.500000 0.000000
O O12 0.083378 0.407003 0.010600
O O13 0.496713 0.537281 0.750000
O O14 0.379206 0.562204 0.941737
O O15 0.500000 0.500000 0.000000
O O16 0.798286 0.383842 0.250000
O O17 0.780075 0.452293 0.029684
O O18 0.073778 0.370456 0.750000
O O19 0.157019 0.314375 0.549689
O O20 0.284277 0.250000 0.500000
O O21 0.276693 0.302069 0.750000
O O22 0.299183 0.498007 0.750000
#
# Coordination Sequence:
#
# PCOD8231388 Si02
#       8
#     8   8   8   8   8   8   8   8
#     4  10  20  33  51  78 107 135 168 207 256 310
#     4  10  19  33  53  73  96 127 165 209 253 298
#     4  10  20  32  47  69 101 138 171 207 250 300
#     4   8  15  29  50  75 102 130 161 197 239 293
#     4   9  19  33  49  72 100 131 167 205 248 296
#     4   9  20  36  52  71  95 129 172 214 256 301
#     4  11  23  38  55  75 102 135 175 220 262 310
#     4   9  17  32  54  78 105 137 170 208 255 303
#
# _framework density 17.946489
#
# number of rings (size 3 to 8) (size 9 to 14) (size 15 to 20)
#    0.000    2.500    0.000    1.875    1.750    3.000 
#    0.000    0.000    0.000    0.750    0.000    0.000 
#    0.000    0.000    0.000    0.000    0.000    0.000 
#
# Total GULP energy -793012.407621 kJ/mol
# GULP energy per Si atom -12390.818869 kJ/mol
# Density = 1.790564 g / cm^3
# Si number density = 17.946489 Si / 1000 Ang^3
#
#
#
# Elastic Constant Matrix: (Units=GPa)
#
#
# Indices 1 2 3 4 5 6 
#
# 1 58.4745 32.6589 28.0960 0.0000 0.0000 0.0000
# 2 32.6589 114.9832 64.1217 0.0000 0.0000 0.0000
# 3 28.0960 64.1217 101.2296 0.0000 0.0000 0.0000
# 4 0.0000 0.0000 0.0000 35.5284 0.0000 0.0000
# 5 0.0000 0.0000 0.0000 0.0000 21.8223 0.0000
# 6 0.0000 0.0000 0.0000 0.0000 0.0000 21.0066
#
#
#
# Elastic Compliance Matrix: (Units=1/GPa)
#
#
# Indices 1 2 3 4 5 6 
#
# 1 0.020962 -0.004189 -0.003164 0.000000 0.000000 0.000000
# 2 -0.004189 0.014284 -0.007885 0.000000 0.000000 0.000000
# 3 -0.003164 -0.007885 0.015752 0.000000 0.000000 0.000000
# 4 0.000000 0.000000 0.000000 0.028147 0.000000 0.000000
# 5 0.000000 0.000000 0.000000 0.000000 0.045825 0.000000
# 6 0.000000 0.000000 0.000000 0.000000 0.000000 0.047604
#
#
# Mechanical properties :
#
#
# Convention : Reuss Voigt Hill
#
# Bulk Modulus (GPa) = 48.73349 58.27115 53.50232
# Shear Modulus (GPa) = 23.82201 25.65882 24.74042
#
# Velocity S-wave (km/s) = 3.64729 3.78529 3.71693
# Velocity P-wave (km/s) = 6.70454 7.18641 6.94965
#
# Compressibility (1/GPa) = 0.02051977
#
# Stress axis : x y z
#
# Youngs Moduli (GPa) = 47.70633 70.00804 63.48594
#
# Poissons Ratio (x) = 0.29327 0.20089
# Poissons Ratio (y) = 0.19985 0.50060
# Poissons Ratio (z) = 0.15096 0.55203
#
# Static dielectric constant tensor:
#      x y z
#    x 3.992410 0.000000 0.000000 
#    y 0.000000 2.858430 0.000000 
#    z 0.000000 0.000000 3.512460 
# 
# 
# High freq. dielectric constant tensor:
#      x y z
#    x 1.682480 0.000000 0.000000 
#    y 0.000000 1.674680 0.000000 
#    z 0.000000 0.000000 1.706840 
# 
# From -- ./inp_files/5662.got.cif
#   From: 2010.03.12/outbox.cif.g09.slc.cpg/sg57_3_cif.got.tgz:5662.got - 2010.04.16 15:48:40.
