data_PCOD8231712
_publ_section_title
;
Structure prediction by ZEFSAII (Michael W. Deem and Ramdas Pophale) SiO2 
 PCOD8231712
Probable space group: P B C M
;
_chemical_formula_sum "Si O2"
_cell_formula_units_Z 48
_cell_length_a 31.384826
_cell_length_b 9.141435
_cell_length_c 8.703358
_cell_angle_alpha 90.000000
_cell_angle_beta 90.000000
_cell_angle_gamma 90.000000
_cell_volume 2497.013836
_symmetry_space_group_name_H-M "P B C M"
_symmetry_group_IT_number 57
_symmetry_cell_setting 'orthorhombic'
loop_
_space_group_symop_operation_xyz
x,y,z
-x,-y,1/2+z
x,1/2-y,-z
-x,1/2+y,1/2-z
-x,-y,-z
x,y,1/2-z
-x,1/2+y,z
x,1/2-y,1/2+z
loop_
_atom_site_type_symbol
_atom_site_label
_atom_site_fract_x
_atom_site_fract_y
_atom_site_fract_z
Si Si1 0.707569 0.594134 0.572135
Si Si2 0.200548 0.089175 0.568094
Si Si3 0.615075 0.587680 0.931807
Si Si4 0.538859 0.089731 0.567658
Si Si5 0.038747 0.410432 0.431590
Si Si6 0.121173 0.908369 0.568982
O O1 0.704008 0.750000 0.500000
O O2 0.711119 0.622416 0.750000
O O3 0.752642 0.521232 0.519468
O O4 0.662328 0.515921 0.534934
O O5 0.194084 0.250000 0.500000
O O6 0.195589 0.102945 0.750000
O O7 0.164614 0.980294 0.502710
O O8 0.605296 0.593285 0.750000
O O9 0.610661 0.750000 0.000000
O O10 0.583008 0.482216 0.018139
O O11 0.536350 0.250000 0.500000
O O12 0.535467 0.095126 0.750000
O O13 0.500000 0.000000 0.500000
O O14 0.038985 0.250000 0.500000
O O15 0.033663 0.401349 0.250000
O O16 0.082255 0.489216 0.481462
O O17 0.000000 0.500000 0.500000
O O18 0.114184 0.750000 0.500000
O O19 0.123502 0.891383 0.750000
#
# Coordination Sequence:
#
# PCOD8231712 Si02
#       6
#     8   8   8   8   8   8
#     4   8  15  28  50  77 108 141 177 219 264 313
#     4   9  17  32  53  79 107 139 179 224 268 316
#     4  10  19  34  56  84 114 147 183 223 269 321
#     4  12  25  42  61  83 110 143 181 224 271 323
#     4  11  23  39  59  84 111 143 180 224 273 327
#     4  10  22  37  54  77 108 143 182 224 271 322
#
# _framework density 19.222961999999999
#
# number of rings (size 3 to 8) (size 9 to 14) (size 15 to 20)
#    0.000    2.000    0.000    4.000    0.000    4.000 
#    0.000    0.833    0.000    2.000    0.000    0.000 
#    0.000    0.000    0.000    0.000    0.000    0.000 
#
# Total GULP energy -594814.226971 kJ/mol
# GULP energy per Si atom -12391.963062 kJ/mol
# Density = 1.917921 g / cm^3
# Si number density = 19.222962 Si / 1000 Ang^3
#
#
#
# Elastic Constant Matrix: (Units=GPa)
#
#
# Indices 1 2 3 4 5 6 
#
# 1 191.6567 89.5025 64.4435 0.0000 0.0000 0.0000
# 2 89.5025 139.3332 49.0929 0.0000 0.0000 0.0000
# 3 64.4435 49.0929 80.2532 0.0000 0.0000 0.0000
# 4 0.0000 0.0000 0.0000 32.6611 0.0000 0.0000
# 5 0.0000 0.0000 0.0000 0.0000 28.0365 0.0000
# 6 0.0000 0.0000 0.0000 0.0000 0.0000 31.2173
#
#
#
# Elastic Compliance Matrix: (Units=1/GPa)
#
#
# Indices 1 2 3 4 5 6 
#
# 1 0.008550 -0.003917 -0.004469 0.000000 0.000000 0.000000
# 2 -0.003917 0.010944 -0.003549 0.000000 0.000000 0.000000
# 3 -0.004469 -0.003549 0.018220 0.000000 0.000000 0.000000
# 4 0.000000 0.000000 0.000000 0.030617 0.000000 0.000000
# 5 0.000000 0.000000 0.000000 0.000000 0.035668 0.000000
# 6 0.000000 0.000000 0.000000 0.000000 0.000000 0.032034
#
#
# Mechanical properties :
#
#
# Convention : Reuss Voigt Hill
#
# Bulk Modulus (GPa) = 72.23892 90.81344 81.52618
# Shear Modulus (GPa) = 30.39182 32.26326 31.32754
#
# Velocity S-wave (km/s) = 3.98051 4.10124 4.04133
# Velocity P-wave (km/s) = 7.66727 8.35294 8.01744
#
# Compressibility (1/GPa) = 0.01384295
#
# Stress axis : x y z
#
# Youngs Moduli (GPa) = 116.96199 91.37521 54.88393
#
# Poissons Ratio (x) = 0.35795 0.24528
# Poissons Ratio (y) = 0.45819 0.19478
# Poissons Ratio (z) = 0.52272 0.32429
#
# Static dielectric constant tensor:
#      x y z
#    x 4.445780 0.000000 0.000000 
#    y 0.000000 4.891510 0.000000 
#    z 0.000000 0.000000 3.591510 
# 
# 
# High freq. dielectric constant tensor:
#      x y z
#    x 1.781520 0.000000 0.000000 
#    y 0.000000 1.724400 0.000000 
#    z 0.000000 0.000000 1.752130 
# 
# From -- ./inp_files/10055.got.cif
#   From: 2010.03.12/outbox.cif.g09.slc.cpg/sg57_6_cif.got.tgz:10055.got - 2010.04.16 15:48:40.
