data_PCOD8231214
_publ_section_title
;
Structure prediction by ZEFSAII (Michael W. Deem and Ramdas Pophale) SiO2 
 PCOD8231214
Probable space group: P B C M
;
_chemical_formula_sum "Si O2"
_cell_formula_units_Z 64
_cell_length_a 14.792046
_cell_length_b 29.378042
_cell_length_c 8.833721
_cell_angle_alpha 90.000000
_cell_angle_beta 90.000000
_cell_angle_gamma 90.000000
_cell_volume 3838.793711
_symmetry_space_group_name_H-M "P B C M"
_symmetry_group_IT_number 57
_symmetry_cell_setting 'orthorhombic'
loop_
_space_group_symop_operation_xyz
x,y,z
-x,-y,1/2+z
x,1/2-y,-z
-x,1/2+y,1/2-z
-x,-y,-z
x,y,1/2-z
-x,1/2+y,z
x,1/2-y,1/2+z
loop_
_atom_site_type_symbol
_atom_site_label
_atom_site_fract_x
_atom_site_fract_y
_atom_site_fract_z
Si Si1 0.326095 0.037157 0.928862
Si Si2 0.796840 0.118204 0.924914
Si Si3 0.119851 0.465559 0.075943
Si Si4 0.284747 0.704348 0.428136
Si Si5 0.541272 0.894735 0.928672
Si Si6 0.627403 0.443484 0.073046
Si Si7 0.510587 0.204490 0.426975
Si Si8 0.949589 0.433708 0.576026
O O1 0.335334 0.029305 0.750000
O O2 0.222070 0.042935 0.977460
O O3 0.376832 0.082678 0.980247
O O4 0.372109 0.995017 0.014242
O O5 0.797179 0.131490 0.750000
O O6 0.724760 0.078503 0.959226
O O7 0.775155 0.162338 0.021359
O O8 0.895876 0.102205 0.974532
O O9 0.105795 0.452091 0.250000
O O10 0.096466 0.517857 0.047589
O O11 0.054021 0.434161 0.975722
O O12 0.243181 0.750000 0.500000
O O13 0.281120 0.708468 0.250000
O O14 0.387257 0.697615 0.487796
O O15 0.551929 0.902924 0.750000
O O16 0.545074 0.840951 0.968919
O O17 0.446093 0.915214 0.980647
O O18 0.602035 0.443175 0.250000
O O19 0.466726 0.250000 0.500000
O O20 0.511490 0.212589 0.250000
O O21 0.944303 0.418928 0.750000
#
# Coordination Sequence:
#
# PCOD8231214 Si02
#       8
#     8   8   8   8   8   8   8   8
#     4  11  22  36  52  71 100 137 174 213 253 296
#     4  11  21  32  50  75 103 135 172 208 250 302
#     4   9  19  34  50  71  99 129 165 208 252 297
#     4  10  19  33  51  73 101 132 168 207 254 302
#     4  11  22  36  51  72 101 135 172 210 253 300
#     4  11  22  34  49  71 100 138 177 211 245 293
#     4   9  19  33  51  72  97 128 163 208 253 296
#     4  10  19  32  52  74  98 129 165 206 251 299
#
# _framework density 16.671904000000001
#
# number of rings (size 3 to 8) (size 9 to 14) (size 15 to 20)
#    0.000    1.750    2.500    2.625    0.000    4.000 
#    0.000    0.000    0.000    0.000    0.000    0.875 
#    0.000    4.000    0.000    0.000    0.000    0.000 
#
# Total GULP energy -793804.464364 kJ/mol
# GULP energy per Si atom -12403.194756 kJ/mol
# Density = 1.663396 g / cm^3
# Si number density = 16.671904 Si / 1000 Ang^3
#
#
#
# Elastic Constant Matrix: (Units=GPa)
#
#
# Indices 1 2 3 4 5 6 
#
# 1 66.7606 31.8947 23.9484 0.0000 0.0000 0.0000
# 2 31.8947 93.3003 29.4092 0.0000 0.0000 0.0000
# 3 23.9484 29.4092 53.0082 0.0000 0.0000 0.0000
# 4 0.0000 0.0000 0.0000 30.5043 0.0000 0.0000
# 5 0.0000 0.0000 0.0000 0.0000 26.2730 0.0000
# 6 0.0000 0.0000 0.0000 0.0000 0.0000 9.1872
#
#
#
# Elastic Compliance Matrix: (Units=1/GPa)
#
#
# Indices 1 2 3 4 5 6 
#
# 1 0.019439 -0.004699 -0.006175 0.000000 0.000000 0.000000
# 2 -0.004699 0.014125 -0.005714 0.000000 0.000000 0.000000
# 3 -0.006175 -0.005714 0.024825 0.000000 0.000000 0.000000
# 4 0.000000 0.000000 0.000000 0.032782 0.000000 0.000000
# 5 0.000000 0.000000 0.000000 0.000000 0.038062 0.000000
# 6 0.000000 0.000000 0.000000 0.000000 0.000000 0.108847
#
#
# Mechanical properties :
#
#
# Convention : Reuss Voigt Hill
#
# Bulk Modulus (GPa) = 39.66168 42.61931 41.14050
# Shear Modulus (GPa) = 17.87879 21.71402 19.79641
#
# Velocity S-wave (km/s) = 3.27829 3.61284 3.44962
# Velocity P-wave (km/s) = 6.17825 6.55915 6.37155
#
# Compressibility (1/GPa) = 0.02521325
#
# Stress axis : x y z
#
# Youngs Moduli (GPa) = 51.44321 70.79421 40.28170
#
# Poissons Ratio (x) = 0.33264 0.24876
# Poissons Ratio (y) = 0.24171 0.23017
# Poissons Ratio (z) = 0.31768 0.40452
#
# Static dielectric constant tensor:
#      x y z
#    x 3.039130 0.000000 0.000000 
#    y 0.000000 3.122560 0.000000 
#    z 0.000000 0.000000 3.184980 
# 
# 
# High freq. dielectric constant tensor:
#      x y z
#    x 1.621210 0.000000 0.000000 
#    y 0.000000 1.629730 0.000000 
#    z 0.000000 0.000000 1.656040 
# 
# From -- ./inp_files/5960.got.cif
#   From: 2010.03.12/outbox.cif.g09.slc.cpg/sg57_3_cif.got.tgz:5960.got - 2010.04.16 15:48:40.
