data_PCOD8231764
_publ_section_title
;
Structure prediction by ZEFSAII (Michael W. Deem and Ramdas Pophale) SiO2 
 PCOD8231764
Probable space group: P B C M
;
_chemical_formula_sum "Si O2"
_cell_formula_units_Z 64
_cell_length_a 11.707255
_cell_length_b 15.390371
_cell_length_c 17.286862
_cell_angle_alpha 90.000000
_cell_angle_beta 90.000000
_cell_angle_gamma 90.000000
_cell_volume 3114.729471
_symmetry_space_group_name_H-M "P B C M"
_symmetry_group_IT_number 57
_symmetry_cell_setting 'orthorhombic'
loop_
_space_group_symop_operation_xyz
x,y,z
-x,-y,1/2+z
x,1/2-y,-z
-x,1/2+y,1/2-z
-x,-y,-z
x,y,1/2-z
-x,1/2+y,z
x,1/2-y,1/2+z
loop_
_atom_site_type_symbol
_atom_site_label
_atom_site_fract_x
_atom_site_fract_y
_atom_site_fract_z
Si Si1 0.216854 0.324451 0.552892
Si Si2 0.819346 0.092853 0.337533
Si Si3 0.611757 0.211257 0.340632
Si Si4 0.978376 0.709999 0.333921
Si Si5 0.088294 0.615573 0.836199
Si Si6 0.659991 0.401688 0.158190
Si Si7 0.405125 0.407982 0.658200
Si Si8 0.905043 0.541236 0.553867
O O1 0.276033 0.250000 0.500000
O O2 0.111222 0.279542 0.597316
O O3 0.298001 0.364651 0.617013
O O4 0.174213 0.397912 0.496154
O O5 0.788486 0.060367 0.250000
O O6 0.733386 0.169765 0.362036
O O7 0.952318 0.120443 0.341298
O O8 0.811933 0.019786 0.403400
O O9 0.592941 0.217437 0.250000
O O10 0.604345 0.311012 0.374352
O O11 0.514987 0.145090 0.372926
O O12 0.915533 0.714216 0.250000
O O13 0.080152 0.780390 0.336410
O O14 0.081739 0.576220 0.750000
O O15 0.209795 0.588182 0.874551
O O16 0.974789 0.587621 0.879233
O O17 0.670640 0.391468 0.250000
O O18 0.587661 0.488447 0.136013
O O19 0.388158 0.399348 0.750000
O O20 0.000000 0.500000 0.500000
#
# Coordination Sequence:
#
# PCOD8231764 Si02
#       8
#     8   8   8   8   8   8   8   8
#     4  12  24  41  57  81 129 168 198 245 309 373
#     4  10  20  37  61  91 120 152 201 257 306 357
#     4   9  18  38  66  92 119 152 203 268 309 344
#     4  10  19  35  60  85 114 156 202 249 302 363
#     4  10  19  34  57  87 119 156 205 251 294 360
#     4   9  17  33  61  93 118 149 199 258 306 350
#     4  10  22  41  66  92 118 158 213 258 305 366
#     4  12  23  35  55  85 127 166 196 241 309 370
#
# _framework density 20.547530999999999
#
# number of rings (size 3 to 8) (size 9 to 14) (size 15 to 20)
#    0.000    1.750    3.750    1.500    0.000    0.000 
#    2.250    0.625    2.750    0.000    0.000    0.000 
#    0.000    0.000    0.000    0.000    0.000    0.000 
#
# Total GULP energy -792998.652001 kJ/mol
# GULP energy per Si atom -12390.603938 kJ/mol
# Density = 2.050076 g / cm^3
# Si number density = 20.547531 Si / 1000 Ang^3
#
#
#
# Elastic Constant Matrix: (Units=GPa)
#
#
# Indices 1 2 3 4 5 6 
#
# 1 82.4181 48.7867 23.7986 0.0000 0.0000 0.0000
# 2 48.7867 123.0839 39.3433 0.0000 0.0000 0.0000
# 3 23.7986 39.3433 66.0516 0.0000 0.0000 0.0000
# 4 0.0000 0.0000 0.0000 24.3304 0.0000 0.0000
# 5 0.0000 0.0000 0.0000 0.0000 12.6357 0.0000
# 6 0.0000 0.0000 0.0000 0.0000 0.0000 29.6196
#
#
#
# Elastic Compliance Matrix: (Units=1/GPa)
#
#
# Indices 1 2 3 4 5 6 
#
# 1 0.016175 -0.005618 -0.002482 0.000000 0.000000 0.000000
# 2 -0.005618 0.011987 -0.005115 0.000000 0.000000 0.000000
# 3 -0.002482 -0.005115 0.019081 0.000000 0.000000 0.000000
# 4 0.000000 0.000000 0.000000 0.041101 0.000000 0.000000
# 5 0.000000 0.000000 0.000000 0.000000 0.079141 0.000000
# 6 0.000000 0.000000 0.000000 0.000000 0.000000 0.033761
#
#
# Mechanical properties :
#
#
# Convention : Reuss Voigt Hill
#
# Bulk Modulus (GPa) = 48.04860 55.04563 51.54712
# Shear Modulus (GPa) = 21.31160 23.95881 22.63520
#
# Velocity S-wave (km/s) = 3.22403 3.41841 3.32264
# Velocity P-wave (km/s) = 6.10689 6.51370 6.31357
#
# Compressibility (1/GPa) = 0.02081226
#
# Stress axis : x y z
#
# Youngs Moduli (GPa) = 61.82190 83.42663 52.40866
#
# Poissons Ratio (x) = 0.46871 0.13006
# Poissons Ratio (y) = 0.34733 0.26810
# Poissons Ratio (z) = 0.15342 0.42677
#
# Static dielectric constant tensor:
#      x y z
#    x 3.577070 0.000000 0.000000 
#    y 0.000000 4.083910 0.000000 
#    z 0.000000 0.000000 3.783620 
# 
# 
# High freq. dielectric constant tensor:
#      x y z
#    x 1.780590 0.000000 0.000000 
#    y 0.000000 1.814060 0.000000 
#    z 0.000000 0.000000 1.783340 
# 
# From -- ./inp_files/22043.got.cif
#   From: 2010.03.12/outbox.cif.g09.slc.cpg/sg57_12_cif.got.tgz:22043.got - 2010.04.16 15:48:40.
