data_PCOD8231464
_publ_section_title
;
Structure prediction by ZEFSAII (Michael W. Deem and Ramdas Pophale) SiO2 
 PCOD8231464
Probable space group: P B C M
;
_chemical_formula_sum "Si O2"
_cell_formula_units_Z 48
_cell_length_a 8.803947
_cell_length_b 29.746085
_cell_length_c 9.625074
_cell_angle_alpha 90.000000
_cell_angle_beta 90.000000
_cell_angle_gamma 90.000000
_cell_volume 2520.642829
_symmetry_space_group_name_H-M "P B C M"
_symmetry_group_IT_number 57
_symmetry_cell_setting 'orthorhombic'
loop_
_space_group_symop_operation_xyz
x,y,z
-x,-y,1/2+z
x,1/2-y,-z
-x,1/2+y,1/2-z
-x,-y,-z
x,y,1/2-z
-x,1/2+y,z
x,1/2-y,1/2+z
loop_
_atom_site_type_symbol
_atom_site_label
_atom_site_fract_x
_atom_site_fract_y
_atom_site_fract_z
Si Si1 0.188423 0.470490 0.598656
Si Si2 0.657191 0.599260 0.911716
Si Si3 0.959027 0.648957 0.596404
Si Si4 0.122002 0.935014 0.502849
Si Si5 0.618651 0.375087 0.597350
Si Si6 0.835801 0.293790 0.588061
O O1 0.255435 0.458301 0.750000
O O2 0.292156 0.447469 0.481919
O O3 0.194925 0.524181 0.582982
O O4 0.014444 0.453730 0.597099
O O5 0.630547 0.589327 0.750000
O O6 0.784094 0.637374 0.936158
O O7 0.502604 0.617200 0.977221
O O8 0.974133 0.670780 0.750000
O O9 0.056889 0.603083 0.599877
O O10 0.014083 0.683431 0.478513
O O11 0.252162 0.913352 0.597779
O O12 0.541787 0.376174 0.750000
O O13 0.692861 0.326542 0.571178
O O14 0.794223 0.250000 0.500000
O O15 0.868860 0.282879 0.750000
#
# Coordination Sequence:
#
# PCOD8231464 Si02
#       6
#     8   8   8   8   8   8
#     4  10  19  33  54  77 105 142 185 228 268 312
#     4  10  22  36  52  77 109 145 180 217 263 312
#     4   9  18  35  56  78 106 138 174 216 262 312
#     4   9  19  32  53  80 105 137 182 228 270 311
#     4  10  21  37  56  78 107 142 178 216 263 317
#     4  10  21  37  60  87 108 132 169 213 261 316
#
# _framework density 19.042760000000001
#
# number of rings (size 3 to 8) (size 9 to 14) (size 15 to 20)
#    0.000    2.333    0.000    2.000    0.000   14.000 
#    0.000    0.833    0.000    2.000    0.000    0.000 
#    0.000    0.000    0.000    0.000    0.000    0.000 
#
# Total GULP energy -595139.254215 kJ/mol
# GULP energy per Si atom -12398.734463 kJ/mol
# Density = 1.899942 g / cm^3
# Si number density = 19.042760 Si / 1000 Ang^3
#
#
#
# Elastic Constant Matrix: (Units=GPa)
#
#
# Indices 1 2 3 4 5 6 
#
# 1 78.9003 42.5554 49.7202 0.0000 0.0000 0.0000
# 2 42.5554 107.1969 63.0630 0.0000 0.0000 0.0000
# 3 49.7202 63.0630 154.9047 0.0000 0.0000 0.0000
# 4 0.0000 0.0000 0.0000 23.8869 0.0000 0.0000
# 5 0.0000 0.0000 0.0000 0.0000 26.6549 0.0000
# 6 0.0000 0.0000 0.0000 0.0000 0.0000 14.9908
#
#
#
# Elastic Compliance Matrix: (Units=1/GPa)
#
#
# Indices 1 2 3 4 5 6 
#
# 1 0.017595 -0.004816 -0.003687 0.000000 0.000000 0.000000
# 2 -0.004816 0.013585 -0.003985 0.000000 0.000000 0.000000
# 3 -0.003687 -0.003985 0.009261 0.000000 0.000000 0.000000
# 4 0.000000 0.000000 0.000000 0.041864 0.000000 0.000000
# 5 0.000000 0.000000 0.000000 0.000000 0.037516 0.000000
# 6 0.000000 0.000000 0.000000 0.000000 0.000000 0.066708
#
#
# Mechanical properties :
#
#
# Convention : Reuss Voigt Hill
#
# Bulk Modulus (GPa) = 64.65862 72.40879 68.53371
# Shear Modulus (GPa) = 23.07772 25.48408 24.28090
#
# Velocity S-wave (km/s) = 3.48500 3.66219 3.57469
# Velocity P-wave (km/s) = 7.08673 7.48258 7.28734
#
# Compressibility (1/GPa) = 0.01546584
#
# Stress axis : x y z
#
# Youngs Moduli (GPa) = 56.83395 73.61276 107.97782
#
# Poissons Ratio (x) = 0.35452 0.39811
# Poissons Ratio (y) = 0.27371 0.43025
# Poissons Ratio (z) = 0.20954 0.29332
#
# Static dielectric constant tensor:
#      x y z
#    x 3.328930 0.000000 0.000000 
#    y 0.000000 3.412920 0.000000 
#    z 0.000000 0.000000 3.532420 
# 
# 
# High freq. dielectric constant tensor:
#      x y z
#    x 1.724730 0.000000 0.000000 
#    y 0.000000 1.729860 0.000000 
#    z 0.000000 0.000000 1.750230 
# 
# From -- ./inp_files/2096.got.cif
#   From: 2010.03.12/outbox.cif.g09.slc.cpg/sg57_2_cif.got.tgz:2096.got - 2010.04.16 15:48:40.
