data_PCOD8231563
_publ_section_title
;
Structure prediction by ZEFSAII (Michael W. Deem and Ramdas Pophale) SiO2 
 PCOD8231563
Probable space group: P B C M
;
_chemical_formula_sum "Si O2"
_cell_formula_units_Z 64
_cell_length_a 18.815754
_cell_length_b 19.729274
_cell_length_c 9.319360
_cell_angle_alpha 90.000000
_cell_angle_beta 90.000000
_cell_angle_gamma 90.000000
_cell_volume 3459.543687
_symmetry_space_group_name_H-M "P B C M"
_symmetry_group_IT_number 57
_symmetry_cell_setting 'orthorhombic'
loop_
_space_group_symop_operation_xyz
x,y,z
-x,-y,1/2+z
x,1/2-y,-z
-x,1/2+y,1/2-z
-x,-y,-z
x,y,1/2-z
-x,1/2+y,z
x,1/2-y,1/2+z
loop_
_atom_site_type_symbol
_atom_site_label
_atom_site_fract_x
_atom_site_fract_y
_atom_site_fract_z
Si Si1 0.056666 0.090079 0.585664
Si Si2 0.079660 0.568093 0.084900
Si Si3 0.716339 0.553747 0.582400
Si Si4 0.678433 0.185245 0.583650
Si Si5 0.517170 0.313564 0.084260
Si Si6 0.553046 0.951679 0.083178
Si Si7 0.191422 0.320140 0.416353
Si Si8 0.783881 0.066558 0.580882
O O1 0.034062 0.104094 0.750000
O O2 0.119985 0.139912 0.537240
O O3 0.990547 0.102843 0.480536
O O4 0.081032 0.012773 0.568769
O O5 0.086033 0.590612 0.250000
O O6 0.145639 0.596144 0.993452
O O7 0.728974 0.536447 0.750000
O O8 0.634846 0.540853 0.537005
O O9 0.740722 0.631194 0.552525
O O10 0.764631 0.505695 0.485926
O O11 0.709343 0.250000 0.500000
O O12 0.684706 0.202570 0.750000
O O13 0.597695 0.170276 0.535833
O O14 0.721462 0.118479 0.543252
O O15 0.514353 0.295283 0.250000
O O16 0.467492 0.375609 0.044040
O O17 0.485666 0.250000 0.000000
O O18 0.542294 0.967088 0.250000
O O19 0.500000 0.000000 0.000000
O O20 0.199974 0.250000 0.500000
O O21 0.187714 0.301407 0.250000
O O22 0.796536 0.058123 0.750000
#
# Coordination Sequence:
#
# PCOD8231563 Si02
#       8
#     8   8   8   8   8   8   8   8
#     4   9  18  35  55  78 109 142 179 225 269 320
#     4  10  19  33  56  83 110 140 178 222 270 325
#     4  10  21  38  56  79 111 148 187 228 279 335
#     4   9  19  34  52  75 105 138 176 220 269 326
#     4   9  18  34  53  75 102 137 178 221 269 324
#     4  10  21  36  56  80 111 145 180 229 284 334
#     4  10  21  38  57  80 114 151 191 235 282 332
#     4  11  21  34  55  83 112 143 181 228 274 325
#
# _framework density 18.499548999999998
#
# number of rings (size 3 to 8) (size 9 to 14) (size 15 to 20)
#    0.000    2.250    1.250    1.500    0.000    5.000 
#    0.000    3.125    0.000    0.000    0.000    0.000 
#    0.000    0.000    0.000    0.000    0.000    0.000 
#
# Total GULP energy -793650.657518 kJ/mol
# GULP energy per Si atom -12400.791524 kJ/mol
# Density = 1.845744 g / cm^3
# Si number density = 18.499549 Si / 1000 Ang^3
#
#
#
# Elastic Constant Matrix: (Units=GPa)
#
#
# Indices 1 2 3 4 5 6 
#
# 1 105.5836 35.5439 50.6253 0.0000 0.0000 0.0000
# 2 35.5439 69.5523 39.2986 0.0000 0.0000 0.0000
# 3 50.6253 39.2986 74.2962 0.0000 0.0000 0.0000
# 4 0.0000 0.0000 0.0000 35.4240 0.0000 0.0000
# 5 0.0000 0.0000 0.0000 0.0000 28.5629 0.0000
# 6 0.0000 0.0000 0.0000 0.0000 0.0000 24.3751
#
#
#
# Elastic Compliance Matrix: (Units=1/GPa)
#
#
# Indices 1 2 3 4 5 6 
#
# 1 0.014386 -0.002586 -0.008435 0.000000 0.000000 0.000000
# 2 -0.002586 0.020971 -0.009331 0.000000 0.000000 0.000000
# 3 -0.008435 -0.009331 0.024142 0.000000 0.000000 0.000000
# 4 0.000000 0.000000 0.000000 0.028229 0.000000 0.000000
# 5 0.000000 0.000000 0.000000 0.000000 0.035010 0.000000
# 6 0.000000 0.000000 0.000000 0.000000 0.000000 0.041025
#
#
# Mechanical properties :
#
#
# Convention : Reuss Voigt Hill
#
# Bulk Modulus (GPa) = 53.19978 55.59641 54.39810
# Shear Modulus (GPa) = 23.72668 25.93668 24.83168
#
# Velocity S-wave (km/s) = 3.58516 3.74841 3.66770
# Velocity P-wave (km/s) = 6.77920 6.98944 6.88512
#
# Compressibility (1/GPa) = 0.01879707
#
# Stress axis : x y z
#
# Youngs Moduli (GPa) = 69.51181 47.68452 41.42084
#
# Poissons Ratio (x) = 0.12331 0.34938
# Poissons Ratio (y) = 0.17976 0.38648
# Poissons Ratio (z) = 0.58632 0.44492
#
# Static dielectric constant tensor:
#      x y z
#    x 3.520290 0.000000 0.000000 
#    y 0.000000 3.233400 0.000000 
#    z 0.000000 0.000000 3.367150 
# 
# 
# High freq. dielectric constant tensor:
#      x y z
#    x 1.724950 0.000000 0.000000 
#    y 0.000000 1.703290 0.000000 
#    z 0.000000 0.000000 1.716860 
# 
# From -- ./inp_files/7247.got.cif
#   From: 2010.03.12/outbox.cif.g09.slc.cpg/sg57_4_cif.got.tgz:7247.got - 2010.04.16 15:48:40.
