data_PCOD8231887
_publ_section_title
;
Structure prediction by ZEFSAII (Michael W. Deem and Ramdas Pophale) SiO2 
 PCOD8231887
Probable space group: P B C M
;
_chemical_formula_sum "Si O2"
_cell_formula_units_Z 64
_cell_length_a 23.490080
_cell_length_b 14.785547
_cell_length_c 9.099236
_cell_angle_alpha 90.000000
_cell_angle_beta 90.000000
_cell_angle_gamma 90.000000
_cell_volume 3160.289157
_symmetry_space_group_name_H-M "P B C M"
_symmetry_group_IT_number 57
_symmetry_cell_setting 'orthorhombic'
loop_
_space_group_symop_operation_xyz
x,y,z
-x,-y,1/2+z
x,1/2-y,-z
-x,1/2+y,1/2-z
-x,-y,-z
x,y,1/2-z
-x,1/2+y,z
x,1/2-y,1/2+z
loop_
_atom_site_type_symbol
_atom_site_label
_atom_site_fract_x
_atom_site_fract_y
_atom_site_fract_z
Si Si1 0.609967 0.169195 0.090764
Si Si2 0.254725 0.024883 0.420586
Si Si3 0.873515 0.971527 0.583419
Si Si4 0.653880 0.847775 0.074450
Si Si5 0.045897 0.340139 0.077759
Si Si6 0.559649 0.513217 0.922607
Si Si7 0.083395 0.837786 0.419369
Si Si8 0.257885 0.664247 0.085422
O O1 0.580529 0.172984 0.250000
O O2 0.676248 0.186716 0.105217
O O3 0.598538 0.070505 0.022176
O O4 0.580634 0.250000 0.000000
O O5 0.274200 0.018606 0.250000
O O6 0.294967 0.091881 0.511073
O O7 0.190784 0.064456 0.431481
O O8 0.252508 0.925870 0.490324
O O9 0.896073 0.957755 0.750000
O O10 0.875793 0.078150 0.543164
O O11 0.914632 0.922036 0.471288
O O12 0.661926 0.839595 0.250000
O O13 0.593645 0.895494 0.034091
O O14 0.654740 0.750000 0.000000
O O15 0.052147 0.326992 0.250000
O O16 0.981078 0.360531 0.029233
O O17 0.068662 0.250000 0.000000
O O18 0.549263 0.512350 0.750000
O O19 0.500000 0.500000 0.000000
O O20 0.108068 0.750000 0.500000
O O21 0.083500 0.813207 0.250000
O O22 0.231067 0.653261 0.250000
O O23 0.229500 0.750000 0.000000
#
# Coordination Sequence:
#
# PCOD8231887 Si02
#       8
#     8   8   8   8   8   8   8   8
#     4   9  18  34  55  82 113 145 181 224 275 332
#     4  11  23  39  60  87 118 158 202 246 299 354
#     4  10  22  38  56  83 119 152 193 247 296 349
#     4  11  24  45  67  89 120 159 203 250 297 352
#     4  10  20  35  58  84 111 149 195 241 296 354
#     4  10  22  40  61  88 122 154 191 239 291 345
#     4   9  19  36  57  83 116 153 192 239 293 353
#     4  10  19  35  58  84 115 150 189 236 287 345
#
# _framework density 20.25131
#
# number of rings (size 3 to 8) (size 9 to 14) (size 15 to 20)
#    0.000    2.000    1.250    1.875    0.000    5.500 
#    0.000    3.750    0.000    0.000    0.000    0.000 
#    0.000    0.000    0.000    0.000    0.000    0.000 
#
# Total GULP energy -793443.827518 kJ/mol
# GULP energy per Si atom -12397.559805 kJ/mol
# Density = 2.020522 g / cm^3
# Si number density = 20.251310 Si / 1000 Ang^3
#
#
#
# Elastic Constant Matrix: (Units=GPa)
#
#
# Indices 1 2 3 4 5 6 
#
# 1 77.7216 35.9249 37.9935 0.0000 0.0000 0.0000
# 2 35.9249 130.5297 57.8152 0.0000 0.0000 0.0000
# 3 37.9935 57.8152 101.4382 0.0000 0.0000 0.0000
# 4 0.0000 0.0000 0.0000 43.2857 0.0000 0.0000
# 5 0.0000 0.0000 0.0000 0.0000 23.9127 0.0000
# 6 0.0000 0.0000 0.0000 0.0000 0.0000 10.0575
#
#
#
# Elastic Compliance Matrix: (Units=1/GPa)
#
#
# Indices 1 2 3 4 5 6 
#
# 1 0.016286 -0.002382 -0.004742 0.000000 0.000000 0.000000
# 2 -0.002382 0.010597 -0.005148 0.000000 0.000000 0.000000
# 3 -0.004742 -0.005148 0.014568 0.000000 0.000000 0.000000
# 4 0.000000 0.000000 0.000000 0.023102 0.000000 0.000000
# 5 0.000000 0.000000 0.000000 0.000000 0.041819 0.000000
# 6 0.000000 0.000000 0.000000 0.000000 0.000000 0.099428
#
#
# Mechanical properties :
#
#
# Convention : Reuss Voigt Hill
#
# Bulk Modulus (GPa) = 59.14554 63.68409 61.41481
# Shear Modulus (GPa) = 21.18838 27.31489 24.25164
#
# Velocity S-wave (km/s) = 3.23812 3.67658 3.46429
# Velocity P-wave (km/s) = 6.57646 7.03833 6.81131
#
# Compressibility (1/GPa) = 0.01690745
#
# Stress axis : x y z
#
# Youngs Moduli (GPa) = 61.40414 94.37016 68.64229
#
# Poissons Ratio (x) = 0.22476 0.32552
# Poissons Ratio (y) = 0.14625 0.35334
# Poissons Ratio (z) = 0.29120 0.48577
#
# Static dielectric constant tensor:
#      x y z
#    x 3.561910 0.000000 0.000000 
#    y 0.000000 3.754080 0.000000 
#    z 0.000000 0.000000 3.884140 
# 
# 
# High freq. dielectric constant tensor:
#      x y z
#    x 1.779990 0.000000 0.000000 
#    y 0.000000 1.795090 0.000000 
#    z 0.000000 0.000000 1.796200 
# 
# From -- ./inp_files/9286.got.cif
#   From: 2010.03.12/outbox.cif.g09.slc.cpg/sg57_5_cif.got.tgz:9286.got - 2010.04.16 15:48:40.
