data_PCOD8231803
_publ_section_title
;
Structure prediction by ZEFSAII (Michael W. Deem and Ramdas Pophale) SiO2 
 PCOD8231803
Probable space group: P B C M
;
_chemical_formula_sum "Si O2"
_cell_formula_units_Z 40
_cell_length_a 14.273287
_cell_length_b 15.533298
_cell_length_c 8.833086
_cell_angle_alpha 90.000000
_cell_angle_beta 90.000000
_cell_angle_gamma 90.000000
_cell_volume 1958.394277
_symmetry_space_group_name_H-M "P B C M"
_symmetry_group_IT_number 57
_symmetry_cell_setting 'orthorhombic'
loop_
_space_group_symop_operation_xyz
x,y,z
-x,-y,1/2+z
x,1/2-y,-z
-x,1/2+y,1/2-z
-x,-y,-z
x,y,1/2-z
-x,1/2+y,z
x,1/2-y,1/2+z
loop_
_atom_site_type_symbol
_atom_site_label
_atom_site_fract_x
_atom_site_fract_y
_atom_site_fract_z
Si Si1 0.898206 0.997344 0.070299
Si Si2 0.400647 0.898599 0.074009
Si Si3 0.588577 0.596624 0.423825
Si Si4 0.782571 0.163358 0.071820
Si Si5 0.791015 0.661157 0.072883
O O1 0.904729 0.992310 0.250000
O O2 0.843546 0.082530 0.015765
O O3 0.844259 0.915004 0.009521
O O4 0.000000 0.000000 0.000000
O O5 0.385026 0.880551 0.250000
O O6 0.388351 0.998566 0.031152
O O7 0.504269 0.866830 0.026160
O O8 0.324397 0.845543 0.981378
O O9 0.556552 0.601038 0.250000
O O10 0.680076 0.653052 0.455687
O O11 0.785391 0.172210 0.250000
O O12 0.826098 0.250000 0.000000
O O13 0.815516 0.658927 0.250000
O O14 0.825999 0.750000 0.000000
#
# Coordination Sequence:
#
# PCOD8231803 Si02
#       5
#     8   8   8   8   8
#     4  11  25  45  69  94 123 161 204 258 317 375
#     4  10  19  34  59  89 124 167 209 254 303 359
#     4   9  19  35  57  87 125 169 210 252 302 361
#     4  11  24  41  64  93 125 162 206 254 308 369
#     4  11  23  41  65  94 128 165 209 257 310 370
#
# _framework density 20.424896
#
# number of rings (size 3 to 8) (size 9 to 14) (size 15 to 20)
#    0.000    1.600    2.000    2.400    0.000    6.400 
#    0.000    4.000    0.000    0.000    0.000    0.000 
#    0.000    0.000    0.000    0.000    0.000    0.000 
#
# Total GULP energy -496217.216938 kJ/mol
# GULP energy per Si atom -12405.430423 kJ/mol
# Density = 2.037841 g / cm^3
# Si number density = 20.424896 Si / 1000 Ang^3
#
#
#
# Elastic Constant Matrix: (Units=GPa)
#
#
# Indices 1 2 3 4 5 6 
#
# 1 100.8319 57.7834 45.8459 0.0000 0.0000 0.0000
# 2 57.7834 149.5311 56.1573 0.0000 0.0000 0.0000
# 3 45.8459 56.1573 82.3845 0.0000 0.0000 0.0000
# 4 0.0000 0.0000 0.0000 35.3472 0.0000 0.0000
# 5 0.0000 0.0000 0.0000 0.0000 37.0465 0.0000
# 6 0.0000 0.0000 0.0000 0.0000 0.0000 3.4915
#
#
#
# Elastic Compliance Matrix: (Units=1/GPa)
#
#
# Indices 1 2 3 4 5 6 
#
# 1 0.014495 -0.003457 -0.005710 0.000000 0.000000 0.000000
# 2 -0.003457 0.009813 -0.004765 0.000000 0.000000 0.000000
# 3 -0.005710 -0.004765 0.018564 0.000000 0.000000 0.000000
# 4 0.000000 0.000000 0.000000 0.028291 0.000000 0.000000
# 5 0.000000 0.000000 0.000000 0.000000 0.026993 0.000000
# 6 0.000000 0.000000 0.000000 0.000000 0.000000 0.286413
#
#
# Mechanical properties :
#
#
# Convention : Reuss Voigt Hill
#
# Bulk Modulus (GPa) = 66.63241 72.48006 69.55624
# Shear Modulus (GPa) = 11.97792 26.70778 19.34285
#
# Velocity S-wave (km/s) = 2.42427 3.62001 3.08071
# Velocity P-wave (km/s) = 6.36632 7.28257 6.83981
#
# Compressibility (1/GPa) = 0.01500771
#
# Stress axis : x y z
#
# Youngs Moduli (GPa) = 68.99144 101.90505 53.86807
#
# Poissons Ratio (x) = 0.35227 0.30757
# Poissons Ratio (y) = 0.23849 0.25670
# Poissons Ratio (z) = 0.39392 0.48562
#
# Static dielectric constant tensor:
#      x y z
#    x 3.534040 0.000000 0.000000 
#    y 0.000000 3.793450 0.000000 
#    z 0.000000 0.000000 3.723790 
# 
# 
# High freq. dielectric constant tensor:
#      x y z
#    x 1.795230 0.000000 0.000000 
#    y 0.000000 1.803420 0.000000 
#    z 0.000000 0.000000 1.805780 
# 
# From -- ./inp_files/4258.got.cif
#   From: 2010.03.12/outbox.cif.g09.slc.cpg/sg57_3_cif.got.tgz:4258.got - 2010.04.16 15:48:40.
