data_PCOD8231265
_publ_section_title
;
Structure prediction by ZEFSAII (Michael W. Deem and Ramdas Pophale) SiO2 
 PCOD8231265
Probable space group: P B C M
;
_chemical_formula_sum "Si O2"
_cell_formula_units_Z 64
_cell_length_a 20.052145
_cell_length_b 19.993640
_cell_length_c 8.847364
_cell_angle_alpha 90.000000
_cell_angle_beta 90.000000
_cell_angle_gamma 90.000000
_cell_volume 3547.044197
_symmetry_space_group_name_H-M "P B C M"
_symmetry_group_IT_number 57
_symmetry_cell_setting 'orthorhombic'
loop_
_space_group_symop_operation_xyz
x,y,z
-x,-y,1/2+z
x,1/2-y,-z
-x,1/2+y,1/2-z
-x,-y,-z
x,y,1/2-z
-x,1/2+y,z
x,1/2-y,1/2+z
loop_
_atom_site_type_symbol
_atom_site_label
_atom_site_fract_x
_atom_site_fract_y
_atom_site_fract_z
Si Si1 0.422961 0.322099 0.426303
Si Si2 0.199863 0.586626 0.572665
Si Si3 0.655334 0.053932 0.928102
Si Si4 0.479799 0.929297 0.929527
Si Si5 0.691441 0.580929 0.923705
Si Si6 0.084200 0.821096 0.428368
Si Si7 0.835658 0.548155 0.924087
Si Si8 0.018895 0.430283 0.426867
O O1 0.427572 0.250000 0.500000
O O2 0.441188 0.317575 0.250000
O O3 0.474352 0.370707 0.508128
O O4 0.348023 0.350188 0.451166
O O5 0.198529 0.578420 0.750000
O O6 0.276792 0.591655 0.518962
O O7 0.157221 0.651249 0.522048
O O8 0.163693 0.521179 0.511873
O O9 0.641958 0.060757 0.750000
O O10 0.595579 0.087982 0.020513
O O11 0.660357 0.975588 0.968717
O O12 0.485713 0.933464 0.750000
O O13 0.500000 0.000000 0.000000
O O14 0.682562 0.557184 0.750000
O O15 0.769768 0.592116 0.963806
O O16 0.071667 0.750000 0.500000
O O17 0.079154 0.813808 0.250000
O O18 0.027152 0.870927 0.491261
O O19 0.834863 0.528145 0.750000
O O20 0.903590 0.587924 0.963956
O O21 0.006189 0.437864 0.250000
O O22 0.000000 0.500000 0.500000
#
# Coordination Sequence:
#
# PCOD8231265 Si02
#       8
#     8   8   8   8   8   8   8   8
#     4  11  23  39  58  81 113 151 188 232 281 339
#     4   9  18  33  52  77 108 139 175 225 273 321
#     4  10  19  32  55  83 110 140 178 227 278 325
#     4  12  23  37  58  85 115 148 187 233 280 332
#     4   9  18  33  53  78 109 141 179 224 272 327
#     4  10  21  36  52  75 109 147 185 227 275 330
#     4   9  17  30  52  81 106 135 176 225 273 322
#     4  10  19  32  53  79 109 141 181 230 278 326
#
# _framework density 18.043192000000001
#
# number of rings (size 3 to 8) (size 9 to 14) (size 15 to 20)
#    0.000    2.000    2.500    1.875    0.000    2.000 
#    0.000    1.250    0.000    1.500    0.000    0.000 
#    0.000    0.000    0.000    0.000    0.000    0.000 
#
# Total GULP energy -793428.873041 kJ/mol
# GULP energy per Si atom -12397.326141 kJ/mol
# Density = 1.800213 g / cm^3
# Si number density = 18.043192 Si / 1000 Ang^3
#
#
#
# Elastic Constant Matrix: (Units=GPa)
#
#
# Indices 1 2 3 4 5 6 
#
# 1 149.7178 78.6145 46.9715 0.0000 0.0000 0.0000
# 2 78.6145 130.1741 42.6983 0.0000 0.0000 0.0000
# 3 46.9715 42.6983 62.9740 0.0000 0.0000 0.0000
# 4 0.0000 0.0000 0.0000 29.2419 0.0000 0.0000
# 5 0.0000 0.0000 0.0000 0.0000 23.9997 0.0000
# 6 0.0000 0.0000 0.0000 0.0000 0.0000 26.2263
#
#
#
# Elastic Compliance Matrix: (Units=1/GPa)
#
#
# Indices 1 2 3 4 5 6 
#
# 1 0.010744 -0.004964 -0.004648 0.000000 0.000000 0.000000
# 2 -0.004964 0.012173 -0.004551 0.000000 0.000000 0.000000
# 3 -0.004648 -0.004551 0.022432 0.000000 0.000000 0.000000
# 4 0.000000 0.000000 0.000000 0.034198 0.000000 0.000000
# 5 0.000000 0.000000 0.000000 0.000000 0.041667 0.000000
# 6 0.000000 0.000000 0.000000 0.000000 0.000000 0.038130
#
#
# Mechanical properties :
#
#
# Convention : Reuss Voigt Hill
#
# Bulk Modulus (GPa) = 58.74422 75.49272 67.11847
# Shear Modulus (GPa) = 25.86076 27.53233 26.69655
#
# Velocity S-wave (km/s) = 3.78996 3.91053 3.85072
# Velocity P-wave (km/s) = 7.19583 7.89433 7.55316
#
# Compressibility (1/GPa) = 0.01702295
#
# Stress axis : x y z
#
# Youngs Moduli (GPa) = 93.07575 82.15237 44.57877
#
# Poissons Ratio (x) = 0.40779 0.20721
# Poissons Ratio (y) = 0.46201 0.20287
# Poissons Ratio (z) = 0.43263 0.37387
#
# Static dielectric constant tensor:
#      x y z
#    x 4.151820 0.000000 0.000000 
#    y 0.000000 3.247070 0.000000 
#    z 0.000000 0.000000 3.354020 
# 
# 
# High freq. dielectric constant tensor:
#      x y z
#    x 1.721700 0.000000 0.000000 
#    y 0.000000 1.663540 0.000000 
#    z 0.000000 0.000000 1.700530 
# 
# From -- ./inp_files/8460.got.cif
#   From: 2010.03.12/outbox.cif.g09.slc.cpg/sg57_5_cif.got.tgz:8460.got - 2010.04.16 15:48:40.
