data_PCOD8231719
_publ_section_title
;
Structure prediction by ZEFSAII (Michael W. Deem and Ramdas Pophale) SiO2 
 PCOD8231719
Probable space group: P B C M
;
_chemical_formula_sum "Si O2"
_cell_formula_units_Z 64
_cell_length_a 21.130886
_cell_length_b 18.633209
_cell_length_c 8.647487
_cell_angle_alpha 90.000000
_cell_angle_beta 90.000000
_cell_angle_gamma 90.000000
_cell_volume 3404.828802
_symmetry_space_group_name_H-M "P B C M"
_symmetry_group_IT_number 57
_symmetry_cell_setting 'orthorhombic'
loop_
_space_group_symop_operation_xyz
x,y,z
-x,-y,1/2+z
x,1/2-y,-z
-x,1/2+y,1/2-z
-x,-y,-z
x,y,1/2-z
-x,1/2+y,z
x,1/2-y,1/2+z
loop_
_atom_site_type_symbol
_atom_site_label
_atom_site_fract_x
_atom_site_fract_y
_atom_site_fract_z
Si Si1 0.119018 0.826639 0.433791
Si Si2 0.390057 0.175685 0.931803
Si Si3 0.497990 0.578219 0.567148
Si Si4 0.062555 0.534690 0.432845
Si Si5 0.750862 0.107089 0.568218
Si Si6 0.753150 0.673609 0.566372
Si Si7 0.620533 0.171088 0.934247
Si Si8 0.815782 0.964463 0.567536
O O1 0.098673 0.750000 0.500000
O O2 0.115377 0.826368 0.250000
O O3 0.070385 0.885719 0.497222
O O4 0.189932 0.845923 0.493076
O O5 0.392941 0.182837 0.750000
O O6 0.437630 0.115168 0.992781
O O7 0.318932 0.158162 0.986395
O O8 0.414472 0.250000 0.000000
O O9 0.500000 0.500000 0.500000
O O10 0.495820 0.574130 0.750000
O O11 0.437104 0.621817 0.505921
O O12 0.057937 0.540493 0.250000
O O13 0.120191 0.483724 0.480187
O O14 0.000000 0.500000 0.500000
O O15 0.746735 0.115566 0.750000
O O16 0.685300 0.136427 0.496766
O O17 0.761998 0.023509 0.523935
O O18 0.775690 0.750000 0.500000
O O19 0.761275 0.672429 0.750000
O O20 0.795691 0.613469 0.488333
O O21 0.621760 0.175019 0.750000
O O22 0.611228 0.250000 0.000000
O O23 0.828812 0.964936 0.750000
#
# Coordination Sequence:
#
# PCOD8231719 Si02
#       8
#     8   8   8   8   8   8   8   8
#     4  10  19  34  56  84 117 152 191 234 277 327
#     4   9  19  35  53  75 102 136 180 230 278 333
#     4  10  22  36  51  73 104 138 180 228 276 330
#     4  11  22  39  61  86 117 154 192 229 274 325
#     4   8  17  32  52  79 111 143 180 222 270 326
#     4  10  20  35  55  80 109 142 184 233 285 338
#     4  10  20  35  53  76 105 140 178 222 272 326
#     4  10  20  36  58  84 114 147 183 226 275 327
#
# _framework density 18.796834
#
# number of rings (size 3 to 8) (size 9 to 14) (size 15 to 20)
#    0.000    2.250    0.000    3.750    1.750    1.500 
#    0.000    3.750    0.000    0.000    0.000    0.000 
#    0.000    0.000    0.000    0.000    0.000    0.000 
#
# Total GULP energy -793628.571671 kJ/mol
# GULP energy per Si atom -12400.446432 kJ/mol
# Density = 1.875405 g / cm^3
# Si number density = 18.796834 Si / 1000 Ang^3
#
#
#
# Elastic Constant Matrix: (Units=GPa)
#
#
# Indices 1 2 3 4 5 6 
#
# 1 102.7275 78.6431 29.1315 0.0000 0.0000 0.0000
# 2 78.6431 172.7139 38.6375 0.0000 0.0000 0.0000
# 3 29.1315 38.6375 62.8885 0.0000 0.0000 0.0000
# 4 0.0000 0.0000 0.0000 34.8281 0.0000 0.0000
# 5 0.0000 0.0000 0.0000 0.0000 21.6123 0.0000
# 6 0.0000 0.0000 0.0000 0.0000 0.0000 -20.4879
#
#
#
# Elastic Compliance Matrix: (Units=1/GPa)
#
#
# Indices 1 2 3 4 5 6 
#
# 1 0.015513 -0.006325 -0.003300 0.000000 0.000000 0.000000
# 2 -0.006325 0.009292 -0.002779 0.000000 0.000000 0.000000
# 3 -0.003300 -0.002779 0.019137 0.000000 0.000000 0.000000
# 4 0.000000 0.000000 0.000000 0.028712 0.000000 0.000000
# 5 0.000000 0.000000 0.000000 0.000000 0.046270 0.000000
# 6 0.000000 0.000000 0.000000 0.000000 0.000000 -0.048809
#
#
# Mechanical properties :
#
#
# Convention : Reuss Voigt Hill
#
# Bulk Modulus (GPa) = 52.26327 70.12822 61.19574
# Shear Modulus (GPa) = 49.35886 19.98502 34.67194
#
# Velocity S-wave (km/s) = 5.12993 3.26423 4.29950
# Velocity P-wave (km/s) = 7.93428 7.18307 7.56800
#
# Compressibility (1/GPa) = 0.01913390
#
# Stress axis : x y z
#
# Youngs Moduli (GPa) = 64.46397 107.62345 52.25543
#
# Poissons Ratio (x) = 0.68075 0.17243
# Poissons Ratio (y) = 0.40775 0.14520
# Poissons Ratio (z) = 0.21271 0.29904
#
# Static dielectric constant tensor:
#      x y z
#    x 3.544270 0.000000 0.000000 
#    y 0.000000 3.301610 0.000000 
#    z 0.000000 0.000000 3.305230 
# 
# 
# High freq. dielectric constant tensor:
#      x y z
#    x 1.726910 0.000000 0.000000 
#    y 0.000000 1.739280 0.000000 
#    z 0.000000 0.000000 1.722670 
# 
# From -- ./inp_files/8568.got.cif
#   From: 2010.03.12/outbox.cif.g09.slc.cpg/sg57_5_cif.got.tgz:8568.got - 2010.04.16 15:48:40.
