data_PCOD8231436
_publ_section_title
;
Structure prediction by ZEFSAII (Michael W. Deem and Ramdas Pophale) SiO2 
 PCOD8231436
Probable space group: P B C M
;
_chemical_formula_sum "Si O2"
_cell_formula_units_Z 64
_cell_length_a 12.522376
_cell_length_b 29.277058
_cell_length_c 9.100483
_cell_angle_alpha 90.000000
_cell_angle_beta 90.000000
_cell_angle_gamma 90.000000
_cell_volume 3336.403866
_symmetry_space_group_name_H-M "P B C M"
_symmetry_group_IT_number 57
_symmetry_cell_setting 'orthorhombic'
loop_
_space_group_symop_operation_xyz
x,y,z
-x,-y,1/2+z
x,1/2-y,-z
-x,1/2+y,1/2-z
-x,-y,-z
x,y,1/2-z
-x,1/2+y,z
x,1/2-y,1/2+z
loop_
_atom_site_type_symbol
_atom_site_label
_atom_site_fract_x
_atom_site_fract_y
_atom_site_fract_z
Si Si1 0.104296 0.294544 0.421151
Si Si2 0.969146 0.608888 0.922618
Si Si3 0.192452 0.032353 0.576960
Si Si4 0.389715 0.894483 0.576810
Si Si5 0.812303 0.438072 0.423117
Si Si6 0.654703 0.815087 0.084696
Si Si7 0.402545 0.082916 0.584302
Si Si8 0.551883 0.293463 0.921491
O O1 0.054972 0.250000 0.500000
O O2 0.078790 0.290274 0.250000
O O3 0.230072 0.295634 0.453588
O O4 0.051252 0.340522 0.488397
O O5 0.948944 0.611486 0.750000
O O6 0.088953 0.594578 0.962585
O O7 0.884623 0.572157 0.985274
O O8 0.173658 0.024169 0.750000
O O9 0.316507 0.044009 0.544801
O O10 0.161904 0.987394 0.488260
O O11 0.378136 0.901163 0.750000
O O12 0.291383 0.916957 0.496317
O O13 0.498001 0.919743 0.526423
O O14 0.392618 0.840967 0.531617
O O15 0.794600 0.442217 0.250000
O O16 0.618869 0.801507 0.250000
O O17 0.660459 0.869620 0.070163
O O18 0.571837 0.794252 0.969152
O O19 0.446120 0.076366 0.750000
O O20 0.559481 0.285775 0.750000
O O21 0.608803 0.250000 0.000000
#
# Coordination Sequence:
#
# PCOD8231436 Si02
#       8
#     8   8   8   8   8   8   8   8
#     4  10  19  33  53  80 112 146 181 218 268 327
#     4   9  19  38  60  81 111 148 185 225 273 328
#     4  10  19  36  62  87 112 143 179 225 281 334
#     4  10  22  39  56  78 112 149 185 230 277 325
#     4  11  23  38  58  82 108 145 191 235 277 328
#     4   9  16  29  51  78 111 145 176 213 262 324
#     4   9  17  32  57  85 111 145 180 216 268 329
#     4  10  20  33  52  78 107 141 182 227 274 325
#
# _framework density 19.182328999999999
#
# number of rings (size 3 to 8) (size 9 to 14) (size 15 to 20)
#    0.000    2.250    1.250    1.875    0.000    4.000 
#    0.000    3.125    0.000    3.000    0.000    0.000 
#    0.000    0.000    0.000    0.000    0.000    0.000 
#
# Total GULP energy -793611.946010 kJ/mol
# GULP energy per Si atom -12400.186656 kJ/mol
# Density = 1.913867 g / cm^3
# Si number density = 19.182329 Si / 1000 Ang^3
#
#
#
# Elastic Constant Matrix: (Units=GPa)
#
#
# Indices 1 2 3 4 5 6 
#
# 1 74.2638 46.9547 38.1516 0.0000 0.0000 0.0000
# 2 46.9547 134.9837 46.8827 0.0000 0.0000 0.0000
# 3 38.1516 46.8827 65.1097 0.0000 0.0000 0.0000
# 4 0.0000 0.0000 0.0000 33.1256 0.0000 0.0000
# 5 0.0000 0.0000 0.0000 0.0000 13.2405 0.0000
# 6 0.0000 0.0000 0.0000 0.0000 0.0000 14.6012
#
#
#
# Elastic Compliance Matrix: (Units=1/GPa)
#
#
# Indices 1 2 3 4 5 6 
#
# 1 0.020765 -0.003997 -0.009289 0.000000 0.000000 0.000000
# 2 -0.003997 0.010648 -0.005325 0.000000 0.000000 0.000000
# 3 -0.009289 -0.005325 0.024637 0.000000 0.000000 0.000000
# 4 0.000000 0.000000 0.000000 0.030188 0.000000 0.000000
# 5 0.000000 0.000000 0.000000 0.000000 0.075526 0.000000
# 6 0.000000 0.000000 0.000000 0.000000 0.000000 0.068488
#
#
# Mechanical properties :
#
#
# Convention : Reuss Voigt Hill
#
# Bulk Modulus (GPa) = 53.11696 59.81502 56.46599
# Shear Modulus (GPa) = 18.26486 21.68467 19.97477
#
# Velocity S-wave (km/s) = 3.08907 3.36586 3.23044
# Velocity P-wave (km/s) = 6.36191 6.80848 6.58898
#
# Compressibility (1/GPa) = 0.01882638
#
# Stress axis : x y z
#
# Youngs Moduli (GPa) = 48.15849 93.91266 40.59012
#
# Poissons Ratio (x) = 0.37534 0.37706
# Poissons Ratio (y) = 0.19247 0.21616
# Poissons Ratio (z) = 0.44737 0.50012
#
# Static dielectric constant tensor:
#      x y z
#    x 3.307770 0.000000 0.000000 
#    y 0.000000 3.802100 0.000000 
#    z 0.000000 0.000000 3.338350 
# 
# 
# High freq. dielectric constant tensor:
#      x y z
#    x 1.727900 0.000000 0.000000 
#    y 0.000000 1.759970 0.000000 
#    z 0.000000 0.000000 1.730620 
# 
# From -- ./inp_files/3723.got.cif
#   From: 2010.03.12/outbox.cif.g09.slc.cpg/sg57_2_cif.got.tgz:3723.got - 2010.04.16 15:48:40.
