data_PCOD8231558
_publ_section_title
;
Structure prediction by ZEFSAII (Michael W. Deem and Ramdas Pophale) SiO2 
 PCOD8231558
Probable space group: P B C M
;
_chemical_formula_sum "Si O2"
_cell_formula_units_Z 48
_cell_length_a 15.089728
_cell_length_b 19.309768
_cell_length_c 8.761921
_cell_angle_alpha 90.000000
_cell_angle_beta 90.000000
_cell_angle_gamma 90.000000
_cell_volume 2553.041066
_symmetry_space_group_name_H-M "P B C M"
_symmetry_group_IT_number 57
_symmetry_cell_setting 'orthorhombic'
loop_
_space_group_symop_operation_xyz
x,y,z
-x,-y,1/2+z
x,1/2-y,-z
-x,1/2+y,1/2-z
-x,-y,-z
x,y,1/2-z
-x,1/2+y,z
x,1/2-y,1/2+z
loop_
_atom_site_type_symbol
_atom_site_label
_atom_site_fract_x
_atom_site_fract_y
_atom_site_fract_z
Si Si1 0.772609 0.088894 0.069069
Si Si2 0.060935 0.823855 0.931559
Si Si3 0.730100 0.563616 0.930189
Si Si4 0.125446 0.176500 0.569329
Si Si5 0.606897 0.175145 0.429351
Si Si6 0.541689 0.931869 0.929208
O O1 0.767047 0.088243 0.250000
O O2 0.866061 0.120447 0.015150
O O3 0.692321 0.135041 0.002804
O O4 0.763501 0.010652 0.007296
O O5 0.054484 0.817548 0.750000
O O6 0.088684 0.750000 0.000000
O O7 0.967423 0.848689 0.998950
O O8 0.715352 0.561330 0.750000
O O9 0.801725 0.620569 0.978177
O O10 0.638372 0.584364 0.007272
O O11 0.154412 0.250000 0.500000
O O12 0.115172 0.183736 0.750000
O O13 0.599480 0.250000 0.500000
O O14 0.617259 0.183120 0.250000
O O15 0.519039 0.133165 0.473848
O O16 0.545812 0.943099 0.750000
O O17 0.500000 0.000000 0.000000
#
# Coordination Sequence:
#
# PCOD8231558 Si02
#       6
#     8   8   8   8   8   8
#     4   9  18  35  56  80 112 147 180 225 281 330
#     4  10  19  33  56  80 110 148 184 228 277 330
#     4  10  21  39  60  81 110 148 187 229 283 336
#     4  10  21  37  58  80 110 149 187 234 282 332
#     4  10  21  37  57  82 114 146 183 228 276 331
#     4  11  22  38  60  83 112 150 187 230 278 331
#
# _framework density 18.801107999999999
#
# number of rings (size 3 to 8) (size 9 to 14) (size 15 to 20)
#    0.000    2.000    1.667    3.000    0.000    4.000 
#    0.000    5.833    0.000    0.000    0.000    0.000 
#    0.000    0.000    0.000    0.000    0.000    0.000 
#
# Total GULP energy -595297.781978 kJ/mol
# GULP energy per Si atom -12402.037125 kJ/mol
# Density = 1.875832 g / cm^3
# Si number density = 18.801108 Si / 1000 Ang^3
#
#
#
# Elastic Constant Matrix: (Units=GPa)
#
#
# Indices 1 2 3 4 5 6 
#
# 1 184.1368 115.8396 55.1638 0.0000 0.0000 0.0000
# 2 115.8396 170.2717 49.0135 0.0000 0.0000 0.0000
# 3 55.1638 49.0135 57.3552 0.0000 0.0000 0.0000
# 4 0.0000 0.0000 0.0000 26.5387 0.0000 0.0000
# 5 0.0000 0.0000 0.0000 0.0000 29.8215 0.0000
# 6 0.0000 0.0000 0.0000 0.0000 0.0000 22.2529
#
#
#
# Elastic Compliance Matrix: (Units=1/GPa)
#
#
# Indices 1 2 3 4 5 6 
#
# 1 0.010602 -0.005673 -0.005349 0.000000 0.000000 0.000000
# 2 -0.005673 0.010825 -0.003794 0.000000 0.000000 0.000000
# 3 -0.005349 -0.003794 0.025822 0.000000 0.000000 0.000000
# 4 0.000000 0.000000 0.000000 0.037681 0.000000 0.000000
# 5 0.000000 0.000000 0.000000 0.000000 0.033533 0.000000
# 6 0.000000 0.000000 0.000000 0.000000 0.000000 0.044938
#
#
# Mechanical properties :
#
#
# Convention : Reuss Voigt Hill
#
# Bulk Modulus (GPa) = 56.76465 94.64419 75.70442
# Shear Modulus (GPa) = 25.13766 28.50575 26.82171
#
# Velocity S-wave (km/s) = 3.66051 3.89803 3.78114
# Velocity P-wave (km/s) = 6.93711 8.40884 7.70818
#
# Compressibility (1/GPa) = 0.01761660
#
# Stress axis : x y z
#
# Youngs Moduli (GPa) = 94.32047 92.38191 38.72668
#
# Poissons Ratio (x) = 0.52410 0.20715
# Poissons Ratio (y) = 0.53509 0.14693
# Poissons Ratio (z) = 0.50452 0.35049
#
# Static dielectric constant tensor:
#      x y z
#    x 3.682790 0.000000 0.000000 
#    y 0.000000 3.507530 0.000000 
#    z 0.000000 0.000000 3.385900 
# 
# 
# High freq. dielectric constant tensor:
#      x y z
#    x 1.743640 0.000000 0.000000 
#    y 0.000000 1.735950 0.000000 
#    z 0.000000 0.000000 1.719370 
# 
# From -- ./inp_files/4848.got.cif
#   From: 2010.03.12/outbox.cif.g09.slc.cpg/sg57_3_cif.got.tgz:4848.got - 2010.04.16 15:48:40.
