data_PCOD8231965
_publ_section_title
;
Structure prediction by ZEFSAII (Michael W. Deem and Ramdas Pophale) SiO2 
 PCOD8231965
Probable space group: P B C M
;
_chemical_formula_sum "Si O2"
_cell_formula_units_Z 64
_cell_length_a 21.395288
_cell_length_b 17.971353
_cell_length_c 8.869361
_cell_angle_alpha 90.000000
_cell_angle_beta 90.000000
_cell_angle_gamma 90.000000
_cell_volume 3410.289466
_symmetry_space_group_name_H-M "P B C M"
_symmetry_group_IT_number 57
_symmetry_cell_setting 'orthorhombic'
loop_
_space_group_symop_operation_xyz
x,y,z
-x,-y,1/2+z
x,1/2-y,-z
-x,1/2+y,1/2-z
-x,-y,-z
x,y,1/2-z
-x,1/2+y,z
x,1/2-y,1/2+z
loop_
_atom_site_type_symbol
_atom_site_label
_atom_site_fract_x
_atom_site_fract_y
_atom_site_fract_z
Si Si1 0.612619 0.420484 0.071526
Si Si2 0.062171 0.469226 0.072850
Si Si3 0.732924 0.169253 0.571329
Si Si4 0.243059 0.087537 0.078306
Si Si5 0.811717 0.449824 0.575028
Si Si6 0.120727 0.328246 0.925926
Si Si7 0.493870 0.328800 0.072089
Si Si8 0.382733 0.411196 0.924245
O O1 0.617250 0.421501 0.250000
O O2 0.671378 0.373538 0.009386
O O3 0.548130 0.384134 0.015324
O O4 0.614194 0.504819 0.011386
O O5 0.053496 0.458050 0.250000
O O6 0.117197 0.527810 0.036577
O O7 0.076592 0.389732 0.999999
O O8 0.000000 0.500000 0.000000
O O9 0.734684 0.250000 0.500000
O O10 0.732962 0.176843 0.750000
O O11 0.794075 0.123670 0.518824
O O12 0.235061 0.058380 0.250000
O O13 0.193429 0.152339 0.042682
O O14 0.312447 0.119903 0.054300
O O15 0.233598 0.017556 0.969681
O O16 0.802616 0.432515 0.750000
O O17 0.105643 0.324298 0.750000
O O18 0.104714 0.250000 0.000000
O O19 0.494265 0.319839 0.250000
O O20 0.508202 0.250000 0.000000
O O21 0.427005 0.358924 0.021272
O O22 0.403670 0.407948 0.750000
#
# Coordination Sequence:
#
# PCOD8231965 Si02
#       8
#     8   8   8   8   8   8   8   8
#     4   9  19  36  58  79 106 141 184 230 280 338
#     4  10  21  38  61  88 118 153 194 234 275 329
#     4  11  21  36  57  83 113 147 184 230 283 336
#     4   9  18  34  57  81 110 147 182 223 279 334
#     4  10  20  35  56  84 115 145 182 227 270 325
#     4  10  20  35  57  86 118 154 192 233 282 332
#     4  11  23  38  53  75 105 143 185 232 284 337
#     4  10  19  36  58  81 108 142 182 230 282 338
#
# _framework density 18.766734
#
# number of rings (size 3 to 8) (size 9 to 14) (size 15 to 20)
#    0.000    2.000    1.250    2.625    0.000    3.000 
#    0.000    4.375    0.000    3.000    0.000    0.000 
#    0.000    0.000    0.000    0.000    0.000    0.000 
#
# Total GULP energy -793783.484673 kJ/mol
# GULP energy per Si atom -12402.866948 kJ/mol
# Density = 1.872402 g / cm^3
# Si number density = 18.766734 Si / 1000 Ang^3
#
#
#
# Elastic Constant Matrix: (Units=GPa)
#
#
# Indices 1 2 3 4 5 6 
#
# 1 112.2626 41.7128 41.0861 0.0000 0.0000 0.0000
# 2 41.7128 83.6838 35.8623 0.0000 0.0000 0.0000
# 3 41.0861 35.8623 78.5764 0.0000 0.0000 0.0000
# 4 0.0000 0.0000 0.0000 33.6917 0.0000 0.0000
# 5 0.0000 0.0000 0.0000 0.0000 26.8480 0.0000
# 6 0.0000 0.0000 0.0000 0.0000 0.0000 25.2672
#
#
#
# Elastic Compliance Matrix: (Units=1/GPa)
#
#
# Indices 1 2 3 4 5 6 
#
# 1 0.012056 -0.004112 -0.004427 0.000000 0.000000 0.000000
# 2 -0.004112 0.016258 -0.005270 0.000000 0.000000 0.000000
# 3 -0.004427 -0.005270 0.017446 0.000000 0.000000 0.000000
# 4 0.000000 0.000000 0.000000 0.029681 0.000000 0.000000
# 5 0.000000 0.000000 0.000000 0.000000 0.037247 0.000000
# 6 0.000000 0.000000 0.000000 0.000000 0.000000 0.039577
#
#
# Mechanical properties :
#
#
# Convention : Reuss Voigt Hill
#
# Bulk Modulus (GPa) = 55.12062 56.87168 55.99615
# Shear Modulus (GPa) = 26.89181 27.55215 27.22198
#
# Velocity S-wave (km/s) = 3.78954 3.83579 3.81273
# Velocity P-wave (km/s) = 6.97013 7.07022 7.02035
#
# Compressibility (1/GPa) = 0.01814203
#
# Stress axis : x y z
#
# Youngs Moduli (GPa) = 82.94761 61.50868 57.31826
#
# Poissons Ratio (x) = 0.25293 0.25375
# Poissons Ratio (y) = 0.34109 0.30206
# Poissons Ratio (z) = 0.36721 0.32415
#
# Static dielectric constant tensor:
#      x y z
#    x 3.524440 0.000000 0.000000 
#    y 0.000000 3.436940 0.000000 
#    z 0.000000 0.000000 3.410400 
# 
# 
# High freq. dielectric constant tensor:
#      x y z
#    x 1.729190 0.000000 0.000000 
#    y 0.000000 1.726050 0.000000 
#    z 0.000000 0.000000 1.726300 
# 
# From -- ./inp_files/8585.got.cif
#   From: 2010.03.12/outbox.cif.g09.slc.cpg/sg57_5_cif.got.tgz:8585.got - 2010.04.16 15:48:40.
