data_PCOD8231941
_publ_section_title
;
Structure prediction by ZEFSAII (Michael W. Deem and Ramdas Pophale) SiO2 
 PCOD8231941
Probable space group: P B C M
;
_chemical_formula_sum "Si O2"
_cell_formula_units_Z 64
_cell_length_a 8.557414
_cell_length_b 14.957434
_cell_length_c 24.520978
_cell_angle_alpha 90.000000
_cell_angle_beta 90.000000
_cell_angle_gamma 90.000000
_cell_volume 3138.610520
_symmetry_space_group_name_H-M "P B C M"
_symmetry_group_IT_number 57
_symmetry_cell_setting 'orthorhombic'
loop_
_space_group_symop_operation_xyz
x,y,z
-x,-y,1/2+z
x,1/2-y,-z
-x,1/2+y,1/2-z
-x,-y,-z
x,y,1/2-z
-x,1/2+y,z
x,1/2-y,1/2+z
loop_
_atom_site_type_symbol
_atom_site_label
_atom_site_fract_x
_atom_site_fract_y
_atom_site_fract_z
Si Si1 0.567515 0.410915 0.882958
Si Si2 0.427599 0.240440 0.187113
Si Si3 0.065365 0.243224 0.313464
Si Si4 0.934799 0.088799 0.385376
Si Si5 0.434299 0.607261 0.882833
Si Si6 0.090687 0.854238 0.001651
Si Si7 0.567518 0.403050 0.000048
Si Si8 0.065782 0.600208 0.618764
O O1 0.525822 0.342415 0.835724
O O2 0.751114 0.431953 0.884010
O O3 0.475922 0.503400 0.873983
O O4 0.520844 0.361726 0.941024
O O5 0.469585 0.248582 0.250000
O O6 0.246401 0.221889 0.176996
O O7 0.475478 0.334309 0.160910
O O8 0.021227 0.243547 0.250000
O O9 0.964963 0.167830 0.343138
O O10 0.025658 0.339783 0.337911
O O11 0.997415 0.117655 0.445888
O O12 0.030165 0.002133 0.366506
O O13 0.488253 0.643468 0.943453
O O14 0.249183 0.620694 0.875929
O O15 0.246803 0.912355 0.003992
O O16 0.998766 0.877771 0.057566
O O17 0.133024 0.750000 0.000000
O O18 0.500000 0.500000 0.000000
#
# Coordination Sequence:
#
# PCOD8231941 Si02
#       8
#     8   8   8   8   8   8   8   8
#     4  10  21  39  62  91 122 157 198 242 300 358
#     4  11  25  42  61  84 116 159 206 255 300 355
#     4  11  25  44  61  86 122 159 210 259 304 361
#     4  11  22  39  65  92 125 161 200 249 304 366
#     4  10  21  39  62  91 122 157 198 242 300 358
#     4  10  19  35  61  93 127 162 198 244 302 363
#     4   8  18  33  57  90 123 154 190 234 290 355
#     4  11  22  39  65  92 125 161 200 249 304 366
#
# _framework density 20.391186999999999
#
# number of rings (size 3 to 8) (size 9 to 14) (size 15 to 20)
#    0.000    1.750    1.250    2.625    5.250    3.000 
#    0.000    5.000    0.000    0.000    0.000    0.000 
#    0.000    0.000    0.000    0.000    0.000    0.000 
#
# Total GULP energy -793262.093003 kJ/mol
# GULP energy per Si atom -12394.720203 kJ/mol
# Density = 2.034478 g / cm^3
# Si number density = 20.391187 Si / 1000 Ang^3
#
#
#
# Elastic Constant Matrix: (Units=GPa)
#
#
# Indices 1 2 3 4 5 6 
#
# 1 41.3486 9.8846 30.3613 0.0000 0.0000 0.0000
# 2 9.8846 93.8956 42.5132 0.0000 0.0000 0.0000
# 3 30.3613 42.5132 147.4986 0.0000 0.0000 0.0000
# 4 0.0000 0.0000 0.0000 26.1696 0.0000 0.0000
# 5 0.0000 0.0000 0.0000 0.0000 26.2019 0.0000
# 6 0.0000 0.0000 0.0000 0.0000 0.0000 33.3170
#
#
#
# Elastic Compliance Matrix: (Units=1/GPa)
#
#
# Indices 1 2 3 4 5 6 
#
# 1 0.028504 -0.000396 -0.005753 0.000000 0.000000 0.000000
# 2 -0.000396 0.012254 -0.003451 0.000000 0.000000 0.000000
# 3 -0.005753 -0.003451 0.008958 0.000000 0.000000 0.000000
# 4 0.000000 0.000000 0.000000 0.038212 0.000000 0.000000
# 5 0.000000 0.000000 0.000000 0.000000 0.038165 0.000000
# 6 0.000000 0.000000 0.000000 0.000000 0.000000 0.030015
#
#
# Mechanical properties :
#
#
# Convention : Reuss Voigt Hill
#
# Bulk Modulus (GPa) = 32.76822 49.80677 41.28750
# Shear Modulus (GPa) = 26.95714 30.46996 28.71355
#
# Velocity S-wave (km/s) = 3.63988 3.86977 3.75658
# Velocity P-wave (km/s) = 5.81116 6.66675 6.25360
#
# Compressibility (1/GPa) = 0.03051737
#
# Stress axis : x y z
#
# Youngs Moduli (GPa) = 35.08320 81.60547 111.62590
#
# Poissons Ratio (x) = 0.03230 0.64220
# Poissons Ratio (y) = 0.01389 0.38517
# Poissons Ratio (z) = 0.20184 0.28158
#
# Static dielectric constant tensor:
#      x y z
#    x 3.547110 0.000000 0.000000 
#    y 0.000000 3.519770 0.000000 
#    z 0.000000 0.000000 4.162180 
# 
# 
# High freq. dielectric constant tensor:
#      x y z
#    x 1.783970 0.000000 0.000000 
#    y 0.000000 1.796470 0.000000 
#    z 0.000000 0.000000 1.809810 
# 
# From -- ./inp_files/26863.got.cif
#   From: 2010.03.12/outbox.cif.g09.slc.cpg/sg57_14_cif.got.tgz:26863.got - 2010.04.16 15:48:40.
