data_PCOD8231391
_publ_section_title
;
Structure prediction by ZEFSAII (Michael W. Deem and Ramdas Pophale) SiO2 
 PCOD8231391
Probable space group: P B C M
;
_chemical_formula_sum "Si O2"
_cell_formula_units_Z 48
_cell_length_a 9.056017
_cell_length_b 32.965642
_cell_length_c 9.080667
_cell_angle_alpha 90.000000
_cell_angle_beta 90.000000
_cell_angle_gamma 90.000000
_cell_volume 2710.918847
_symmetry_space_group_name_H-M "P B C M"
_symmetry_group_IT_number 57
_symmetry_cell_setting 'orthorhombic'
loop_
_space_group_symop_operation_xyz
x,y,z
-x,-y,1/2+z
x,1/2-y,-z
-x,1/2+y,1/2-z
-x,-y,-z
x,y,1/2-z
-x,1/2+y,z
x,1/2-y,1/2+z
loop_
_atom_site_type_symbol
_atom_site_label
_atom_site_fract_x
_atom_site_fract_y
_atom_site_fract_z
Si Si1 0.646940 0.835150 0.081295
Si Si2 0.920011 0.368168 0.915833
Si Si3 0.373979 0.884447 0.421279
Si Si4 0.788685 0.905211 0.915224
Si Si5 0.471679 0.458503 0.581593
Si Si6 0.881338 0.789763 0.920210
O O1 0.675914 0.823637 0.250000
O O2 0.473555 0.844053 0.050402
O O3 0.727514 0.877147 0.044123
O O4 0.716383 0.799554 0.981868
O O5 0.855518 0.366516 0.750000
O O6 0.033210 0.406600 0.932292
O O7 0.008998 0.327008 0.952139
O O8 0.790713 0.373137 0.032141
O O9 0.377070 0.896496 0.250000
O O10 0.430498 0.922669 0.513725
O O11 0.754891 0.887013 0.750000
O O12 0.704482 0.948254 0.930266
O O13 0.500000 0.500000 0.500000
O O14 0.520737 0.463563 0.750000
O O15 0.866178 0.779996 0.750000
O O16 0.945541 0.750000 0.000000
#
# Coordination Sequence:
#
# PCOD8231391 Si02
#       6
#     8   8   8   8   8   8
#     4   9  17  30  49  72  97 126 162 200 238 286
#     4   9  18  33  52  74 100 132 167 203 248 299
#     4  10  20  33  51  76 102 130 166 204 245 296
#     4   8  16  31  50  71  96 129 166 202 243 293
#     4  10  19  33  53  75 101 131 166 210 255 298
#     4  10  20  34  53  76 101 130 166 205 247 294
#
# _framework density 17.706174000000001
#
# number of rings (size 3 to 8) (size 9 to 14) (size 15 to 20)
#    0.000    2.667    0.000    3.000    0.000    6.000 
#    0.000    1.667    0.000    2.000    0.000    0.000 
#    0.000    0.000    0.000    0.000    0.000    0.000 
#
# Total GULP energy -594808.801180 kJ/mol
# GULP energy per Si atom -12391.850025 kJ/mol
# Density = 1.766587 g / cm^3
# Si number density = 17.706174 Si / 1000 Ang^3
#
#
#
# Elastic Constant Matrix: (Units=GPa)
#
#
# Indices 1 2 3 4 5 6 
#
# 1 100.9777 30.6942 52.3664 0.0000 0.0000 0.0000
# 2 30.6942 72.6252 43.7002 0.0000 0.0000 0.0000
# 3 52.3664 43.7002 109.5846 0.0000 0.0000 0.0000
# 4 0.0000 0.0000 0.0000 32.4243 0.0000 0.0000
# 5 0.0000 0.0000 0.0000 0.0000 29.7424 0.0000
# 6 0.0000 0.0000 0.0000 0.0000 0.0000 16.6071
#
#
#
# Elastic Compliance Matrix: (Units=1/GPa)
#
#
# Indices 1 2 3 4 5 6 
#
# 1 0.013475 -0.002395 -0.005484 0.000000 0.000000 0.000000
# 2 -0.002395 0.018542 -0.006250 0.000000 0.000000 0.000000
# 3 -0.005484 -0.006250 0.014238 0.000000 0.000000 0.000000
# 4 0.000000 0.000000 0.000000 0.030841 0.000000 0.000000
# 5 0.000000 0.000000 0.000000 0.000000 0.033622 0.000000
# 6 0.000000 0.000000 0.000000 0.000000 0.000000 0.060215
#
#
# Mechanical properties :
#
#
# Convention : Reuss Voigt Hill
#
# Bulk Modulus (GPa) = 55.56279 59.63433 57.59856
# Shear Modulus (GPa) = 24.36747 26.18320 25.27534
#
# Velocity S-wave (km/s) = 3.71376 3.84964 3.78231
# Velocity P-wave (km/s) = 7.05960 7.31524 7.18855
#
# Compressibility (1/GPa) = 0.01799766
#
# Stress axis : x y z
#
# Youngs Moduli (GPa) = 74.20972 53.93099 70.23305
#
# Poissons Ratio (x) = 0.12918 0.38517
# Poissons Ratio (y) = 0.17775 0.43893
# Poissons Ratio (z) = 0.40698 0.33705
#
# Static dielectric constant tensor:
#      x y z
#    x 3.335320 0.000000 0.000000 
#    y 0.000000 3.114650 0.000000 
#    z 0.000000 0.000000 3.383870 
# 
# 
# High freq. dielectric constant tensor:
#      x y z
#    x 1.675170 0.000000 0.000000 
#    y 0.000000 1.656640 0.000000 
#    z 0.000000 0.000000 1.700010 
# 
# From -- ./inp_files/1977.got.cif
#   From: 2010.03.12/outbox.cif.g09.slc.cpg/sg57_1_cif.got.tgz:1977.got - 2010.04.16 15:48:40.
