data_PCOD8231587
_publ_section_title
;
Structure prediction by ZEFSAII (Michael W. Deem and Ramdas Pophale) SiO2 
 PCOD8231587
Probable space group: P B C M
;
_chemical_formula_sum "Si O2"
_cell_formula_units_Z 48
_cell_length_a 10.224398
_cell_length_b 28.154493
_cell_length_c 8.638052
_cell_angle_alpha 90.000000
_cell_angle_beta 90.000000
_cell_angle_gamma 90.000000
_cell_volume 2486.573334
_symmetry_space_group_name_H-M "P B C M"
_symmetry_group_IT_number 57
_symmetry_cell_setting 'orthorhombic'
loop_
_space_group_symop_operation_xyz
x,y,z
-x,-y,1/2+z
x,1/2-y,-z
-x,1/2+y,1/2-z
-x,-y,-z
x,y,1/2-z
-x,1/2+y,z
x,1/2-y,1/2+z
loop_
_atom_site_type_symbol
_atom_site_label
_atom_site_fract_x
_atom_site_fract_y
_atom_site_fract_z
Si Si1 0.862493 0.298476 0.930022
Si Si2 0.993091 0.447994 0.068277
Si Si3 0.233652 0.392619 0.566846
Si Si4 0.248784 0.601770 0.429348
Si Si5 0.514183 0.948067 0.931790
Si Si6 0.854514 0.799724 0.067233
O O1 0.891813 0.290525 0.750000
O O2 0.762100 0.341648 0.958571
O O3 0.801470 0.250000 0.000000
O O4 0.998667 0.310938 0.012005
O O5 0.021989 0.448779 0.250000
O O6 0.098734 0.416212 0.982318
O O7 0.000000 0.500000 0.000000
O O8 0.850628 0.426682 0.037300
O O9 0.238970 0.387697 0.750000
O O10 0.354571 0.423626 0.502791
O O11 0.242858 0.340387 0.493105
O O12 0.218861 0.589752 0.250000
O O13 0.392971 0.585329 0.478635
O O14 0.524447 0.953806 0.750000
O O15 0.500000 0.000000 0.000000
O O16 0.852020 0.797967 0.250000
O O17 0.803570 0.750000 0.000000
#
# Coordination Sequence:
#
# PCOD8231587 Si02
#       6
#     8   8   8   8   8   8
#     4  10  19  33  57  85 118 152 188 236 292 347
#     4  12  24  37  57  85 115 149 194 245 296 349
#     4  11  22  39  60  86 119 155 197 244 293 347
#     4  10  21  39  60  84 116 153 193 239 294 350
#     4  10  23  41  61  84 115 157 199 241 295 353
#     4  11  21  35  58  88 120 154 195 241 294 350
#
# _framework density 19.303674000000001
#
# number of rings (size 3 to 8) (size 9 to 14) (size 15 to 20)
#    0.000    1.333    1.667    6.000    0.000    5.333 
#    0.000    0.833    0.000    2.000    0.000    0.000 
#    0.000    0.000    0.000    0.000    0.000    0.000 
#
# Total GULP energy -595389.170297 kJ/mol
# GULP energy per Si atom -12403.941048 kJ/mol
# Density = 1.925974 g / cm^3
# Si number density = 19.303674 Si / 1000 Ang^3
#
#
#
# Elastic Constant Matrix: (Units=GPa)
#
#
# Indices 1 2 3 4 5 6 
#
# 1 78.9631 47.0458 27.8754 0.0000 0.0000 0.0000
# 2 47.0458 161.2172 50.3698 0.0000 0.0000 0.0000
# 3 27.8754 50.3698 102.7076 0.0000 0.0000 0.0000
# 4 0.0000 0.0000 0.0000 36.9762 0.0000 0.0000
# 5 0.0000 0.0000 0.0000 0.0000 16.4737 0.0000
# 6 0.0000 0.0000 0.0000 0.0000 0.0000 37.5099
#
#
#
# Elastic Compliance Matrix: (Units=1/GPa)
#
#
# Indices 1 2 3 4 5 6 
#
# 1 0.015813 -0.003866 -0.002396 0.000000 0.000000 0.000000
# 2 -0.003866 0.008270 -0.003007 0.000000 0.000000 0.000000
# 3 -0.002396 -0.003007 0.011861 0.000000 0.000000 0.000000
# 4 0.000000 0.000000 0.000000 0.027044 0.000000 0.000000
# 5 0.000000 0.000000 0.000000 0.000000 0.060703 0.000000
# 6 0.000000 0.000000 0.000000 0.000000 0.000000 0.026660
#
#
# Mechanical properties :
#
#
# Convention : Reuss Voigt Hill
#
# Bulk Modulus (GPa) = 57.44584 65.94109 61.69347
# Shear Modulus (GPa) = 28.62192 32.69843 30.66017
#
# Velocity S-wave (km/s) = 3.85479 4.12016 3.98968
# Velocity P-wave (km/s) = 7.04529 7.54111 7.29741
#
# Compressibility (1/GPa) = 0.01740770
#
# Stress axis : x y z
#
# Youngs Moduli (GPa) = 63.23799 120.91351 84.30877
#
# Poissons Ratio (x) = 0.46745 0.20199
# Poissons Ratio (y) = 0.24448 0.25349
# Poissons Ratio (z) = 0.15151 0.36355
#
# Static dielectric constant tensor:
#      x y z
#    x 3.563260 0.000000 0.000000 
#    y 0.000000 3.769690 0.000000 
#    z 0.000000 0.000000 3.577140 
# 
# 
# High freq. dielectric constant tensor:
#      x y z
#    x 1.729960 0.000000 0.000000 
#    y 0.000000 1.772710 0.000000 
#    z 0.000000 0.000000 1.758780 
# 
# From -- ./inp_files/2103.got.cif
#   From: 2010.03.12/outbox.cif.g09.slc.cpg/sg57_2_cif.got.tgz:2103.got - 2010.04.16 15:48:40.
