data_PCOD8231157
_publ_section_title
;
Structure prediction by ZEFSAII (Michael W. Deem and Ramdas Pophale) SiO2 
 PCOD8231157
Probable space group: P B C M
;
_chemical_formula_sum "Si O2"
_cell_formula_units_Z 56
_cell_length_a 16.616762
_cell_length_b 21.163183
_cell_length_c 9.223421
_cell_angle_alpha 90.000000
_cell_angle_beta 90.000000
_cell_angle_gamma 90.000000
_cell_volume 3243.541203
_symmetry_space_group_name_H-M "P B C M"
_symmetry_group_IT_number 57
_symmetry_cell_setting 'orthorhombic'
loop_
_space_group_symop_operation_xyz
x,y,z
-x,-y,1/2+z
x,1/2-y,-z
-x,1/2+y,1/2-z
-x,-y,-z
x,y,1/2-z
-x,1/2+y,z
x,1/2-y,1/2+z
loop_
_atom_site_type_symbol
_atom_site_label
_atom_site_fract_x
_atom_site_fract_y
_atom_site_fract_z
Si Si1 0.115805 0.467298 0.083341
Si Si2 0.133182 0.684891 0.578740
Si Si3 0.020775 0.595570 0.082942
Si Si4 0.707208 0.993835 0.083766
Si Si5 0.542145 0.186489 0.918661
Si Si6 0.539666 0.941629 0.417592
Si Si7 0.298074 0.880837 0.083358
O O1 0.107860 0.444779 0.250000
O O2 0.081484 0.537483 0.064892
O O3 0.207943 0.466017 0.026872
O O4 0.067064 0.420257 0.979781
O O5 0.148138 0.750000 0.500000
O O6 0.122158 0.694548 0.750000
O O7 0.054175 0.653152 0.511662
O O8 0.210141 0.642648 0.540160
O O9 0.011994 0.615958 0.250000
O O10 0.719576 0.012954 0.250000
O O11 0.636524 0.942568 0.062706
O O12 0.679758 0.056841 0.003704
O O13 0.525397 0.197723 0.750000
O O14 0.491155 0.126089 0.976279
O O15 0.636267 0.173197 0.950764
O O16 0.514909 0.250000 0.000000
O O17 0.514802 0.948978 0.250000
O O18 0.500000 0.000000 0.500000
O O19 0.302279 0.900253 0.250000
#
# Coordination Sequence:
#
# PCOD8231157 Si02
#       7
#     8   8   8   8   8   8   8
#     4   9  18  32  50  74 102 131 166 209 258 307
#     4  11  22  34  50  73 105 142 176 210 256 308
#     4  10  19  32  51  74 100 132 172 211 252 306
#     4  10  19  32  53  79 106 138 173 214 265 316
#     4  10  21  36  52  75 106 141 180 219 260 313
#     4  10  20  34  54  79 107 138 177 222 268 319
#     4  10  20  33  50  75 107 140 173 213 259 312
#
# _framework density 17.265080000000001
#
# number of rings (size 3 to 8) (size 9 to 14) (size 15 to 20)
#    0.000    2.000    2.857    1.286    0.000    2.857 
#    0.000    0.000    0.000    0.857    0.000    2.000 
#    0.000    0.000    0.000    0.000    0.000    0.000 
#
# Total GULP energy -694453.950828 kJ/mol
# GULP energy per Si atom -12400.963408 kJ/mol
# Density = 1.722578 g / cm^3
# Si number density = 17.265080 Si / 1000 Ang^3
#
#
#
# Elastic Constant Matrix: (Units=GPa)
#
#
# Indices 1 2 3 4 5 6 
#
# 1 101.5840 43.7233 36.6230 0.0000 0.0000 0.0000
# 2 43.7233 92.5708 50.9718 0.0000 0.0000 0.0000
# 3 36.6230 50.9718 69.9933 0.0000 0.0000 0.0000
# 4 0.0000 0.0000 0.0000 31.3900 0.0000 0.0000
# 5 0.0000 0.0000 0.0000 0.0000 22.5463 0.0000
# 6 0.0000 0.0000 0.0000 0.0000 0.0000 17.8255
#
#
#
# Elastic Compliance Matrix: (Units=1/GPa)
#
#
# Indices 1 2 3 4 5 6 
#
# 1 0.012957 -0.003985 -0.003878 0.000000 0.000000 0.000000
# 2 -0.003985 0.019259 -0.011940 0.000000 0.000000 0.000000
# 3 -0.003878 -0.011940 0.025012 0.000000 0.000000 0.000000
# 4 0.000000 0.000000 0.000000 0.031857 0.000000 0.000000
# 5 0.000000 0.000000 0.000000 0.000000 0.044353 0.000000
# 6 0.000000 0.000000 0.000000 0.000000 0.000000 0.056099
#
#
# Mechanical properties :
#
#
# Convention : Reuss Voigt Hill
#
# Bulk Modulus (GPa) = 56.74688 58.53158 57.63923
# Shear Modulus (GPa) = 21.27497 23.20769 22.24133
#
# Velocity S-wave (km/s) = 3.51416 3.67031 3.59308
# Velocity P-wave (km/s) = 7.02888 7.20672 7.11835
#
# Compressibility (1/GPa) = 0.01762211
#
# Stress axis : x y z
#
# Youngs Moduli (GPa) = 77.17717 51.92291 39.98151
#
# Poissons Ratio (x) = 0.20690 0.15504
# Poissons Ratio (y) = 0.30753 0.47740
# Poissons Ratio (z) = 0.29928 0.61998
#
# Static dielectric constant tensor:
#      x y z
#    x 3.435220 0.000000 0.000000 
#    y 0.000000 3.113470 0.000000 
#    z 0.000000 0.000000 3.255450 
# 
# 
# High freq. dielectric constant tensor:
#      x y z
#    x 1.669530 0.000000 0.000000 
#    y 0.000000 1.643340 0.000000 
#    z 0.000000 0.000000 1.668990 
# 
# From -- ./inp_files/6989.got.cif
#   From: 2010.03.12/outbox.cif.g09.slc.cpg/sg57_4_cif.got.tgz:6989.got - 2010.04.16 15:48:40.
