data_PCOD8231117
_publ_section_title
;
Structure prediction by ZEFSAII (Michael W. Deem and Ramdas Pophale) SiO2 
 PCOD8231117
Probable space group: P B C M
;
_chemical_formula_sum "Si O2"
_cell_formula_units_Z 48
_cell_length_a 15.246450
_cell_length_b 20.120033
_cell_length_c 8.740180
_cell_angle_alpha 90.000000
_cell_angle_beta 90.000000
_cell_angle_gamma 90.000000
_cell_volume 2681.129551
_symmetry_space_group_name_H-M "P B C M"
_symmetry_group_IT_number 57
_symmetry_cell_setting 'orthorhombic'
loop_
_space_group_symop_operation_xyz
x,y,z
-x,-y,1/2+z
x,1/2-y,-z
-x,1/2+y,1/2-z
-x,-y,-z
x,y,1/2-z
-x,1/2+y,z
x,1/2-y,1/2+z
loop_
_atom_site_type_symbol
_atom_site_label
_atom_site_fract_x
_atom_site_fract_y
_atom_site_fract_z
Si Si1 0.914330 0.678900 0.569667
Si Si2 0.035098 0.567641 0.070843
Si Si3 0.416865 0.413384 0.076369
Si Si4 0.599220 0.448762 0.073955
Si Si5 0.210210 0.543687 0.576638
Si Si6 0.753987 0.888836 0.925190
O O1 0.935758 0.750000 0.500000
O O2 0.924146 0.681694 0.750000
O O3 0.816058 0.656862 0.527460
O O4 0.985258 0.628831 0.502567
O O5 0.016773 0.567158 0.250000
O O6 0.138757 0.574287 0.037576
O O7 0.000000 0.500000 0.000000
O O8 0.389484 0.398591 0.250000
O O9 0.520393 0.394813 0.047249
O O10 0.412248 0.492000 0.046083
O O11 0.347791 0.374292 0.969684
O O12 0.594371 0.476021 0.250000
O O13 0.696780 0.418270 0.048950
O O14 0.177038 0.553930 0.750000
O O15 0.223394 0.465539 0.543345
O O16 0.768373 0.868941 0.750000
#
# Coordination Sequence:
#
# PCOD8231117 Si02
#       6
#     8   8   8   8   8   8
#     4  12  25  41  59  79 106 140 179 225 275 330
#     4  12  23  36  55  80 108 142 183 227 273 325
#     4   9  15  24  41  66  97 134 172 209 254 306
#     4   8  15  26  40  63  99 136 170 211 258 307
#     4   9  17  30  49  73 104 139 178 221 267 315
#     4  10  19  32  50  73 104 139 175 215 262 317
#
# _framework density 17.902902000000001
#
# number of rings (size 3 to 8) (size 9 to 14) (size 15 to 20)
#    0.000    2.000    1.667    5.000    0.000    3.333 
#    0.000    0.000    0.000    0.000    0.000    1.167 
#    0.000    0.000    0.000    0.000    0.000    0.000 
#
# Total GULP energy -594917.295353 kJ/mol
# GULP energy per Si atom -12394.110320 kJ/mol
# Density = 1.786215 g / cm^3
# Si number density = 17.902902 Si / 1000 Ang^3
#
#
#
# Elastic Constant Matrix: (Units=GPa)
#
#
# Indices 1 2 3 4 5 6 
#
# 1 150.6555 47.1743 54.8629 0.0000 0.0000 0.0000
# 2 47.1743 69.0695 40.4262 0.0000 0.0000 0.0000
# 3 54.8629 40.4262 121.1488 0.0000 0.0000 0.0000
# 4 0.0000 0.0000 0.0000 20.7417 0.0000 0.0000
# 5 0.0000 0.0000 0.0000 0.0000 31.5979 0.0000
# 6 0.0000 0.0000 0.0000 0.0000 0.0000 12.9117
#
#
#
# Elastic Compliance Matrix: (Units=1/GPa)
#
#
# Indices 1 2 3 4 5 6 
#
# 1 0.009024 -0.004687 -0.002523 0.000000 0.000000 0.000000
# 2 -0.004687 0.020426 -0.004694 0.000000 0.000000 0.000000
# 3 -0.002523 -0.004694 0.010963 0.000000 0.000000 0.000000
# 4 0.000000 0.000000 0.000000 0.048212 0.000000 0.000000
# 5 0.000000 0.000000 0.000000 0.000000 0.031648 0.000000
# 6 0.000000 0.000000 0.000000 0.000000 0.000000 0.077449
#
#
# Mechanical properties :
#
#
# Convention : Reuss Voigt Hill
#
# Bulk Modulus (GPa) = 60.21511 69.53339 64.87425
# Shear Modulus (GPa) = 22.02024 26.27763 24.14894
#
# Velocity S-wave (km/s) = 3.51091 3.83533 3.67670
# Velocity P-wave (km/s) = 7.08115 7.65091 7.37154
#
# Compressibility (1/GPa) = 0.01660713
#
# Stress axis : x y z
#
# Youngs Moduli (GPa) = 110.81755 48.95612 91.21684
#
# Poissons Ratio (x) = 0.22945 0.23010
# Poissons Ratio (y) = 0.51938 0.42814
# Poissons Ratio (z) = 0.27954 0.22978
#
# Static dielectric constant tensor:
#      x y z
#    x 4.045200 0.000000 0.000000 
#    y 0.000000 3.192500 0.000000 
#    z 0.000000 0.000000 3.422840 
# 
# 
# High freq. dielectric constant tensor:
#      x y z
#    x 1.720500 0.000000 0.000000 
#    y 0.000000 1.616360 0.000000 
#    z 0.000000 0.000000 1.704820 
# 
# From -- ./inp_files/5353.got.cif
#   From: 2010.03.12/outbox.cif.g09.slc.cpg/sg57_3_cif.got.tgz:5353.got - 2010.04.16 15:48:40.
