data_PCOD8231930
_publ_section_title
;
Structure prediction by ZEFSAII (Michael W. Deem and Ramdas Pophale) SiO2 
 PCOD8231930
Probable space group: P B C M
;
_chemical_formula_sum "Si O2"
_cell_formula_units_Z 48
_cell_length_a 10.103589
_cell_length_b 13.958294
_cell_length_c 17.730942
_cell_angle_alpha 90.000000
_cell_angle_beta 90.000000
_cell_angle_gamma 90.000000
_cell_volume 2500.574638
_symmetry_space_group_name_H-M "P B C M"
_symmetry_group_IT_number 57
_symmetry_cell_setting 'orthorhombic'
loop_
_space_group_symop_operation_xyz
x,y,z
-x,-y,1/2+z
x,1/2-y,-z
-x,1/2+y,1/2-z
-x,-y,-z
x,y,1/2-z
-x,1/2+y,z
x,1/2-y,1/2+z
loop_
_atom_site_type_symbol
_atom_site_label
_atom_site_fract_x
_atom_site_fract_y
_atom_site_fract_z
Si Si1 0.485942 0.017200 0.587498
Si Si2 0.385516 0.840827 0.660986
Si Si3 0.142992 0.715037 0.839320
Si Si4 0.386728 0.227323 0.912390
Si Si5 0.867795 0.802467 0.838650
Si Si6 0.769189 0.490370 0.338016
O O1 0.430808 0.120796 0.606629
O O2 0.628988 0.999717 0.622570
O O3 0.500000 0.000000 0.500000
O O4 0.377914 0.944984 0.622767
O O5 0.376195 0.852539 0.750000
O O6 0.267126 0.775234 0.628446
O O7 0.525987 0.796876 0.638643
O O8 0.146839 0.718949 0.750000
O O9 0.153788 0.604686 0.867282
O O10 0.009049 0.764587 0.868244
O O11 0.236413 0.242376 0.887223
O O12 0.406370 0.250000 0.000000
O O13 0.846930 0.781980 0.750000
O O14 0.857700 0.916134 0.855921
O O15 0.739779 0.480777 0.250000
#
# Coordination Sequence:
#
# PCOD8231930 Si02
#       6
#     8   8   8   8   8   8
#     4  12  23  37  60  89 124 160 203 252 307 358
#     4  11  22  38  62  92 119 155 209 254 295 361
#     4   9  20  37  60  89 121 157 201 251 303 359
#     4  12  23  39  61  88 122 161 202 251 306 361
#     4  10  21  38  60  88 121 156 200 253 302 360
#     4  10  19  35  60  86 118 157 199 249 308 357
#
# _framework density 19.195588000000001
#
# number of rings (size 3 to 8) (size 9 to 14) (size 15 to 20)
#    0.000    1.333    5.000    1.000    0.000    3.333 
#    0.000    5.833    0.000    4.000    0.000    0.000 
#    0.000    0.000    0.000    0.000    0.000    0.000 
#
# Total GULP energy -595310.634771 kJ/mol
# GULP energy per Si atom -12402.304891 kJ/mol
# Density = 1.915190 g / cm^3
# Si number density = 19.195588 Si / 1000 Ang^3
#
#
#
# Elastic Constant Matrix: (Units=GPa)
#
#
# Indices 1 2 3 4 5 6 
#
# 1 114.9535 45.3259 20.1518 0.0000 0.0000 0.0000
# 2 45.3259 129.5180 33.8231 0.0000 0.0000 0.0000
# 3 20.1518 33.8231 57.8128 0.0000 0.0000 0.0000
# 4 0.0000 0.0000 0.0000 27.5971 0.0000 0.0000
# 5 0.0000 0.0000 0.0000 0.0000 -24.5098 0.0000
# 6 0.0000 0.0000 0.0000 0.0000 0.0000 38.7742
#
#
#
# Elastic Compliance Matrix: (Units=1/GPa)
#
#
# Indices 1 2 3 4 5 6 
#
# 1 0.010238 -0.003129 -0.001738 0.000000 0.000000 0.000000
# 2 -0.003129 0.010070 -0.004801 0.000000 0.000000 0.000000
# 3 -0.001738 -0.004801 0.020712 0.000000 0.000000 0.000000
# 4 0.000000 0.000000 0.000000 0.036236 0.000000 0.000000
# 5 0.000000 0.000000 0.000000 0.000000 -0.040800 0.000000
# 6 0.000000 0.000000 0.000000 0.000000 0.000000 0.025790
#
#
# Mechanical properties :
#
#
# Convention : Reuss Voigt Hill
#
# Bulk Modulus (GPa) = 46.11713 55.65400 50.88556
# Shear Modulus (GPa) = 56.30169 21.90453 39.10311
#
# Velocity S-wave (km/s) = 5.42164 3.38172 4.51831
# Velocity P-wave (km/s) = 7.95420 6.65613 7.33394
#
# Compressibility (1/GPa) = 0.02168392
#
# Stress axis : x y z
#
# Youngs Moduli (GPa) = 97.67967 99.30939 48.28230
#
# Poissons Ratio (x) = 0.31072 0.08391
# Poissons Ratio (y) = 0.30562 0.23178
# Poissons Ratio (z) = 0.16977 0.47674
#
# Static dielectric constant tensor:
#      x y z
#    x 3.588450 0.000000 0.000000 
#    y 0.000000 3.716290 0.000000 
#    z 0.000000 0.000000 3.203210 
# 
# 
# High freq. dielectric constant tensor:
#      x y z
#    x 1.741010 0.000000 0.000000 
#    y 0.000000 1.768080 0.000000 
#    z 0.000000 0.000000 1.730050 
# 
# From -- ./inp_files/20904.got.cif
#   From: 2010.03.12/outbox.cif.g09.slc.cpg/sg57_11_cif.got.tgz:20904.got - 2010.04.16 15:48:40.
