data_PCOD8231774
_publ_section_title
;
Structure prediction by ZEFSAII (Michael W. Deem and Ramdas Pophale) SiO2 
 PCOD8231774
Probable space group: P B C M
;
_chemical_formula_sum "Si O2"
_cell_formula_units_Z 64
_cell_length_a 21.427649
_cell_length_b 17.656273
_cell_length_c 8.899375
_cell_angle_alpha 90.000000
_cell_angle_beta 90.000000
_cell_angle_gamma 90.000000
_cell_volume 3366.922085
_symmetry_space_group_name_H-M "P B C M"
_symmetry_group_IT_number 57
_symmetry_cell_setting 'orthorhombic'
loop_
_space_group_symop_operation_xyz
x,y,z
-x,-y,1/2+z
x,1/2-y,-z
-x,1/2+y,1/2-z
-x,-y,-z
x,y,1/2-z
-x,1/2+y,z
x,1/2-y,1/2+z
loop_
_atom_site_type_symbol
_atom_site_label
_atom_site_fract_x
_atom_site_fract_y
_atom_site_fract_z
Si Si1 0.392308 0.418594 0.071886
Si Si2 0.756529 0.388808 0.075659
Si Si3 0.934932 0.019048 0.073686
Si Si4 0.721539 0.669483 0.426994
Si Si5 0.179811 0.044809 0.422213
Si Si6 0.369361 0.909126 0.576459
Si Si7 0.501196 0.330659 0.925724
Si Si8 0.873326 0.174764 0.073095
O O1 0.393428 0.408042 0.250000
O O2 0.383643 0.505549 0.024112
O O3 0.337833 0.368128 0.003341
O O4 0.457680 0.392752 0.003072
O O5 0.761811 0.368558 0.250000
O O6 0.773690 0.475821 0.041132
O O7 0.686523 0.374183 0.020599
O O8 0.802878 0.334112 0.985897
O O9 0.942335 0.013101 0.250000
O O10 0.914752 0.103181 0.022093
O O11 0.882412 0.959162 0.022284
O O12 0.000000 0.000000 0.000000
O O13 0.734144 0.750000 0.500000
O O14 0.708745 0.676433 0.250000
O O15 0.783578 0.621245 0.460916
O O16 0.158218 0.042157 0.250000
O O17 0.349572 0.908556 0.750000
O O18 0.428138 0.855819 0.545457
O O19 0.485410 0.326023 0.750000
O O20 0.488474 0.250000 0.000000
O O21 0.872258 0.183614 0.250000
O O22 0.903259 0.250000 0.000000
#
# Coordination Sequence:
#
# PCOD8231774 Si02
#       8
#     8   8   8   8   8   8   8   8
#     4  11  22  38  60  83 108 144 188 237 289 343
#     4  10  19  34  58  85 113 148 185 230 284 337
#     4  10  21  37  61  89 118 154 196 237 281 333
#     4  11  22  37  57  85 116 149 188 235 287 342
#     4   9  19  36  57  82 114 148 187 230 276 332
#     4  10  22  38  58  83 111 145 188 236 285 343
#     4  11  24  41  57  77 108 145 186 235 288 345
#     4  10  21  37  58  87 120 155 194 238 284 335
#
# _framework density 19.008458000000001
#
# number of rings (size 3 to 8) (size 9 to 14) (size 15 to 20)
#    0.000    1.750    1.250    3.000    0.000    5.000 
#    0.000    1.875    0.000    0.000    0.000    0.000 
#    0.000    0.000    0.000    0.000    0.000    0.000 
#
# Total GULP energy -793925.096998 kJ/mol
# GULP energy per Si atom -12405.079641 kJ/mol
# Density = 1.896519 g / cm^3
# Si number density = 19.008458 Si / 1000 Ang^3
#
#
#
# Elastic Constant Matrix: (Units=GPa)
#
#
# Indices 1 2 3 4 5 6 
#
# 1 107.0928 22.4865 47.5148 0.0000 0.0000 0.0000
# 2 22.4865 74.5060 32.2187 0.0000 0.0000 0.0000
# 3 47.5148 32.2187 84.3055 0.0000 0.0000 0.0000
# 4 0.0000 0.0000 0.0000 28.8301 0.0000 0.0000
# 5 0.0000 0.0000 0.0000 0.0000 37.5893 0.0000
# 6 0.0000 0.0000 0.0000 0.0000 0.0000 20.3462
#
#
#
# Elastic Compliance Matrix: (Units=1/GPa)
#
#
# Indices 1 2 3 4 5 6 
#
# 1 0.012498 -0.000870 -0.006712 0.000000 0.000000 0.000000
# 2 -0.000870 0.016139 -0.005678 0.000000 0.000000 0.000000
# 3 -0.006712 -0.005678 0.017814 0.000000 0.000000 0.000000
# 4 0.000000 0.000000 0.000000 0.034686 0.000000 0.000000
# 5 0.000000 0.000000 0.000000 0.000000 0.026603 0.000000
# 6 0.000000 0.000000 0.000000 0.000000 0.000000 0.049149
#
#
# Mechanical properties :
#
#
# Convention : Reuss Voigt Hill
#
# Bulk Modulus (GPa) = 50.16673 52.26050 51.21361
# Shear Modulus (GPa) = 26.30844 28.26539 27.28691
#
# Velocity S-wave (km/s) = 3.72430 3.86033 3.79293
# Velocity P-wave (km/s) = 6.70395 6.88640 6.79579
#
# Compressibility (1/GPa) = 0.01993353
#
# Stress axis : x y z
#
# Youngs Moduli (GPa) = 80.01210 61.95989 56.13509
#
# Poissons Ratio (x) = 0.05389 0.37676
# Poissons Ratio (y) = 0.06959 0.31872
# Poissons Ratio (z) = 0.53701 0.35180
#
# Static dielectric constant tensor:
#      x y z
#    x 3.410430 0.000000 0.000000 
#    y 0.000000 3.595890 0.000000 
#    z 0.000000 0.000000 3.561840 
# 
# 
# High freq. dielectric constant tensor:
#      x y z
#    x 1.735740 0.000000 0.000000 
#    y 0.000000 1.739950 0.000000 
#    z 0.000000 0.000000 1.750360 
# 
# From -- ./inp_files/8414.got.cif
#   From: 2010.03.12/outbox.cif.g09.slc.cpg/sg57_5_cif.got.tgz:8414.got - 2010.04.16 15:48:40.
