data_PCOD8231566
_publ_section_title
;
Structure prediction by ZEFSAII (Michael W. Deem and Ramdas Pophale) SiO2 
 PCOD8231566
Probable space group: P B C M
;
_chemical_formula_sum "Si O2"
_cell_formula_units_Z 48
_cell_length_a 31.227090
_cell_length_b 9.108243
_cell_length_c 8.855910
_cell_angle_alpha 90.000000
_cell_angle_beta 90.000000
_cell_angle_gamma 90.000000
_cell_volume 2518.832672
_symmetry_space_group_name_H-M "P B C M"
_symmetry_group_IT_number 57
_symmetry_cell_setting 'orthorhombic'
loop_
_space_group_symop_operation_xyz
x,y,z
-x,-y,1/2+z
x,1/2-y,-z
-x,1/2+y,1/2-z
-x,-y,-z
x,y,1/2-z
-x,1/2+y,z
x,1/2-y,1/2+z
loop_
_atom_site_type_symbol
_atom_site_label
_atom_site_fract_x
_atom_site_fract_y
_atom_site_fract_z
Si Si1 0.788413 0.595254 0.924793
Si Si2 0.304654 0.410945 0.071571
Si Si3 0.880648 0.908684 0.072712
Si Si4 0.537418 0.592188 0.425710
Si Si5 0.378558 0.595055 0.925791
Si Si6 0.961715 0.408998 0.929942
O O1 0.788778 0.627190 0.750000
O O2 0.742848 0.519867 0.966274
O O3 0.833769 0.518369 0.970191
O O4 0.788492 0.750000 0.000000
O O5 0.312631 0.396781 0.250000
O O6 0.310974 0.250000 0.000000
O O7 0.336933 0.526624 0.001785
O O8 0.884872 0.884711 0.250000
O O9 0.917123 0.018726 0.016031
O O10 0.887261 0.750000 0.000000
O O11 0.540252 0.750000 0.500000
O O12 0.500000 0.500000 0.500000
O O13 0.527278 0.610376 0.250000
O O14 0.582004 0.512133 0.455385
O O15 0.369577 0.618475 0.750000
O O16 0.389700 0.750000 0.000000
O O17 0.966166 0.402125 0.750000
O O18 0.963537 0.250000 0.000000
O O19 0.000000 0.500000 0.000000
#
# Coordination Sequence:
#
# PCOD8231566 Si02
#       6
#     8   8   8   8   8   8
#     4   8  15  29  50  77 107 139 177 220 266 317
#     4  10  19  33  56  83 112 146 185 229 273 321
#     4   9  18  33  54  79 107 139 176 219 267 320
#     4  11  24  41  63  89 117 149 185 227 274 326
#     4  11  24  40  58  82 113 149 188 230 277 328
#     4  11  23  38  56  78 106 140 178 221 269 322
#
# _framework density 19.056446000000001
#
# number of rings (size 3 to 8) (size 9 to 14) (size 15 to 20)
#    0.000    2.000    0.000    3.500    0.000    8.667 
#    0.000    0.833    0.000    2.000    0.000    0.000 
#    0.000    0.000    0.000    0.000    0.000    0.000 
#
# Total GULP energy -594840.895351 kJ/mol
# GULP energy per Si atom -12392.518653 kJ/mol
# Density = 1.901307 g / cm^3
# Si number density = 19.056446 Si / 1000 Ang^3
#
#
#
# Elastic Constant Matrix: (Units=GPa)
#
#
# Indices 1 2 3 4 5 6 
#
# 1 168.5949 71.4752 79.1388 0.0000 0.0000 0.0000
# 2 71.4752 126.5854 61.9028 0.0000 0.0000 0.0000
# 3 79.1388 61.9028 92.1161 0.0000 0.0000 0.0000
# 4 0.0000 0.0000 0.0000 33.8705 0.0000 0.0000
# 5 0.0000 0.0000 0.0000 0.0000 29.5369 0.0000
# 6 0.0000 0.0000 0.0000 0.0000 0.0000 33.5929
#
#
#
# Elastic Compliance Matrix: (Units=1/GPa)
#
#
# Indices 1 2 3 4 5 6 
#
# 1 0.010345 -0.002227 -0.007391 0.000000 0.000000 0.000000
# 2 -0.002227 0.012246 -0.006316 0.000000 0.000000 0.000000
# 3 -0.007391 -0.006316 0.021450 0.000000 0.000000 0.000000
# 4 0.000000 0.000000 0.000000 0.029524 0.000000 0.000000
# 5 0.000000 0.000000 0.000000 0.000000 0.033856 0.000000
# 6 0.000000 0.000000 0.000000 0.000000 0.000000 0.029768
#
#
# Mechanical properties :
#
#
# Convention : Reuss Voigt Hill
#
# Bulk Modulus (GPa) = 82.15042 90.25890 86.20466
# Shear Modulus (GPa) = 28.88252 31.05202 29.96727
#
# Velocity S-wave (km/s) = 3.89733 4.04106 3.96984
# Velocity P-wave (km/s) = 7.96585 8.32108 8.14540
#
# Compressibility (1/GPa) = 0.01217279
#
# Stress axis : x y z
#
# Youngs Moduli (GPa) = 96.66744 81.65984 46.61945
#
# Poissons Ratio (x) = 0.18183 0.34457
# Poissons Ratio (y) = 0.21525 0.29446
# Poissons Ratio (z) = 0.71447 0.51579
#
# Static dielectric constant tensor:
#      x y z
#    x 4.447730 0.000000 0.000000 
#    y 0.000000 3.251190 0.000000 
#    z 0.000000 0.000000 3.657170 
# 
# 
# High freq. dielectric constant tensor:
#      x y z
#    x 1.772250 0.000000 0.000000 
#    y 0.000000 1.717520 0.000000 
#    z 0.000000 0.000000 1.752460 
# 
# From -- ./inp_files/9937.got.cif
#   From: 2010.03.12/outbox.cif.g09.slc.cpg/sg57_5_cif.got.tgz:9937.got - 2010.04.16 15:48:40.
