data_PCOD8231819
_publ_section_title
;
Structure prediction by ZEFSAII (Michael W. Deem and Ramdas Pophale) SiO2 
 PCOD8231819
Probable space group: P B C M
;
_chemical_formula_sum "Si O2"
_cell_formula_units_Z 64
_cell_length_a 5.866075
_cell_length_b 27.582525
_cell_length_c 21.828334
_cell_angle_alpha 90.000000
_cell_angle_beta 90.000000
_cell_angle_gamma 90.000000
_cell_volume 3531.849769
_symmetry_space_group_name_H-M "P B C M"
_symmetry_group_IT_number 57
_symmetry_cell_setting 'orthorhombic'
loop_
_space_group_symop_operation_xyz
x,y,z
-x,-y,1/2+z
x,1/2-y,-z
-x,1/2+y,1/2-z
-x,-y,-z
x,y,1/2-z
-x,1/2+y,z
x,1/2-y,1/2+z
loop_
_atom_site_type_symbol
_atom_site_label
_atom_site_fract_x
_atom_site_fract_y
_atom_site_fract_z
Si Si1 0.951793 0.807775 0.586095
Si Si2 0.994422 0.164761 0.679803
Si Si3 0.302179 0.244144 0.318536
Si Si4 0.248683 0.500432 0.465990
Si Si5 0.309517 0.769835 0.097295
Si Si6 0.207581 0.604832 0.461537
Si Si7 0.412347 0.168998 0.994100
Si Si8 0.103828 0.098239 0.923037
O O1 0.880672 0.794915 0.655773
O O2 0.743271 0.799519 0.539535
O O3 0.139660 0.768641 0.566816
O O4 0.038424 0.863222 0.580444
O O5 0.918752 0.154707 0.750000
O O6 0.794836 0.189806 0.641712
O O7 0.210978 0.200701 0.678820
O O8 0.039645 0.112814 0.646749
O O9 0.363709 0.228545 0.250000
O O10 0.520558 0.238979 0.361015
O O11 0.500000 0.500000 0.500000
O O12 0.243056 0.551988 0.430276
O O13 0.239295 0.453159 0.422272
O O14 0.000000 0.500000 0.500000
O O15 0.417509 0.794935 0.038786
O O16 0.452239 0.629981 0.465197
O O17 0.111767 0.597414 0.530859
O O18 0.264830 0.141879 0.943615
#
# Coordination Sequence:
#
# PCOD8231819 Si02
#       8
#     8   8   8   8   8   8   8   8
#     4  10  24  35  50  82 111 148 189 241 289 343
#     4  10  20  35  54  80 112 148 192 238 285 351
#     4  10  21  37  54  73 105 150 197 236 282 348
#     4  10  20  35  59  85 115 153 191 237 296 363
#     4  11  21  36  53  78 113 155 195 233 295 351
#     4  10  20  35  54  81 114 148 185 237 295 355
#     4  11  20  34  53  77 117 147 187 231 296 355
#     4  10  19  35  54  81 113 146 187 237 295 352
#
# _framework density 18.120816000000001
#
# number of rings (size 3 to 8) (size 9 to 14) (size 15 to 20)
#    0.000    1.750    3.750    1.125    0.000    3.500 
#    0.000    0.000    0.000    0.750    0.000    0.000 
#    0.000    0.000    0.000    0.000    0.000    0.000 
#
# Total GULP energy -792953.363008 kJ/mol
# GULP energy per Si atom -12389.896297 kJ/mol
# Density = 1.807957 g / cm^3
# Si number density = 18.120816 Si / 1000 Ang^3
#
#
#
# Elastic Constant Matrix: (Units=GPa)
#
#
# Indices 1 2 3 4 5 6 
#
# 1 80.5061 29.1747 10.7778 0.0000 0.0000 0.0000
# 2 29.1747 117.8182 56.5056 0.0000 0.0000 0.0000
# 3 10.7778 56.5056 59.1243 0.0000 0.0000 0.0000
# 4 0.0000 0.0000 0.0000 18.9016 0.0000 0.0000
# 5 0.0000 0.0000 0.0000 0.0000 14.8515 0.0000
# 6 0.0000 0.0000 0.0000 0.0000 0.0000 25.7216
#
#
#
# Elastic Compliance Matrix: (Units=1/GPa)
#
#
# Indices 1 2 3 4 5 6 
#
# 1 0.013706 -0.004054 0.001376 0.000000 0.000000 0.000000
# 2 -0.004054 0.016869 -0.015383 0.000000 0.000000 0.000000
# 3 0.001376 -0.015383 0.031364 0.000000 0.000000 0.000000
# 4 0.000000 0.000000 0.000000 0.052905 0.000000 0.000000
# 5 0.000000 0.000000 0.000000 0.000000 0.067333 0.000000
# 6 0.000000 0.000000 0.000000 0.000000 0.000000 0.038878
#
#
# Mechanical properties :
#
#
# Convention : Reuss Voigt Hill
#
# Bulk Modulus (GPa) = 38.73314 50.04055 44.38684
# Shear Modulus (GPa) = 18.81221 22.62765 20.71993
#
# Velocity S-wave (km/s) = 3.22554 3.53754 3.38514
# Velocity P-wave (km/s) = 5.94083 6.66037 6.31086
#
# Compressibility (1/GPa) = 0.02581769
#
# Stress axis : x y z
#
# Youngs Moduli (GPa) = 72.95903 59.27963 31.88323
#
# Poissons Ratio (x) = 0.24031 -0.04386
# Poissons Ratio (y) = 0.29576 0.49046
# Poissons Ratio (z) = -0.10037 0.91190
#
# Static dielectric constant tensor:
#      x y z
#    x 3.674640 0.000000 0.000000 
#    y 0.000000 3.581440 0.000000 
#    z 0.000000 0.000000 3.123520 
# 
# 
# High freq. dielectric constant tensor:
#      x y z
#    x 1.721140 0.000000 0.000000 
#    y 0.000000 1.697390 0.000000 
#    z 0.000000 0.000000 1.661650 
# 
# From -- ./inp_files/26393.got.cif
#   From: 2010.03.12/outbox.cif.g09.slc.cpg/sg57_14_cif.got.tgz:26393.got - 2010.04.16 15:48:40.
