data_PCOD8231245
_publ_section_title
;
Structure prediction by ZEFSAII (Michael W. Deem and Ramdas Pophale) SiO2 
 PCOD8231245
Probable space group: P B C M
;
_chemical_formula_sum "Si O2"
_cell_formula_units_Z 56
_cell_length_a 22.127464
_cell_length_b 14.356946
_cell_length_c 8.949607
_cell_angle_alpha 90.000000
_cell_angle_beta 90.000000
_cell_angle_gamma 90.000000
_cell_volume 2843.136262
_symmetry_space_group_name_H-M "P B C M"
_symmetry_group_IT_number 57
_symmetry_cell_setting 'orthorhombic'
loop_
_space_group_symop_operation_xyz
x,y,z
-x,-y,1/2+z
x,1/2-y,-z
-x,1/2+y,1/2-z
-x,-y,-z
x,y,1/2-z
-x,1/2+y,z
x,1/2-y,1/2+z
loop_
_atom_site_type_symbol
_atom_site_label
_atom_site_fract_x
_atom_site_fract_y
_atom_site_fract_z
Si Si1 0.095822 0.655895 0.575082
Si Si2 0.531140 0.843457 0.424569
Si Si3 0.751445 0.649899 0.925222
Si Si4 0.638272 0.972666 0.425384
Si Si5 0.969720 0.843488 0.924079
Si Si6 0.606576 0.154627 0.573830
Si Si7 0.854275 0.962115 0.920329
O O1 0.121885 0.750000 0.500000
O O2 0.085391 0.672862 0.750000
O O3 0.032154 0.627693 0.501865
O O4 0.143708 0.572871 0.547928
O O5 0.555944 0.750000 0.500000
O O6 0.535090 0.825838 0.250000
O O7 0.573965 0.928488 0.472786
O O8 0.462736 0.864357 0.475572
O O9 0.752512 0.666135 0.750000
O O10 0.690568 0.597833 0.976409
O O11 0.755580 0.750000 0.000000
O O12 0.807702 0.585805 0.968882
O O13 0.641584 0.993497 0.250000
O O14 0.646613 0.069529 0.512842
O O15 0.981707 0.824982 0.750000
O O16 0.921447 0.924422 0.950152
O O17 0.943661 0.750000 0.000000
O O18 0.630107 0.250000 0.500000
O O19 0.614167 0.162682 0.750000
O O20 0.834439 0.941333 0.750000
#
# Coordination Sequence:
#
# PCOD8231245 Si02
#       7
#     8   8   8   8   8   8   8
#     4  10  20  35  55  81 111 142 177 221 271 323
#     4   9  18  32  52  80 113 144 178 221 271 325
#     4  11  24  40  60  83 109 142 180 222 268 316
#     4  10  21  37  55  79 110 144 183 226 269 319
#     4  10  19  32  52  80 111 143 178 219 269 324
#     4  10  20  34  55  82 110 144 180 221 272 324
#     4  10  22  38  56  79 109 145 185 226 269 317
#
# _framework density 19.696558
#
# number of rings (size 3 to 8) (size 9 to 14) (size 15 to 20)
#    0.000    2.000    0.000    4.286    0.000    5.714 
#    0.000    0.714    0.000    1.714    0.000    0.000 
#    0.000    0.000    0.000    0.000    0.000    0.000 
#
# Total GULP energy -694534.322474 kJ/mol
# GULP energy per Si atom -12402.398616 kJ/mol
# Density = 1.965173 g / cm^3
# Si number density = 19.696558 Si / 1000 Ang^3
#
#
#
# Elastic Constant Matrix: (Units=GPa)
#
#
# Indices 1 2 3 4 5 6 
#
# 1 59.3514 47.4238 35.1884 0.0000 0.0000 0.0000
# 2 47.4238 143.3700 56.8754 0.0000 0.0000 0.0000
# 3 35.1884 56.8754 85.4718 0.0000 0.0000 0.0000
# 4 0.0000 0.0000 0.0000 35.3537 0.0000 0.0000
# 5 0.0000 0.0000 0.0000 0.0000 23.2426 0.0000
# 6 0.0000 0.0000 0.0000 0.0000 0.0000 27.9657
#
#
#
# Elastic Compliance Matrix: (Units=1/GPa)
#
#
# Indices 1 2 3 4 5 6 
#
# 1 0.025379 -0.005774 -0.006606 0.000000 0.000000 0.000000
# 2 -0.005774 0.010790 -0.004803 0.000000 0.000000 0.000000
# 3 -0.006606 -0.004803 0.017616 0.000000 0.000000 0.000000
# 4 0.000000 0.000000 0.000000 0.028286 0.000000 0.000000
# 5 0.000000 0.000000 0.000000 0.000000 0.043024 0.000000
# 6 0.000000 0.000000 0.000000 0.000000 0.000000 0.035758
#
#
# Mechanical properties :
#
#
# Convention : Reuss Voigt Hill
#
# Bulk Modulus (GPa) = 51.49767 63.01870 57.25818
# Shear Modulus (GPa) = 24.79016 27.22611 26.00814
#
# Velocity S-wave (km/s) = 3.55153 3.72193 3.63773
# Velocity P-wave (km/s) = 6.55897 7.10877 6.83940
#
# Compressibility (1/GPa) = 0.01941836
#
# Stress axis : x y z
#
# Youngs Moduli (GPa) = 39.40215 92.67580 56.76805
#
# Poissons Ratio (x) = 0.53513 0.37502
# Poissons Ratio (y) = 0.22752 0.27265
# Poissons Ratio (z) = 0.26030 0.44512
#
# Static dielectric constant tensor:
#      x y z
#    x 3.422480 0.000000 0.000000 
#    y 0.000000 3.682260 0.000000 
#    z 0.000000 0.000000 3.567540 
# 
# 
# High freq. dielectric constant tensor:
#      x y z
#    x 1.744700 0.000000 0.000000 
#    y 0.000000 1.780890 0.000000 
#    z 0.000000 0.000000 1.772130 
# 
# From -- ./inp_files/8124.got.cif
#   From: 2010.03.12/outbox.cif.g09.slc.cpg/sg57_5_cif.got.tgz:8124.got - 2010.04.16 15:48:40.
