data_PCOD8231956
_publ_section_title
;
Structure prediction by ZEFSAII (Michael W. Deem and Ramdas Pophale) SiO2 
 PCOD8231956
Probable space group: P B C M
;
_chemical_formula_sum "Si O2"
_cell_formula_units_Z 52
_cell_length_a 15.326868
_cell_length_b 8.238562
_cell_length_c 19.628260
_cell_angle_alpha 90.000000
_cell_angle_beta 90.000000
_cell_angle_gamma 90.000000
_cell_volume 2478.486933
_symmetry_space_group_name_H-M "P B C M"
_symmetry_group_IT_number 57
_symmetry_cell_setting 'orthorhombic'
loop_
_space_group_symop_operation_xyz
x,y,z
-x,-y,1/2+z
x,1/2-y,-z
-x,1/2+y,1/2-z
-x,-y,-z
x,y,1/2-z
-x,1/2+y,z
x,1/2-y,1/2+z
loop_
_atom_site_type_symbol
_atom_site_label
_atom_site_fract_x
_atom_site_fract_y
_atom_site_fract_z
Si Si1 0.735710 0.619155 0.173660
Si Si2 0.398803 0.019355 0.936834
Si Si3 0.778594 0.553780 0.616902
Si Si4 0.084856 0.476571 0.614051
Si Si5 0.124993 0.250000 0.500000
Si Si6 0.074654 0.685793 0.328157
Si Si7 0.578346 0.898949 0.583773
O O1 0.738585 0.555422 0.250000
O O2 0.746069 0.814507 0.172165
O O3 0.814824 0.541520 0.132796
O O4 0.645117 0.550652 0.143042
O O5 0.306784 0.953510 0.907400
O O6 0.405687 0.211255 0.928954
O O7 0.477037 0.929152 0.896306
O O8 0.402941 0.986485 0.017997
O O9 0.815750 0.650620 0.552235
O O10 0.849276 0.436850 0.650148
O O11 0.067965 0.386122 0.541104
O O12 0.069043 0.669542 0.616252
O O13 0.018949 0.401608 0.669485
O O14 0.090500 0.743920 0.250000
#
# Coordination Sequence:
#
# PCOD8231956 Si02
#       7
#     8   8   8   8   4   8   8
#     4  10  19  36  57  81 111 154 195 238 293 352
#     4   9  17  34  54  80 108 146 189 238 294 339
#     4  10  21  37  61  84 119 154 196 249 295 355
#     4  11  24  40  63  85 119 154 194 248 295 356
#     4  10  22  42  62  92 118 154 200 248 310 348
#     4  12  25  41  60  88 118 160 202 239 295 364
#     4   9  18  32  55  78 109 144 188 238 289 352
#
# _framework density 20.980542
#
# number of rings (size 3 to 8) (size 9 to 14) (size 15 to 20)
#    0.000    1.846    0.000    6.462    0.000    4.308 
#    0.000    6.923    0.000    0.000    0.000    0.000 
#    0.000    0.000    0.000    0.000    0.000    0.000 
#
# Total GULP energy -644475.720312 kJ/mol
# GULP energy per Si atom -12393.763852 kJ/mol
# Density = 2.093279 g / cm^3
# Si number density = 20.980542 Si / 1000 Ang^3
#
#
#
# Elastic Constant Matrix: (Units=GPa)
#
#
# Indices 1 2 3 4 5 6 
#
# 1 105.2319 31.5474 30.1352 0.0000 0.0000 0.0000
# 2 31.5474 63.9166 22.0480 0.0000 0.0000 0.0000
# 3 30.1352 22.0480 79.1753 0.0000 0.0000 0.0000
# 4 0.0000 0.0000 0.0000 26.4157 0.0000 0.0000
# 5 0.0000 0.0000 0.0000 0.0000 18.7872 0.0000
# 6 0.0000 0.0000 0.0000 0.0000 0.0000 35.3499
#
#
#
# Elastic Compliance Matrix: (Units=1/GPa)
#
#
# Indices 1 2 3 4 5 6 
#
# 1 0.011837 -0.004744 -0.003184 0.000000 0.000000 0.000000
# 2 -0.004744 0.019209 -0.003544 0.000000 0.000000 0.000000
# 3 -0.003184 -0.003544 0.014829 0.000000 0.000000 0.000000
# 4 0.000000 0.000000 0.000000 0.037856 0.000000 0.000000
# 5 0.000000 0.000000 0.000000 0.000000 0.053228 0.000000
# 6 0.000000 0.000000 0.000000 0.000000 0.000000 0.028289
#
#
# Mechanical properties :
#
#
# Convention : Reuss Voigt Hill
#
# Bulk Modulus (GPa) = 43.60809 46.19830 44.90320
# Shear Modulus (GPa) = 25.53171 27.08344 26.30757
#
# Velocity S-wave (km/s) = 3.49223 3.59679 3.54489
# Velocity P-wave (km/s) = 6.09024 6.27029 6.18092
#
# Compressibility (1/GPa) = 0.02293153
#
# Stress axis : x y z
#
# Youngs Moduli (GPa) = 84.48179 52.05834 67.43564
#
# Poissons Ratio (x) = 0.24696 0.21473
# Poissons Ratio (y) = 0.40078 0.23896
# Poissons Ratio (z) = 0.26901 0.18447
#
# Static dielectric constant tensor:
#      x y z
#    x 4.048140 0.000000 0.000000 
#    y 0.000000 3.781130 0.000000 
#    z 0.000000 0.000000 3.989790 
# 
# 
# High freq. dielectric constant tensor:
#      x y z
#    x 1.835600 0.000000 0.000000 
#    y 0.000000 1.803780 0.000000 
#    z 0.000000 0.000000 1.804230 
# 
# From -- ./inp_files/25297.got.cif
#   From: 2010.03.12/outbox.cif.g09.slc.cpg/sg57_13_cif.got.tgz:25297.got - 2010.04.16 15:48:40.
