data_PCOD8231241
_publ_section_title
;
Structure prediction by ZEFSAII (Michael W. Deem and Ramdas Pophale) SiO2 
 PCOD8231241
Probable space group: P B C M
;
_chemical_formula_sum "Si O2"
_cell_formula_units_Z 64
_cell_length_a 22.545296
_cell_length_b 16.313218
_cell_length_c 9.180572
_cell_angle_alpha 90.000000
_cell_angle_beta 90.000000
_cell_angle_gamma 90.000000
_cell_volume 3376.488870
_symmetry_space_group_name_H-M "P B C M"
_symmetry_group_IT_number 57
_symmetry_cell_setting 'orthorhombic'
loop_
_space_group_symop_operation_xyz
x,y,z
-x,-y,1/2+z
x,1/2-y,-z
-x,1/2+y,1/2-z
-x,-y,-z
x,y,1/2-z
-x,1/2+y,z
x,1/2-y,1/2+z
loop_
_atom_site_type_symbol
_atom_site_label
_atom_site_fract_x
_atom_site_fract_y
_atom_site_fract_z
Si Si1 0.383928 0.680543 0.907603
Si Si2 0.747924 0.820412 0.406591
Si Si3 0.261925 0.608538 0.921661
Si Si4 0.119785 0.163729 0.925769
Si Si5 0.324612 0.478018 0.088724
Si Si6 0.132227 0.834250 0.420968
Si Si7 0.936720 0.996440 0.925372
Si Si8 0.439925 0.989748 0.413453
O O1 0.372675 0.717739 0.750000
O O2 0.319177 0.660065 0.974354
O O3 0.428857 0.606304 0.902940
O O4 0.415984 0.750000 0.000000
O O5 0.718066 0.750000 0.500000
O O6 0.761807 0.781903 0.250000
O O7 0.811444 0.849297 0.467637
O O8 0.698173 0.887525 0.394446
O O9 0.264436 0.589455 0.750000
O O10 0.200946 0.652246 0.966099
O O11 0.270484 0.523792 0.007364
O O12 0.106714 0.163834 0.750000
O O13 0.097287 0.250000 0.000000
O O14 0.091755 0.084235 0.002931
O O15 0.336871 0.515870 0.250000
O O16 0.384896 0.470752 0.997507
O O17 0.109729 0.750000 0.500000
O O18 0.125470 0.818246 0.250000
O O19 0.096818 0.917344 0.465101
O O20 0.940084 0.986583 0.750000
O O21 0.000000 0.000000 0.000000
O O22 0.444784 0.027072 0.250000
O O23 0.500000 0.000000 0.500000
#
# Coordination Sequence:
#
# PCOD8231241 Si02
#       8
#     8   8   8   8   8   8   8   8
#     4   9  18  31  50  76 104 130 162 203 249 301
#     4   9  19  33  52  80 111 139 173 217 268 324
#     4   9  18  33  52  79 111 140 171 212 261 319
#     4  10  20  37  61  88 115 146 185 233 286 341
#     4  10  19  32  52  79 107 139 177 218 264 318
#     4  10  22  38  58  84 115 149 186 228 279 334
#     4  11  24  41  59  82 112 150 194 240 285 335
#     4  10  21  37  54  74 100 135 178 221 261 308
#
# _framework density 18.954602000000001
#
# number of rings (size 3 to 8) (size 9 to 14) (size 15 to 20)
#    0.000    2.250    0.000    3.375    0.000    6.000 
#    0.000    1.875    0.000    0.000    0.000    0.000 
#    0.000    0.000    0.000    0.000    0.000    0.000 
#
# Total GULP energy -792860.110219 kJ/mol
# GULP energy per Si atom -12388.439222 kJ/mol
# Density = 1.891146 g / cm^3
# Si number density = 18.954602 Si / 1000 Ang^3
#
#
#
# Elastic Constant Matrix: (Units=GPa)
#
#
# Indices 1 2 3 4 5 6 
#
# 1 87.9620 47.1356 48.1053 0.0000 0.0000 0.0000
# 2 47.1356 121.1187 64.5437 0.0000 0.0000 0.0000
# 3 48.1053 64.5437 111.7255 0.0000 0.0000 0.0000
# 4 0.0000 0.0000 0.0000 36.9447 0.0000 0.0000
# 5 0.0000 0.0000 0.0000 0.0000 20.6468 0.0000
# 6 0.0000 0.0000 0.0000 0.0000 0.0000 9.4637
#
#
#
# Elastic Compliance Matrix: (Units=1/GPa)
#
#
# Indices 1 2 3 4 5 6 
#
# 1 0.015927 -0.003675 -0.004734 0.000000 0.000000 0.000000
# 2 -0.003675 0.012777 -0.005799 0.000000 0.000000 0.000000
# 3 -0.004734 -0.005799 0.014339 0.000000 0.000000 0.000000
# 4 0.000000 0.000000 0.000000 0.027067 0.000000 0.000000
# 5 0.000000 0.000000 0.000000 0.000000 0.048434 0.000000
# 6 0.000000 0.000000 0.000000 0.000000 0.000000 0.105667
#
#
# Mechanical properties :
#
#
# Convention : Reuss Voigt Hill
#
# Bulk Modulus (GPa) = 68.37178 71.15282 69.76230
# Shear Modulus (GPa) = 19.41724 24.14582 21.78153
#
# Velocity S-wave (km/s) = 3.20411 3.57301 3.39358
# Velocity P-wave (km/s) = 7.05961 7.39202 7.22772
#
# Compressibility (1/GPa) = 0.01462592
#
# Stress axis : x y z
#
# Youngs Moduli (GPa) = 62.78531 78.26698 69.74045
#
# Poissons Ratio (x) = 0.28766 0.33019
# Poissons Ratio (y) = 0.23076 0.40440
# Poissons Ratio (z) = 0.29726 0.45384
#
# Static dielectric constant tensor:
#      x y z
#    x 3.381170 0.000000 0.000000 
#    y 0.000000 3.704370 0.000000 
#    z 0.000000 0.000000 80.959500 
# 
# 
# High freq. dielectric constant tensor:
#      x y z
#    x 1.725360 0.000000 0.000000 
#    y 0.000000 1.734060 0.000000 
#    z 0.000000 0.000000 1.750380 
# 
# From -- ./inp_files/9451.got.cif
#   From: 2010.03.12/outbox.cif.g09.slc.cpg/sg57_5_cif.got.tgz:9451.got - 2010.04.16 15:48:40.
