data_PCOD8231525
_publ_section_title
;
Structure prediction by ZEFSAII (Michael W. Deem and Ramdas Pophale) SiO2 
 PCOD8231525
Probable space group: P B C M
;
_chemical_formula_sum "Si O2"
_cell_formula_units_Z 48
_cell_length_a 13.304280
_cell_length_b 19.105537
_cell_length_c 8.918863
_cell_angle_alpha 90.000000
_cell_angle_beta 90.000000
_cell_angle_gamma 90.000000
_cell_volume 2267.044882
_symmetry_space_group_name_H-M "P B C M"
_symmetry_group_IT_number 57
_symmetry_cell_setting 'orthorhombic'
loop_
_space_group_symop_operation_xyz
x,y,z
-x,-y,1/2+z
x,1/2-y,-z
-x,1/2+y,1/2-z
-x,-y,-z
x,y,1/2-z
-x,1/2+y,z
x,1/2-y,1/2+z
loop_
_atom_site_type_symbol
_atom_site_label
_atom_site_fract_x
_atom_site_fract_y
_atom_site_fract_z
Si Si1 0.114941 0.585630 0.928528
Si Si2 0.722242 0.322075 0.928657
Si Si3 0.924319 0.825132 0.424678
Si Si4 0.803933 0.541365 0.573832
Si Si5 0.406178 0.462976 0.923400
Si Si6 0.504220 0.683245 0.080686
O O1 0.116539 0.579617 0.750000
O O2 0.024092 0.635224 0.983597
O O3 0.217909 0.615920 0.993846
O O4 0.109641 0.507472 0.999180
O O5 0.738340 0.322269 0.750000
O O6 0.607141 0.335218 0.979409
O O7 0.762182 0.250000 0.000000
O O8 0.907676 0.750000 0.500000
O O9 0.934658 0.810240 0.250000
O O10 0.831032 0.877323 0.459267
O O11 0.802369 0.526676 0.750000
O O12 0.696884 0.519275 0.505944
O O13 0.400472 0.485848 0.750000
O O14 0.420253 0.380210 0.940614
O O15 0.500000 0.500000 0.000000
O O16 0.491230 0.706305 0.250000
O O17 0.552488 0.750000 0.000000
#
# Coordination Sequence:
#
# PCOD8231525 Si02
#       6
#     8   8   8   8   8   8
#     4  11  22  38  61  90 119 155 201 250 305 363
#     4  10  19  33  54  84 120 158 198 247 303 361
#     4  10  24  43  64  90 122 159 202 248 300 358
#     4  11  24  42  62  88 121 159 200 248 302 359
#     4  11  23  40  62  90 121 158 202 249 300 359
#     4   9  20  36  55  80 113 151 194 240 293 352
#
# _framework density 21.172937999999998
#
# number of rings (size 3 to 8) (size 9 to 14) (size 15 to 20)
#    0.000    1.667    0.000    4.000    0.000    8.000 
#    0.000    3.333    0.000    0.000    0.000    0.000 
#    0.000    0.000    0.000    0.000    0.000    0.000 
#
# Total GULP energy -595211.585829 kJ/mol
# GULP energy per Si atom -12400.241371 kJ/mol
# Density = 2.112475 g / cm^3
# Si number density = 21.172938 Si / 1000 Ang^3
#
#
#
# Elastic Constant Matrix: (Units=GPa)
#
#
# Indices 1 2 3 4 5 6 
#
# 1 87.4816 35.6323 39.3463 0.0000 0.0000 0.0000
# 2 35.6323 111.3599 52.8001 0.0000 0.0000 0.0000
# 3 39.3463 52.8001 103.1154 0.0000 0.0000 0.0000
# 4 0.0000 0.0000 0.0000 42.0624 0.0000 0.0000
# 5 0.0000 0.0000 0.0000 0.0000 26.8573 0.0000
# 6 0.0000 0.0000 0.0000 0.0000 0.0000 27.6867
#
#
#
# Elastic Compliance Matrix: (Units=1/GPa)
#
#
# Indices 1 2 3 4 5 6 
#
# 1 0.014363 -0.002638 -0.004130 0.000000 0.000000 0.000000
# 2 -0.002638 0.012343 -0.005314 0.000000 0.000000 0.000000
# 3 -0.004130 -0.005314 0.013995 0.000000 0.000000 0.000000
# 4 0.000000 0.000000 0.000000 0.023774 0.000000 0.000000
# 5 0.000000 0.000000 0.000000 0.000000 0.037234 0.000000
# 6 0.000000 0.000000 0.000000 0.000000 0.000000 0.036118
#
#
# Mechanical properties :
#
#
# Convention : Reuss Voigt Hill
#
# Bulk Modulus (GPa) = 60.46676 61.94601 61.20638
# Shear Modulus (GPa) = 29.85019 30.93316 30.39167
#
# Velocity S-wave (km/s) = 3.75884 3.82642 3.79278
# Velocity P-wave (km/s) = 6.88905 6.98875 6.93908
#
# Compressibility (1/GPa) = 0.01653801
#
# Stress axis : x y z
#
# Youngs Moduli (GPa) = 69.62438 81.01480 71.45522
#
# Poissons Ratio (x) = 0.21368 0.29510
# Poissons Ratio (y) = 0.18364 0.37971
# Poissons Ratio (z) = 0.28754 0.43051
#
# Static dielectric constant tensor:
#      x y z
#    x 3.782170 0.000000 0.000000 
#    y 0.000000 4.159480 0.000000 
#    z 0.000000 0.000000 3.821770 
# 
# 
# High freq. dielectric constant tensor:
#      x y z
#    x 1.825210 0.000000 0.000000 
#    y 0.000000 1.844190 0.000000 
#    z 0.000000 0.000000 1.830990 
# 
# From -- ./inp_files/4631.got.cif
#   From: 2010.03.12/outbox.cif.g09.slc.cpg/sg57_3_cif.got.tgz:4631.got - 2010.04.16 15:48:40.
