data_PCOD8231181
_publ_section_title
;
Structure prediction by ZEFSAII (Michael W. Deem and Ramdas Pophale) SiO2 
 PCOD8231181
Probable space group: P B C M
;
_chemical_formula_sum "Si O2"
_cell_formula_units_Z 40
_cell_length_a 25.373225
_cell_length_b 9.969424
_cell_length_c 8.848551
_cell_angle_alpha 90.000000
_cell_angle_beta 90.000000
_cell_angle_gamma 90.000000
_cell_volume 2238.297945
_symmetry_space_group_name_H-M "P B C M"
_symmetry_group_IT_number 57
_symmetry_cell_setting 'orthorhombic'
loop_
_space_group_symop_operation_xyz
x,y,z
-x,-y,1/2+z
x,1/2-y,-z
-x,1/2+y,1/2-z
-x,-y,-z
x,y,1/2-z
-x,1/2+y,z
x,1/2-y,1/2+z
loop_
_atom_site_type_symbol
_atom_site_label
_atom_site_fract_x
_atom_site_fract_y
_atom_site_fract_z
Si Si1 0.258730 0.103303 0.929110
Si Si2 0.656896 0.111663 0.426888
Si Si3 0.155801 0.393454 0.925323
Si Si4 0.463293 0.889649 0.928369
Si Si5 0.960851 0.604376 0.074099
O O1 0.256506 0.116064 0.750000
O O2 0.306763 0.010169 0.983948
O O3 0.266828 0.250000 0.000000
O O4 0.204386 0.033129 0.989604
O O5 0.676254 0.250000 0.500000
O O6 0.662501 0.131462 0.250000
O O7 0.596991 0.077717 0.473108
O O8 0.170295 0.380476 0.750000
O O9 0.098039 0.458674 0.948345
O O10 0.151724 0.250000 0.000000
O O11 0.471476 0.884148 0.750000
O O12 0.481091 0.750000 0.000000
O O13 0.500000 0.000000 0.000000
O O14 0.974006 0.620730 0.250000
O O15 0.967235 0.750000 0.000000
O O16 0.000000 0.500000 0.000000
#
# Coordination Sequence:
#
# PCOD8231181 Si02
#       5
#     8   8   8   8   8
#     4  10  19  32  51  76 101 129 166 207 247 293
#     4   9  20  36  53  74 102 134 168 204 249 300
#     4   9  17  30  49  73  99 130 165 204 249 296
#     4  10  20  36  55  77 104 135 171 211 254 302
#     4  10  20  34  53  76 103 134 170 210 255 303
#
# _framework density 17.870722000000001
#
# number of rings (size 3 to 8) (size 9 to 14) (size 15 to 20)
#    0.000    2.400    0.000    3.600    0.000    5.600 
#    0.000    3.000    0.000    2.400    0.000    0.000 
#    0.000    0.000    0.000    0.000    0.000    0.000 
#
# Total GULP energy -495798.655930 kJ/mol
# GULP energy per Si atom -12394.966398 kJ/mol
# Density = 1.783005 g / cm^3
# Si number density = 17.870722 Si / 1000 Ang^3
#
#
#
# Elastic Constant Matrix: (Units=GPa)
#
#
# Indices 1 2 3 4 5 6 
#
# 1 136.6743 87.8617 62.0066 0.0000 0.0000 0.0000
# 2 87.8617 109.5130 54.3984 0.0000 0.0000 0.0000
# 3 62.0066 54.3984 99.0621 0.0000 0.0000 0.0000
# 4 0.0000 0.0000 0.0000 31.5788 0.0000 0.0000
# 5 0.0000 0.0000 0.0000 0.0000 28.7187 0.0000
# 6 0.0000 0.0000 0.0000 0.0000 0.0000 34.3885
#
#
#
# Elastic Compliance Matrix: (Units=1/GPa)
#
#
# Indices 1 2 3 4 5 6 
#
# 1 0.016259 -0.010986 -0.004144 0.000000 0.000000 0.000000
# 2 -0.010986 0.019980 -0.004095 0.000000 0.000000 0.000000
# 3 -0.004144 -0.004095 0.014937 0.000000 0.000000 0.000000
# 4 0.000000 0.000000 0.000000 0.031667 0.000000 0.000000
# 5 0.000000 0.000000 0.000000 0.000000 0.034821 0.000000
# 6 0.000000 0.000000 0.000000 0.000000 0.000000 0.029079
#
#
# Mechanical properties :
#
#
# Convention : Reuss Voigt Hill
#
# Bulk Modulus (GPa) = 78.58239 83.75362 81.16801
# Shear Modulus (GPa) = 26.39413 28.33604 27.36509
#
# Velocity S-wave (km/s) = 3.84728 3.98630 3.91740
# Velocity P-wave (km/s) = 7.98771 8.25564 8.12278
#
# Compressibility (1/GPa) = 0.01272550
#
# Stress axis : x y z
#
# Youngs Moduli (GPa) = 61.50259 50.05127 66.94582
#
# Poissons Ratio (x) = 0.54987 0.27746
# Poissons Ratio (y) = 0.67568 0.27413
# Poissons Ratio (z) = 0.25490 0.20495
#
# Static dielectric constant tensor:
#      x y z
#    x 4.037490 0.000000 0.000000 
#    y 0.000000 3.008810 0.000000 
#    z 0.000000 0.000000 3.419080 
# 
# 
# High freq. dielectric constant tensor:
#      x y z
#    x 1.707050 0.000000 0.000000 
#    y 0.000000 1.663600 0.000000 
#    z 0.000000 0.000000 1.707430 
# 
# From -- ./inp_files/7804.got.cif
#   From: 2010.03.12/outbox.cif.g09.slc.cpg/sg57_4_cif.got.tgz:7804.got - 2010.04.16 15:48:40.
