data_PCOD8231256
_publ_section_title
;
Structure prediction by ZEFSAII (Michael W. Deem and Ramdas Pophale) SiO2 
 PCOD8231256
Probable space group: P B C M
;
_chemical_formula_sum "Si O2"
_cell_formula_units_Z 64
_cell_length_a 17.136430
_cell_length_b 23.210259
_cell_length_c 9.354940
_cell_angle_alpha 90.000000
_cell_angle_beta 90.000000
_cell_angle_gamma 90.000000
_cell_volume 3720.842991
_symmetry_space_group_name_H-M "P B C M"
_symmetry_group_IT_number 57
_symmetry_cell_setting 'orthorhombic'
loop_
_space_group_symop_operation_xyz
x,y,z
-x,-y,1/2+z
x,1/2-y,-z
-x,1/2+y,1/2-z
-x,-y,-z
x,y,1/2-z
-x,1/2+y,z
x,1/2-y,1/2+z
loop_
_atom_site_type_symbol
_atom_site_label
_atom_site_fract_x
_atom_site_fract_y
_atom_site_fract_z
Si Si1 0.728036 0.694464 0.916151
Si Si2 0.450852 0.193636 0.582457
Si Si3 0.323404 0.974322 0.914932
Si Si4 0.079172 0.496457 0.913988
Si Si5 0.581059 0.392390 0.416301
Si Si6 0.281460 0.805784 0.091212
Si Si7 0.198400 0.587451 0.591547
Si Si8 0.789521 0.571542 0.583541
O O1 0.734523 0.708730 0.750000
O O2 0.638543 0.682098 0.959278
O O3 0.778769 0.638514 0.956502
O O4 0.760882 0.750000 0.000000
O O5 0.482758 0.250000 0.500000
O O6 0.462757 0.205445 0.750000
O O7 0.499201 0.136481 0.536459
O O8 0.341837 0.963640 0.750000
O O9 0.294798 0.040166 0.943442
O O10 0.400522 0.952731 0.001122
O O11 0.249162 0.937489 0.963291
O O12 0.064586 0.477011 0.750000
O O13 0.111734 0.561960 0.919839
O O14 0.141226 0.452860 0.985019
O O15 0.000000 0.500000 0.000000
O O16 0.580481 0.407671 0.250000
O O17 0.647551 0.346372 0.457997
O O18 0.297496 0.783794 0.250000
O O19 0.201063 0.843041 0.079143
O O20 0.271895 0.750000 0.000000
O O21 0.233596 0.570800 0.750000
O O22 0.812908 0.563611 0.750000
#
# Coordination Sequence:
#
# PCOD8231256 Si02
#       8
#     8   8   8   8   8   8   8   8
#     4   9  18  33  52  72  95 124 160 202 245 287
#     4   9  17  29  45  64  88 122 162 205 251 292
#     4   9  16  26  43  65  88 118 156 194 231 273
#     4  10  19  32  53  78 100 121 148 183 225 276
#     4   9  17  28  40  58  89 124 157 196 243 288
#     4   9  16  25  38  58  84 116 152 185 219 260
#     4   8  16  30  44  61  90 122 147 177 220 267
#     4   9  18  33  51  72  99 127 155 192 238 285
#
# _framework density 17.200403999999999
#
# number of rings (size 3 to 8) (size 9 to 14) (size 15 to 20)
#    0.000    3.000    0.000    1.875    0.000    4.000 
#    0.000    0.625    0.000    0.750    0.000    1.750 
#    0.000    0.000    0.000    0.000    0.000    0.000 
#
# Total GULP energy -792931.474722 kJ/mol
# GULP energy per Si atom -12389.554293 kJ/mol
# Density = 1.716125 g / cm^3
# Si number density = 17.200404 Si / 1000 Ang^3
#
#
#
# Elastic Constant Matrix: (Units=GPa)
#
#
# Indices 1 2 3 4 5 6 
#
# 1 62.1592 33.4157 35.0172 0.0000 0.0000 0.0000
# 2 33.4157 93.7364 47.7752 0.0000 0.0000 0.0000
# 3 35.0172 47.7752 72.9700 0.0000 0.0000 0.0000
# 4 0.0000 0.0000 0.0000 27.6062 0.0000 0.0000
# 5 0.0000 0.0000 0.0000 0.0000 22.9544 0.0000
# 6 0.0000 0.0000 0.0000 0.0000 0.0000 19.4245
#
#
#
# Elastic Compliance Matrix: (Units=1/GPa)
#
#
# Indices 1 2 3 4 5 6 
#
# 1 0.022939 -0.003852 -0.008486 0.000000 0.000000 0.000000
# 2 -0.003852 0.016658 -0.009058 0.000000 0.000000 0.000000
# 3 -0.008486 -0.009058 0.023707 0.000000 0.000000 0.000000
# 4 0.000000 0.000000 0.000000 0.036224 0.000000 0.000000
# 5 0.000000 0.000000 0.000000 0.000000 0.043565 0.000000
# 6 0.000000 0.000000 0.000000 0.000000 0.000000 0.051481
#
#
# Mechanical properties :
#
#
# Convention : Reuss Voigt Hill
#
# Bulk Modulus (GPa) = 48.75194 51.25354 50.00274
# Shear Modulus (GPa) = 20.47475 21.50752 20.99114
#
# Velocity S-wave (km/s) = 3.45391 3.53995 3.49719
# Velocity P-wave (km/s) = 6.65665 6.82428 6.74099
#
# Compressibility (1/GPa) = 0.02051200
#
# Stress axis : x y z
#
# Youngs Moduli (GPa) = 43.59346 60.03102 42.18201
#
# Poissons Ratio (x) = 0.23127 0.35795
# Poissons Ratio (y) = 0.16794 0.38207
# Poissons Ratio (z) = 0.36993 0.54374
#
# Static dielectric constant tensor:
#      x y z
#    x 3.007680 0.000000 0.000000 
#    y 0.000000 3.337650 0.000000 
#    z 0.000000 0.000000 3.305750 
# 
# 
# High freq. dielectric constant tensor:
#      x y z
#    x 1.631600 0.000000 0.000000 
#    y 0.000000 1.655310 0.000000 
#    z 0.000000 0.000000 1.667700 
# 
# From -- ./inp_files/7384.got.cif
#   From: 2010.03.12/outbox.cif.g09.slc.cpg/sg57_4_cif.got.tgz:7384.got - 2010.04.16 15:48:40.
