data_PCOD8231153
_publ_section_title
;
Structure prediction by ZEFSAII (Michael W. Deem and Ramdas Pophale) SiO2 
 PCOD8231153
Probable space group: P B C M
;
_chemical_formula_sum "Si O2"
_cell_formula_units_Z 64
_cell_length_a 14.889307
_cell_length_b 29.525465
_cell_length_c 8.685459
_cell_angle_alpha 90.000000
_cell_angle_beta 90.000000
_cell_angle_gamma 90.000000
_cell_volume 3818.246878
_symmetry_space_group_name_H-M "P B C M"
_symmetry_group_IT_number 57
_symmetry_cell_setting 'orthorhombic'
loop_
_space_group_symop_operation_xyz
x,y,z
-x,-y,1/2+z
x,1/2-y,-z
-x,1/2+y,1/2-z
-x,-y,-z
x,y,1/2-z
-x,1/2+y,z
x,1/2-y,1/2+z
loop_
_atom_site_type_symbol
_atom_site_label
_atom_site_fract_x
_atom_site_fract_y
_atom_site_fract_z
Si Si1 0.821012 0.960972 0.432745
Si Si2 0.780874 0.297467 0.930712
Si Si3 0.620011 0.534913 0.571048
Si Si4 0.446504 0.565835 0.072829
Si Si5 0.709122 0.385739 0.070361
Si Si6 0.132316 0.560152 0.068949
Si Si7 0.990055 0.297344 0.928777
Si Si8 0.035573 0.110743 0.931643
O O1 0.816648 0.962629 0.250000
O O2 0.719641 0.955355 0.495445
O O3 0.881351 0.919467 0.493420
O O4 0.865692 0.008124 0.488362
O O5 0.760241 0.299736 0.750000
O O6 0.885675 0.305757 0.965054
O O7 0.749563 0.250000 0.000000
O O8 0.723999 0.334100 0.022844
O O9 0.612099 0.547268 0.750000
O O10 0.597988 0.482674 0.541665
O O11 0.550498 0.566100 0.477784
O O12 0.439883 0.580129 0.250000
O O13 0.393568 0.602036 0.969010
O O14 0.729280 0.392590 0.250000
O O15 0.772037 0.417901 0.968093
O O16 0.113557 0.564641 0.250000
O O17 0.056425 0.586932 0.978453
O O18 0.009966 0.295057 0.750000
O O19 0.023401 0.250000 0.000000
O O20 0.045470 0.339130 0.999003
O O21 0.038237 0.114998 0.750000
#
# Coordination Sequence:
#
# PCOD8231153 Si02
#       8
#     8   8   8   8   8   8   8   8
#     4   9  19  34  51  70 100 139 175 212 252 295
#     4  10  20  34  52  73 101 132 165 206 253 301
#     4   9  17  33  51  70  98 131 168 209 252 297
#     4  10  19  32  51  73  99 129 165 209 254 298
#     4  12  22  32  50  75 102 135 173 207 248 303
#     4  11  20  34  49  68 101 140 176 211 248 289
#     4  10  20  34  52  72  98 130 165 209 256 298
#     4  11  21  33  50  74 101 135 174 209 250 302
#
# _framework density 16.761619
#
# number of rings (size 3 to 8) (size 9 to 14) (size 15 to 20)
#    0.000    1.750    2.500    3.375    0.000    1.500 
#    0.000    3.125    0.000    0.000    0.000    0.875 
#    0.000    2.000    0.000    0.000    0.000    0.000 
#
# Total GULP energy -793777.015305 kJ/mol
# GULP energy per Si atom -12402.765864 kJ/mol
# Density = 1.672347 g / cm^3
# Si number density = 16.761619 Si / 1000 Ang^3
#
#
#
# Elastic Constant Matrix: (Units=GPa)
#
#
# Indices 1 2 3 4 5 6 
#
# 1 73.0318 50.5208 18.1679 0.0000 0.0000 0.0000
# 2 50.5208 125.9297 39.7521 0.0000 0.0000 0.0000
# 3 18.1679 39.7521 59.3629 0.0000 0.0000 0.0000
# 4 0.0000 0.0000 0.0000 26.8452 0.0000 0.0000
# 5 0.0000 0.0000 0.0000 0.0000 21.1012 0.0000
# 6 0.0000 0.0000 0.0000 0.0000 0.0000 21.3163
#
#
#
# Elastic Compliance Matrix: (Units=1/GPa)
#
#
# Indices 1 2 3 4 5 6 
#
# 1 0.018990 -0.007334 -0.000901 0.000000 0.000000 0.000000
# 2 -0.007334 0.012902 -0.006395 0.000000 0.000000 0.000000
# 3 -0.000901 -0.006395 0.021404 0.000000 0.000000 0.000000
# 4 0.000000 0.000000 0.000000 0.037251 0.000000 0.000000
# 5 0.000000 0.000000 0.000000 0.000000 0.047391 0.000000
# 6 0.000000 0.000000 0.000000 0.000000 0.000000 0.046912
#
#
# Mechanical properties :
#
#
# Convention : Reuss Voigt Hill
#
# Bulk Modulus (GPa) = 41.60435 52.80067 47.20251
# Shear Modulus (GPa) = 22.51017 23.84477 23.17747
#
# Velocity S-wave (km/s) = 3.66862 3.77580 3.72260
# Velocity P-wave (km/s) = 6.54371 7.11184 6.83368
#
# Compressibility (1/GPa) = 0.02403595
#
# Stress axis : x y z
#
# Youngs Moduli (GPa) = 52.65852 77.50683 46.72098
#
# Poissons Ratio (x) = 0.56846 0.04208
# Poissons Ratio (y) = 0.38621 0.29879
# Poissons Ratio (z) = 0.04742 0.49567
#
# Static dielectric constant tensor:
#      x y z
#    x 3.142740 0.000000 0.000000 
#    y 0.000000 3.203620 0.000000 
#    z 0.000000 0.000000 3.100390 
# 
# 
# High freq. dielectric constant tensor:
#      x y z
#    x 1.625230 0.000000 0.000000 
#    y 0.000000 1.635980 0.000000 
#    z 0.000000 0.000000 1.650170 
# 
# From -- ./inp_files/5989.got.cif
#   From: 2010.03.12/outbox.cif.g09.slc.cpg/sg57_3_cif.got.tgz:5989.got - 2010.04.16 15:48:40.
