data_PCOD8231978
_publ_section_title
;
Structure prediction by ZEFSAII (Michael W. Deem and Ramdas Pophale) SiO2 
 PCOD8231978
Probable space group: P B C M
;
_chemical_formula_sum "Si O2"
_cell_formula_units_Z 40
_cell_length_a 9.185953
_cell_length_b 25.691288
_cell_length_c 8.483880
_cell_angle_alpha 90.000000
_cell_angle_beta 90.000000
_cell_angle_gamma 90.000000
_cell_volume 2002.186891
_symmetry_space_group_name_H-M "P B C M"
_symmetry_group_IT_number 57
_symmetry_cell_setting 'orthorhombic'
loop_
_space_group_symop_operation_xyz
x,y,z
-x,-y,1/2+z
x,1/2-y,-z
-x,1/2+y,1/2-z
-x,-y,-z
x,y,1/2-z
-x,1/2+y,z
x,1/2-y,1/2+z
loop_
_atom_site_type_symbol
_atom_site_label
_atom_site_fract_x
_atom_site_fract_y
_atom_site_fract_z
Si Si1 0.157492 0.695035 0.434820
Si Si2 0.337635 0.096715 0.936715
Si Si3 0.841839 0.805888 0.063800
Si Si4 0.667436 0.398460 0.436087
Si Si5 0.162116 0.503606 0.062313
O O1 0.214335 0.750000 0.500000
O O2 0.133339 0.699298 0.250000
O O3 0.277575 0.652694 0.476131
O O4 0.004453 0.679563 0.512375
O O5 0.330929 0.097739 0.750000
O O6 0.265542 0.149656 0.003730
O O7 0.503127 0.091974 0.995569
O O8 0.248523 0.047034 0.998774
O O9 0.836334 0.803962 0.250000
O O10 0.790702 0.750000 0.000000
O O11 0.675643 0.389427 0.250000
O O12 0.764921 0.446803 0.483861
O O13 0.164789 0.509019 0.250000
O O14 0.000000 0.500000 0.000000
#
# Coordination Sequence:
#
# PCOD8231978 Si02
#       5
#     8   8   8   8   8
#     4  11  22  38  59  86 115 151 194 238 283 338
#     4   9  21  38  58  82 115 152 190 234 287 340
#     4  10  19  36  59  85 114 150 191 237 286 339
#     4  11  22  39  59  84 117 153 188 235 288 340
#     4  11  22  39  61  87 114 150 194 238 285 341
#
# _framework density 19.978154
#
# number of rings (size 3 to 8) (size 9 to 14) (size 15 to 20)
#    0.000    1.600    0.000    6.600    0.000    2.400 
#    0.000   12.000    0.000    0.000    0.000    0.000 
#    0.000    0.000    0.000    0.000    0.000    0.000 
#
# Total GULP energy -496157.535259 kJ/mol
# GULP energy per Si atom -12403.938381 kJ/mol
# Density = 1.993268 g / cm^3
# Si number density = 19.978154 Si / 1000 Ang^3
#
#
#
# Elastic Constant Matrix: (Units=GPa)
#
#
# Indices 1 2 3 4 5 6 
#
# 1 136.0277 81.3003 1.5820 0.0000 0.0000 0.0000
# 2 81.3003 153.3240 17.6265 0.0000 0.0000 0.0000
# 3 1.5820 17.6265 51.9608 0.0000 0.0000 0.0000
# 4 0.0000 0.0000 0.0000 35.7525 0.0000 0.0000
# 5 0.0000 0.0000 0.0000 0.0000 26.4536 0.0000
# 6 0.0000 0.0000 0.0000 0.0000 0.0000 15.7732
#
#
#
# Elastic Compliance Matrix: (Units=1/GPa)
#
#
# Indices 1 2 3 4 5 6 
#
# 1 0.010904 -0.005977 0.001695 0.000000 0.000000 0.000000
# 2 -0.005977 0.010063 -0.003232 0.000000 0.000000 0.000000
# 3 0.001695 -0.003232 0.020290 0.000000 0.000000 0.000000
# 4 0.000000 0.000000 0.000000 0.027970 0.000000 0.000000
# 5 0.000000 0.000000 0.000000 0.000000 0.037802 0.000000
# 6 0.000000 0.000000 0.000000 0.000000 0.000000 0.063399
#
#
# Mechanical properties :
#
#
# Convention : Reuss Voigt Hill
#
# Bulk Modulus (GPa) = 38.12298 60.25891 49.19094
# Shear Modulus (GPa) = 25.74709 31.64943 28.69826
#
# Velocity S-wave (km/s) = 3.59383 3.98452 3.79421
# Velocity P-wave (km/s) = 6.02865 7.16913 6.62348
#
# Compressibility (1/GPa) = 0.02623090
#
# Stress axis : x y z
#
# Youngs Moduli (GPa) = 91.71074 99.37583 49.28561
#
# Poissons Ratio (x) = 0.59394 -0.08356
# Poissons Ratio (y) = 0.54813 0.15927
# Poissons Ratio (z) = -0.15549 0.32114
#
# Static dielectric constant tensor:
#      x y z
#    x 3.781400 0.000000 0.000000 
#    y 0.000000 3.931950 0.000000 
#    z 0.000000 0.000000 3.590060 
# 
# 
# High freq. dielectric constant tensor:
#      x y z
#    x 1.784840 0.000000 0.000000 
#    y 0.000000 1.798070 0.000000 
#    z 0.000000 0.000000 1.775560 
# 
# From -- ./inp_files/1522.got.cif
#   From: 2010.03.12/outbox.cif.g09.slc.cpg/sg57_1_cif.got.tgz:1522.got - 2010.04.16 15:48:40.
