data_PCOD8231830
_publ_section_title
;
Structure prediction by ZEFSAII (Michael W. Deem and Ramdas Pophale) SiO2 
 PCOD8231830
Probable space group: P B C M
;
_chemical_formula_sum "Si O2"
_cell_formula_units_Z 64
_cell_length_a 12.155772
_cell_length_b 31.563355
_cell_length_c 8.765399
_cell_angle_alpha 90.000000
_cell_angle_beta 90.000000
_cell_angle_gamma 90.000000
_cell_volume 3363.081527
_symmetry_space_group_name_H-M "P B C M"
_symmetry_group_IT_number 57
_symmetry_cell_setting 'orthorhombic'
loop_
_space_group_symop_operation_xyz
x,y,z
-x,-y,1/2+z
x,1/2-y,-z
-x,1/2+y,1/2-z
-x,-y,-z
x,y,1/2-z
-x,1/2+y,z
x,1/2-y,1/2+z
loop_
_atom_site_type_symbol
_atom_site_label
_atom_site_fract_x
_atom_site_fract_y
_atom_site_fract_z
Si Si1 0.976703 0.204771 0.068152
Si Si2 0.739255 0.445177 0.576068
Si Si3 0.360750 0.108950 0.069398
Si Si4 0.121581 0.126446 0.068450
Si Si5 0.401942 0.636673 0.070602
Si Si6 0.611556 0.984413 0.571306
Si Si7 0.988632 0.046061 0.074239
Si Si8 0.743325 0.205946 0.570115
O O1 0.974713 0.208130 0.250000
O O2 0.058567 0.168115 0.008559
O O3 0.014327 0.250000 0.000000
O O4 0.856566 0.191719 0.008995
O O5 0.714425 0.457951 0.750000
O O6 0.663008 0.406001 0.528793
O O7 0.711775 0.484860 0.469428
O O8 0.866939 0.434502 0.551502
O O9 0.360008 0.106508 0.250000
O O10 0.248162 0.131122 0.012067
O O11 0.470746 0.133479 0.017813
O O12 0.361586 0.061574 0.002630
O O13 0.112401 0.124922 0.250000
O O14 0.069637 0.082221 0.004591
O O15 0.390106 0.647071 0.250000
O O16 0.352191 0.673176 0.967190
O O17 0.595214 0.982000 0.750000
O O18 0.500000 0.000000 0.500000
O O19 0.016879 0.038995 0.250000
O O20 0.000000 0.000000 0.000000
O O21 0.703303 0.250000 0.500000
O O22 0.761743 0.210149 0.750000
#
# Coordination Sequence:
#
# PCOD8231830 Si02
#       8
#     8   8   8   8   8   8   8   8
#     4  10  19  35  60  86 111 140 176 222 273 328
#     4  10  20  34  52  77 107 144 183 225 275 324
#     4   9  18  33  54  78 106 145 188 225 266 324
#     4   9  18  34  56  80 107 146 188 223 269 330
#     4  10  19  35  56  78 107 141 179 221 267 318
#     4  11  20  33  53  77 106 143 186 232 275 322
#     4  10  20  34  52  75 109 146 186 229 274 327
#     4  11  22  37  58  84 111 138 172 216 270 328
#
# _framework density 19.030166000000001
#
# number of rings (size 3 to 8) (size 9 to 14) (size 15 to 20)
#    0.000    2.000    1.250    4.125    0.000    4.000 
#    0.000    3.125    0.000    6.750    0.000    0.000 
#    0.000    0.000    0.000    0.000    0.000    0.000 
#
# Total GULP energy -793503.385233 kJ/mol
# GULP energy per Si atom -12398.490394 kJ/mol
# Density = 1.898685 g / cm^3
# Si number density = 19.030166 Si / 1000 Ang^3
#
#
#
# Elastic Constant Matrix: (Units=GPa)
#
#
# Indices 1 2 3 4 5 6 
#
# 1 140.5899 80.1109 26.6121 0.0000 0.0000 0.0000
# 2 80.1109 133.9199 34.3551 0.0000 0.0000 0.0000
# 3 26.6121 34.3551 57.1965 0.0000 0.0000 0.0000
# 4 0.0000 0.0000 0.0000 29.7043 0.0000 0.0000
# 5 0.0000 0.0000 0.0000 0.0000 21.8551 0.0000
# 6 0.0000 0.0000 0.0000 0.0000 0.0000 102.6684
#
#
#
# Elastic Compliance Matrix: (Units=1/GPa)
#
#
# Indices 1 2 3 4 5 6 
#
# 1 0.010880 -0.006159 -0.001363 0.000000 0.000000 0.000000
# 2 -0.006159 0.012314 -0.004531 0.000000 0.000000 0.000000
# 3 -0.001363 -0.004531 0.020839 0.000000 0.000000 0.000000
# 4 0.000000 0.000000 0.000000 0.033665 0.000000 0.000000
# 5 0.000000 0.000000 0.000000 0.000000 0.045756 0.000000
# 6 0.000000 0.000000 0.000000 0.000000 0.000000 0.009740
#
#
# Mechanical properties :
#
#
# Convention : Reuss Voigt Hill
#
# Bulk Modulus (GPa) = 50.18062 68.20695 59.19378
# Shear Modulus (GPa) = 30.49852 43.55408 37.02630
#
# Velocity S-wave (km/s) = 4.00764 4.78921 4.41575
# Velocity P-wave (km/s) = 6.91673 8.15484 7.56117
#
# Compressibility (1/GPa) = 0.01992801
#
# Stress axis : x y z
#
# Youngs Moduli (GPa) = 91.90834 81.21014 47.98675
#
# Poissons Ratio (x) = 0.50017 0.06540
# Poissons Ratio (y) = 0.56606 0.21741
# Poissons Ratio (z) = 0.12527 0.36793
#
# Static dielectric constant tensor:
#      x y z
#    x 3.739550 0.000000 0.000000 
#    y 0.000000 3.874500 0.000000 
#    z 0.000000 0.000000 4.045460 
# 
# 
# High freq. dielectric constant tensor:
#      x y z
#    x 1.748870 0.000000 0.000000 
#    y 0.000000 1.739010 0.000000 
#    z 0.000000 0.000000 1.713080 
# 
# From -- ./inp_files/3885.got.cif
#   From: 2010.03.12/outbox.cif.g09.slc.cpg/sg57_2_cif.got.tgz:3885.got - 2010.04.16 15:48:40.
