data_PCOD8231637
_publ_section_title
;
Structure prediction by ZEFSAII (Michael W. Deem and Ramdas Pophale) SiO2 
 PCOD8231637
Probable space group: P B C M
;
_chemical_formula_sum "Si O2"
_cell_formula_units_Z 64
_cell_length_a 22.394850
_cell_length_b 17.621904
_cell_length_c 8.751377
_cell_angle_alpha 90.000000
_cell_angle_beta 90.000000
_cell_angle_gamma 90.000000
_cell_volume 3453.642516
_symmetry_space_group_name_H-M "P B C M"
_symmetry_group_IT_number 57
_symmetry_cell_setting 'orthorhombic'
loop_
_space_group_symop_operation_xyz
x,y,z
-x,-y,1/2+z
x,1/2-y,-z
-x,1/2+y,1/2-z
-x,-y,-z
x,y,1/2-z
-x,1/2+y,z
x,1/2-y,1/2+z
loop_
_atom_site_type_symbol
_atom_site_label
_atom_site_fract_x
_atom_site_fract_y
_atom_site_fract_z
Si Si1 0.705727 0.327294 0.931452
Si Si2 0.034479 0.931325 0.926371
Si Si3 0.456545 0.326874 0.567997
Si Si4 0.256370 0.521604 0.930402
Si Si5 0.580499 0.130821 0.571242
Si Si6 0.381715 0.034238 0.073127
Si Si7 0.859737 0.532469 0.925844
Si Si8 0.946363 0.669989 0.570400
O O1 0.705407 0.324495 0.750000
O O2 0.733698 0.250000 0.000000
O O3 0.746949 0.396887 0.987333
O O4 0.638897 0.334357 0.994868
O O5 0.017352 0.924928 0.750000
O O6 0.104219 0.952758 0.947605
O O7 0.012423 0.854068 0.008542
O O8 0.000000 0.000000 0.000000
O O9 0.428547 0.250000 0.500000
O O10 0.456601 0.325673 0.750000
O O11 0.523825 0.333425 0.509692
O O12 0.416114 0.394792 0.498056
O O13 0.261454 0.535456 0.750000
O O14 0.314896 0.477056 0.993304
O O15 0.198848 0.471292 0.970018
O O16 0.580759 0.151341 0.750000
O O17 0.578932 0.040513 0.544182
O O18 0.375178 0.052104 0.250000
O O19 0.840897 0.542107 0.750000
O O20 0.898330 0.605694 0.977818
O O21 0.926418 0.750000 0.500000
O O22 0.950705 0.678404 0.750000
#
# Coordination Sequence:
#
# PCOD8231637 Si02
#       8
#     8   8   8   8   8   8   8   8
#     4  11  21  35  54  77 105 135 167 209 260 313
#     4   9  17  31  52  77 107 138 171 209 254 305
#     4  11  21  34  50  72 101 132 165 207 259 312
#     4  10  20  36  57  79 102 136 179 220 260 307
#     4  10  19  34  54  77 100 126 165 210 258 316
#     4   8  18  35  53  72  98 130 169 213 256 305
#     4   9  19  35  54  79 108 141 179 218 257 309
#     4  10  20  34  54  81 113 144 180 222 267 311
#
# _framework density 18.531158999999999
#
# number of rings (size 3 to 8) (size 9 to 14) (size 15 to 20)
#    0.000    2.250    0.000    5.250    0.000    3.000 
#    0.000    8.125    0.000    6.000    0.000    0.000 
#    0.000    0.000    0.000    0.000    0.000    0.000 
#
# Total GULP energy -793418.713160 kJ/mol
# GULP energy per Si atom -12397.167393 kJ/mol
# Density = 1.848898 g / cm^3
# Si number density = 18.531159 Si / 1000 Ang^3
#
#
#
# Elastic Constant Matrix: (Units=GPa)
#
#
# Indices 1 2 3 4 5 6 
#
# 1 68.1824 39.2053 29.3525 0.0000 0.0000 0.0000
# 2 39.2053 113.3640 42.5327 0.0000 0.0000 0.0000
# 3 29.3525 42.5327 97.7325 0.0000 0.0000 0.0000
# 4 0.0000 0.0000 0.0000 31.8340 0.0000 0.0000
# 5 0.0000 0.0000 0.0000 0.0000 26.9429 0.0000
# 6 0.0000 0.0000 0.0000 0.0000 0.0000 19.3312
#
#
#
# Elastic Compliance Matrix: (Units=1/GPa)
#
#
# Indices 1 2 3 4 5 6 
#
# 1 0.019230 -0.005359 -0.003443 0.000000 0.000000 0.000000
# 2 -0.005359 0.012036 -0.003629 0.000000 0.000000 0.000000
# 3 -0.003443 -0.003629 0.012845 0.000000 0.000000 0.000000
# 4 0.000000 0.000000 0.000000 0.031413 0.000000 0.000000
# 5 0.000000 0.000000 0.000000 0.000000 0.037116 0.000000
# 6 0.000000 0.000000 0.000000 0.000000 0.000000 0.051730
#
#
# Mechanical properties :
#
#
# Convention : Reuss Voigt Hill
#
# Bulk Modulus (GPa) = 51.94777 55.71776 53.83276
# Shear Modulus (GPa) = 25.55622 26.83419 26.19521
#
# Velocity S-wave (km/s) = 3.71765 3.80946 3.76383
# Velocity P-wave (km/s) = 6.82066 7.03432 6.92831
#
# Compressibility (1/GPa) = 0.01925010
#
# Stress axis : x y z
#
# Youngs Moduli (GPa) = 52.00175 83.08624 77.84939
#
# Poissons Ratio (x) = 0.44522 0.26807
# Poissons Ratio (y) = 0.27865 0.28248
# Poissons Ratio (z) = 0.17907 0.30148
#
# Static dielectric constant tensor:
#      x y z
#    x 3.414090 0.000000 0.000000 
#    y 0.000000 3.687710 0.000000 
#    z 0.000000 0.000000 3.427260 
# 
# 
# High freq. dielectric constant tensor:
#      x y z
#    x 1.700960 0.000000 0.000000 
#    y 0.000000 1.718700 0.000000 
#    z 0.000000 0.000000 1.721190 
# 
# From -- ./inp_files/8491.got.cif
#   From: 2010.03.12/outbox.cif.g09.slc.cpg/sg57_5_cif.got.tgz:8491.got - 2010.04.16 15:48:40.
