data_PCOD8231530
_publ_section_title
;
Structure prediction by ZEFSAII (Michael W. Deem and Ramdas Pophale) SiO2 
 PCOD8231530
Probable space group: P B C M
;
_chemical_formula_sum "Si O2"
_cell_formula_units_Z 64
_cell_length_a 19.381601
_cell_length_b 20.351388
_cell_length_c 8.991053
_cell_angle_alpha 90.000000
_cell_angle_beta 90.000000
_cell_angle_gamma 90.000000
_cell_volume 3546.453261
_symmetry_space_group_name_H-M "P B C M"
_symmetry_group_IT_number 57
_symmetry_cell_setting 'orthorhombic'
loop_
_space_group_symop_operation_xyz
x,y,z
-x,-y,1/2+z
x,1/2-y,-z
-x,1/2+y,1/2-z
-x,-y,-z
x,y,1/2-z
-x,1/2+y,z
x,1/2-y,1/2+z
loop_
_atom_site_type_symbol
_atom_site_label
_atom_site_fract_x
_atom_site_fract_y
_atom_site_fract_z
Si Si1 0.696079 0.598718 0.076821
Si Si2 0.849223 0.575859 0.073231
Si Si3 0.672964 0.467547 0.920519
Si Si4 0.897108 0.183191 0.578672
Si Si5 0.428981 0.182240 0.424624
Si Si6 0.174938 0.938820 0.573948
Si Si7 0.939934 0.816793 0.421155
Si Si8 0.524361 0.434163 0.922842
O O1 0.692059 0.586085 0.250000
O O2 0.775498 0.608066 0.027803
O O3 0.649440 0.661294 0.031798
O O4 0.661775 0.534807 0.007127
O O5 0.858828 0.570311 0.250000
O O6 0.856110 0.503951 0.001756
O O7 0.908022 0.621292 0.005270
O O8 0.678074 0.488171 0.750000
O O9 0.743884 0.431420 0.967052
O O10 0.606308 0.421844 0.951259
O O11 0.872358 0.250000 0.500000
O O12 0.873278 0.184285 0.750000
O O13 0.862813 0.123418 0.493097
O O14 0.978660 0.175152 0.565450
O O15 0.448042 0.250000 0.500000
O O16 0.437132 0.191365 0.250000
O O17 0.482854 0.128203 0.486147
O O18 0.161848 0.942304 0.750000
O O19 0.914687 0.750000 0.500000
O O20 0.915688 0.815069 0.250000
O O21 0.507814 0.442620 0.750000
O O22 0.500000 0.500000 0.000000
#
# Coordination Sequence:
#
# PCOD8231530 Si02
#       8
#     8   8   8   8   8   8   8   8
#     4   9  18  33  51  74 103 136 174 215 259 310
#     4  10  20  34  54  80 111 143 179 222 267 318
#     4   9  18  32  53  80 105 133 172 217 263 313
#     4  10  21  38  59  81 105 139 181 224 272 327
#     4  10  21  35  50  73 106 140 175 218 261 309
#     4  10  20  35  55  81 112 142 176 223 273 322
#     4  10  21  37  56  78 106 140 181 224 269 324
#     4  10  19  33  55  79 103 135 177 220 263 313
#
# _framework density 18.046196999999999
#
# number of rings (size 3 to 8) (size 9 to 14) (size 15 to 20)
#    0.000    2.250    1.250    1.500    0.000    4.500 
#    0.000    1.875    0.000    1.500    0.000    0.000 
#    0.000    0.000    0.000    0.000    0.000    0.000 
#
# Total GULP energy -793551.090913 kJ/mol
# GULP energy per Si atom -12399.235796 kJ/mol
# Density = 1.800512 g / cm^3
# Si number density = 18.046197 Si / 1000 Ang^3
#
#
#
# Elastic Constant Matrix: (Units=GPa)
#
#
# Indices 1 2 3 4 5 6 
#
# 1 55.1629 55.4799 36.4324 0.0000 0.0000 0.0000
# 2 55.4799 146.2286 59.5188 0.0000 0.0000 0.0000
# 3 36.4324 59.5188 80.3289 0.0000 0.0000 0.0000
# 4 0.0000 0.0000 0.0000 36.4014 0.0000 0.0000
# 5 0.0000 0.0000 0.0000 0.0000 21.0090 0.0000
# 6 0.0000 0.0000 0.0000 0.0000 0.0000 26.2218
#
#
#
# Elastic Compliance Matrix: (Units=1/GPa)
#
#
# Indices 1 2 3 4 5 6 
#
# 1 0.032580 -0.009087 -0.008043 0.000000 0.000000 0.000000
# 2 -0.009087 0.012326 -0.005012 0.000000 0.000000 0.000000
# 3 -0.008043 -0.005012 0.019810 0.000000 0.000000 0.000000
# 4 0.000000 0.000000 0.000000 0.027471 0.000000 0.000000
# 5 0.000000 0.000000 0.000000 0.000000 0.047599 0.000000
# 6 0.000000 0.000000 0.000000 0.000000 0.000000 0.038136
#
#
# Mechanical properties :
#
#
# Convention : Reuss Voigt Hill
#
# Bulk Modulus (GPa) = 48.94272 64.95362 56.94817
# Shear Modulus (GPa) = 21.83254 25.41242 23.62248
#
# Velocity S-wave (km/s) = 3.48201 3.75665 3.62194
# Velocity P-wave (km/s) = 6.58373 7.40862 7.00832
#
# Compressibility (1/GPa) = 0.02043205
#
# Stress axis : x y z
#
# Youngs Moduli (GPa) = 30.69414 81.12863 50.47966
#
# Poissons Ratio (x) = 0.73722 0.40602
# Poissons Ratio (y) = 0.27892 0.25298
# Poissons Ratio (z) = 0.24688 0.40658
#
# Static dielectric constant tensor:
#      x y z
#    x 3.632650 0.000000 0.000000 
#    y 0.000000 3.297440 0.000000 
#    z 0.000000 0.000000 3.429030 
# 
# 
# High freq. dielectric constant tensor:
#      x y z
#    x 1.704000 0.000000 0.000000 
#    y 0.000000 1.687280 0.000000 
#    z 0.000000 0.000000 1.706180 
# 
# From -- ./inp_files/8534.got.cif
#   From: 2010.03.12/outbox.cif.g09.slc.cpg/sg57_5_cif.got.tgz:8534.got - 2010.04.16 15:48:40.
