data_PCOD8231462
_publ_section_title
;
Structure prediction by ZEFSAII (Michael W. Deem and Ramdas Pophale) SiO2 
 PCOD8231462
Probable space group: P B C M
;
_chemical_formula_sum "Si O2"
_cell_formula_units_Z 64
_cell_length_a 12.196712
_cell_length_b 31.025825
_cell_length_c 8.998706
_cell_angle_alpha 90.000000
_cell_angle_beta 90.000000
_cell_angle_gamma 90.000000
_cell_volume 3405.227802
_symmetry_space_group_name_H-M "P B C M"
_symmetry_group_IT_number 57
_symmetry_cell_setting 'orthorhombic'
loop_
_space_group_symop_operation_xyz
x,y,z
-x,-y,1/2+z
x,1/2-y,-z
-x,1/2+y,1/2-z
-x,-y,-z
x,y,1/2-z
-x,1/2+y,z
x,1/2-y,1/2+z
loop_
_atom_site_type_symbol
_atom_site_label
_atom_site_fract_x
_atom_site_fract_y
_atom_site_fract_z
Si Si1 0.728589 0.098299 0.077455
Si Si2 0.035630 0.873094 0.579517
Si Si3 0.870659 0.568837 0.575529
Si Si4 0.719094 0.852487 0.078282
Si Si5 0.213871 0.509587 0.914534
Si Si6 0.562497 0.535880 0.413774
Si Si7 0.885847 0.705302 0.076587
Si Si8 0.510788 0.117118 0.921681
O O1 0.707380 0.089459 0.250000
O O2 0.833938 0.128629 0.052044
O O3 0.747889 0.052389 0.999649
O O4 0.623711 0.124180 0.011529
O O5 0.007920 0.884759 0.750000
O O6 0.985268 0.910381 0.476787
O O7 0.986150 0.826692 0.537830
O O8 0.871492 0.562114 0.750000
O O9 0.771194 0.601238 0.527348
O O10 0.869501 0.520649 0.505829
O O11 0.749854 0.845480 0.250000
O O12 0.586590 0.847754 0.055827
O O13 0.771988 0.814196 0.983257
O O14 0.167691 0.521784 0.750000
O O15 0.313922 0.477486 0.893114
O O16 0.500000 0.500000 0.500000
O O17 0.510589 0.544929 0.250000
O O18 0.552982 0.575907 0.521095
O O19 0.872458 0.713217 0.250000
O O20 0.914657 0.750000 0.000000
O O21 0.543175 0.111918 0.750000
#
# Coordination Sequence:
#
# PCOD8231462 Si02
#       8
#     8   8   8   8   8   8   8   8
#     4  11  23  37  53  73 104 147 195 235 272 318
#     4   9  21  40  57  78 108 142 180 226 271 323
#     4  10  19  33  54  77 103 140 184 233 282 324
#     4   9  19  34  54  82 113 140 171 214 266 321
#     4  11  22  33  48  72 104 143 190 238 282 325
#     4  11  21  31  47  70 101 141 188 236 276 317
#     4  10  20  37  64  92 115 135 164 208 263 324
#     4  11  21  34  52  76 109 144 181 224 271 320
#
# _framework density 18.794632
#
# number of rings (size 3 to 8) (size 9 to 14) (size 15 to 20)
#    0.000    1.750    2.500    2.250    0.000    4.500 
#    0.000    0.000    0.000    0.750    0.000    3.500 
#    0.000    0.000    0.000    0.000    0.000    0.000 
#
# Total GULP energy -793187.058843 kJ/mol
# GULP energy per Si atom -12393.547794 kJ/mol
# Density = 1.875185 g / cm^3
# Si number density = 18.794632 Si / 1000 Ang^3
#
#
#
# Elastic Constant Matrix: (Units=GPa)
#
#
# Indices 1 2 3 4 5 6 
#
# 1 113.5006 39.1300 50.5465 0.0000 0.0000 0.0000
# 2 39.1300 65.9171 38.0577 0.0000 0.0000 0.0000
# 3 50.5465 38.0577 97.5235 0.0000 0.0000 0.0000
# 4 0.0000 0.0000 0.0000 24.8134 0.0000 0.0000
# 5 0.0000 0.0000 0.0000 0.0000 28.5982 0.0000
# 6 0.0000 0.0000 0.0000 0.0000 0.0000 15.4779
#
#
#
# Elastic Compliance Matrix: (Units=1/GPa)
#
#
# Indices 1 2 3 4 5 6 
#
# 1 0.012511 -0.004754 -0.004629 0.000000 0.000000 0.000000
# 2 -0.004754 0.021389 -0.005883 0.000000 0.000000 0.000000
# 3 -0.004629 -0.005883 0.014949 0.000000 0.000000 0.000000
# 4 0.000000 0.000000 0.000000 0.040301 0.000000 0.000000
# 5 0.000000 0.000000 0.000000 0.000000 0.034967 0.000000
# 6 0.000000 0.000000 0.000000 0.000000 0.000000 0.064608
#
#
# Mechanical properties :
#
#
# Convention : Reuss Voigt Hill
#
# Bulk Modulus (GPa) = 54.59464 59.15662 56.87563
# Shear Modulus (GPa) = 22.18629 23.72501 22.95565
#
# Velocity S-wave (km/s) = 3.43951 3.55678 3.49864
# Velocity P-wave (km/s) = 6.69960 6.95782 6.82993
#
# Compressibility (1/GPa) = 0.01831682
#
# Stress axis : x y z
#
# Youngs Moduli (GPa) = 79.92862 46.75231 66.89389
#
# Poissons Ratio (x) = 0.22227 0.30967
# Poissons Ratio (y) = 0.38000 0.39353
# Poissons Ratio (z) = 0.37001 0.27504
#
# Static dielectric constant tensor:
#      x y z
#    x 3.548950 0.000000 0.000000 
#    y 0.000000 3.127930 0.000000 
#    z 0.000000 0.000000 3.604030 
# 
# 
# High freq. dielectric constant tensor:
#      x y z
#    x 1.732310 0.000000 0.000000 
#    y 0.000000 1.688450 0.000000 
#    z 0.000000 0.000000 1.746370 
# 
# From -- ./inp_files/3801.got.cif
#   From: 2010.03.12/outbox.cif.g09.slc.cpg/sg57_2_cif.got.tgz:3801.got - 2010.04.16 15:48:40.
