data_PCOD8231552
_publ_section_title
;
Structure prediction by ZEFSAII (Michael W. Deem and Ramdas Pophale) SiO2 
 PCOD8231552
Probable space group: P B C M
;
_chemical_formula_sum "Si O2"
_cell_formula_units_Z 60
_cell_length_a 11.593560
_cell_length_b 20.715781
_cell_length_c 13.573835
_cell_angle_alpha 90.000000
_cell_angle_beta 90.000000
_cell_angle_gamma 90.000000
_cell_volume 3260.023201
_symmetry_space_group_name_H-M "P B C M"
_symmetry_group_IT_number 57
_symmetry_cell_setting 'orthorhombic'
loop_
_space_group_symop_operation_xyz
x,y,z
-x,-y,1/2+z
x,1/2-y,-z
-x,1/2+y,1/2-z
-x,-y,-z
x,y,1/2-z
-x,1/2+y,z
x,1/2-y,1/2+z
loop_
_atom_site_type_symbol
_atom_site_label
_atom_site_fract_x
_atom_site_fract_y
_atom_site_fract_z
Si Si1 0.654346 0.656858 0.137943
Si Si2 0.205821 0.250000 0.500000
Si Si3 0.768021 0.283983 0.365527
Si Si4 0.217342 0.473593 0.638222
Si Si5 0.385339 0.836133 0.863552
Si Si6 0.978594 0.752543 0.641055
Si Si7 0.012434 0.601580 0.139142
Si Si8 0.769461 0.093471 0.999447
O O1 0.684712 0.679415 0.250000
O O2 0.716527 0.699434 0.056558
O O3 0.689632 0.582924 0.123274
O O4 0.520215 0.666286 0.116460
O O5 0.117113 0.285218 0.423630
O O6 0.758062 0.297032 0.250000
O O7 0.674268 0.230727 0.399646
O O8 0.751791 0.351039 0.419338
O O9 0.892085 0.256416 0.397482
O O10 0.226865 0.500703 0.750000
O O11 0.247778 0.526897 0.557631
O O12 0.087103 0.450193 0.618842
O O13 0.355917 0.847306 0.750000
O O14 0.331818 0.897224 0.920909
O O15 0.966745 0.724084 0.750000
O O16 0.950537 0.828735 0.635212
O O17 0.064929 0.592557 0.250000
O O18 0.108518 0.594483 0.055494
#
# Coordination Sequence:
#
# PCOD8231552 Si02
#       8
#     8   4   8   8   8   8   8   8
#     4  10  23  41  60  82 115 156 195 234 284 343
#     4  12  20  32  62  86 106 146 198 236 274 330
#     4  10  21  35  54  87 123 147 180 238 301 341
#     4  10  22  40  57  79 115 155 193 230 284 350
#     4  10  22  39  59  83 114 150 191 241 292 341
#     4  10  19  33  55  84 115 147 184 234 288 342
#     4  10  19  35  56  81 114 153 189 231 288 348
#     4  12  21  33  60  86 115 146 198 238 286 337
#
# _framework density 18.404776999999999
#
# number of rings (size 3 to 8) (size 9 to 14) (size 15 to 20)
#    0.000    1.600    2.667    2.800    1.867    0.533 
#    0.000    0.000    0.000    2.400    0.000    0.000 
#    0.000    0.000    0.000    0.000    0.000    0.000 
#
# Total GULP energy -743832.991794 kJ/mol
# GULP energy per Si atom -12397.216530 kJ/mol
# Density = 1.836289 g / cm^3
# Si number density = 18.404777 Si / 1000 Ang^3
#
#
#
# Elastic Constant Matrix: (Units=GPa)
#
#
# Indices 1 2 3 4 5 6 
#
# 1 121.7499 53.2554 66.1788 0.0000 0.0000 0.0000
# 2 53.2554 83.0047 55.2327 0.0000 0.0000 0.0000
# 3 66.1788 55.2327 102.1273 0.0000 0.0000 0.0000
# 4 0.0000 0.0000 0.0000 34.4736 0.0000 0.0000
# 5 0.0000 0.0000 0.0000 0.0000 23.3029 0.0000
# 6 0.0000 0.0000 0.0000 0.0000 0.0000 18.9705
#
#
#
# Elastic Compliance Matrix: (Units=1/GPa)
#
#
# Indices 1 2 3 4 5 6 
#
# 1 0.013675 -0.004495 -0.006431 0.000000 0.000000 0.000000
# 2 -0.004495 0.020298 -0.008065 0.000000 0.000000 0.000000
# 3 -0.006431 -0.008065 0.018320 0.000000 0.000000 0.000000
# 4 0.000000 0.000000 0.000000 0.029008 0.000000 0.000000
# 5 0.000000 0.000000 0.000000 0.000000 0.042913 0.000000
# 6 0.000000 0.000000 0.000000 0.000000 0.000000 0.052713
#
#
# Mechanical properties :
#
#
# Convention : Reuss Voigt Hill
#
# Bulk Modulus (GPa) = 69.86770 72.91287 71.39028
# Shear Modulus (GPa) = 22.76047 24.16373 23.46210
#
# Velocity S-wave (km/s) = 3.52043 3.62733 3.57428
# Velocity P-wave (km/s) = 7.38707 7.56609 7.47711
#
# Compressibility (1/GPa) = 0.01431277
#
# Stress axis : x y z
#
# Youngs Moduli (GPa) = 73.12542 49.26621 54.58401
#
# Poissons Ratio (x) = 0.22145 0.35101
# Poissons Ratio (y) = 0.32869 0.44021
# Poissons Ratio (z) = 0.47024 0.39732
#
# Static dielectric constant tensor:
#      x y z
#    x 3.437050 0.000000 0.000000 
#    y 0.000000 3.136770 0.000000 
#    z 0.000000 0.000000 3.690030 
# 
# 
# High freq. dielectric constant tensor:
#      x y z
#    x 1.716260 0.000000 0.000000 
#    y 0.000000 1.683120 0.000000 
#    z 0.000000 0.000000 1.735350 
# 
# From -- ./inp_files/17917.got.cif
#   From: 2010.03.12/outbox.cif.g09.slc.cpg/sg57_9_cif.got.tgz:17917.got - 2010.04.16 15:48:40.
