data_PCOD8231205
_publ_section_title
;
Structure prediction by ZEFSAII (Michael W. Deem and Ramdas Pophale) SiO2 
 PCOD8231205
Probable space group: P B C M
;
_chemical_formula_sum "Si O2"
_cell_formula_units_Z 48
_cell_length_a 14.695571
_cell_length_b 20.504268
_cell_length_c 8.818406
_cell_angle_alpha 90.000000
_cell_angle_beta 90.000000
_cell_angle_gamma 90.000000
_cell_volume 2657.179082
_symmetry_space_group_name_H-M "P B C M"
_symmetry_group_IT_number 57
_symmetry_cell_setting 'orthorhombic'
loop_
_space_group_symop_operation_xyz
x,y,z
-x,-y,1/2+z
x,1/2-y,-z
-x,1/2+y,1/2-z
-x,-y,-z
x,y,1/2-z
-x,1/2+y,z
x,1/2-y,1/2+z
loop_
_atom_site_type_symbol
_atom_site_label
_atom_site_fract_x
_atom_site_fract_y
_atom_site_fract_z
Si Si1 0.108738 0.183519 0.426219
Si Si2 0.691904 0.642973 0.419927
Si Si3 0.723569 0.514675 0.925285
Si Si4 0.504927 0.185112 0.423228
Si Si5 0.926844 0.952208 0.429009
Si Si6 0.433393 0.946818 0.071491
O O1 0.069678 0.250000 0.500000
O O2 0.083361 0.183073 0.250000
O O3 0.217191 0.183515 0.455331
O O4 0.062721 0.120247 0.502433
O O5 0.698264 0.612726 0.250000
O O6 0.679467 0.584956 0.539933
O O7 0.604661 0.689188 0.433129
O O8 0.709674 0.498287 0.750000
O O9 0.829338 0.516750 0.971505
O O10 0.670967 0.460507 0.023109
O O11 0.545053 0.250000 0.500000
O O12 0.538176 0.180673 0.250000
O O13 0.542582 0.124473 0.515033
O O14 0.940264 0.947005 0.250000
O O15 0.000000 0.000000 0.500000
O O16 0.443802 0.950797 0.250000
O O17 0.500000 0.000000 0.000000
#
# Coordination Sequence:
#
# PCOD8231205 Si02
#       6
#     8   8   8   8   8   8
#     4  10  19  32  51  78 111 146 181 220 270 329
#     4   9  18  31  49  74 107 145 180 217 266 322
#     4  10  20  34  55  81 108 141 182 226 272 323
#     4  11  22  35  51  75 108 147 188 230 276 324
#     4  10  21  37  58  84 112 144 182 226 277 330
#     4  12  23  36  55  79 108 145 188 229 271 321
#
# _framework density 18.06427
#
# number of rings (size 3 to 8) (size 9 to 14) (size 15 to 20)
#    0.000    1.667    1.667    4.000    0.000    3.333 
#    0.000    0.000    0.000    1.000    0.000    0.000 
#    0.000    0.000    0.000    0.000    0.000    0.000 
#
# Total GULP energy -595254.748777 kJ/mol
# GULP energy per Si atom -12401.140600 kJ/mol
# Density = 1.802316 g / cm^3
# Si number density = 18.064270 Si / 1000 Ang^3
#
#
#
# Elastic Constant Matrix: (Units=GPa)
#
#
# Indices 1 2 3 4 5 6 
#
# 1 62.1593 55.6728 44.5006 0.0000 0.0000 0.0000
# 2 55.6728 147.3447 74.2276 0.0000 0.0000 0.0000
# 3 44.5006 74.2276 131.0532 0.0000 0.0000 0.0000
# 4 0.0000 0.0000 0.0000 37.2056 0.0000 0.0000
# 5 0.0000 0.0000 0.0000 0.0000 25.3509 0.0000
# 6 0.0000 0.0000 0.0000 0.0000 0.0000 23.3865
#
#
#
# Elastic Compliance Matrix: (Units=1/GPa)
#
#
# Indices 1 2 3 4 5 6 
#
# 1 0.026155 -0.007568 -0.004595 0.000000 0.000000 0.000000
# 2 -0.007568 0.011686 -0.004049 0.000000 0.000000 0.000000
# 3 -0.004595 -0.004049 0.011484 0.000000 0.000000 0.000000
# 4 0.000000 0.000000 0.000000 0.026878 0.000000 0.000000
# 5 0.000000 0.000000 0.000000 0.000000 0.039446 0.000000
# 6 0.000000 0.000000 0.000000 0.000000 0.000000 0.042760
#
#
# Mechanical properties :
#
#
# Convention : Reuss Voigt Hill
#
# Bulk Modulus (GPa) = 59.16557 76.59546 67.88051
# Shear Modulus (GPa) = 25.44954 28.26567 26.85761
#
# Velocity S-wave (km/s) = 3.75751 3.95996 3.86006
# Velocity P-wave (km/s) = 7.18673 7.96254 7.58456
#
# Compressibility (1/GPa) = 0.01690172
#
# Stress axis : x y z
#
# Youngs Moduli (GPa) = 38.23307 85.57213 87.07592
#
# Poissons Ratio (x) = 0.64759 0.40012
# Poissons Ratio (y) = 0.28934 0.35259
# Poissons Ratio (z) = 0.17568 0.34650
#
# Static dielectric constant tensor:
#      x y z
#    x 3.245150 0.000000 0.000000 
#    y 0.000000 3.245490 0.000000 
#    z 0.000000 0.000000 3.481910 
# 
# 
# High freq. dielectric constant tensor:
#      x y z
#    x 1.668910 0.000000 0.000000 
#    y 0.000000 1.693540 0.000000 
#    z 0.000000 0.000000 1.717670 
# 
# From -- ./inp_files/4843.got.cif
#   From: 2010.03.12/outbox.cif.g09.slc.cpg/sg57_3_cif.got.tgz:4843.got - 2010.04.16 15:48:40.
