data_PCOD8231925
_publ_section_title
;
Structure prediction by ZEFSAII (Michael W. Deem and Ramdas Pophale) SiO2 
 PCOD8231925
Probable space group: P B C M
;
_chemical_formula_sum "Si O2"
_cell_formula_units_Z 56
_cell_length_a 15.966339
_cell_length_b 13.920765
_cell_length_c 13.388775
_cell_angle_alpha 90.000000
_cell_angle_beta 90.000000
_cell_angle_gamma 90.000000
_cell_volume 2975.838042
_symmetry_space_group_name_H-M "P B C M"
_symmetry_group_IT_number 57
_symmetry_cell_setting 'orthorhombic'
loop_
_space_group_symop_operation_xyz
x,y,z
-x,-y,1/2+z
x,1/2-y,-z
-x,1/2+y,1/2-z
-x,-y,-z
x,y,1/2-z
-x,1/2+y,z
x,1/2-y,1/2+z
loop_
_atom_site_type_symbol
_atom_site_label
_atom_site_fract_x
_atom_site_fract_y
_atom_site_fract_z
Si Si1 0.568441 0.806582 0.136098
Si Si2 0.603351 0.408116 0.133110
Si Si3 0.219117 0.861802 0.137819
Si Si4 0.370430 0.387254 0.557926
Si Si5 0.812565 0.917430 0.863840
Si Si6 0.976879 0.891142 0.979185
Si Si7 0.942779 0.263009 0.133399
O O1 0.593864 0.830923 0.250000
O O2 0.472702 0.836420 0.114316
O O3 0.574777 0.693116 0.115211
O O4 0.628271 0.866373 0.061287
O O5 0.617667 0.431488 0.250000
O O6 0.688334 0.359634 0.087387
O O7 0.587533 0.509843 0.078981
O O8 0.231559 0.825702 0.250000
O O9 0.149265 0.791926 0.089914
O O10 0.181911 0.968289 0.133177
O O11 0.276030 0.379850 0.596519
O O12 0.826043 0.880739 0.750000
O O13 0.883473 0.877220 0.937174
O O14 0.040603 0.847782 0.895518
O O15 0.986604 0.829331 0.080461
O O16 0.000000 0.000000 0.000000
O O17 0.949950 0.281971 0.250000
#
# Coordination Sequence:
#
# PCOD8231925 Si02
#       7
#     8   8   8   8   8   8   8
#     4  10  20  33  53  82 116 147 186 243 290 332
#     4   9  17  32  57  83 109 148 192 235 282 337
#     4   8  15  31  55  80 107 145 192 232 274 334
#     4  10  20  35  55  81 109 150 198 233 279 346
#     4  10  19  35  60  83 110 150 192 233 278 342
#     4  11  22  36  57  86 113 146 190 237 293 340
#     4  10  21  36  56  84 117 151 190 240 287 342
#
# _framework density 18.81823
#
# number of rings (size 3 to 8) (size 9 to 14) (size 15 to 20)
#    0.000    2.286    1.429    3.000    0.000    2.857 
#    0.000    5.000    3.143    0.000    0.000    0.000 
#    0.000    0.000    0.000    0.000    0.000    0.000 
#
# Total GULP energy -694055.525367 kJ/mol
# GULP energy per Si atom -12393.848667 kJ/mol
# Density = 1.877540 g / cm^3
# Si number density = 18.818230 Si / 1000 Ang^3
#
#
#
# Elastic Constant Matrix: (Units=GPa)
#
#
# Indices 1 2 3 4 5 6 
#
# 1 128.0078 71.8733 52.3101 0.0000 0.0000 0.0000
# 2 71.8733 106.7585 34.7805 0.0000 0.0000 0.0000
# 3 52.3101 34.7805 114.5621 0.0000 0.0000 0.0000
# 4 0.0000 0.0000 0.0000 25.3397 0.0000 0.0000
# 5 0.0000 0.0000 0.0000 0.0000 27.9895 0.0000
# 6 0.0000 0.0000 0.0000 0.0000 0.0000 30.1087
#
#
#
# Elastic Compliance Matrix: (Units=1/GPa)
#
#
# Indices 1 2 3 4 5 6 
#
# 1 0.013980 -0.008137 -0.003913 0.000000 0.000000 0.000000
# 2 -0.008137 0.015131 -0.000878 0.000000 0.000000 0.000000
# 3 -0.003913 -0.000878 0.010782 0.000000 0.000000 0.000000
# 4 0.000000 0.000000 0.000000 0.039464 0.000000 0.000000
# 5 0.000000 0.000000 0.000000 0.000000 0.035728 0.000000
# 6 0.000000 0.000000 0.000000 0.000000 0.000000 0.033213
#
#
# Mechanical properties :
#
#
# Convention : Reuss Voigt Hill
#
# Bulk Modulus (GPa) = 71.24166 74.13957 72.69062
# Shear Modulus (GPa) = 27.95912 29.37854 28.66883
#
# Velocity S-wave (km/s) = 3.85872 3.95546 3.90739
# Velocity P-wave (km/s) = 7.60217 7.76815 7.68561
#
# Compressibility (1/GPa) = 0.01403673
#
# Stress axis : x y z
#
# Youngs Moduli (GPa) = 71.53251 66.08930 92.74495
#
# Poissons Ratio (x) = 0.53775 0.36291
# Poissons Ratio (y) = 0.58204 0.08147
# Poissons Ratio (z) = 0.27990 0.05805
#
# Static dielectric constant tensor:
#      x y z
#    x 3.602700 0.000000 0.000000 
#    y 0.000000 3.408950 0.000000 
#    z 0.000000 0.000000 3.509960 
# 
# 
# High freq. dielectric constant tensor:
#      x y z
#    x 1.732220 0.000000 0.000000 
#    y 0.000000 1.721010 0.000000 
#    z 0.000000 0.000000 1.725700 
# 
# From -- ./inp_files/18622.got.cif
#   From: 2010.03.12/outbox.cif.g09.slc.cpg/sg57_10_cif.got.tgz:18622.got - 2010.04.16 15:48:40.
