data_PCOD8231691
_publ_section_title
;
Structure prediction by ZEFSAII (Michael W. Deem and Ramdas Pophale) SiO2 
 PCOD8231691
Probable space group: P B C M
;
_chemical_formula_sum "Si O2"
_cell_formula_units_Z 64
_cell_length_a 20.691080
_cell_length_b 18.001841
_cell_length_c 8.889764
_cell_angle_alpha 90.000000
_cell_angle_beta 90.000000
_cell_angle_gamma 90.000000
_cell_volume 3311.237357
_symmetry_space_group_name_H-M "P B C M"
_symmetry_group_IT_number 57
_symmetry_cell_setting 'orthorhombic'
loop_
_space_group_symop_operation_xyz
x,y,z
-x,-y,1/2+z
x,1/2-y,-z
-x,1/2+y,1/2-z
-x,-y,-z
x,y,1/2-z
-x,1/2+y,z
x,1/2-y,1/2+z
loop_
_atom_site_type_symbol
_atom_site_label
_atom_site_fract_x
_atom_site_fract_y
_atom_site_fract_z
Si Si1 0.360729 0.429800 0.925119
Si Si2 0.991942 0.169821 0.072081
Si Si3 0.118636 0.415297 0.572436
Si Si4 0.749275 0.326533 0.572834
Si Si5 0.245513 0.170097 0.428889
Si Si6 0.129425 0.574229 0.074478
Si Si7 0.497977 0.920156 0.573833
Si Si8 0.371465 0.598047 0.928980
O O1 0.347410 0.438496 0.750000
O O2 0.303422 0.380818 0.995675
O O3 0.429553 0.387882 0.953420
O O4 0.359715 0.513957 0.989832
O O5 0.993705 0.179538 0.250000
O O6 0.053192 0.122791 0.013484
O O7 0.927592 0.127966 0.017535
O O8 0.993937 0.250000 0.000000
O O9 0.118679 0.421891 0.750000
O O10 0.178491 0.365727 0.516457
O O11 0.124743 0.497180 0.509555
O O12 0.773549 0.250000 0.500000
O O13 0.740228 0.315983 0.750000
O O14 0.802259 0.388722 0.534945
O O15 0.681961 0.348506 0.497692
O O16 0.252940 0.250000 0.500000
O O17 0.249139 0.177142 0.250000
O O18 0.121732 0.558862 0.250000
O O19 0.482331 0.925997 0.750000
O O20 0.441476 0.873615 0.490860
O O21 0.500000 0.000000 0.500000
O O22 0.370934 0.603980 0.750000
#
# Coordination Sequence:
#
# PCOD8231691 Si02
#       8
#     8   8   8   8   8   8   8   8
#     4   8  16  31  52  75 103 138 176 218 265 315
#     4  10  21  37  56  83 115 148 183 222 267 319
#     4  10  21  36  57  82 110 144 183 222 266 318
#     4  11  23  38  55  78 107 141 178 222 273 329
#     4  10  20  35  52  75 105 139 178 219 264 317
#     4  10  22  38  57  82 111 140 181 229 270 316
#     4   9  16  29  50  77 107 140 179 226 274 323
#     4  10  19  34  56  80 105 138 178 224 275 329
#
# _framework density 19.328123000000001
#
# number of rings (size 3 to 8) (size 9 to 14) (size 15 to 20)
#    0.000    2.250    0.000    3.750    0.000    3.500 
#    0.000    4.375    0.000    1.500    0.000    0.000 
#    0.000    0.000    0.000    0.000    0.000    0.000 
#
# Total GULP energy -793522.327751 kJ/mol
# GULP energy per Si atom -12398.786371 kJ/mol
# Density = 1.928413 g / cm^3
# Si number density = 19.328123 Si / 1000 Ang^3
#
#
#
# Elastic Constant Matrix: (Units=GPa)
#
#
# Indices 1 2 3 4 5 6 
#
# 1 112.4397 18.4586 30.9895 0.0000 0.0000 0.0000
# 2 18.4586 82.2930 22.6683 0.0000 0.0000 0.0000
# 3 30.9895 22.6683 49.6292 0.0000 0.0000 0.0000
# 4 0.0000 0.0000 0.0000 34.9656 0.0000 0.0000
# 5 0.0000 0.0000 0.0000 0.0000 19.4252 0.0000
# 6 0.0000 0.0000 0.0000 0.0000 0.0000 25.7130
#
#
#
# Elastic Compliance Matrix: (Units=1/GPa)
#
#
# Indices 1 2 3 4 5 6 
#
# 1 0.010772 -0.000644 -0.006432 0.000000 0.000000 0.000000
# 2 -0.000644 0.013939 -0.005964 0.000000 0.000000 0.000000
# 3 -0.006432 -0.005964 0.026890 0.000000 0.000000 0.000000
# 4 0.000000 0.000000 0.000000 0.028600 0.000000 0.000000
# 5 0.000000 0.000000 0.000000 0.000000 0.051479 0.000000
# 6 0.000000 0.000000 0.000000 0.000000 0.000000 0.038891
#
#
# Mechanical properties :
#
#
# Convention : Reuss Voigt Hill
#
# Bulk Modulus (GPa) = 39.18550 43.17718 41.18134
# Shear Modulus (GPa) = 24.37131 27.50380 25.93755
#
# Velocity S-wave (km/s) = 3.55480 3.77635 3.66725
# Velocity P-wave (km/s) = 6.09645 6.43444 6.26772
#
# Compressibility (1/GPa) = 0.02551964
#
# Stress axis : x y z
#
# Youngs Moduli (GPa) = 92.83176 71.74013 37.18869
#
# Poissons Ratio (x) = 0.04624 0.23920
# Poissons Ratio (y) = 0.05983 0.22181
# Poissons Ratio (z) = 0.59709 0.42788
#
# Static dielectric constant tensor:
#      x y z
#    x 4.288340 0.000000 0.000000 
#    y 0.000000 3.392700 0.000000 
#    z 0.000000 0.000000 3.419780 
# 
# 
# High freq. dielectric constant tensor:
#      x y z
#    x 1.776030 0.000000 0.000000 
#    y 0.000000 1.739260 0.000000 
#    z 0.000000 0.000000 1.738940 
# 
# From -- ./inp_files/8499.got.cif
#   From: 2010.03.12/outbox.cif.g09.slc.cpg/sg57_5_cif.got.tgz:8499.got - 2010.04.16 15:48:40.
