data_PCOD8231078
_publ_section_title
;
Structure prediction by ZEFSAII (Michael W. Deem and Ramdas Pophale) SiO2 
 PCOD8231078
Probable space group: P B C M
;
_chemical_formula_sum "Si O2"
_cell_formula_units_Z 64
_cell_length_a 14.414546
_cell_length_b 29.929620
_cell_length_c 8.995811
_cell_angle_alpha 90.000000
_cell_angle_beta 90.000000
_cell_angle_gamma 90.000000
_cell_volume 3880.989732
_symmetry_space_group_name_H-M "P B C M"
_symmetry_group_IT_number 57
_symmetry_cell_setting 'orthorhombic'
loop_
_space_group_symop_operation_xyz
x,y,z
-x,-y,1/2+z
x,1/2-y,-z
-x,1/2+y,1/2-z
-x,-y,-z
x,y,1/2-z
-x,1/2+y,z
x,1/2-y,1/2+z
loop_
_atom_site_type_symbol
_atom_site_label
_atom_site_fract_x
_atom_site_fract_y
_atom_site_fract_z
Si Si1 0.357764 0.293447 0.421526
Si Si2 0.575187 0.887534 0.078031
Si Si3 0.266197 0.971523 0.417022
Si Si4 0.060106 0.962071 0.078247
Si Si5 0.450883 0.957492 0.925764
Si Si6 0.255576 0.424507 0.916353
Si Si7 0.147516 0.205429 0.576281
Si Si8 0.915181 0.609863 0.921049
O O1 0.400362 0.250000 0.500000
O O2 0.350663 0.282276 0.250000
O O3 0.428394 0.334327 0.450417
O O4 0.253059 0.303739 0.480041
O O5 0.556502 0.899711 0.250000
O O6 0.502145 0.912069 0.972858
O O7 0.679130 0.901158 0.036127
O O8 0.277091 0.951729 0.250000
O O9 0.164989 0.959781 0.485071
O O10 0.344729 0.951318 0.523751
O O11 0.281638 0.024049 0.412163
O O12 0.065611 0.976253 0.250000
O O13 0.016008 0.912664 0.057865
O O14 0.000000 0.000000 0.000000
O O15 0.456538 0.963585 0.750000
O O16 0.500000 0.000000 0.000000
O O17 0.267382 0.404367 0.750000
O O18 0.151277 0.418319 0.972015
O O19 0.106424 0.250000 0.500000
O O20 0.143737 0.214092 0.750000
O O21 0.085104 0.162201 0.532615
O O22 0.881678 0.605311 0.750000
#
# Coordination Sequence:
#
# PCOD8231078 Si02
#       8
#     8   8   8   8   8   8   8   8
#     4   9  18  31  48  71  99 131 162 199 244 293
#     4  11  21  35  52  72 100 134 169 205 246 295
#     4  10  21  36  49  70 101 132 169 210 246 289
#     4  10  20  33  51  72  98 131 166 204 243 288
#     4  12  24  36  52  74  98 132 170 208 251 295
#     4  11  20  29  47  72 101 133 168 207 243 287
#     4   9  17  30  45  68  97 128 164 199 241 293
#     4  10  19  32  49  70  99 134 169 202 243 292
#
# _framework density 16.490639999999999
#
# number of rings (size 3 to 8) (size 9 to 14) (size 15 to 20)
#    0.000    1.750    3.750    1.875    0.000    2.500 
#    0.000    0.000    0.000    0.000    0.000    0.875 
#    0.000    2.000    0.000    0.000    0.000    0.000 
#
# Total GULP energy -793498.609335 kJ/mol
# GULP energy per Si atom -12398.415771 kJ/mol
# Density = 1.645311 g / cm^3
# Si number density = 16.490640 Si / 1000 Ang^3
#
#
#
# Elastic Constant Matrix: (Units=GPa)
#
#
# Indices 1 2 3 4 5 6 
#
# 1 94.1218 38.0762 39.5803 0.0000 0.0000 0.0000
# 2 38.0762 95.3626 39.9993 0.0000 0.0000 0.0000
# 3 39.5803 39.9993 72.1517 0.0000 0.0000 0.0000
# 4 0.0000 0.0000 0.0000 25.4433 0.0000 0.0000
# 5 0.0000 0.0000 0.0000 0.0000 22.3519 0.0000
# 6 0.0000 0.0000 0.0000 0.0000 0.0000 21.9606
#
#
#
# Elastic Compliance Matrix: (Units=1/GPa)
#
#
# Indices 1 2 3 4 5 6 
#
# 1 0.014524 -0.003202 -0.006192 0.000000 0.000000 0.000000
# 2 -0.003202 0.014369 -0.006210 0.000000 0.000000 0.000000
# 3 -0.006192 -0.006210 0.020699 0.000000 0.000000 0.000000
# 4 0.000000 0.000000 0.000000 0.039303 0.000000 0.000000
# 5 0.000000 0.000000 0.000000 0.000000 0.044739 0.000000
# 6 0.000000 0.000000 0.000000 0.000000 0.000000 0.045536
#
#
# Mechanical properties :
#
#
# Convention : Reuss Voigt Hill
#
# Bulk Modulus (GPa) = 54.39287 55.21640 54.80463
# Shear Modulus (GPa) = 23.09405 23.54984 23.32195
#
# Velocity S-wave (km/s) = 3.74630 3.78309 3.76474
# Velocity P-wave (km/s) = 7.19505 7.25524 7.22520
#
# Compressibility (1/GPa) = 0.01838476
#
# Stress axis : x y z
#
# Youngs Moduli (GPa) = 68.85264 69.59309 48.31117
#
# Poissons Ratio (x) = 0.22281 0.29916
# Poissons Ratio (y) = 0.22044 0.30000
# Poissons Ratio (z) = 0.42636 0.43215
#
# Static dielectric constant tensor:
#      x y z
#    x 3.023930 0.000000 0.000000 
#    y 0.000000 3.116670 0.000000 
#    z 0.000000 0.000000 3.181340 
# 
# 
# High freq. dielectric constant tensor:
#      x y z
#    x 1.606940 0.000000 0.000000 
#    y 0.000000 1.624520 0.000000 
#    z 0.000000 0.000000 1.639590 
# 
# From -- ./inp_files/5949.got.cif
#   From: 2010.03.12/outbox.cif.g09.slc.cpg/sg57_3_cif.got.tgz:5949.got - 2010.04.16 15:48:40.
