data_PCOD8231826
_publ_section_title
;
Structure prediction by ZEFSAII (Michael W. Deem and Ramdas Pophale) SiO2 
 PCOD8231826
Probable space group: P B C M
;
_chemical_formula_sum "Si O2"
_cell_formula_units_Z 56
_cell_length_a 11.974960
_cell_length_b 15.359997
_cell_length_c 17.207591
_cell_angle_alpha 90.000000
_cell_angle_beta 90.000000
_cell_angle_gamma 90.000000
_cell_volume 3165.084268
_symmetry_space_group_name_H-M "P B C M"
_symmetry_group_IT_number 57
_symmetry_cell_setting 'orthorhombic'
loop_
_space_group_symop_operation_xyz
x,y,z
-x,-y,1/2+z
x,1/2-y,-z
-x,1/2+y,1/2-z
-x,-y,-z
x,y,1/2-z
-x,1/2+y,z
x,1/2-y,1/2+z
loop_
_atom_site_type_symbol
_atom_site_label
_atom_site_fract_x
_atom_site_fract_y
_atom_site_fract_z
Si Si1 0.679150 0.431354 0.080397
Si Si2 0.929269 0.480306 0.074690
Si Si3 0.577137 0.167758 0.052688
Si Si4 0.131707 0.348178 0.840595
Si Si5 0.380611 0.394625 0.658893
Si Si6 0.263798 0.758007 0.339012
Si Si7 0.985361 0.191675 0.839834
O O1 0.803254 0.455223 0.052119
O O2 0.623375 0.506011 0.131630
O O3 0.681073 0.349510 0.137886
O O4 0.604785 0.413603 0.003546
O O5 0.929377 0.566987 0.126247
O O6 0.990929 0.400768 0.117660
O O7 0.000000 0.500000 0.000000
O O8 0.473414 0.153637 0.109083
O O9 0.686424 0.183425 0.105697
O O10 0.547413 0.250000 0.000000
O O11 0.107511 0.352672 0.750000
O O12 0.263306 0.347269 0.858753
O O13 0.078784 0.258246 0.873623
O O14 0.410409 0.390761 0.750000
O O15 0.293686 0.737488 0.250000
O O16 0.132006 0.760275 0.352993
O O17 0.005857 0.170846 0.750000
#
# Coordination Sequence:
#
# PCOD8231826 Si02
#       7
#     8   8   8   8   8   8   8
#     4   9  19  34  51  75 104 135 169 213 261 304
#     4  10  20  32  51  81 107 138 170 212 259 316
#     4  10  20  33  51  77 107 132 163 216 269 303
#     4   9  19  35  54  76 102 139 179 214 253 309
#     4  10  19  35  56  74  98 138 183 213 247 311
#     4   9  17  31  54  78  98 130 174 212 252 306
#     4   9  18  34  55  76 104 139 172 213 260 306
#
# _framework density 17.693052000000002
#
# number of rings (size 3 to 8) (size 9 to 14) (size 15 to 20)
#    0.000    2.571    0.000    1.714    2.000    4.000 
#    5.143    0.000    0.000    0.000    0.000    0.000 
#    0.000    0.000    0.000    0.000    0.000    0.000 
#
# Total GULP energy -694329.453409 kJ/mol
# GULP energy per Si atom -12398.740239 kJ/mol
# Density = 1.765278 g / cm^3
# Si number density = 17.693052 Si / 1000 Ang^3
#
#
#
# Elastic Constant Matrix: (Units=GPa)
#
#
# Indices 1 2 3 4 5 6 
#
# 1 74.9405 49.2389 57.9648 0.0000 0.0000 0.0000
# 2 49.2389 93.2479 49.7639 0.0000 0.0000 0.0000
# 3 57.9648 49.7639 103.7782 0.0000 0.0000 0.0000
# 4 0.0000 0.0000 0.0000 26.9882 0.0000 0.0000
# 5 0.0000 0.0000 0.0000 0.0000 35.2383 0.0000
# 6 0.0000 0.0000 0.0000 0.0000 0.0000 24.7052
#
#
#
# Elastic Compliance Matrix: (Units=1/GPa)
#
#
# Indices 1 2 3 4 5 6 
#
# 1 0.027826 -0.008600 -0.011418 0.000000 0.000000 0.000000
# 2 -0.008600 0.017070 -0.003382 0.000000 0.000000 0.000000
# 3 -0.011418 -0.003382 0.017635 0.000000 0.000000 0.000000
# 4 0.000000 0.000000 0.000000 0.037053 0.000000 0.000000
# 5 0.000000 0.000000 0.000000 0.000000 0.028378 0.000000
# 6 0.000000 0.000000 0.000000 0.000000 0.000000 0.040477
#
#
# Mechanical properties :
#
#
# Convention : Reuss Voigt Hill
#
# Bulk Modulus (GPa) = 63.56818 65.10019 64.33419
# Shear Modulus (GPa) = 22.67731 25.05295 23.86513
#
# Velocity S-wave (km/s) = 3.58398 3.76703 3.67664
# Velocity P-wave (km/s) = 7.28923 7.46959 7.37996
#
# Compressibility (1/GPa) = 0.01573114
#
# Stress axis : x y z
#
# Youngs Moduli (GPa) = 35.93738 58.58204 56.70405
#
# Poissons Ratio (x) = 0.50379 0.64747
# Poissons Ratio (y) = 0.30905 0.19178
# Poissons Ratio (z) = 0.41035 0.19813
#
# Static dielectric constant tensor:
#      x y z
#    x 3.266150 0.000000 0.000000 
#    y 0.000000 3.393800 0.000000 
#    z 0.000000 0.000000 3.374400 
# 
# 
# High freq. dielectric constant tensor:
#      x y z
#    x 1.676240 0.000000 0.000000 
#    y 0.000000 1.682370 0.000000 
#    z 0.000000 0.000000 1.689620 
# 
# From -- ./inp_files/17694.got.cif
#   From: 2010.03.12/outbox.cif.g09.slc.cpg/sg57_9_cif.got.tgz:17694.got - 2010.04.16 15:48:40.
