data_PCOD8231156
_publ_section_title
;
Structure prediction by ZEFSAII (Michael W. Deem and Ramdas Pophale) SiO2 
 PCOD8231156
Probable space group: P B C M
;
_chemical_formula_sum "Si O2"
_cell_formula_units_Z 40
_cell_length_a 12.706105
_cell_length_b 19.972505
_cell_length_c 8.847453
_cell_angle_alpha 90.000000
_cell_angle_beta 90.000000
_cell_angle_gamma 90.000000
_cell_volume 2245.242440
_symmetry_space_group_name_H-M "P B C M"
_symmetry_group_IT_number 57
_symmetry_cell_setting 'orthorhombic'
loop_
_space_group_symop_operation_xyz
x,y,z
-x,-y,1/2+z
x,1/2-y,-z
-x,1/2+y,1/2-z
-x,-y,-z
x,y,1/2-z
-x,1/2+y,z
x,1/2-y,1/2+z
loop_
_atom_site_type_symbol
_atom_site_label
_atom_site_fract_x
_atom_site_fract_y
_atom_site_fract_z
Si Si1 0.782037 0.420700 0.070417
Si Si2 0.622391 0.180100 0.427904
Si Si3 0.619628 0.680838 0.072466
Si Si4 0.779474 0.927364 0.926150
Si Si5 0.010050 0.571831 0.426700
O O1 0.781420 0.415568 0.250000
O O2 0.770422 0.497053 0.009064
O O3 0.686370 0.379681 0.002170
O O4 0.893181 0.390127 0.008755
O O5 0.659299 0.250000 0.500000
O O6 0.642888 0.182985 0.250000
O O7 0.501105 0.165552 0.467970
O O8 0.636946 0.687309 0.250000
O O9 0.691184 0.621251 0.002258
O O10 0.657358 0.750000 0.000000
O O11 0.757328 0.933974 0.750000
O O12 0.895368 0.894404 0.954542
O O13 0.035059 0.565908 0.250000
O O14 0.000000 0.500000 0.500000
#
# Coordination Sequence:
#
# PCOD8231156 Si02
#       5
#     8   8   8   8   8
#     4  10  19  32  51  74 100 130 166 205 245 292
#     4  10  20  34  52  72  97 129 163 201 245 295
#     4   9  18  34  52  71  97 129 163 198 243 294
#     4   8  16  31  51  73  99 130 161 200 246 291
#     4   9  16  29  49  72 100 132 164 200 247 296
#
# _framework density 17.815446999999999
#
# number of rings (size 3 to 8) (size 9 to 14) (size 15 to 20)
#    0.000    2.800    0.000    3.000    0.000    1.600 
#    0.000    7.000    0.000    2.400    0.000    0.000 
#    0.000    0.000    0.000    0.000    0.000    0.000 
#
# Total GULP energy -495742.839175 kJ/mol
# GULP energy per Si atom -12393.570979 kJ/mol
# Density = 1.777490 g / cm^3
# Si number density = 17.815447 Si / 1000 Ang^3
#
#
#
# Elastic Constant Matrix: (Units=GPa)
#
#
# Indices 1 2 3 4 5 6 
#
# 1 124.4354 77.4665 45.2878 0.0000 0.0000 0.0000
# 2 77.4665 99.9910 35.3255 0.0000 0.0000 0.0000
# 3 45.2878 35.3255 68.5266 0.0000 0.0000 0.0000
# 4 0.0000 0.0000 0.0000 25.4744 0.0000 0.0000
# 5 0.0000 0.0000 0.0000 0.0000 26.0436 0.0000
# 6 0.0000 0.0000 0.0000 0.0000 0.0000 12.6910
#
#
#
# Elastic Compliance Matrix: (Units=1/GPa)
#
#
# Indices 1 2 3 4 5 6 
#
# 1 0.017039 -0.011276 -0.005448 0.000000 0.000000 0.000000
# 2 -0.011276 0.019690 -0.002698 0.000000 0.000000 0.000000
# 3 -0.005448 -0.002698 0.019584 0.000000 0.000000 0.000000
# 4 0.000000 0.000000 0.000000 0.039255 0.000000 0.000000
# 5 0.000000 0.000000 0.000000 0.000000 0.038397 0.000000
# 6 0.000000 0.000000 0.000000 0.000000 0.000000 0.078796
#
#
# Mechanical properties :
#
#
# Convention : Reuss Voigt Hill
#
# Bulk Modulus (GPa) = 57.24408 67.67918 62.46163
# Shear Modulus (GPa) = 19.42290 21.83334 20.62812
#
# Velocity S-wave (km/s) = 3.30544 3.50455 3.40645
# Velocity P-wave (km/s) = 6.83882 7.37885 7.11396
#
# Compressibility (1/GPa) = 0.01746905
#
# Stress axis : x y z
#
# Youngs Moduli (GPa) = 58.68977 50.78734 51.06173
#
# Poissons Ratio (x) = 0.57267 0.27818
# Poissons Ratio (y) = 0.66178 0.13777
# Poissons Ratio (z) = 0.31973 0.13703
#
# Static dielectric constant tensor:
#      x y z
#    x 3.807430 0.000000 0.000000 
#    y 0.000000 3.281860 0.000000 
#    z 0.000000 0.000000 3.326630 
# 
# 
# High freq. dielectric constant tensor:
#      x y z
#    x 1.703230 0.000000 0.000000 
#    y 0.000000 1.662420 0.000000 
#    z 0.000000 0.000000 1.683220 
# 
# From -- ./inp_files/2870.got.cif
#   From: 2010.03.12/outbox.cif.g09.slc.cpg/sg57_2_cif.got.tgz:2870.got - 2010.04.16 15:48:40.
