data_PCOD8231434
_publ_section_title
;
Structure prediction by ZEFSAII (Michael W. Deem and Ramdas Pophale) SiO2 
 PCOD8231434
Probable space group: P B C M
;
_chemical_formula_sum "Si O2"
_cell_formula_units_Z 56
_cell_length_a 15.503214
_cell_length_b 23.150687
_cell_length_c 8.704272
_cell_angle_alpha 90.000000
_cell_angle_beta 90.000000
_cell_angle_gamma 90.000000
_cell_volume 3124.050741
_symmetry_space_group_name_H-M "P B C M"
_symmetry_group_IT_number 57
_symmetry_cell_setting 'orthorhombic'
loop_
_space_group_symop_operation_xyz
x,y,z
-x,-y,1/2+z
x,1/2-y,-z
-x,1/2+y,1/2-z
-x,-y,-z
x,y,1/2-z
-x,1/2+y,z
x,1/2-y,1/2+z
loop_
_atom_site_type_symbol
_atom_site_label
_atom_site_fract_x
_atom_site_fract_y
_atom_site_fract_z
Si Si1 0.003727 0.190003 0.070435
Si Si2 0.841062 0.875701 0.431543
Si Si3 0.691550 0.313364 0.931521
Si Si4 0.905735 0.993518 0.569074
Si Si5 0.845111 0.392834 0.570398
Si Si6 0.318088 0.314108 0.931638
Si Si7 0.494675 0.688506 0.072260
O O1 0.021306 0.197512 0.250000
O O2 0.932423 0.141863 0.037231
O O3 0.970443 0.250000 0.000000
O O4 0.091829 0.172414 0.987720
O O5 0.846150 0.881544 0.250000
O O6 0.859923 0.936864 0.507010
O O7 0.746352 0.856813 0.483146
O O8 0.702760 0.307669 0.750000
O O9 0.764106 0.356692 0.994786
O O10 0.596835 0.340074 0.979800
O O11 0.705692 0.250000 0.000000
O O12 0.915012 0.988354 0.750000
O O13 0.847108 0.047895 0.523537
O O14 0.000000 0.000000 0.500000
O O15 0.835167 0.406851 0.750000
O O16 0.298655 0.311465 0.750000
O O17 0.413845 0.342421 0.964829
O O18 0.309369 0.250000 0.000000
O O19 0.487056 0.699765 0.250000
O O20 0.501589 0.750000 0.000000
#
# Coordination Sequence:
#
# PCOD8231434 Si02
#       7
#     8   8   8   8   8   8   8
#     4  11  22  35  52  76 109 143 176 214 262 317
#     4  12  24  38  56  77 104 139 179 224 269 317
#     4   9  17  31  52  81 113 145 179 216 262 315
#     4  12  24  40  60  79 102 136 181 225 267 316
#     4  10  21  36  55  78 108 143 179 220 263 312
#     4  10  19  33  53  80 112 144 179 220 267 320
#     4   8  15  28  49  76 108 143 177 215 260 312
#
# _framework density 17.925446999999998
#
# number of rings (size 3 to 8) (size 9 to 14) (size 15 to 20)
#    0.000    1.714    1.429    4.286    0.000    1.714 
#    0.000    0.000    0.000    0.857    0.000    0.000 
#    0.000    0.000    0.000    0.000    0.000    0.000 
#
# Total GULP energy -694124.265768 kJ/mol
# GULP energy per Si atom -12395.076174 kJ/mol
# Density = 1.788465 g / cm^3
# Si number density = 17.925447 Si / 1000 Ang^3
#
#
#
# Elastic Constant Matrix: (Units=GPa)
#
#
# Indices 1 2 3 4 5 6 
#
# 1 128.5704 43.4749 42.2572 0.0000 0.0000 0.0000
# 2 43.4749 94.4212 41.0291 0.0000 0.0000 0.0000
# 3 42.2572 41.0291 94.9205 0.0000 0.0000 0.0000
# 4 0.0000 0.0000 0.0000 30.0369 0.0000 0.0000
# 5 0.0000 0.0000 0.0000 0.0000 11.1748 0.0000
# 6 0.0000 0.0000 0.0000 0.0000 0.0000 14.2100
#
#
#
# Elastic Compliance Matrix: (Units=1/GPa)
#
#
# Indices 1 2 3 4 5 6 
#
# 1 0.009855 -0.003240 -0.002987 0.000000 0.000000 0.000000
# 2 -0.003240 0.014105 -0.004655 0.000000 0.000000 0.000000
# 3 -0.002987 -0.004655 0.013877 0.000000 0.000000 0.000000
# 4 0.000000 0.000000 0.000000 0.033292 0.000000 0.000000
# 5 0.000000 0.000000 0.000000 0.000000 0.089487 0.000000
# 6 0.000000 0.000000 0.000000 0.000000 0.000000 0.070373
#
#
# Mechanical properties :
#
#
# Convention : Reuss Voigt Hill
#
# Bulk Modulus (GPa) = 62.21068 63.49271 62.85169
# Shear Modulus (GPa) = 19.37161 23.82775 21.59968
#
# Velocity S-wave (km/s) = 3.29093 3.64987 3.47504
# Velocity P-wave (km/s) = 7.01576 7.29790 7.15822
#
# Compressibility (1/GPa) = 0.01607441
#
# Stress axis : x y z
#
# Youngs Moduli (GPa) = 101.47097 70.89643 72.06253
#
# Poissons Ratio (x) = 0.22968 0.21525
# Poissons Ratio (y) = 0.32873 0.33542
# Poissons Ratio (z) = 0.30309 0.33000
#
# Static dielectric constant tensor:
#      x y z
#    x 3.929270 0.000000 0.000000 
#    y 0.000000 3.873610 0.000000 
#    z 0.000000 0.000000 3.405600 
# 
# 
# High freq. dielectric constant tensor:
#      x y z
#    x 1.709590 0.000000 0.000000 
#    y 0.000000 1.667800 0.000000 
#    z 0.000000 0.000000 1.702850 
# 
# From -- ./inp_files/5107.got.cif
#   From: 2010.03.12/outbox.cif.g09.slc.cpg/sg57_3_cif.got.tgz:5107.got - 2010.04.16 15:48:40.
