data_PCOD8231900
_publ_section_title
;
Structure prediction by ZEFSAII (Michael W. Deem and Ramdas Pophale) SiO2 
 PCOD8231900
Probable space group: P B C M
;
_chemical_formula_sum "Si O2"
_cell_formula_units_Z 36
_cell_length_a 9.744433
_cell_length_b 13.536587
_cell_length_c 13.378452
_cell_angle_alpha 90.000000
_cell_angle_beta 90.000000
_cell_angle_gamma 90.000000
_cell_volume 1764.702974
_symmetry_space_group_name_H-M "P B C M"
_symmetry_group_IT_number 57
_symmetry_cell_setting 'orthorhombic'
loop_
_space_group_symop_operation_xyz
x,y,z
-x,-y,1/2+z
x,1/2-y,-z
-x,1/2+y,1/2-z
-x,-y,-z
x,y,1/2-z
-x,1/2+y,z
x,1/2-y,1/2+z
loop_
_atom_site_type_symbol
_atom_site_label
_atom_site_fract_x
_atom_site_fract_y
_atom_site_fract_z
Si Si1 0.475224 0.975947 0.361454
Si Si2 0.589690 0.351689 0.536193
Si Si3 0.920957 0.750000 0.500000
Si Si4 0.788499 0.589605 0.862598
Si Si5 0.871484 0.372081 0.867155
O O1 0.415470 0.965561 0.250000
O O2 0.376291 0.918972 0.438265
O O3 0.627562 0.932432 0.371952
O O4 0.482087 0.091713 0.391693
O O5 0.520570 0.250000 0.500000
O O6 0.727945 0.326485 0.595451
O O7 0.825750 0.677392 0.563435
O O8 0.008819 0.682459 0.425904
O O9 0.823815 0.622854 0.750000
O O10 0.873353 0.489785 0.888256
O O11 0.886854 0.349689 0.750000
#
# Coordination Sequence:
#
# PCOD8231900 Si02
#       5
#     8   8   4   8   8
#     4   9  20  37  56  82 116 146 179 227 279 329
#     4  10  19  35  59  82 108 148 185 220 279 333
#     4  12  20  34  60  84 106 146 196 226 264 334
#     4   9  20  37  56  78 111 148 178 225 282 325
#     4  10  21  38  56  81 115 146 182 231 280 321
#
# _framework density 20.400034000000002
#
# number of rings (size 3 to 8) (size 9 to 14) (size 15 to 20)
#    0.000    2.222    1.111    3.333    1.556    1.778 
#    0.000    0.000    0.000    5.333    0.000    0.000 
#    0.000    0.000    0.000    0.000    0.000    0.000 
#
# Total GULP energy -446303.312935 kJ/mol
# GULP energy per Si atom -12397.314248 kJ/mol
# Density = 2.035360 g / cm^3
# Si number density = 20.400034 Si / 1000 Ang^3
#
#
#
# Elastic Constant Matrix: (Units=GPa)
#
#
# Indices 1 2 3 4 5 6 
#
# 1 24.4441 20.7173 16.5351 0.0000 0.0000 0.0000
# 2 20.7173 112.4609 46.3260 0.0000 0.0000 0.0000
# 3 16.5351 46.3260 137.1500 0.0000 0.0000 0.0000
# 4 0.0000 0.0000 0.0000 33.3963 0.0000 0.0000
# 5 0.0000 0.0000 0.0000 0.0000 24.0960 0.0000
# 6 0.0000 0.0000 0.0000 0.0000 0.0000 1.4884
#
#
#
# Elastic Compliance Matrix: (Units=1/GPa)
#
#
# Indices 1 2 3 4 5 6 
#
# 1 0.049787 -0.007782 -0.003374 0.000000 0.000000 0.000000
# 2 -0.007782 0.011546 -0.002962 0.000000 0.000000 0.000000
# 3 -0.003374 -0.002962 0.008698 0.000000 0.000000 0.000000
# 4 0.000000 0.000000 0.000000 0.029943 0.000000 0.000000
# 5 0.000000 0.000000 0.000000 0.000000 0.041501 0.000000
# 6 0.000000 0.000000 0.000000 0.000000 0.000000 0.671883
#
#
# Mechanical properties :
#
#
# Convention : Reuss Voigt Hill
#
# Bulk Modulus (GPa) = 23.92548 49.02354 36.47451
# Shear Modulus (GPa) = 5.84436 24.49456 15.16946
#
# Velocity S-wave (km/s) = 1.69443 3.46889 2.72986
# Velocity P-wave (km/s) = 3.94737 6.33463 5.27775
#
# Compressibility (1/GPa) = 0.04179644
#
# Stress axis : x y z
#
# Youngs Moduli (GPa) = 20.08542 86.61376 114.96353
#
# Poissons Ratio (x) = 0.67402 0.38788
# Poissons Ratio (y) = 0.15630 0.34048
# Poissons Ratio (z) = 0.06777 0.25651
#
# Static dielectric constant tensor:
#      x y z
#    x 3.242160 0.000000 0.000000 
#    y 0.000000 3.819640 0.000000 
#    z 0.000000 0.000000 3.975140 
# 
# 
# High freq. dielectric constant tensor:
#      x y z
#    x 1.755630 0.000000 0.000000 
#    y 0.000000 1.803840 0.000000 
#    z 0.000000 0.000000 1.815970 
# 
# From -- ./inp_files/12532.got.cif
#   From: 2010.03.12/outbox.cif.g09.slc.cpg/sg57_7_cif.got.tgz:12532.got - 2010.04.16 15:48:40.
