data_PCOD8231004
_publ_section_title
;
Structure prediction by ZEFSAII (Michael W. Deem and Ramdas Pophale) SiO2 
 PCOD8231004
Probable space group: P B C M
;
_chemical_formula_sum "Si O2"
_cell_formula_units_Z 64
_cell_length_a 24.323862
_cell_length_b 14.364378
_cell_length_c 9.329909
_cell_angle_alpha 90.000000
_cell_angle_beta 90.000000
_cell_angle_gamma 90.000000
_cell_volume 3259.843597
_symmetry_space_group_name_H-M "P B C M"
_symmetry_group_IT_number 57
_symmetry_cell_setting 'orthorhombic'
loop_
_space_group_symop_operation_xyz
x,y,z
-x,-y,1/2+z
x,1/2-y,-z
-x,1/2+y,1/2-z
-x,-y,-z
x,y,1/2-z
-x,1/2+y,z
x,1/2-y,1/2+z
loop_
_atom_site_type_symbol
_atom_site_label
_atom_site_fract_x
_atom_site_fract_y
_atom_site_fract_z
Si Si1 0.593371 0.165319 0.590448
Si Si2 0.775495 0.346475 0.082764
Si Si3 0.032826 0.658609 0.418118
Si Si4 0.520727 0.586481 0.911649
Si Si5 0.884182 0.458065 0.082905
Si Si6 0.322604 0.984608 0.417414
Si Si7 0.639257 0.844471 0.421215
Si Si8 0.905181 0.662348 0.413109
O O1 0.617429 0.250000 0.500000
O O2 0.613841 0.186259 0.750000
O O3 0.527431 0.163113 0.579603
O O4 0.620218 0.067511 0.542981
O O5 0.774062 0.323235 0.250000
O O6 0.831584 0.397808 0.039015
O O7 0.726717 0.416182 0.040107
O O8 0.769492 0.250000 0.000000
O O9 0.054681 0.750000 0.500000
O O10 0.045714 0.668184 0.250000
O O11 0.064856 0.571307 0.484150
O O12 0.968803 0.643423 0.449772
O O13 0.529844 0.551420 0.750000
O O14 0.576764 0.631929 0.969230
O O15 0.500000 0.500000 0.000000
O O16 0.899938 0.445241 0.250000
O O17 0.872127 0.567449 0.051970
O O18 0.319910 0.013657 0.250000
O O19 0.320381 0.075813 0.517277
O O20 0.656677 0.750000 0.500000
O O21 0.645757 0.834850 0.250000
O O22 0.881121 0.750000 0.500000
O O23 0.897939 0.691783 0.250000
#
# Coordination Sequence:
#
# PCOD8231004 Si02
#       8
#     8   8   8   8   8   8   8   8
#     4  10  20  33  52  78 107 139 174 214 263 316
#     4  10  22  39  60  84 111 143 179 224 276 327
#     4  10  19  31  50  78 110 146 185 225 273 329
#     4  10  20  34  53  80 111 145 180 218 266 320
#     4  10  20  35  54  79 111 146 184 228 277 326
#     4  10  21  39  59  79 108 143 181 227 275 321
#     4  11  23  38  59  85 112 146 185 226 273 326
#     4   9  19  34  52  76 109 146 184 227 273 324
#
# _framework density 19.632843999999999
#
# number of rings (size 3 to 8) (size 9 to 14) (size 15 to 20)
#    0.000    2.000    1.250    2.250    0.000    4.500 
#    0.000    0.625    0.000    1.500    0.000    0.000 
#    0.000    0.000    0.000    0.000    0.000    0.000 
#
# Total GULP energy -793628.666355 kJ/mol
# GULP energy per Si atom -12400.447912 kJ/mol
# Density = 1.958816 g / cm^3
# Si number density = 19.632844 Si / 1000 Ang^3
#
#
#
# Elastic Constant Matrix: (Units=GPa)
#
#
# Indices 1 2 3 4 5 6 
#
# 1 56.4293 39.4674 28.1758 0.0000 0.0000 0.0000
# 2 39.4674 151.6690 71.1815 0.0000 0.0000 0.0000
# 3 28.1758 71.1815 83.5047 0.0000 0.0000 0.0000
# 4 0.0000 0.0000 0.0000 42.6255 0.0000 0.0000
# 5 0.0000 0.0000 0.0000 0.0000 19.1692 0.0000
# 6 0.0000 0.0000 0.0000 0.0000 0.0000 28.4600
#
#
#
# Elastic Compliance Matrix: (Units=1/GPa)
#
#
# Indices 1 2 3 4 5 6 
#
# 1 0.022574 -0.003833 -0.004350 0.000000 0.000000 0.000000
# 2 -0.003833 0.011641 -0.008630 0.000000 0.000000 0.000000
# 3 -0.004350 -0.008630 0.020799 0.000000 0.000000 0.000000
# 4 0.000000 0.000000 0.000000 0.023460 0.000000 0.000000
# 5 0.000000 0.000000 0.000000 0.000000 0.052167 0.000000
# 6 0.000000 0.000000 0.000000 0.000000 0.000000 0.035137
#
#
# Mechanical properties :
#
#
# Convention : Reuss Voigt Hill
#
# Bulk Modulus (GPa) = 46.75162 63.25026 55.00094
# Shear Modulus (GPa) = 24.20936 28.23615 26.22276
#
# Velocity S-wave (km/s) = 3.51537 3.79649 3.65863
# Velocity P-wave (km/s) = 6.35152 7.17665 6.77665
#
# Compressibility (1/GPa) = 0.02138963
#
# Stress axis : x y z
#
# Youngs Moduli (GPa) = 44.29918 85.90511 48.07902
#
# Poissons Ratio (x) = 0.32926 0.20912
# Poissons Ratio (y) = 0.16979 0.41490
# Poissons Ratio (z) = 0.19268 0.74133
#
# Static dielectric constant tensor:
#      x y z
#    x 3.517520 0.000000 0.000000 
#    y 0.000000 3.555560 0.000000 
#    z 0.000000 0.000000 3.517550 
# 
# 
# High freq. dielectric constant tensor:
#      x y z
#    x 1.747380 0.000000 0.000000 
#    y 0.000000 1.770290 0.000000 
#    z 0.000000 0.000000 1.761350 
# 
# From -- ./inp_files/9414.got.cif
#   From: 2010.03.12/outbox.cif.g09.slc.cpg/sg57_5_cif.got.tgz:9414.got - 2010.04.16 15:48:40.
