data_PCOD8231007
_publ_section_title
;
Structure prediction by ZEFSAII (Michael W. Deem and Ramdas Pophale) SiO2 
 PCOD8231007
Probable space group: P B C M
;
_chemical_formula_sum "Si O2"
_cell_formula_units_Z 64
_cell_length_a 24.607091
_cell_length_b 14.547897
_cell_length_c 8.819382
_cell_angle_alpha 90.000000
_cell_angle_beta 90.000000
_cell_angle_gamma 90.000000
_cell_volume 3157.174939
_symmetry_space_group_name_H-M "P B C M"
_symmetry_group_IT_number 57
_symmetry_cell_setting 'orthorhombic'
loop_
_space_group_symop_operation_xyz
x,y,z
-x,-y,1/2+z
x,1/2-y,-z
-x,1/2+y,1/2-z
-x,-y,-z
x,y,1/2-z
-x,1/2+y,z
x,1/2-y,1/2+z
loop_
_atom_site_type_symbol
_atom_site_label
_atom_site_fract_x
_atom_site_fract_y
_atom_site_fract_z
Si Si1 0.371496 0.657634 0.074170
Si Si2 0.515965 0.403118 0.069579
Si Si3 0.119661 0.459148 0.071318
Si Si4 0.224908 0.350211 0.070989
Si Si5 0.670679 0.535275 0.575293
Si Si6 0.970208 0.656546 0.428819
Si Si7 0.906025 0.341735 0.573524
Si Si8 0.588466 0.661841 0.428926
O O1 0.384252 0.675101 0.250000
O O2 0.327588 0.575218 0.054159
O O3 0.346585 0.750000 0.000000
O O4 0.427010 0.632780 0.990624
O O5 0.517623 0.410019 0.250000
O O6 0.500000 0.500000 0.000000
O O7 0.469444 0.334436 0.013089
O O8 0.111719 0.447142 0.250000
O O9 0.170281 0.399348 0.011164
O O10 0.128590 0.567179 0.031345
O O11 0.064770 0.427995 0.989925
O O12 0.223277 0.338367 0.250000
O O13 0.273563 0.417842 0.021009
O O14 0.232004 0.250000 0.000000
O O15 0.658074 0.560350 0.750000
O O16 0.621763 0.570710 0.470374
O O17 0.946147 0.750000 0.500000
O O18 0.964673 0.661791 0.250000
O O19 0.032169 0.642870 0.483214
O O20 0.880187 0.250000 0.500000
O O21 0.905678 0.323374 0.750000
O O22 0.620427 0.750000 0.500000
O O23 0.581441 0.668595 0.250000
#
# Coordination Sequence:
#
# PCOD8231007 Si02
#       8
#     8   8   8   8   8   8   8   8
#     4  11  23  40  62  86 117 153 192 236 285 338
#     4  12  23  38  59  87 121 155 192 231 280 337
#     4  10  20  35  55  80 112 148 189 235 288 342
#     4  10  22  40  61  85 112 145 183 231 288 344
#     4  10  22  41  62  83 111 147 189 235 284 337
#     4  10  19  31  50  78 112 149 190 232 283 340
#     4   9  19  34  52  77 111 151 190 234 281 335
#     4  12  24  38  59  86 117 152 189 231 281 337
#
# _framework density 20.271287000000001
#
# number of rings (size 3 to 8) (size 9 to 14) (size 15 to 20)
#    0.000    1.500    1.250    4.500    0.000    4.500 
#    0.000    0.625    0.000    0.000    0.000    0.000 
#    0.000    0.000    0.000    0.000    0.000    0.000 
#
# Total GULP energy -793634.946425 kJ/mol
# GULP energy per Si atom -12400.546038 kJ/mol
# Density = 2.022515 g / cm^3
# Si number density = 20.271287 Si / 1000 Ang^3
#
#
#
# Elastic Constant Matrix: (Units=GPa)
#
#
# Indices 1 2 3 4 5 6 
#
# 1 73.4717 47.5501 28.9971 0.0000 0.0000 0.0000
# 2 47.5501 158.4941 52.3086 0.0000 0.0000 0.0000
# 3 28.9971 52.3086 100.0872 0.0000 0.0000 0.0000
# 4 0.0000 0.0000 0.0000 38.1439 0.0000 0.0000
# 5 0.0000 0.0000 0.0000 0.0000 17.9149 0.0000
# 6 0.0000 0.0000 0.0000 0.0000 0.0000 30.7943
#
#
#
# Elastic Compliance Matrix: (Units=1/GPa)
#
#
# Indices 1 2 3 4 5 6 
#
# 1 0.017523 -0.004328 -0.002815 0.000000 0.000000 0.000000
# 2 -0.004328 0.008694 -0.003290 0.000000 0.000000 0.000000
# 3 -0.002815 -0.003290 0.012526 0.000000 0.000000 0.000000
# 4 0.000000 0.000000 0.000000 0.026217 0.000000 0.000000
# 5 0.000000 0.000000 0.000000 0.000000 0.055820 0.000000
# 6 0.000000 0.000000 0.000000 0.000000 0.000000 0.032474
#
#
# Mechanical properties :
#
#
# Convention : Reuss Voigt Hill
#
# Bulk Modulus (GPa) = 55.93611 65.52940 60.73276
# Shear Modulus (GPa) = 27.76614 30.91709 29.34162
#
# Velocity S-wave (km/s) = 3.70500 3.90958 3.80866
# Velocity P-wave (km/s) = 6.77911 7.26472 7.02611
#
# Compressibility (1/GPa) = 0.01787754
#
# Stress axis : x y z
#
# Youngs Moduli (GPa) = 57.06913 115.02811 79.83416
#
# Poissons Ratio (x) = 0.49785 0.22470
# Poissons Ratio (y) = 0.24700 0.26262
# Poissons Ratio (z) = 0.16063 0.37839
#
# Static dielectric constant tensor:
#      x y z
#    x 3.149330 0.000000 0.000000 
#    y 0.000000 4.032550 0.000000 
#    z 0.000000 0.000000 3.645330 
# 
# 
# High freq. dielectric constant tensor:
#      x y z
#    x 1.764330 0.000000 0.000000 
#    y 0.000000 1.813030 0.000000 
#    z 0.000000 0.000000 1.789830 
# 
# From -- ./inp_files/9427.got.cif
#   From: 2010.03.12/outbox.cif.g09.slc.cpg/sg57_5_cif.got.tgz:9427.got - 2010.04.16 15:48:40.
