data_PCOD8231191
_publ_section_title
;
Structure prediction by ZEFSAII (Michael W. Deem and Ramdas Pophale) SiO2 
 PCOD8231191
Probable space group: P B C M
;
_chemical_formula_sum "Si O2"
_cell_formula_units_Z 48
_cell_length_a 16.298255
_cell_length_b 18.388490
_cell_length_c 8.698395
_cell_angle_alpha 90.000000
_cell_angle_beta 90.000000
_cell_angle_gamma 90.000000
_cell_volume 2606.911583
_symmetry_space_group_name_H-M "P B C M"
_symmetry_group_IT_number 57
_symmetry_cell_setting 'orthorhombic'
loop_
_space_group_symop_operation_xyz
x,y,z
-x,-y,1/2+z
x,1/2-y,-z
-x,1/2+y,1/2-z
-x,-y,-z
x,y,1/2-z
-x,1/2+y,z
x,1/2-y,1/2+z
loop_
_atom_site_type_symbol
_atom_site_label
_atom_site_fract_x
_atom_site_fract_y
_atom_site_fract_z
Si Si1 0.176196 0.090393 0.070430
Si Si2 0.664903 0.826331 0.571106
Si Si3 0.987833 0.672570 0.430614
Si Si4 0.841969 0.170834 0.567650
Si Si5 0.743667 0.455964 0.931177
Si Si6 0.585256 0.974575 0.567902
O O1 0.188307 0.071851 0.250000
O O2 0.242860 0.151209 0.020303
O O3 0.085432 0.117433 0.032470
O O4 0.190143 0.017590 0.973772
O O5 0.637751 0.750000 0.500000
O O6 0.661104 0.814121 0.750000
O O7 0.602420 0.890550 0.520994
O O8 0.963358 0.750000 0.500000
O O9 0.002859 0.681590 0.250000
O O10 0.069897 0.641416 0.508925
O O11 0.825161 0.250000 0.500000
O O12 0.841931 0.173820 0.750000
O O13 0.770311 0.119331 0.507613
O O14 0.738941 0.446410 0.750000
O O15 0.654704 0.474486 0.996716
O O16 0.586271 0.983967 0.750000
O O17 0.500000 0.000000 0.500000
#
# Coordination Sequence:
#
# PCOD8231191 Si02
#       6
#     8   8   8   8   8   8
#     4   9  19  34  51  76 110 145 180 222 267 315
#     4   9  18  32  52  79 111 142 175 215 261 314
#     4  10  19  32  51  76 108 145 186 228 271 318
#     4  11  22  38  57  77 106 142 182 228 273 319
#     4  11  22  37  58  82 106 138 179 220 270 327
#     4  10  21  39  60  84 112 142 177 220 269 323
#
# _framework density 18.412590999999999
#
# number of rings (size 3 to 8) (size 9 to 14) (size 15 to 20)
#    0.000    2.000    0.000    6.500    0.000    5.333 
#    0.000    0.833    0.000    2.000    0.000    0.000 
#    0.000    0.000    0.000    0.000    0.000    0.000 
#
# Total GULP energy -595276.108664 kJ/mol
# GULP energy per Si atom -12401.585597 kJ/mol
# Density = 1.837068 g / cm^3
# Si number density = 18.412591 Si / 1000 Ang^3
#
#
#
# Elastic Constant Matrix: (Units=GPa)
#
#
# Indices 1 2 3 4 5 6 
#
# 1 118.0390 87.2574 67.3170 0.0000 0.0000 0.0000
# 2 87.2574 123.2812 61.4831 0.0000 0.0000 0.0000
# 3 67.3170 61.4831 125.5523 0.0000 0.0000 0.0000
# 4 0.0000 0.0000 0.0000 35.4565 0.0000 0.0000
# 5 0.0000 0.0000 0.0000 0.0000 33.0787 0.0000
# 6 0.0000 0.0000 0.0000 0.0000 0.0000 207.6782
#
#
#
# Elastic Compliance Matrix: (Units=1/GPa)
#
#
# Indices 1 2 3 4 5 6 
#
# 1 0.019877 -0.011582 -0.004985 0.000000 0.000000 0.000000
# 2 -0.011582 0.017482 -0.002351 0.000000 0.000000 0.000000
# 3 -0.004985 -0.002351 0.011789 0.000000 0.000000 0.000000
# 4 0.000000 0.000000 0.000000 0.028204 0.000000 0.000000
# 5 0.000000 0.000000 0.000000 0.000000 0.030231 0.000000
# 6 0.000000 0.000000 0.000000 0.000000 0.000000 0.004815
#
#
# Mechanical properties :
#
#
# Convention : Reuss Voigt Hill
#
# Bulk Modulus (GPa) = 88.41292 88.77641 88.59467
# Shear Modulus (GPa) = 32.46652 65.29703 48.88178
#
# Velocity S-wave (km/s) = 4.20370 5.96156 5.15807
# Velocity P-wave (km/s) = 8.46660 9.78298 9.14850
#
# Compressibility (1/GPa) = 0.01131056
#
# Stress axis : x y z
#
# Youngs Moduli (GPa) = 50.30960 57.20225 84.82464
#
# Poissons Ratio (x) = 0.66254 0.42289
# Poissons Ratio (y) = 0.58270 0.19941
# Poissons Ratio (z) = 0.25082 0.13447
#
# Static dielectric constant tensor:
#      x y z
#    x 3.373460 0.000000 0.000000 
#    y 0.000000 3.433860 0.000000 
#    z 0.000000 0.000000 3.448470 
# 
# 
# High freq. dielectric constant tensor:
#      x y z
#    x 1.707150 0.000000 0.000000 
#    y 0.000000 1.712860 0.000000 
#    z 0.000000 0.000000 1.725550 
# 
# From -- ./inp_files/6696.got.cif
#   From: 2010.03.12/outbox.cif.g09.slc.cpg/sg57_4_cif.got.tgz:6696.got - 2010.04.16 15:48:40.
