data_PCOD8231374
_publ_section_title
;
Structure prediction by ZEFSAII (Michael W. Deem and Ramdas Pophale) SiO2 
 PCOD8231374
Probable space group: P B C M
;
_chemical_formula_sum "Si O2"
_cell_formula_units_Z 48
_cell_length_a 15.595049
_cell_length_b 18.114585
_cell_length_c 8.744624
_cell_angle_alpha 90.000000
_cell_angle_beta 90.000000
_cell_angle_gamma 90.000000
_cell_volume 2470.337398
_symmetry_space_group_name_H-M "P B C M"
_symmetry_group_IT_number 57
_symmetry_cell_setting 'orthorhombic'
loop_
_space_group_symop_operation_xyz
x,y,z
-x,-y,1/2+z
x,1/2-y,-z
-x,1/2+y,1/2-z
-x,-y,-z
x,y,1/2-z
-x,1/2+y,z
x,1/2-y,1/2+z
loop_
_atom_site_type_symbol
_atom_site_label
_atom_site_fract_x
_atom_site_fract_y
_atom_site_fract_z
Si Si1 0.853423 0.071732 0.068727
Si Si2 0.327562 0.168358 0.069077
Si Si3 0.486489 0.828563 0.927193
Si Si4 0.990985 0.827851 0.931315
Si Si5 0.698513 0.169061 0.431099
Si Si6 0.832396 0.593833 0.568486
O O1 0.847876 0.071366 0.250000
O O2 0.770818 0.114713 0.001176
O O3 0.940021 0.111601 0.012989
O O4 0.854059 0.988146 0.007350
O O5 0.309570 0.172379 0.250000
O O6 0.422477 0.132479 0.032921
O O7 0.318014 0.250000 0.000000
O O8 0.262332 0.113559 0.987239
O O9 0.482510 0.813847 0.750000
O O10 0.395662 0.866042 0.976592
O O11 0.490383 0.750000 0.000000
O O12 0.986940 0.821777 0.750000
O O13 0.020109 0.750000 0.000000
O O14 0.898284 0.848793 0.995301
O O15 0.711159 0.250000 0.500000
O O16 0.708863 0.176235 0.250000
O O17 0.837785 0.599435 0.750000
#
# Coordination Sequence:
#
# PCOD8231374 Si02
#       6
#     8   8   8   8   8   8
#     4   9  20  36  55  77 105 137 170 205 252 306
#     4  10  19  33  52  77 104 135 173 215 256 300
#     4   8  15  27  48  74 102 132 167 209 254 296
#     4  11  22  38  58  81 104 131 167 211 255 303
#     4   9  16  31  53  78 104 134 170 211 253 301
#     4  11  22  37  54  75 103 139 174 209 252 302
#
# _framework density 19.430544000000001
#
# number of rings (size 3 to 8) (size 9 to 14) (size 15 to 20)
#    0.000    2.333    0.000    3.000    0.000    0.667 
#    0.000    5.833    0.000    0.000    0.000    0.000 
#    0.000    0.000    0.000    0.000    0.000    0.000 
#
# Total GULP energy -594810.748071 kJ/mol
# GULP energy per Si atom -12391.890585 kJ/mol
# Density = 1.938632 g / cm^3
# Si number density = 19.430544 Si / 1000 Ang^3
#
#
#
# Elastic Constant Matrix: (Units=GPa)
#
#
# Indices 1 2 3 4 5 6 
#
# 1 123.5258 26.5860 28.8104 0.0000 0.0000 0.0000
# 2 26.5860 76.4219 21.7249 0.0000 0.0000 0.0000
# 3 28.8104 21.7249 50.8257 0.0000 0.0000 0.0000
# 4 0.0000 0.0000 0.0000 21.2767 0.0000 0.0000
# 5 0.0000 0.0000 0.0000 0.0000 23.8742 0.0000
# 6 0.0000 0.0000 0.0000 0.0000 0.0000 27.6110
#
#
#
# Elastic Compliance Matrix: (Units=1/GPa)
#
#
# Indices 1 2 3 4 5 6 
#
# 1 0.009601 -0.002041 -0.004570 0.000000 0.000000 0.000000
# 2 -0.002041 0.015329 -0.005395 0.000000 0.000000 0.000000
# 3 -0.004570 -0.005395 0.024572 0.000000 0.000000 0.000000
# 4 0.000000 0.000000 0.000000 0.047000 0.000000 0.000000
# 5 0.000000 0.000000 0.000000 0.000000 0.041886 0.000000
# 6 0.000000 0.000000 0.000000 0.000000 0.000000 0.036217
#
#
# Mechanical properties :
#
#
# Convention : Reuss Voigt Hill
#
# Bulk Modulus (GPa) = 39.23212 45.00178 42.11695
# Shear Modulus (GPa) = 24.14145 26.12921 25.13533
#
# Velocity S-wave (km/s) = 3.52866 3.67106 3.60057
# Velocity P-wave (km/s) = 6.06933 6.41713 6.24565
#
# Compressibility (1/GPa) = 0.02548932
#
# Stress axis : x y z
#
# Youngs Moduli (GPa) = 104.16103 65.23585 40.69737
#
# Poissons Ratio (x) = 0.13313 0.18597
# Poissons Ratio (y) = 0.21257 0.21958
# Poissons Ratio (z) = 0.47598 0.35197
#
# Static dielectric constant tensor:
#      x y z
#    x 4.277480 0.000000 0.000000 
#    y 0.000000 3.405980 0.000000 
#    z 0.000000 0.000000 3.287360 
# 
# 
# High freq. dielectric constant tensor:
#      x y z
#    x 1.785880 0.000000 0.000000 
#    y 0.000000 1.728950 0.000000 
#    z 0.000000 0.000000 1.745110 
# 
# From -- ./inp_files/4618.got.cif
#   From: 2010.03.12/outbox.cif.g09.slc.cpg/sg57_3_cif.got.tgz:4618.got - 2010.04.16 15:48:40.
