data_PCOD8231373
_publ_section_title
;
Structure prediction by ZEFSAII (Michael W. Deem and Ramdas Pophale) SiO2 
 PCOD8231373
Probable space group: P B C M
;
_chemical_formula_sum "Si O2"
_cell_formula_units_Z 40
_cell_length_a 10.231708
_cell_length_b 27.666168
_cell_length_c 8.625321
_cell_angle_alpha 90.000000
_cell_angle_beta 90.000000
_cell_angle_gamma 90.000000
_cell_volume 2441.588181
_symmetry_space_group_name_H-M "P B C M"
_symmetry_group_IT_number 57
_symmetry_cell_setting 'orthorhombic'
loop_
_space_group_symop_operation_xyz
x,y,z
-x,-y,1/2+z
x,1/2-y,-z
-x,1/2+y,1/2-z
-x,-y,-z
x,y,1/2-z
-x,1/2+y,z
x,1/2-y,1/2+z
loop_
_atom_site_type_symbol
_atom_site_label
_atom_site_fract_x
_atom_site_fract_y
_atom_site_fract_z
Si Si1 0.468693 0.050729 0.425078
Si Si2 0.839740 0.301127 0.432457
Si Si3 0.390314 0.643399 0.425401
Si Si4 0.346133 0.136426 0.932449
Si Si5 0.119170 0.301703 0.566781
O O1 0.418901 0.042736 0.250000
O O2 0.599087 0.084650 0.426307
O O3 0.356166 0.079343 0.521699
O O4 0.500000 0.000000 0.500000
O O5 0.791555 0.250000 0.500000
O O6 0.857865 0.296699 0.250000
O O7 0.733199 0.341506 0.472862
O O8 0.976574 0.316769 0.506853
O O9 0.376883 0.663270 0.250000
O O10 0.524695 0.664178 0.501742
O O11 0.336556 0.143241 0.750000
O O12 0.218523 0.157478 0.012741
O O13 0.162634 0.250000 0.500000
O O14 0.116673 0.298264 0.750000
#
# Coordination Sequence:
#
# PCOD8231373 Si02
#       5
#     8   8   8   8   8
#     4   9  18  32  53  77 103 131 166 207 256 304
#     4  11  21  34  52  74 102 138 173 207 250 300
#     4   9  19  34  51  76 103 132 169 210 252 296
#     4  10  19  33  52  77 103 132 170 211 253 298
#     4  11  21  35  52  73 103 138 173 208 250 301
#
# _framework density 16.38278
#
# number of rings (size 3 to 8) (size 9 to 14) (size 15 to 20)
#    1.200    0.800    0.000    7.200    0.000    0.800 
#    0.000    4.000    0.000    1.200    0.000    0.000 
#    0.000    0.000    0.000    0.000    0.000    0.000 
#
# Total GULP energy -495757.622127 kJ/mol
# GULP energy per Si atom -12393.940553 kJ/mol
# Density = 1.634549 g / cm^3
# Si number density = 16.382780 Si / 1000 Ang^3
#
#
#
# Elastic Constant Matrix: (Units=GPa)
#
#
# Indices 1 2 3 4 5 6 
#
# 1 86.2811 47.6581 42.6338 0.0000 0.0000 0.0000
# 2 47.6581 74.7115 36.0657 0.0000 0.0000 0.0000
# 3 42.6338 36.0657 158.0712 0.0000 0.0000 0.0000
# 4 0.0000 0.0000 0.0000 29.4072 0.0000 0.0000
# 5 0.0000 0.0000 0.0000 0.0000 30.9801 0.0000
# 6 0.0000 0.0000 0.0000 0.0000 0.0000 6.2243
#
#
#
# Elastic Compliance Matrix: (Units=1/GPa)
#
#
# Indices 1 2 3 4 5 6 
#
# 1 0.018818 -0.010736 -0.002626 0.000000 0.000000 0.000000
# 2 -0.010736 0.021167 -0.001934 0.000000 0.000000 0.000000
# 3 -0.002626 -0.001934 0.007476 0.000000 0.000000 0.000000
# 4 0.000000 0.000000 0.000000 0.034005 0.000000 0.000000
# 5 0.000000 0.000000 0.000000 0.000000 0.032279 0.000000
# 6 0.000000 0.000000 0.000000 0.000000 0.000000 0.160660
#
#
# Mechanical properties :
#
#
# Convention : Reuss Voigt Hill
#
# Bulk Modulus (GPa) = 59.28108 63.53099 61.40604
# Shear Modulus (GPa) = 16.09690 26.16940 21.13315
#
# Velocity S-wave (km/s) = 3.13797 4.00105 3.59550
# Velocity P-wave (km/s) = 7.02799 7.75937 7.40272
#
# Compressibility (1/GPa) = 0.01686879
#
# Stress axis : x y z
#
# Youngs Moduli (GPa) = 53.14145 47.24366 133.76695
#
# Poissons Ratio (x) = 0.50722 0.35125
# Poissons Ratio (y) = 0.57053 0.25868
# Poissons Ratio (z) = 0.13954 0.09136
#
# Static dielectric constant tensor:
#      x y z
#    x 2.982700 0.000000 0.000000 
#    y 0.000000 2.942210 0.000000 
#    z 0.000000 0.000000 3.291860 
# 
# 
# High freq. dielectric constant tensor:
#      x y z
#    x 1.615170 0.000000 0.000000 
#    y 0.000000 1.607720 0.000000 
#    z 0.000000 0.000000 1.657870 
# 
# From -- ./inp_files/1727.got.cif
#   From: 2010.03.12/outbox.cif.g09.slc.cpg/sg57_1_cif.got.tgz:1727.got - 2010.04.16 15:48:40.
