data_PCOD8231174
_publ_section_title
;
Structure prediction by ZEFSAII (Michael W. Deem and Ramdas Pophale) SiO2 
 PCOD8231174
Probable space group: P B C M
;
_chemical_formula_sum "Si O2"
_cell_formula_units_Z 64
_cell_length_a 28.616665
_cell_length_b 14.005467
_cell_length_c 8.951537
_cell_angle_alpha 90.000000
_cell_angle_beta 90.000000
_cell_angle_gamma 90.000000
_cell_volume 3587.684342
_symmetry_space_group_name_H-M "P B C M"
_symmetry_group_IT_number 57
_symmetry_cell_setting 'orthorhombic'
loop_
_space_group_symop_operation_xyz
x,y,z
-x,-y,1/2+z
x,1/2-y,-z
-x,1/2+y,1/2-z
-x,-y,-z
x,y,1/2-z
-x,1/2+y,z
x,1/2-y,1/2+z
loop_
_atom_site_type_symbol
_atom_site_label
_atom_site_fract_x
_atom_site_fract_y
_atom_site_fract_z
Si Si1 0.420378 0.647406 0.574235
Si Si2 0.145498 0.849864 0.426397
Si Si3 0.070231 0.975467 0.575062
Si Si4 0.377831 0.147857 0.574509
Si Si5 0.520833 0.850396 0.423243
Si Si6 0.020976 0.146567 0.074742
Si Si7 0.664937 0.020739 0.573696
Si Si8 0.252327 0.653128 0.923723
O O1 0.416249 0.750000 0.500000
O O2 0.414578 0.661864 0.750000
O O3 0.471401 0.597098 0.536180
O O4 0.378453 0.582987 0.512690
O O5 0.129977 0.750000 0.500000
O O6 0.136231 0.843451 0.250000
O O7 0.116665 0.936116 0.497455
O O8 0.199239 0.872822 0.465852
O O9 0.078672 0.991326 0.750000
O O10 0.029718 0.898461 0.544797
O O11 0.059086 0.077443 0.500700
O O12 0.372248 0.250000 0.500000
O O13 0.370283 0.158314 0.750000
O O14 0.429330 0.101457 0.533635
O O15 0.337704 0.080931 0.507127
O O16 0.518453 0.750000 0.500000
O O17 0.521790 0.828191 0.250000
O O18 0.031715 0.155581 0.250000
O O19 0.023407 0.250000 0.000000
O O20 0.662174 0.005373 0.750000
O O21 0.713775 0.068137 0.523973
O O22 0.257830 0.671630 0.750000
O O23 0.269081 0.750000 0.000000
#
# Coordination Sequence:
#
# PCOD8231174 Si02
#       8
#     8   8   8   8   8   8   8   8
#     4   9  17  29  46  68  96 127 155 187 228 278
#     4  10  19  32  51  75 103 135 170 208 251 295
#     4  10  20  33  51  76 105 139 179 218 255 298
#     4  10  20  34  51  69  90 119 156 197 239 284
#     4   8  15  28  44  64  90 119 152 188 228 275
#     4  10  20  33  50  74 107 144 179 216 257 300
#     4  10  20  33  49  71  98 126 156 193 240 289
#     4   9  19  34  52  75 103 132 161 199 245 294
#
# _framework density 17.838804
#
# number of rings (size 3 to 8) (size 9 to 14) (size 15 to 20)
#    0.000    2.500    0.000    2.250    0.000    5.000 
#    0.000    0.000    0.000    0.750    0.000    3.500 
#    0.000    0.000    0.000    0.000    0.000    0.000 
#
# Total GULP energy -793214.524804 kJ/mol
# GULP energy per Si atom -12393.976950 kJ/mol
# Density = 1.779820 g / cm^3
# Si number density = 17.838804 Si / 1000 Ang^3
#
#
#
# Elastic Constant Matrix: (Units=GPa)
#
#
# Indices 1 2 3 4 5 6 
#
# 1 96.7879 62.3830 45.8929 0.0000 0.0000 0.0000
# 2 62.3830 112.3109 52.2428 0.0000 0.0000 0.0000
# 3 45.8929 52.2428 69.6822 0.0000 0.0000 0.0000
# 4 0.0000 0.0000 0.0000 32.3509 0.0000 0.0000
# 5 0.0000 0.0000 0.0000 0.0000 21.3797 0.0000
# 6 0.0000 0.0000 0.0000 0.0000 0.0000 28.3352
#
#
#
# Elastic Compliance Matrix: (Units=1/GPa)
#
#
# Indices 1 2 3 4 5 6 
#
# 1 0.017901 -0.006847 -0.006656 0.000000 0.000000 0.000000
# 2 -0.006847 0.016291 -0.007704 0.000000 0.000000 0.000000
# 3 -0.006656 -0.007704 0.024511 0.000000 0.000000 0.000000
# 4 0.000000 0.000000 0.000000 0.030911 0.000000 0.000000
# 5 0.000000 0.000000 0.000000 0.000000 0.046773 0.000000
# 6 0.000000 0.000000 0.000000 0.000000 0.000000 0.035292
#
#
# Mechanical properties :
#
#
# Convention : Reuss Voigt Hill
#
# Bulk Modulus (GPa) = 61.39623 66.64648 64.02136
# Shear Modulus (GPa) = 22.77666 24.29732 23.53699
#
# Velocity S-wave (km/s) = 3.57712 3.69460 3.63633
# Velocity P-wave (km/s) = 7.18004 7.45933 7.32102
#
# Compressibility (1/GPa) = 0.01628764
#
# Stress axis : x y z
#
# Youngs Moduli (GPa) = 55.86257 61.38492 40.79813
#
# Poissons Ratio (x) = 0.42029 0.27157
# Poissons Ratio (y) = 0.38248 0.31432
# Poissons Ratio (z) = 0.37185 0.47292
#
# Static dielectric constant tensor:
#      x y z
#    x 3.511830 0.000000 0.000000 
#    y 0.000000 3.106680 0.000000 
#    z 0.000000 0.000000 3.295850 
# 
# 
# High freq. dielectric constant tensor:
#      x y z
#    x 1.683460 0.000000 0.000000 
#    y 0.000000 1.674240 0.000000 
#    z 0.000000 0.000000 1.697590 
# 
# From -- ./inp_files/9356.got.cif
#   From: 2010.03.12/outbox.cif.g09.slc.cpg/sg57_5_cif.got.tgz:9356.got - 2010.04.16 15:48:40.
