data_PCOD8231283
_publ_section_title
;
Structure prediction by ZEFSAII (Michael W. Deem and Ramdas Pophale) SiO2 
 PCOD8231283
Probable space group: P B C M
;
_chemical_formula_sum "Si O2"
_cell_formula_units_Z 48
_cell_length_a 15.486950
_cell_length_b 18.042031
_cell_length_c 8.912070
_cell_angle_alpha 90.000000
_cell_angle_beta 90.000000
_cell_angle_gamma 90.000000
_cell_volume 2490.175236
_symmetry_space_group_name_H-M "P B C M"
_symmetry_group_IT_number 57
_symmetry_cell_setting 'orthorhombic'
loop_
_space_group_symop_operation_xyz
x,y,z
-x,-y,1/2+z
x,1/2-y,-z
-x,1/2+y,1/2-z
-x,-y,-z
x,y,1/2-z
-x,1/2+y,z
x,1/2-y,1/2+z
loop_
_atom_site_type_symbol
_atom_site_label
_atom_site_fract_x
_atom_site_fract_y
_atom_site_fract_z
Si Si1 0.815461 0.830216 0.426418
Si Si2 0.018090 0.329212 0.575627
Si Si3 0.324406 0.585132 0.926954
Si Si4 0.347954 0.429405 0.074325
Si Si5 0.826986 0.170196 0.075336
Si Si6 0.493275 0.828307 0.074062
O O1 0.800948 0.750000 0.500000
O O2 0.825632 0.819913 0.250000
O O3 0.735497 0.881639 0.468206
O O4 0.902136 0.870608 0.492982
O O5 0.013469 0.250000 0.500000
O O6 0.040416 0.321865 0.750000
O O7 0.923198 0.364625 0.551315
O O8 0.311090 0.586473 0.750000
O O9 0.401145 0.639791 0.977552
O O10 0.347965 0.503225 0.977734
O O11 0.236891 0.610568 0.005708
O O12 0.349855 0.449268 0.250000
O O13 0.432338 0.384654 0.023259
O O14 0.806808 0.180943 0.250000
O O15 0.815037 0.250000 0.000000
O O16 0.496908 0.816212 0.250000
O O17 0.510760 0.750000 0.000000
#
# Coordination Sequence:
#
# PCOD8231283 Si02
#       6
#     8   8   8   8   8   8
#     4  10  19  32  54  81 108 141 180 223 270 318
#     4   9  17  30  51  78 107 140 178 222 270 316
#     4  11  23  37  56  82 110 144 183 222 269 321
#     4  10  22  39  56  78 111 146 179 219 268 321
#     4  10  20  35  56  81 110 144 182 225 271 319
#     4  10  22  39  59  84 110 139 178 221 267 319
#
# _framework density 19.275752000000001
#
# number of rings (size 3 to 8) (size 9 to 14) (size 15 to 20)
#    0.000    2.000    0.000    4.500    0.000    6.667 
#    0.000    0.833    0.000    0.000    0.000    0.000 
#    0.000    0.000    0.000    0.000    0.000    0.000 
#
# Total GULP energy -595142.847681 kJ/mol
# GULP energy per Si atom -12398.809327 kJ/mol
# Density = 1.923188 g / cm^3
# Si number density = 19.275752 Si / 1000 Ang^3
#
#
#
# Elastic Constant Matrix: (Units=GPa)
#
#
# Indices 1 2 3 4 5 6 
#
# 1 109.9009 17.7377 47.8858 0.0000 0.0000 0.0000
# 2 17.7377 63.4857 32.6458 0.0000 0.0000 0.0000
# 3 47.8858 32.6458 88.9444 0.0000 0.0000 0.0000
# 4 0.0000 0.0000 0.0000 33.4102 0.0000 0.0000
# 5 0.0000 0.0000 0.0000 0.0000 46.5284 0.0000
# 6 0.0000 0.0000 0.0000 0.0000 0.0000 14.5539
#
#
#
# Elastic Compliance Matrix: (Units=1/GPa)
#
#
# Indices 1 2 3 4 5 6 
#
# 1 0.011888 -0.000037 -0.006386 0.000000 0.000000 0.000000
# 2 -0.000037 0.019416 -0.007106 0.000000 0.000000 0.000000
# 3 -0.006386 -0.007106 0.017290 0.000000 0.000000 0.000000
# 4 0.000000 0.000000 0.000000 0.029931 0.000000 0.000000
# 5 0.000000 0.000000 0.000000 0.000000 0.021492 0.000000
# 6 0.000000 0.000000 0.000000 0.000000 0.000000 0.068710
#
#
# Mechanical properties :
#
#
# Convention : Reuss Voigt Hill
#
# Bulk Modulus (GPa) = 46.43958 50.98553 48.71255
# Shear Modulus (GPa) = 24.63479 29.83595 27.23537
#
# Velocity S-wave (km/s) = 3.57882 3.93854 3.76298
# Velocity P-wave (km/s) = 6.42042 6.86956 6.64878
#
# Compressibility (1/GPa) = 0.02153336
#
# Stress axis : x y z
#
# Youngs Moduli (GPa) = 84.11967 51.50321 57.83825
#
# Poissons Ratio (x) = 0.00192 0.36938
# Poissons Ratio (y) = 0.00314 0.41102
# Poissons Ratio (z) = 0.53723 0.36600
#
# Static dielectric constant tensor:
#      x y z
#    x 4.293310 0.000000 0.000000 
#    y 0.000000 3.434000 0.000000 
#    z 0.000000 0.000000 3.575450 
# 
# 
# High freq. dielectric constant tensor:
#      x y z
#    x 1.776640 0.000000 0.000000 
#    y 0.000000 1.723790 0.000000 
#    z 0.000000 0.000000 1.758850 
# 
# From -- ./inp_files/4692.got.cif
#   From: 2010.03.12/outbox.cif.g09.slc.cpg/sg57_3_cif.got.tgz:4692.got - 2010.04.16 15:48:40.
