data_PCOD8231652
_publ_section_title
;
Structure prediction by ZEFSAII (Michael W. Deem and Ramdas Pophale) SiO2 
 PCOD8231652
Probable space group: P B C M
;
_chemical_formula_sum "Si O2"
_cell_formula_units_Z 64
_cell_length_a 15.433186
_cell_length_b 24.531279
_cell_length_c 9.083652
_cell_angle_alpha 90.000000
_cell_angle_beta 90.000000
_cell_angle_gamma 90.000000
_cell_volume 3439.032420
_symmetry_space_group_name_H-M "P B C M"
_symmetry_group_IT_number 57
_symmetry_cell_setting 'orthorhombic'
loop_
_space_group_symop_operation_xyz
x,y,z
-x,-y,1/2+z
x,1/2-y,-z
-x,1/2+y,1/2-z
-x,-y,-z
x,y,1/2-z
-x,1/2+y,z
x,1/2-y,1/2+z
loop_
_atom_site_type_symbol
_atom_site_label
_atom_site_fract_x
_atom_site_fract_y
_atom_site_fract_z
Si Si1 0.303187 0.973998 0.576275
Si Si2 0.017721 0.446594 0.410318
Si Si3 0.828082 0.094972 0.586671
Si Si4 0.111431 0.694281 0.423138
Si Si5 0.076737 0.150008 0.080513
Si Si6 0.260609 0.305297 0.922521
Si Si7 0.465674 0.553002 0.921078
Si Si8 0.645054 0.597322 0.581540
O O1 0.302263 0.964412 0.750000
O O2 0.213292 0.955396 0.503088
O O3 0.375598 0.933567 0.503615
O O4 0.319150 0.037394 0.537307
O O5 0.056789 0.461461 0.250000
O O6 0.084957 0.406546 0.491132
O O7 0.000000 0.500000 0.500000
O O8 0.928549 0.415493 0.391867
O O9 0.785745 0.101788 0.750000
O O10 0.822239 0.149884 0.490220
O O11 0.137499 0.750000 0.500000
O O12 0.127719 0.697885 0.250000
O O13 0.010622 0.682303 0.459016
O O14 0.077731 0.132859 0.250000
O O15 0.159185 0.186853 0.039583
O O16 0.276743 0.299253 0.750000
O O17 0.293007 0.250000 0.000000
O O18 0.314757 0.357065 0.977606
O O19 0.448000 0.540724 0.750000
O O20 0.540142 0.599088 0.937881
O O21 0.500000 0.500000 0.000000
O O22 0.670278 0.610047 0.750000
#
# Coordination Sequence:
#
# PCOD8231652 Si02
#       8
#     8   8   8   8   8   8   8   8
#     4  10  20  34  55  83 113 142 175 219 271 323
#     4  10  21  34  50  72 103 142 179 220 267 319
#     4  10  21  35  51  76 106 139 178 217 263 317
#     4  10  19  34  55  75 101 135 176 224 269 316
#     4   9  20  36  52  74 101 136 181 225 269 316
#     4  11  23  37  55  78 107 142 184 230 272 320
#     4   9  17  32  54  80 108 138 171 209 255 310
#     4   9  20  36  54  79 109 141 177 216 266 321
#
# _framework density 18.609884999999998
#
# number of rings (size 3 to 8) (size 9 to 14) (size 15 to 20)
#    0.000    2.250    0.000    3.375    1.750    6.000 
#    0.000    0.000    0.000    0.750    0.000    1.750 
#    0.000    0.000    0.000    0.000    0.000    0.000 
#
# Total GULP energy -793384.569005 kJ/mol
# GULP energy per Si atom -12396.633891 kJ/mol
# Density = 1.856753 g / cm^3
# Si number density = 18.609885 Si / 1000 Ang^3
#
#
#
# Elastic Constant Matrix: (Units=GPa)
#
#
# Indices 1 2 3 4 5 6 
#
# 1 50.4658 22.7625 32.7017 0.0000 0.0000 0.0000
# 2 22.7625 111.4797 65.5973 0.0000 0.0000 0.0000
# 3 32.7017 65.5973 129.6884 0.0000 0.0000 0.0000
# 4 0.0000 0.0000 0.0000 36.0567 0.0000 0.0000
# 5 0.0000 0.0000 0.0000 0.0000 30.1593 0.0000
# 6 0.0000 0.0000 0.0000 0.0000 0.0000 18.9709
#
#
#
# Elastic Compliance Matrix: (Units=1/GPa)
#
#
# Indices 1 2 3 4 5 6 
#
# 1 0.023966 -0.001904 -0.005080 0.000000 0.000000 0.000000
# 2 -0.001904 0.012923 -0.006056 0.000000 0.000000 0.000000
# 3 -0.005080 -0.006056 0.012055 0.000000 0.000000 0.000000
# 4 0.000000 0.000000 0.000000 0.027734 0.000000 0.000000
# 5 0.000000 0.000000 0.000000 0.000000 0.033157 0.000000
# 6 0.000000 0.000000 0.000000 0.000000 0.000000 0.052712
#
#
# Mechanical properties :
#
#
# Convention : Reuss Voigt Hill
#
# Bulk Modulus (GPa) = 43.73913 59.30629 51.52271
# Shear Modulus (GPa) = 25.47778 28.40887 26.94333
#
# Velocity S-wave (km/s) = 3.70408 3.91134 3.80912
# Velocity P-wave (km/s) = 6.46898 7.23433 6.86233
#
# Compressibility (1/GPa) = 0.02286282
#
# Stress axis : x y z
#
# Youngs Moduli (GPa) = 41.72548 77.38328 82.95313
#
# Poissons Ratio (x) = 0.14736 0.42140
# Poissons Ratio (y) = 0.07946 0.50238
# Poissons Ratio (z) = 0.21196 0.46865
#
# Static dielectric constant tensor:
#      x y z
#    x 3.512850 0.000000 0.000000 
#    y 0.000000 3.278700 0.000000 
#    z 0.000000 0.000000 3.800290 
# 
# 
# High freq. dielectric constant tensor:
#      x y z
#    x 1.705020 0.000000 0.000000 
#    y 0.000000 1.702550 0.000000 
#    z 0.000000 0.000000 1.740300 
# 
# From -- ./inp_files/5733.got.cif
#   From: 2010.03.12/outbox.cif.g09.slc.cpg/sg57_3_cif.got.tgz:5733.got - 2010.04.16 15:48:40.
