data_PCOD8231942
_publ_section_title
;
Structure prediction by ZEFSAII (Michael W. Deem and Ramdas Pophale) SiO2 
 PCOD8231942
Probable space group: P B C M
;
_chemical_formula_sum "Si O2"
_cell_formula_units_Z 40
_cell_length_a 10.445656
_cell_length_b 8.531830
_cell_length_c 18.931040
_cell_angle_alpha 90.000000
_cell_angle_beta 90.000000
_cell_angle_gamma 90.000000
_cell_volume 1687.144909
_symmetry_space_group_name_H-M "P B C M"
_symmetry_group_IT_number 57
_symmetry_cell_setting 'orthorhombic'
loop_
_space_group_symop_operation_xyz
x,y,z
-x,-y,1/2+z
x,1/2-y,-z
-x,1/2+y,1/2-z
-x,-y,-z
x,y,1/2-z
-x,1/2+y,z
x,1/2-y,1/2+z
loop_
_atom_site_type_symbol
_atom_site_label
_atom_site_fract_x
_atom_site_fract_y
_atom_site_fract_z
Si Si1 0.186816 0.164718 0.566956
Si Si2 0.697863 0.260524 0.669920
Si Si3 0.615735 0.411068 0.537305
Si Si4 0.947428 0.458764 0.828797
Si Si5 0.757927 0.908045 0.830584
O O1 0.121708 0.250000 0.500000
O O2 0.286060 0.275205 0.613030
O O3 0.265931 0.026284 0.531137
O O4 0.076290 0.099409 0.616984
O O5 0.649579 0.284078 0.750000
O O6 0.599893 0.360423 0.620474
O O7 0.843968 0.319887 0.661158
O O8 0.698421 0.076451 0.649377
O O9 0.651730 0.250000 0.500000
O O10 0.500000 0.500000 0.500000
O O11 0.935689 0.530328 0.750000
O O12 0.089318 0.398276 0.841601
O O13 0.720981 0.864103 0.750000
#
# Coordination Sequence:
#
# PCOD8231942 Si02
#       5
#     8   8   8   8   8
#     4  11  22  35  57  90 125 162 204 251 299 355
#     4   9  19  36  60  90 123 159 205 255 298 359
#     4  11  24  44  66  85 113 155 204 259 325 379
#     4   9  18  34  57  88 129 172 205 237 287 354
#     4  10  19  35  61  93 129 167 202 240 294 358
#
# _framework density 23.708691000000002
#
# number of rings (size 3 to 8) (size 9 to 14) (size 15 to 20)
#    0.000    2.000    0.000    3.600    0.000    4.800 
#    0.000    6.000    0.000    7.200    0.000    0.000 
#    0.000    0.000    0.000    0.000    0.000    0.000 
#
# Total GULP energy -495740.033574 kJ/mol
# GULP energy per Si atom -12393.500839 kJ/mol
# Density = 2.365473 g / cm^3
# Si number density = 23.708691 Si / 1000 Ang^3
#
#
#
# Elastic Constant Matrix: (Units=GPa)
#
#
# Indices 1 2 3 4 5 6 
#
# 1 47.8704 21.0671 24.7709 0.0000 0.0000 0.0000
# 2 21.0671 131.8923 65.6861 0.0000 0.0000 0.0000
# 3 24.7709 65.6861 122.5199 0.0000 0.0000 0.0000
# 4 0.0000 0.0000 0.0000 55.0531 0.0000 0.0000
# 5 0.0000 0.0000 0.0000 0.0000 27.0089 0.0000
# 6 0.0000 0.0000 0.0000 0.0000 0.0000 24.1910
#
#
#
# Elastic Compliance Matrix: (Units=1/GPa)
#
#
# Indices 1 2 3 4 5 6 
#
# 1 0.023677 -0.001907 -0.003765 0.000000 0.000000 0.000000
# 2 -0.001907 0.010497 -0.005242 0.000000 0.000000 0.000000
# 3 -0.003765 -0.005242 0.011734 0.000000 0.000000 0.000000
# 4 0.000000 0.000000 0.000000 0.018164 0.000000 0.000000
# 5 0.000000 0.000000 0.000000 0.000000 0.037025 0.000000
# 6 0.000000 0.000000 0.000000 0.000000 0.000000 0.041338
#
#
# Mechanical properties :
#
#
# Convention : Reuss Voigt Hill
#
# Bulk Modulus (GPa) = 41.52815 58.37009 49.94912
# Shear Modulus (GPa) = 29.02093 33.96783 31.49438
#
# Velocity S-wave (km/s) = 3.50246 3.78923 3.64866
# Velocity P-wave (km/s) = 5.82326 6.61948 6.23409
#
# Compressibility (1/GPa) = 0.02408005
#
# Stress axis : x y z
#
# Youngs Moduli (GPa) = 42.23513 95.26159 85.22522
#
# Poissons Ratio (x) = 0.18167 0.32083
# Poissons Ratio (y) = 0.08055 0.44678
# Poissons Ratio (z) = 0.15900 0.49940
#
# Static dielectric constant tensor:
#      x y z
#    x 3.752200 0.000000 0.000000 
#    y 0.000000 4.563090 0.000000 
#    z 0.000000 0.000000 4.734090 
# 
# 
# High freq. dielectric constant tensor:
#      x y z
#    x 1.883770 0.000000 0.000000 
#    y 0.000000 1.958030 0.000000 
#    z 0.000000 0.000000 1.960640 
# 
# From -- ./inp_files/21614.got.cif
#   From: 2010.03.12/outbox.cif.g09.slc.cpg/sg57_11_cif.got.tgz:21614.got - 2010.04.16 15:48:40.
