data_PCOD8231277
_publ_section_title
;
Structure prediction by ZEFSAII (Michael W. Deem and Ramdas Pophale) SiO2 
 PCOD8231277
Probable space group: P B C M
;
_chemical_formula_sum "Si O2"
_cell_formula_units_Z 64
_cell_length_a 17.604033
_cell_length_b 22.410204
_cell_length_c 8.793012
_cell_angle_alpha 90.000000
_cell_angle_beta 90.000000
_cell_angle_gamma 90.000000
_cell_volume 3468.930907
_symmetry_space_group_name_H-M "P B C M"
_symmetry_group_IT_number 57
_symmetry_cell_setting 'orthorhombic'
loop_
_space_group_symop_operation_xyz
x,y,z
-x,-y,1/2+z
x,1/2-y,-z
-x,1/2+y,1/2-z
-x,-y,-z
x,y,1/2-z
-x,1/2+y,z
x,1/2-y,1/2+z
loop_
_atom_site_type_symbol
_atom_site_label
_atom_site_fract_x
_atom_site_fract_y
_atom_site_fract_z
Si Si1 0.923184 0.312212 0.572309
Si Si2 0.825185 0.082928 0.929991
Si Si3 0.920580 0.982268 0.071451
Si Si4 0.249684 0.189221 0.074775
Si Si5 0.912088 0.858860 0.924133
Si Si6 0.325461 0.550687 0.070606
Si Si7 0.489064 0.937677 0.574909
Si Si8 0.652720 0.920926 0.570567
O O1 0.897616 0.250000 0.500000
O O2 0.905313 0.311433 0.750000
O O3 0.874995 0.363947 0.495835
O O4 0.012083 0.322193 0.538656
O O5 0.831471 0.083864 0.750000
O O6 0.738208 0.088720 0.983001
O O7 0.854454 0.020130 0.993981
O O8 0.922250 0.995235 0.250000
O O9 0.904372 0.913421 0.039682
O O10 0.000000 0.000000 0.000000
O O11 0.270656 0.193687 0.250000
O O12 0.159595 0.183669 0.046919
O O13 0.293362 0.131608 0.006695
O O14 0.279315 0.250000 0.000000
O O15 0.913307 0.882505 0.750000
O O16 0.308285 0.551391 0.250000
O O17 0.404841 0.585817 0.028652
O O18 0.327320 0.481960 0.015875
O O19 0.485774 0.951957 0.750000
O O20 0.564865 0.899096 0.537442
O O21 0.500000 0.000000 0.500000
O O22 0.666225 0.932039 0.750000
#
# Coordination Sequence:
#
# PCOD8231277 Si02
#       8
#     8   8   8   8   8   8   8   8
#     4  11  23  39  58  77 103 139 184 229 271 320
#     4  12  24  38  56  79 109 144 183 225 275 324
#     4  12  23  36  56  82 111 142 177 220 272 326
#     4  10  21  35  52  75 105 143 184 224 265 314
#     4  10  21  37  56  79 109 144 181 222 268 321
#     4  10  19  32  53  83 112 139 176 223 277 331
#     4   8  15  28  49  77 108 139 170 208 258 319
#     4   9  17  32  53  78 110 146 179 215 267 327
#
# _framework density 18.449487999999999
#
# number of rings (size 3 to 8) (size 9 to 14) (size 15 to 20)
#    0.000    1.750    1.250    4.125    0.000    3.000 
#    0.000    0.000    0.000    0.750    0.000    1.750 
#    0.000    0.000    0.000    0.000    0.000    0.000 
#
# Total GULP energy -793313.157029 kJ/mol
# GULP energy per Si atom -12395.518079 kJ/mol
# Density = 1.840750 g / cm^3
# Si number density = 18.449488 Si / 1000 Ang^3
#
#
#
# Elastic Constant Matrix: (Units=GPa)
#
#
# Indices 1 2 3 4 5 6 
#
# 1 118.6367 18.4225 41.4289 0.0000 0.0000 0.0000
# 2 18.4225 59.9694 31.6594 0.0000 0.0000 0.0000
# 3 41.4289 31.6594 94.0053 0.0000 0.0000 0.0000
# 4 0.0000 0.0000 0.0000 30.5641 0.0000 0.0000
# 5 0.0000 0.0000 0.0000 0.0000 24.7218 0.0000
# 6 0.0000 0.0000 0.0000 0.0000 0.0000 16.0261
#
#
#
# Elastic Compliance Matrix: (Units=1/GPa)
#
#
# Indices 1 2 3 4 5 6 
#
# 1 0.010003 -0.000907 -0.004103 0.000000 0.000000 0.000000
# 2 -0.000907 0.020363 -0.006458 0.000000 0.000000 0.000000
# 3 -0.004103 -0.006458 0.014621 0.000000 0.000000 0.000000
# 4 0.000000 0.000000 0.000000 0.032718 0.000000 0.000000
# 5 0.000000 0.000000 0.000000 0.000000 0.040450 0.000000
# 6 0.000000 0.000000 0.000000 0.000000 0.000000 0.062398
#
#
# Mechanical properties :
#
#
# Convention : Reuss Voigt Hill
#
# Bulk Modulus (GPa) = 45.34977 50.62586 47.98782
# Shear Modulus (GPa) = 23.71468 26.33576 25.02522
#
# Velocity S-wave (km/s) = 3.58912 3.78226 3.68695
# Velocity P-wave (km/s) = 6.46603 6.82450 6.64768
#
# Compressibility (1/GPa) = 0.02205083
#
# Stress axis : x y z
#
# Youngs Moduli (GPa) = 99.97338 49.10800 68.39509
#
# Poissons Ratio (x) = 0.04453 0.28062
# Poissons Ratio (y) = 0.09065 0.44172
# Poissons Ratio (z) = 0.41018 0.31716
#
# Static dielectric constant tensor:
#      x y z
#    x 4.149790 0.000000 0.000000 
#    y 0.000000 3.110760 0.000000 
#    z 0.000000 0.000000 4.022860 
# 
# 
# High freq. dielectric constant tensor:
#      x y z
#    x 1.731190 0.000000 0.000000 
#    y 0.000000 1.683690 0.000000 
#    z 0.000000 0.000000 1.721100 
# 
# From -- ./inp_files/7129.got.cif
#   From: 2010.03.12/outbox.cif.g09.slc.cpg/sg57_4_cif.got.tgz:7129.got - 2010.04.16 15:48:40.
