data_PCOD8231837
_publ_section_title
;
Structure prediction by ZEFSAII (Michael W. Deem and Ramdas Pophale) SiO2 
 PCOD8231837
Probable space group: P B C M
;
_chemical_formula_sum "Si O2"
_cell_formula_units_Z 64
_cell_length_a 11.941511
_cell_length_b 31.303371
_cell_length_c 8.878262
_cell_angle_alpha 90.000000
_cell_angle_beta 90.000000
_cell_angle_gamma 90.000000
_cell_volume 3318.779115
_symmetry_space_group_name_H-M "P B C M"
_symmetry_group_IT_number 57
_symmetry_cell_setting 'orthorhombic'
loop_
_space_group_symop_operation_xyz
x,y,z
-x,-y,1/2+z
x,1/2-y,-z
-x,1/2+y,1/2-z
-x,-y,-z
x,y,1/2-z
-x,1/2+y,z
x,1/2-y,1/2+z
loop_
_atom_site_type_symbol
_atom_site_label
_atom_site_fract_x
_atom_site_fract_y
_atom_site_fract_z
Si Si1 0.881476 0.499435 0.923262
Si Si2 0.137595 0.079180 0.415936
Si Si3 0.947945 0.792780 0.075175
Si Si4 0.495984 0.548076 0.929924
Si Si5 0.639404 0.621031 0.078091
Si Si6 0.926726 0.366015 0.578544
Si Si7 0.727171 0.424429 0.573297
Si Si8 0.691249 0.794846 0.071455
O O1 0.899368 0.490965 0.750000
O O2 0.800468 0.463550 0.988289
O O3 0.825268 0.544960 0.958535
O O4 0.000000 0.500000 0.000000
O O5 0.142639 0.057820 0.250000
O O6 0.225649 0.117685 0.424255
O O7 0.011292 0.094580 0.446994
O O8 0.951696 0.785511 0.250000
O O9 0.820715 0.802982 0.024871
O O10 0.992580 0.750000 0.000000
O O11 0.036971 0.828964 0.033157
O O12 0.506835 0.543811 0.750000
O O13 0.500000 0.500000 0.000000
O O14 0.592658 0.579001 0.993800
O O15 0.384341 0.574165 0.974525
O O16 0.593332 0.622666 0.250000
O O17 0.615318 0.666213 0.994723
O O18 0.936894 0.349639 0.750000
O O19 0.799650 0.381365 0.544278
O O20 0.697042 0.429085 0.750000
O O21 0.674354 0.793054 0.250000
O O22 0.649964 0.750000 0.000000
#
# Coordination Sequence:
#
# PCOD8231837 Si02
#       8
#     8   8   8   8   8   8   8   8
#     4  11  21  33  51  76 109 146 184 228 277 332
#     4  10  20  34  52  80 113 148 187 228 282 339
#     4  10  20  33  53  83 120 159 196 234 285 347
#     4  12  26  44  64  86 115 154 204 255 302 358
#     4  11  22  38  62  87 117 155 196 244 297 354
#     4  10  19  35  56  81 116 151 187 233 285 344
#     4  10  22  40  59  81 112 152 193 237 288 342
#     4  10  20  34  55  87 124 160 198 243 295 352
#
# _framework density 19.284199000000001
#
# number of rings (size 3 to 8) (size 9 to 14) (size 15 to 20)
#    0.000    1.500    2.500    3.375    0.000    6.000 
#    0.000    0.000    0.000    0.750    0.000    1.750 
#    0.000    0.000    0.000    0.000    0.000    0.000 
#
# Total GULP energy -793314.570759 kJ/mol
# GULP energy per Si atom -12395.540168 kJ/mol
# Density = 1.924031 g / cm^3
# Si number density = 19.284199 Si / 1000 Ang^3
#
#
#
# Elastic Constant Matrix: (Units=GPa)
#
#
# Indices 1 2 3 4 5 6 
#
# 1 66.3827 21.3175 25.4913 0.0000 0.0000 0.0000
# 2 21.3175 114.7437 47.4149 0.0000 0.0000 0.0000
# 3 25.4913 47.4149 87.1572 0.0000 0.0000 0.0000
# 4 0.0000 0.0000 0.0000 38.4876 0.0000 0.0000
# 5 0.0000 0.0000 0.0000 0.0000 28.6194 0.0000
# 6 0.0000 0.0000 0.0000 0.0000 0.0000 9.5131
#
#
#
# Elastic Compliance Matrix: (Units=1/GPa)
#
#
# Indices 1 2 3 4 5 6 
#
# 1 0.017152 -0.001437 -0.004235 0.000000 0.000000 0.000000
# 2 -0.001437 0.011363 -0.005761 0.000000 0.000000 0.000000
# 3 -0.004235 -0.005761 0.015846 0.000000 0.000000 0.000000
# 4 0.000000 0.000000 0.000000 0.025982 0.000000 0.000000
# 5 0.000000 0.000000 0.000000 0.000000 0.034941 0.000000
# 6 0.000000 0.000000 0.000000 0.000000 0.000000 0.105118
#
#
# Mechanical properties :
#
#
# Convention : Reuss Voigt Hill
#
# Bulk Modulus (GPa) = 46.52206 50.74789 48.63497
# Shear Modulus (GPa) = 20.79583 26.92803 23.86193
#
# Velocity S-wave (km/s) = 3.28744 3.74087 3.52146
# Velocity P-wave (km/s) = 6.21181 6.71057 6.46600
#
# Compressibility (1/GPa) = 0.02149518
#
# Stress axis : x y z
#
# Youngs Moduli (GPa) = 58.30319 88.00743 63.10582
#
# Poissons Ratio (x) = 0.12642 0.26725
# Poissons Ratio (y) = 0.08375 0.36357
# Poissons Ratio (z) = 0.24691 0.50704
#
# Static dielectric constant tensor:
#      x y z
#    x 2.772220 0.000000 0.000000 
#    y 0.000000 5.068440 0.000000 
#    z 0.000000 0.000000 3.678920 
# 
# 
# High freq. dielectric constant tensor:
#      x y z
#    x 1.726880 0.000000 0.000000 
#    y 0.000000 1.749320 0.000000 
#    z 0.000000 0.000000 1.753230 
# 
# From -- ./inp_files/3835.got.cif
#   From: 2010.03.12/outbox.cif.g09.slc.cpg/sg57_2_cif.got.tgz:3835.got - 2010.04.16 15:48:40.
