data_PCOD8231043
_publ_section_title
;
Structure prediction by ZEFSAII (Michael W. Deem and Ramdas Pophale) SiO2 
 PCOD8231043
Probable space group: P B C M
;
_chemical_formula_sum "Si O2"
_cell_formula_units_Z 64
_cell_length_a 24.348194
_cell_length_b 14.549780
_cell_length_c 8.707350
_cell_angle_alpha 90.000000
_cell_angle_beta 90.000000
_cell_angle_gamma 90.000000
_cell_volume 3084.673352
_symmetry_space_group_name_H-M "P B C M"
_symmetry_group_IT_number 57
_symmetry_cell_setting 'orthorhombic'
loop_
_space_group_symop_operation_xyz
x,y,z
-x,-y,1/2+z
x,1/2-y,-z
-x,1/2+y,1/2-z
-x,-y,-z
x,y,1/2-z
-x,1/2+y,z
x,1/2-y,1/2+z
loop_
_atom_site_type_symbol
_atom_site_label
_atom_site_fract_x
_atom_site_fract_y
_atom_site_fract_z
Si Si1 0.476935 0.091041 0.924478
Si Si2 0.673833 0.027653 0.431233
Si Si3 0.093677 0.157651 0.429183
Si Si4 0.969378 0.343887 0.569008
Si Si5 0.406452 0.842417 0.076166
Si Si6 0.122579 0.960248 0.430363
Si Si7 0.229431 0.648445 0.932305
Si Si8 0.365193 0.347332 0.932237
O O1 0.456246 0.072891 0.750000
O O2 0.527642 0.161944 0.923986
O O3 0.428202 0.134112 0.023077
O O4 0.500000 0.000000 0.000000
O O5 0.681870 0.025788 0.250000
O O6 0.614770 0.070574 0.477545
O O7 0.719535 0.090378 0.508582
O O8 0.675288 0.924380 0.497481
O O9 0.120213 0.250000 0.500000
O O10 0.091892 0.173622 0.250000
O O11 0.031601 0.142376 0.491041
O O12 0.130073 0.068334 0.472083
O O13 0.944562 0.250000 0.500000
O O14 0.966165 0.338801 0.750000
O O15 0.932834 0.427821 0.511418
O O16 0.383731 0.850229 0.250000
O O17 0.382707 0.750000 0.000000
O O18 0.114540 0.947295 0.250000
O O19 0.174810 0.903581 0.490643
O O20 0.231592 0.654277 0.750000
O O21 0.230642 0.750000 0.000000
O O22 0.359716 0.346623 0.750000
O O23 0.345961 0.250000 0.000000
#
# Coordination Sequence:
#
# PCOD8231043 Si02
#       8
#     8   8   8   8   8   8   8   8
#     4  11  22  37  60  90 126 165 203 244 294 352
#     4  12  25  43  66  89 117 153 198 248 301 359
#     4   9  19  35  54  82 118 158 200 242 293 348
#     4  10  19  31  52  82 119 158 198 244 293 354
#     4  11  23  38  59  88 121 158 197 240 291 350
#     4  10  21  37  58  84 117 156 199 248 300 355
#     4  11  24  43  65  89 119 153 193 245 302 359
#     4  12  25  43  66  93 126 162 204 250 298 355
#
# _framework density 20.747737999999998
#
# number of rings (size 3 to 8) (size 9 to 14) (size 15 to 20)
#    0.000    1.250    1.250    5.250    0.000    5.500 
#    0.000    0.625    0.000    1.500    0.000    0.000 
#    0.000    0.000    0.000    0.000    0.000    0.000 
#
# Total GULP energy -793784.139454 kJ/mol
# GULP energy per Si atom -12402.877179 kJ/mol
# Density = 2.070052 g / cm^3
# Si number density = 20.747738 Si / 1000 Ang^3
#
#
#
# Elastic Constant Matrix: (Units=GPa)
#
#
# Indices 1 2 3 4 5 6 
#
# 1 74.3105 49.4106 25.4414 0.0000 0.0000 0.0000
# 2 49.4106 173.5775 55.6529 0.0000 0.0000 0.0000
# 3 25.4414 55.6529 99.8153 0.0000 0.0000 0.0000
# 4 0.0000 0.0000 0.0000 37.4251 0.0000 0.0000
# 5 0.0000 0.0000 0.0000 0.0000 21.2400 0.0000
# 6 0.0000 0.0000 0.0000 0.0000 0.0000 40.6214
#
#
#
# Elastic Compliance Matrix: (Units=1/GPa)
#
#
# Indices 1 2 3 4 5 6 
#
# 1 0.016914 -0.004180 -0.001981 0.000000 0.000000 0.000000
# 2 -0.004180 0.008048 -0.003422 0.000000 0.000000 0.000000
# 3 -0.001981 -0.003422 0.012431 0.000000 0.000000 0.000000
# 4 0.000000 0.000000 0.000000 0.026720 0.000000 0.000000
# 5 0.000000 0.000000 0.000000 0.000000 0.047081 0.000000
# 6 0.000000 0.000000 0.000000 0.000000 0.000000 0.024618
#
#
# Mechanical properties :
#
#
# Convention : Reuss Voigt Hill
#
# Bulk Modulus (GPa) = 54.85801 67.63480 61.24640
# Shear Modulus (GPa) = 31.04555 34.33718 32.69137
#
# Velocity S-wave (km/s) = 3.87244 4.07256 3.97376
# Velocity P-wave (km/s) = 6.81853 7.40161 7.11604
#
# Compressibility (1/GPa) = 0.01822888
#
# Stress axis : x y z
#
# Youngs Moduli (GPa) = 59.12113 124.25323 80.44225
#
# Poissons Ratio (x) = 0.51935 0.15934
# Poissons Ratio (y) = 0.24711 0.27527
# Poissons Ratio (z) = 0.11710 0.42518
#
# Static dielectric constant tensor:
#      x y z
#    x 3.712650 0.000000 0.000000 
#    y 0.000000 3.935510 0.000000 
#    z 0.000000 0.000000 3.767990 
# 
# 
# High freq. dielectric constant tensor:
#      x y z
#    x 1.790000 0.000000 0.000000 
#    y 0.000000 1.826960 0.000000 
#    z 0.000000 0.000000 1.818820 
# 
# From -- ./inp_files/9495.got.cif
#   From: 2010.03.12/outbox.cif.g09.slc.cpg/sg57_5_cif.got.tgz:9495.got - 2010.04.16 15:48:40.
