data_PCOD8231814
_publ_section_title
;
Structure prediction by ZEFSAII (Michael W. Deem and Ramdas Pophale) SiO2 
 PCOD8231814
Probable space group: P B C M
;
_chemical_formula_sum "Si O2"
_cell_formula_units_Z 60
_cell_length_a 8.887695
_cell_length_b 23.740753
_cell_length_c 13.954283
_cell_angle_alpha 90.000000
_cell_angle_beta 90.000000
_cell_angle_gamma 90.000000
_cell_volume 2944.361691
_symmetry_space_group_name_H-M "P B C M"
_symmetry_group_IT_number 57
_symmetry_cell_setting 'orthorhombic'
loop_
_space_group_symop_operation_xyz
x,y,z
-x,-y,1/2+z
x,1/2-y,-z
-x,1/2+y,1/2-z
-x,-y,-z
x,y,1/2-z
-x,1/2+y,z
x,1/2-y,1/2+z
loop_
_atom_site_type_symbol
_atom_site_label
_atom_site_fract_x
_atom_site_fract_y
_atom_site_fract_z
Si Si1 0.754276 0.092562 0.145285
Si Si2 0.512049 0.312517 0.644332
Si Si3 0.712752 0.250000 0.000000
Si Si4 0.113574 0.072115 0.639683
Si Si5 0.183654 0.351308 0.860574
Si Si6 0.858913 0.515353 0.143415
Si Si7 0.669192 0.506342 0.968792
Si Si8 0.945440 0.153457 0.996164
O O1 0.835008 0.093487 0.250000
O O2 0.611604 0.132356 0.145717
O O3 0.871614 0.106284 0.063017
O O4 0.688645 0.031641 0.124813
O O5 0.492489 0.286737 0.750000
O O6 0.598625 0.265110 0.584744
O O7 0.350047 0.332727 0.605336
O O8 0.820509 0.199143 0.965469
O O9 0.152363 0.086814 0.750000
O O10 0.264150 0.066012 0.572606
O O11 0.014445 0.123891 0.598090
O O12 0.025675 0.011716 0.632367
O O13 0.154764 0.333525 0.750000
O O14 0.150772 0.417769 0.874112
O O15 0.072451 0.318512 0.934139
O O16 0.797476 0.501053 0.250000
O O17 0.757369 0.485626 0.063387
O O18 0.500000 0.500000 0.000000
#
# Coordination Sequence:
#
# PCOD8231814 Si02
#       8
#     8   8   4   8   8   8   8   8
#     4  10  20  35  57  87 121 156 201 248 293 353
#     4   9  20  39  61  88 119 154 199 253 308 358
#     4  10  24  40  64  88 116 158 204 258 314 368
#     4  11  23  39  58  86 130 169 205 247 295 363
#     4  10  19  34  62  92 118 150 197 254 302 353
#     4  10  20  36  59  90 124 162 202 242 291 357
#     4  12  22  34  56  86 124 164 200 236 294 365
#     4  11  21  39  62  90 117 159 207 253 311 354
#
# _framework density 20.377931
#
# number of rings (size 3 to 8) (size 9 to 14) (size 15 to 20)
#    0.000    1.600    2.667    2.800    0.000    4.800 
#    0.000    0.000    0.000    0.800    0.000    0.000 
#    0.000    0.000    0.000    0.000    0.000    0.000 
#
# Total GULP energy -743372.102816 kJ/mol
# GULP energy per Si atom -12389.535047 kJ/mol
# Density = 2.033155 g / cm^3
# Si number density = 20.377931 Si / 1000 Ang^3
#
#
#
# Elastic Constant Matrix: (Units=GPa)
#
#
# Indices 1 2 3 4 5 6 
#
# 1 126.6470 31.4729 50.9501 0.0000 0.0000 0.0000
# 2 31.4729 65.3815 28.6776 0.0000 0.0000 0.0000
# 3 50.9501 28.6776 95.5146 0.0000 0.0000 0.0000
# 4 0.0000 0.0000 0.0000 24.5894 0.0000 0.0000
# 5 0.0000 0.0000 0.0000 0.0000 31.8151 0.0000
# 6 0.0000 0.0000 0.0000 0.0000 0.0000 6.8913
#
#
#
# Elastic Compliance Matrix: (Units=1/GPa)
#
#
# Indices 1 2 3 4 5 6 
#
# 1 0.010542 -0.003004 -0.004722 0.000000 0.000000 0.000000
# 2 -0.003004 0.018470 -0.003943 0.000000 0.000000 0.000000
# 3 -0.004722 -0.003943 0.014172 0.000000 0.000000 0.000000
# 4 0.000000 0.000000 0.000000 0.040668 0.000000 0.000000
# 5 0.000000 0.000000 0.000000 0.000000 0.031432 0.000000
# 6 0.000000 0.000000 0.000000 0.000000 0.000000 0.145111
#
#
# Mechanical properties :
#
#
# Convention : Reuss Voigt Hill
#
# Bulk Modulus (GPa) = 50.38455 56.63826 53.51140
# Shear Modulus (GPa) = 17.22071 24.42200 20.82136
#
# Velocity S-wave (km/s) = 2.91016 3.46562 3.19997
# Velocity P-wave (km/s) = 6.00589 6.62332 6.32215
#
# Compressibility (1/GPa) = 0.01984735
#
# Stress axis : x y z
#
# Youngs Moduli (GPa) = 94.86003 54.14088 70.56090
#
# Poissons Ratio (x) = 0.16262 0.33315
# Poissons Ratio (y) = 0.28492 0.27825
# Poissons Ratio (z) = 0.44788 0.21350
#
# Static dielectric constant tensor:
#      x y z
#    x 3.948020 0.000000 0.000000 
#    y 0.000000 3.363530 0.000000 
#    z 0.000000 0.000000 4.403950 
# 
# 
# High freq. dielectric constant tensor:
#      x y z
#    x 1.803680 0.000000 0.000000 
#    y 0.000000 1.756070 0.000000 
#    z 0.000000 0.000000 1.808310 
# 
# From -- ./inp_files/17021.got.cif
#   From: 2010.03.12/outbox.cif.g09.slc.cpg/sg57_9_cif.got.tgz:17021.got - 2010.04.16 15:48:40.
