data_PCOD8231822
_publ_section_title
;
Structure prediction by ZEFSAII (Michael W. Deem and Ramdas Pophale) SiO2 
 PCOD8231822
Probable space group: P B C M
;
_chemical_formula_sum "Si O2"
_cell_formula_units_Z 64
_cell_length_a 20.715840
_cell_length_b 9.029094
_cell_length_c 16.789250
_cell_angle_alpha 90.000000
_cell_angle_beta 90.000000
_cell_angle_gamma 90.000000
_cell_volume 3140.349743
_symmetry_space_group_name_H-M "P B C M"
_symmetry_group_IT_number 57
_symmetry_cell_setting 'orthorhombic'
loop_
_space_group_symop_operation_xyz
x,y,z
-x,-y,1/2+z
x,1/2-y,-z
-x,1/2+y,1/2-z
-x,-y,-z
x,y,1/2-z
-x,1/2+y,z
x,1/2-y,1/2+z
loop_
_atom_site_type_symbol
_atom_site_label
_atom_site_fract_x
_atom_site_fract_y
_atom_site_fract_z
Si Si1 0.202049 0.587181 0.337387
Si Si2 0.686508 0.782323 0.592498
Si Si3 0.573967 0.541060 0.156728
Si Si4 0.953865 0.783558 0.090962
Si Si5 0.179396 0.239463 0.161329
Si Si6 0.660694 0.034772 0.344193
Si Si7 0.065356 0.600107 0.343506
Si Si8 0.545314 0.221301 0.092828
O O1 0.211769 0.654716 0.250000
O O2 0.187105 0.413870 0.332881
O O3 0.271969 0.606435 0.379629
O O4 0.136670 0.658961 0.374547
O O5 0.681374 0.750000 0.500000
O O6 0.641795 0.921438 0.614791
O O7 0.759871 0.828771 0.613910
O O8 0.661700 0.641178 0.642441
O O9 0.580055 0.566685 0.250000
O O10 0.556793 0.371599 0.140353
O O11 0.520537 0.650444 0.122381
O O12 0.887146 0.702435 0.115582
O O13 0.012461 0.725224 0.144791
O O14 0.953378 0.958243 0.104663
O O15 0.969220 0.750000 0.000000
O O16 0.176753 0.169955 0.250000
O O17 0.652652 0.063749 0.250000
O O18 0.602868 0.106461 0.392480
O O19 0.070997 0.557517 0.250000
O O20 0.539169 0.250000 0.000000
#
# Coordination Sequence:
#
# PCOD8231822 Si02
#       8
#     8   8   8   8   8   8   8   8
#     4   7  14  29  53  77 101 138 187 227 265 325
#     4  11  21  36  59  89 118 147 184 235 285 328
#     4  12  24  40  60  85 115 152 191 230 277 338
#     4  11  21  34  53  82 114 146 187 241 290 333
#     4   9  17  33  55  80 109 148 190 229 275 339
#     4  10  19  37  61  83 108 149 195 231 272 338
#     4  10  19  35  55  77 107 149 193 233 279 342
#     4  12  25  42  61  87 118 149 186 236 286 329
#
# _framework density 20.379895999999999
#
# number of rings (size 3 to 8) (size 9 to 14) (size 15 to 20)
#    0.000    1.750    0.000    7.875    0.000    0.000 
#    0.000    1.875    0.000    1.500    0.000    0.000 
#    0.000    0.000    0.000    0.000    0.000    0.000 
#
# Total GULP energy -793341.902197 kJ/mol
# GULP energy per Si atom -12395.967222 kJ/mol
# Density = 2.033351 g / cm^3
# Si number density = 20.379896 Si / 1000 Ang^3
#
#
#
# Elastic Constant Matrix: (Units=GPa)
#
#
# Indices 1 2 3 4 5 6 
#
# 1 122.3931 7.5250 5.8939 0.0000 0.0000 0.0000
# 2 7.5250 29.6096 -9.7655 0.0000 0.0000 0.0000
# 3 5.8939 -9.7655 87.2175 0.0000 0.0000 0.0000
# 4 0.0000 0.0000 0.0000 24.2741 0.0000 0.0000
# 5 0.0000 0.0000 0.0000 0.0000 11.0382 0.0000
# 6 0.0000 0.0000 0.0000 0.0000 0.0000 29.6288
#
#
#
# Elastic Compliance Matrix: (Units=1/GPa)
#
#
# Indices 1 2 3 4 5 6 
#
# 1 0.008358 -0.002399 -0.000833 0.000000 0.000000 0.000000
# 2 -0.002399 0.035756 0.004166 0.000000 0.000000 0.000000
# 3 -0.000833 0.004166 0.011988 0.000000 0.000000 0.000000
# 4 0.000000 0.000000 0.000000 0.041196 0.000000 0.000000
# 5 0.000000 0.000000 0.000000 0.000000 0.090595 0.000000
# 6 0.000000 0.000000 0.000000 0.000000 0.000000 0.033751
#
#
# Mechanical properties :
#
#
# Convention : Reuss Voigt Hill
#
# Bulk Modulus (GPa) = 17.25050 27.39187 22.32119
# Shear Modulus (GPa) = 20.91167 28.69269 24.80218
#
# Velocity S-wave (km/s) = 3.20674 3.75626 3.49233
# Velocity P-wave (km/s) = 4.71103 5.68176 5.21902
#
# Compressibility (1/GPa) = 0.05796932
#
# Stress axis : x y z
#
# Youngs Moduli (GPa) = 119.64546 27.96701 83.41442
#
# Poissons Ratio (x) = 0.06709 0.06952
# Poissons Ratio (y) = 0.28703 -0.34748
# Poissons Ratio (z) = 0.09971 -0.11650
#
# Static dielectric constant tensor:
#      x y z
#    x 4.290490 0.000000 0.000000 
#    y 0.000000 3.381680 0.000000 
#    z 0.000000 0.000000 3.615370 
# 
# 
# High freq. dielectric constant tensor:
#      x y z
#    x 1.825780 0.000000 0.000000 
#    y 0.000000 1.758960 0.000000 
#    z 0.000000 0.000000 1.792420 
# 
# From -- ./inp_files/19532.got.cif
#   From: 2010.03.12/outbox.cif.g09.slc.cpg/sg57_10_cif.got.tgz:19532.got - 2010.04.16 15:48:40.
