data_PCOD8231834
_publ_section_title
;
Structure prediction by ZEFSAII (Michael W. Deem and Ramdas Pophale) SiO2 
 PCOD8231834
Probable space group: P B C M
;
_chemical_formula_sum "Si O2"
_cell_formula_units_Z 56
_cell_length_a 16.611530
_cell_length_b 21.348960
_cell_length_c 8.790339
_cell_angle_alpha 90.000000
_cell_angle_beta 90.000000
_cell_angle_gamma 90.000000
_cell_volume 3117.396061
_symmetry_space_group_name_H-M "P B C M"
_symmetry_group_IT_number 57
_symmetry_cell_setting 'orthorhombic'
loop_
_space_group_symop_operation_xyz
x,y,z
-x,-y,1/2+z
x,1/2-y,-z
-x,1/2+y,1/2-z
-x,-y,-z
x,y,1/2-z
-x,1/2+y,z
x,1/2-y,1/2+z
loop_
_atom_site_type_symbol
_atom_site_label
_atom_site_fract_x
_atom_site_fract_y
_atom_site_fract_z
Si Si1 0.473013 0.591688 0.578826
Si Si2 0.801462 0.369824 0.930492
Si Si3 0.956605 0.560142 0.573254
Si Si4 0.216536 0.009941 0.574675
Si Si5 0.619217 0.537809 0.422233
Si Si6 0.030370 0.816927 0.568783
Si Si7 0.362747 0.685799 0.073014
O O1 0.472787 0.618458 0.750000
O O2 0.565117 0.581886 0.528864
O O3 0.418209 0.530687 0.568046
O O4 0.435105 0.639261 0.460173
O O5 0.799542 0.370711 0.750000
O O6 0.806004 0.441142 0.989959
O O7 0.878474 0.330636 0.986675
O O8 0.721403 0.338166 0.999355
O O9 0.981460 0.562774 0.750000
O O10 0.860754 0.553774 0.554541
O O11 0.000000 0.500000 0.500000
O O12 0.977045 0.625547 0.491894
O O13 0.243707 0.005067 0.750000
O O14 0.289541 0.039192 0.480204
O O15 0.617645 0.563023 0.250000
O O16 0.002552 0.750000 0.500000
O O17 0.022335 0.814239 0.750000
O O18 0.351540 0.694427 0.250000
O O19 0.388651 0.750000 0.000000
#
# Coordination Sequence:
#
# PCOD8231834 Si02
#       7
#     8   8   8   8   8   8   8
#     4  10  20  34  52  76 106 141 179 217 263 319
#     4   9  18  33  53  78 111 149 184 224 274 330
#     4  11  22  37  58  84 114 151 192 237 288 340
#     4  10  19  35  56  80 112 147 183 227 281 333
#     4  10  20  33  53  81 107 136 176 222 271 319
#     4  11  22  39  58  82 114 152 195 238 286 343
#     4  11  21  34  52  75 109 147 184 222 266 320
#
# _framework density 17.963711
#
# number of rings (size 3 to 8) (size 9 to 14) (size 15 to 20)
#    0.000    1.714    2.857    2.571    0.000    2.286 
#    0.000    2.143    0.000    0.857    0.000    2.000 
#    0.000    0.000    0.000    0.000    0.000    0.000 
#
# Total GULP energy -694426.531854 kJ/mol
# GULP energy per Si atom -12400.473783 kJ/mol
# Density = 1.792283 g / cm^3
# Si number density = 17.963711 Si / 1000 Ang^3
#
#
#
# Elastic Constant Matrix: (Units=GPa)
#
#
# Indices 1 2 3 4 5 6 
#
# 1 93.0294 34.9264 38.5032 0.0000 0.0000 0.0000
# 2 34.9264 85.8599 36.0032 0.0000 0.0000 0.0000
# 3 38.5032 36.0032 85.5853 0.0000 0.0000 0.0000
# 4 0.0000 0.0000 0.0000 28.1709 0.0000 0.0000
# 5 0.0000 0.0000 0.0000 0.0000 29.4628 0.0000
# 6 0.0000 0.0000 0.0000 0.0000 0.0000 5.0915
#
#
#
# Elastic Compliance Matrix: (Units=1/GPa)
#
#
# Indices 1 2 3 4 5 6 
#
# 1 0.014135 -0.003744 -0.004784 0.000000 0.000000 0.000000
# 2 -0.003744 0.015133 -0.004682 0.000000 0.000000 0.000000
# 3 -0.004784 -0.004682 0.015806 0.000000 0.000000 0.000000
# 4 0.000000 0.000000 0.000000 0.035498 0.000000 0.000000
# 5 0.000000 0.000000 0.000000 0.000000 0.033941 0.000000
# 6 0.000000 0.000000 0.000000 0.000000 0.000000 0.196405
#
#
# Mechanical properties :
#
#
# Convention : Reuss Voigt Hill
#
# Bulk Modulus (GPa) = 53.60604 53.70445 53.65524
# Shear Modulus (GPa) = 14.55373 22.88116 18.71745
#
# Velocity S-wave (km/s) = 2.84944 3.57283 3.23144
# Velocity P-wave (km/s) = 6.38215 6.85428 6.62242
#
# Compressibility (1/GPa) = 0.01865462
#
# Stress axis : x y z
#
# Youngs Moduli (GPa) = 70.74695 66.08096 63.26706
#
# Poissons Ratio (x) = 0.24739 0.30268
# Poissons Ratio (y) = 0.26486 0.29620
# Poissons Ratio (z) = 0.33846 0.30937
#
# Static dielectric constant tensor:
#      x y z
#    x 3.338370 0.000000 0.000000 
#    y 0.000000 3.213190 0.000000 
#    z 0.000000 0.000000 3.311420 
# 
# 
# High freq. dielectric constant tensor:
#      x y z
#    x 1.693950 0.000000 0.000000 
#    y 0.000000 1.677940 0.000000 
#    z 0.000000 0.000000 1.696580 
# 
# From -- ./inp_files/5194.got.cif
#   From: 2010.03.12/outbox.cif.g09.slc.cpg/sg57_3_cif.got.tgz:5194.got - 2010.04.16 15:48:40.
