data_PCOD8231127
_publ_section_title
;
Structure prediction by ZEFSAII (Michael W. Deem and Ramdas Pophale) SiO2 
 PCOD8231127
Probable space group: P B C M
;
_chemical_formula_sum "Si O2"
_cell_formula_units_Z 64
_cell_length_a 15.615718
_cell_length_b 28.402246
_cell_length_c 8.444611
_cell_angle_alpha 90.000000
_cell_angle_beta 90.000000
_cell_angle_gamma 90.000000
_cell_volume 3745.366234
_symmetry_space_group_name_H-M "P B C M"
_symmetry_group_IT_number 57
_symmetry_cell_setting 'orthorhombic'
loop_
_space_group_symop_operation_xyz
x,y,z
-x,-y,1/2+z
x,1/2-y,-z
-x,1/2+y,1/2-z
-x,-y,-z
x,y,1/2-z
-x,1/2+y,z
x,1/2-y,1/2+z
loop_
_atom_site_type_symbol
_atom_site_label
_atom_site_fract_x
_atom_site_fract_y
_atom_site_fract_z
Si Si1 0.995757 0.948587 0.934450
Si Si2 0.506905 0.447967 0.565657
Si Si3 0.411663 0.798469 0.434651
Si Si4 0.188661 0.054446 0.435312
Si Si5 0.598066 0.800484 0.564464
Si Si6 0.331870 0.895355 0.068341
Si Si7 0.819650 0.048726 0.433812
Si Si8 0.651266 0.894989 0.067390
O O1 0.983860 0.952170 0.750000
O O2 0.088414 0.925907 0.978914
O O3 0.905642 0.925887 0.993313
O O4 0.000000 0.000000 0.000000
O O5 0.500000 0.500000 0.500000
O O6 0.530261 0.448933 0.750000
O O7 0.581079 0.421972 0.471015
O O8 0.417740 0.421344 0.541185
O O9 0.370717 0.750000 0.500000
O O10 0.435127 0.793754 0.250000
O O11 0.498332 0.809654 0.529017
O O12 0.343843 0.839865 0.465533
O O13 0.205903 0.063670 0.250000
O O14 0.256135 0.082869 0.538846
O O15 0.197277 0.998431 0.465843
O O16 0.628171 0.750000 0.500000
O O17 0.614566 0.803268 0.750000
O O18 0.654567 0.840080 0.478148
O O19 0.308984 0.904732 0.250000
O O20 0.253629 0.913153 0.963047
O O21 0.820037 0.034238 0.250000
O O22 0.625337 0.901130 0.250000
#
# Coordination Sequence:
#
# PCOD8231127 Si02
#       8
#     8   8   8   8   8   8   8   8
#     4   8  16  30  49  71  97 128 165 208 251 294
#     4  12  24  37  51  68  96 136 173 207 245 292
#     4  10  20  34  53  73  98 127 164 209 253 295
#     4  10  19  33  51  73 101 134 170 208 252 300
#     4  11  21  35  55  76  99 129 166 208 255 298
#     4  11  22  35  50  72 101 133 167 205 247 296
#     4  10  19  32  50  74 102 134 170 208 249 296
#     4  12  23  36  51  73 102 133 170 209 249 299
#
# _framework density 17.087782000000001
#
# number of rings (size 3 to 8) (size 9 to 14) (size 15 to 20)
#    0.000    1.500    1.250    6.375    0.000    2.500 
#    0.000    0.000    0.000    0.000    0.000    0.875 
#    0.000    2.000    0.000    0.000    0.000    0.000 
#
# Total GULP energy -793358.095161 kJ/mol
# GULP energy per Si atom -12396.220237 kJ/mol
# Density = 1.704889 g / cm^3
# Si number density = 17.087782 Si / 1000 Ang^3
#
#
#
# Elastic Constant Matrix: (Units=GPa)
#
#
# Indices 1 2 3 4 5 6 
#
# 1 110.8861 42.0669 8.6754 0.0000 0.0000 0.0000
# 2 42.0669 90.5048 18.0414 0.0000 0.0000 0.0000
# 3 8.6754 18.0414 50.0133 0.0000 0.0000 0.0000
# 4 0.0000 0.0000 0.0000 22.6257 0.0000 0.0000
# 5 0.0000 0.0000 0.0000 0.0000 18.2219 0.0000
# 6 0.0000 0.0000 0.0000 0.0000 0.0000 3.4964
#
#
#
# Elastic Compliance Matrix: (Units=1/GPa)
#
#
# Indices 1 2 3 4 5 6 
#
# 1 0.010949 -0.005076 -0.000068 0.000000 0.000000 0.000000
# 2 -0.005076 0.014258 -0.004263 0.000000 0.000000 0.000000
# 3 -0.000068 -0.004263 0.021544 0.000000 0.000000 0.000000
# 4 0.000000 0.000000 0.000000 0.044198 0.000000 0.000000
# 5 0.000000 0.000000 0.000000 0.000000 0.054879 0.000000
# 6 0.000000 0.000000 0.000000 0.000000 0.000000 0.286011
#
#
# Mechanical properties :
#
#
# Convention : Reuss Voigt Hill
#
# Bulk Modulus (GPa) = 35.79376 43.21909 39.50643
# Shear Modulus (GPa) = 10.87037 21.04348 15.95693
#
# Velocity S-wave (km/s) = 2.52494 3.51307 3.05916
# Velocity P-wave (km/s) = 5.43073 6.46551 5.97058
#
# Compressibility (1/GPa) = 0.02793783
#
# Stress axis : x y z
#
# Youngs Moduli (GPa) = 91.33143 70.13582 46.41601
#
# Poissons Ratio (x) = 0.35598 0.00317
# Poissons Ratio (y) = 0.46356 0.19787
# Poissons Ratio (z) = 0.00624 0.29898
#
# Static dielectric constant tensor:
#      x y z
#    x 3.618940 0.000000 0.000000 
#    y 0.000000 3.161440 0.000000 
#    z 0.000000 0.000000 3.256920 
# 
# 
# High freq. dielectric constant tensor:
#      x y z
#    x 1.651500 0.000000 0.000000 
#    y 0.000000 1.635990 0.000000 
#    z 0.000000 0.000000 1.677000 
# 
# From -- ./inp_files/6010.got.cif
#   From: 2010.03.12/outbox.cif.g09.slc.cpg/sg57_4_cif.got.tgz:6010.got - 2010.04.16 15:48:40.
