data_PCOD8231736
_publ_section_title
;
Structure prediction by ZEFSAII (Michael W. Deem and Ramdas Pophale) SiO2 
 PCOD8231736
Probable space group: P B C M
;
_chemical_formula_sum "Si O2"
_cell_formula_units_Z 64
_cell_length_a 20.019704
_cell_length_b 16.373488
_cell_length_c 10.198919
_cell_angle_alpha 90.000000
_cell_angle_beta 90.000000
_cell_angle_gamma 90.000000
_cell_volume 3343.127965
_symmetry_space_group_name_H-M "P B C M"
_symmetry_group_IT_number 57
_symmetry_cell_setting 'orthorhombic'
loop_
_space_group_symop_operation_xyz
x,y,z
-x,-y,1/2+z
x,1/2-y,-z
-x,1/2+y,1/2-z
-x,-y,-z
x,y,1/2-z
-x,1/2+y,z
x,1/2-y,1/2+z
loop_
_atom_site_type_symbol
_atom_site_label
_atom_site_fract_x
_atom_site_fract_y
_atom_site_fract_z
Si Si1 0.496164 0.074321 0.399816
Si Si2 0.643380 0.095431 0.397282
Si Si3 0.292478 0.480918 0.604434
Si Si4 0.042145 0.050116 0.898104
Si Si5 0.632566 0.678188 0.100808
Si Si6 0.941565 0.321311 0.103693
Si Si7 0.157226 0.956784 0.004463
Si Si8 0.769670 0.187817 0.393073
O O1 0.485593 0.042508 0.250000
O O2 0.566504 0.122863 0.411652
O O3 0.436889 0.134935 0.439234
O O4 0.500000 0.000000 0.500000
O O5 0.656931 0.061413 0.250000
O O6 0.691146 0.173523 0.421801
O O7 0.660281 0.025331 0.500763
O O8 0.315365 0.508348 0.750000
O O9 0.305545 0.384529 0.587500
O O10 0.214140 0.501540 0.592415
O O11 0.028084 0.019704 0.750000
O O12 0.017996 0.144663 0.911763
O O13 0.119440 0.032286 0.933115
O O14 0.000000 0.000000 0.000000
O O15 0.628143 0.711856 0.250000
O O16 0.647152 0.750000 0.000000
O O17 0.931490 0.284850 0.250000
O O18 0.927536 0.250000 0.000000
O O19 0.892274 0.399011 0.088043
O O20 0.192542 0.898787 0.897241
O O21 0.799577 0.250000 0.500000
O O22 0.780715 0.227374 0.250000
#
# Coordination Sequence:
#
# PCOD8231736 Si02
#       8
#     8   8   8   8   8   8   8   8
#     4  10  19  34  57  83 109 141 186 236 283 339
#     4   9  19  34  53  78 109 144 183 228 281 340
#     4  10  20  36  57  82 110 143 187 235 276 324
#     4   9  19  36  57  82 111 144 184 223 264 318
#     4  10  22  38  56  81 112 145 186 235 287 340
#     4  10  21  36  56  84 114 143 175 217 269 324
#     4  10  20  35  59  81 107 144 186 228 269 322
#     4  10  21  34  49  75 110 146 181 221 271 324
#
# _framework density 19.143747999999999
#
# number of rings (size 3 to 8) (size 9 to 14) (size 15 to 20)
#    0.000    2.250    1.250    1.125    0.000    8.500 
#    0.000    0.625    0.000    3.000    0.000    0.000 
#    0.000    0.000    0.000    0.000    0.000    0.000 
#
# Total GULP energy -793080.114917 kJ/mol
# GULP energy per Si atom -12391.876796 kJ/mol
# Density = 1.910018 g / cm^3
# Si number density = 19.143748 Si / 1000 Ang^3
#
#
#
# Elastic Constant Matrix: (Units=GPa)
#
#
# Indices 1 2 3 4 5 6 
#
# 1 105.8606 47.1822 30.2740 0.0000 0.0000 0.0000
# 2 47.1822 83.1132 56.6887 0.0000 0.0000 0.0000
# 3 30.2740 56.6887 133.9190 0.0000 0.0000 0.0000
# 4 0.0000 0.0000 0.0000 31.4820 0.0000 0.0000
# 5 0.0000 0.0000 0.0000 0.0000 18.8085 0.0000
# 6 0.0000 0.0000 0.0000 0.0000 0.0000 27.2342
#
#
#
# Elastic Compliance Matrix: (Units=1/GPa)
#
#
# Indices 1 2 3 4 5 6 
#
# 1 0.012652 -0.007355 0.000253 0.000000 0.000000 0.000000
# 2 -0.007355 0.021192 -0.007308 0.000000 0.000000 0.000000
# 3 0.000253 -0.007308 0.010503 0.000000 0.000000 0.000000
# 4 0.000000 0.000000 0.000000 0.031764 0.000000 0.000000
# 5 0.000000 0.000000 0.000000 0.000000 0.053167 0.000000
# 6 0.000000 0.000000 0.000000 0.000000 0.000000 0.036719
#
#
# Mechanical properties :
#
#
# Convention : Reuss Voigt Hill
#
# Bulk Modulus (GPa) = 64.40079 65.68697 65.04388
# Shear Modulus (GPa) = 25.00091 28.08814 26.54453
#
# Velocity S-wave (km/s) = 3.61772 3.83459 3.72773
# Velocity P-wave (km/s) = 7.15292 7.34795 7.25109
#
# Compressibility (1/GPa) = 0.01552776
#
# Stress axis : x y z
#
# Youngs Moduli (GPa) = 79.03772 47.18837 95.20766
#
# Poissons Ratio (x) = 0.34708 -0.02412
# Poissons Ratio (y) = 0.58134 0.69576
# Poissons Ratio (z) = -0.02002 0.34484
#
# Static dielectric constant tensor:
#      x y z
#    x 3.987810 0.000000 0.000000 
#    y 0.000000 3.259020 0.000000 
#    z 0.000000 0.000000 3.615880 
# 
# 
# High freq. dielectric constant tensor:
#      x y z
#    x 1.754350 0.000000 0.000000 
#    y 0.000000 1.706390 0.000000 
#    z 0.000000 0.000000 1.757330 
# 
# From -- ./inp_files/8383.got.cif
#   From: 2010.03.12/outbox.cif.g09.slc.cpg/sg57_5_cif.got.tgz:8383.got - 2010.04.16 15:48:40.
