data_PCOD8231060
_publ_section_title
;
Structure prediction by ZEFSAII (Michael W. Deem and Ramdas Pophale) SiO2 
 PCOD8231060
Probable space group: P B C M
;
_chemical_formula_sum "Si O2"
_cell_formula_units_Z 56
_cell_length_a 14.013486
_cell_length_b 24.139346
_cell_length_c 9.372206
_cell_angle_alpha 90.000000
_cell_angle_beta 90.000000
_cell_angle_gamma 90.000000
_cell_volume 3170.395986
_symmetry_space_group_name_H-M "P B C M"
_symmetry_group_IT_number 57
_symmetry_cell_setting 'orthorhombic'
loop_
_space_group_symop_operation_xyz
x,y,z
-x,-y,1/2+z
x,1/2-y,-z
-x,1/2+y,1/2-z
-x,-y,-z
x,y,1/2-z
-x,1/2+y,z
x,1/2-y,1/2+z
loop_
_atom_site_type_symbol
_atom_site_label
_atom_site_fract_x
_atom_site_fract_y
_atom_site_fract_z
Si Si1 0.671278 0.625396 0.581934
Si Si2 0.781518 0.520506 0.919670
Si Si3 0.497307 0.695520 0.583370
Si Si4 0.847442 0.805036 0.417517
Si Si5 0.720396 0.304590 0.416188
Si Si6 0.961532 0.910746 0.082439
Si Si7 0.825112 0.416133 0.419302
O O1 0.684321 0.623659 0.750000
O O2 0.698703 0.563545 0.528874
O O3 0.564738 0.643900 0.536070
O O4 0.746590 0.670919 0.525475
O O5 0.779008 0.510737 0.750000
O O6 0.883925 0.544763 0.972387
O O7 0.763024 0.463094 0.001655
O O8 0.530676 0.750000 0.500000
O O9 0.510515 0.708049 0.750000
O O10 0.388888 0.680009 0.545320
O O11 0.874094 0.750000 0.500000
O O12 0.844439 0.792393 0.250000
O O13 0.929535 0.848859 0.457375
O O14 0.754228 0.250000 0.500000
O O15 0.731829 0.291414 0.250000
O O16 0.784638 0.356244 0.463442
O O17 0.967017 0.916521 0.250000
O O18 0.066977 0.921031 0.020010
O O19 0.817203 0.424755 0.250000
#
# Coordination Sequence:
#
# PCOD8231060 Si02
#       7
#     8   8   8   8   8   8   8
#     4   8  15  28  46  65  89 118 145 175 219 266
#     4   9  17  31  49  68  87 114 151 184 213 260
#     4   9  16  29  48  68  89 117 149 181 216 259
#     4   9  16  27  42  63  89 116 144 178 219 264
#     4   9  19  33  49  68  91 117 148 182 218 259
#     4   8  16  30  46  62  87 120 150 179 218 263
#     4  10  19  32  48  66  89 118 146 181 225 259
#
# _framework density 17.663408
#
# number of rings (size 3 to 8) (size 9 to 14) (size 15 to 20)
#    0.000    3.143    0.000    2.571    0.000    1.143 
#    0.000    5.000    0.000    0.000    0.000    0.000 
#    0.000    0.000    0.000    0.000    0.000    0.000 
#
# Total GULP energy -694095.084334 kJ/mol
# GULP energy per Si atom -12394.555077 kJ/mol
# Density = 1.762321 g / cm^3
# Si number density = 17.663408 Si / 1000 Ang^3
#
#
#
# Elastic Constant Matrix: (Units=GPa)
#
#
# Indices 1 2 3 4 5 6 
#
# 1 67.4428 43.0230 19.3321 0.0000 0.0000 0.0000
# 2 43.0230 135.2535 43.5526 0.0000 0.0000 0.0000
# 3 19.3321 43.5526 33.7842 0.0000 0.0000 0.0000
# 4 0.0000 0.0000 0.0000 33.7968 0.0000 0.0000
# 5 0.0000 0.0000 0.0000 0.0000 15.3786 0.0000
# 6 0.0000 0.0000 0.0000 0.0000 0.0000 23.1470
#
#
#
# Elastic Compliance Matrix: (Units=1/GPa)
#
#
# Indices 1 2 3 4 5 6 
#
# 1 0.019143 -0.004380 -0.005307 0.000000 0.000000 0.000000
# 2 -0.004380 0.013643 -0.015081 0.000000 0.000000 0.000000
# 3 -0.005307 -0.015081 0.052079 0.000000 0.000000 0.000000
# 4 0.000000 0.000000 0.000000 0.029589 0.000000 0.000000
# 5 0.000000 0.000000 0.000000 0.000000 0.065025 0.000000
# 6 0.000000 0.000000 0.000000 0.000000 0.000000 0.043202
#
#
# Mechanical properties :
#
#
# Convention : Reuss Voigt Hill
#
# Bulk Modulus (GPa) = 28.30716 49.81066 39.05891
# Shear Modulus (GPa) = 17.60597 23.16934 20.38766
#
# Velocity S-wave (km/s) = 3.16056 3.62569 3.40108
# Velocity P-wave (km/s) = 5.42029 6.76673 6.13058
#
# Compressibility (1/GPa) = 0.03532675
#
# Stress axis : x y z
#
# Youngs Moduli (GPa) = 52.23865 73.29669 19.20170
#
# Poissons Ratio (x) = 0.32105 0.10191
# Poissons Ratio (y) = 0.22882 0.28959
# Poissons Ratio (z) = 0.27725 1.10542
#
# Static dielectric constant tensor:
#      x y z
#    x 3.521570 0.000000 0.000000 
#    y 0.000000 3.284700 0.000000 
#    z 0.000000 0.000000 2.943100 
# 
# 
# High freq. dielectric constant tensor:
#      x y z
#    x 1.677530 0.000000 0.000000 
#    y 0.000000 1.684060 0.000000 
#    z 0.000000 0.000000 1.649030 
# 
# From -- ./inp_files/13073.got.cif
#   From: 2010.03.12/outbox.cif.g09.slc.cpg/sg57_7_cif.got.tgz:13073.got - 2010.04.16 15:48:40.
