data_PCOD8231396
_publ_section_title
;
Structure prediction by ZEFSAII (Michael W. Deem and Ramdas Pophale) SiO2 
 PCOD8231396
Probable space group: P B C M
;
_chemical_formula_sum "Si O2"
_cell_formula_units_Z 48
_cell_length_a 15.651692
_cell_length_b 17.936111
_cell_length_c 8.997354
_cell_angle_alpha 90.000000
_cell_angle_beta 90.000000
_cell_angle_gamma 90.000000
_cell_volume 2525.831553
_symmetry_space_group_name_H-M "P B C M"
_symmetry_group_IT_number 57
_symmetry_cell_setting 'orthorhombic'
loop_
_space_group_symop_operation_xyz
x,y,z
-x,-y,1/2+z
x,1/2-y,-z
-x,1/2+y,1/2-z
-x,-y,-z
x,y,1/2-z
-x,1/2+y,z
x,1/2-y,1/2+z
loop_
_atom_site_type_symbol
_atom_site_label
_atom_site_fract_x
_atom_site_fract_y
_atom_site_fract_z
Si Si1 0.489126 0.828015 0.427115
Si Si2 0.172225 0.404415 0.584601
Si Si3 0.821933 0.082034 0.919806
Si Si4 0.348653 0.928142 0.926669
Si Si5 0.336966 0.098952 0.923299
Si Si6 0.988018 0.420704 0.574149
O O1 0.464137 0.750000 0.500000
O O2 0.478813 0.824510 0.250000
O O3 0.427925 0.890434 0.493073
O O4 0.585314 0.849160 0.476398
O O5 0.195554 0.379749 0.750000
O O6 0.170770 0.493411 0.570203
O O7 0.247018 0.369430 0.484626
O O8 0.076561 0.374963 0.543241
O O9 0.815972 0.110005 0.750000
O O10 0.738512 0.108502 0.010556
O O11 0.905849 0.118686 0.998060
O O12 0.353227 0.916852 0.750000
O O13 0.353658 0.014428 0.975508
O O14 0.327836 0.101005 0.750000
O O15 0.972647 0.430358 0.750000
O O16 0.000000 0.500000 0.500000
#
# Coordination Sequence:
#
# PCOD8231396 Si02
#       6
#     8   8   8   8   8   8
#     4  11  23  38  53  73  99 129 165 206 249 298
#     4   8  15  25  40  64  95 128 162 198 240 286
#     4   9  16  26  41  65  96 130 163 199 240 288
#     4  10  19  33  53  76 100 130 164 204 250 296
#     4   9  19  33  51  74 100 129 165 205 247 294
#     4   9  15  23  36  60  94 130 163 198 240 288
#
# _framework density 19.003641999999999
#
# number of rings (size 3 to 8) (size 9 to 14) (size 15 to 20)
#    0.000    2.667    0.000    3.500    0.000    6.667 
#    0.000    0.000    0.000    0.000    0.000    1.167 
#    0.000    5.333    0.000    0.000    0.000    0.000 
#
# Total GULP energy -594891.605400 kJ/mol
# GULP energy per Si atom -12393.575112 kJ/mol
# Density = 1.896039 g / cm^3
# Si number density = 19.003642 Si / 1000 Ang^3
#
#
#
# Elastic Constant Matrix: (Units=GPa)
#
#
# Indices 1 2 3 4 5 6 
#
# 1 103.8917 6.2609 46.8005 0.0000 0.0000 0.0000
# 2 6.2609 18.6728 16.2345 0.0000 0.0000 0.0000
# 3 46.8005 16.2345 84.2761 0.0000 0.0000 0.0000
# 4 0.0000 0.0000 0.0000 14.6473 0.0000 0.0000
# 5 0.0000 0.0000 0.0000 0.0000 42.5481 0.0000
# 6 0.0000 0.0000 0.0000 0.0000 0.0000 2.7383
#
#
#
# Elastic Compliance Matrix: (Units=1/GPa)
#
#
# Indices 1 2 3 4 5 6 
#
# 1 0.012918 0.002289 -0.007614 0.000000 0.000000 0.000000
# 2 0.002289 0.064733 -0.013741 0.000000 0.000000 0.000000
# 3 -0.007614 -0.013741 0.018741 0.000000 0.000000 0.000000
# 4 0.000000 0.000000 0.000000 0.068272 0.000000 0.000000
# 5 0.000000 0.000000 0.000000 0.000000 0.023503 0.000000
# 6 0.000000 0.000000 0.000000 0.000000 0.000000 0.365193
#
#
# Mechanical properties :
#
#
# Convention : Reuss Voigt Hill
#
# Bulk Modulus (GPa) = 17.16473 38.38137 27.77305
# Shear Modulus (GPa) = 8.18449 21.15638 14.67044
#
# Velocity S-wave (km/s) = 2.07753 3.34021 2.78147
# Velocity P-wave (km/s) = 3.84796 5.92593 4.99617
#
# Compressibility (1/GPa) = 0.05825899
#
# Stress axis : x y z
#
# Youngs Moduli (GPa) = 77.41429 15.44808 53.35869
#
# Poissons Ratio (x) = -0.03536 0.40629
# Poissons Ratio (y) = -0.17719 0.73319
# Poissons Ratio (z) = 0.58945 0.21227
#
# Static dielectric constant tensor:
#      x y z
#    x -9.077720 0.000000 0.000000 
#    y 0.000000 2.962490 0.000000 
#    z 0.000000 0.000000 3.548020 
# 
# 
# High freq. dielectric constant tensor:
#      x y z
#    x 1.766410 0.000000 0.000000 
#    y 0.000000 1.664170 0.000000 
#    z 0.000000 0.000000 1.747810 
# 
# From -- ./inp_files/4831.got.cif
#   From: 2010.03.12/outbox.cif.g09.slc.cpg/sg57_3_cif.got.tgz:4831.got - 2010.04.16 15:48:40.
