data_PCOD8231548
_publ_section_title
;
Structure prediction by ZEFSAII (Michael W. Deem and Ramdas Pophale) SiO2 
 PCOD8231548
Probable space group: P B C M
;
_chemical_formula_sum "Si O2"
_cell_formula_units_Z 48
_cell_length_a 15.504326
_cell_length_b 18.004363
_cell_length_c 8.758923
_cell_angle_alpha 90.000000
_cell_angle_beta 90.000000
_cell_angle_gamma 90.000000
_cell_volume 2445.014057
_symmetry_space_group_name_H-M "P B C M"
_symmetry_group_IT_number 57
_symmetry_cell_setting 'orthorhombic'
loop_
_space_group_symop_operation_xyz
x,y,z
-x,-y,1/2+z
x,1/2-y,-z
-x,1/2+y,1/2-z
-x,-y,-z
x,y,1/2-z
-x,1/2+y,z
x,1/2-y,1/2+z
loop_
_atom_site_type_symbol
_atom_site_label
_atom_site_fract_x
_atom_site_fract_y
_atom_site_fract_z
Si Si1 0.664106 0.671950 0.430379
Si Si2 0.006598 0.921521 0.073934
Si Si3 0.484999 0.079948 0.569020
Si Si4 0.653155 0.169447 0.929881
Si Si5 0.178391 0.402897 0.429949
Si Si6 0.806960 0.434920 0.429988
O O1 0.634830 0.750000 0.500000
O O2 0.654910 0.675181 0.250000
O O3 0.603392 0.608622 0.497984
O O4 0.761597 0.653521 0.477925
O O5 0.998300 0.937327 0.250000
O O6 0.920137 0.876100 0.026487
O O7 0.102439 0.889860 0.035999
O O8 0.000000 0.000000 0.000000
O O9 0.476970 0.074495 0.750000
O O10 0.562626 0.134063 0.519083
O O11 0.500000 0.000000 0.500000
O O12 0.659196 0.177321 0.750000
O O13 0.730118 0.116889 0.990601
O O14 0.663552 0.250000 0.000000
O O15 0.197299 0.395742 0.250000
O O16 0.196142 0.487543 0.480485
O O17 0.796925 0.452133 0.250000
#
# Coordination Sequence:
#
# PCOD8231548 Si02
#       6
#     8   8   8   8   8   8
#     4  12  25  41  59  81 111 149 188 233 286 339
#     4   8  15  28  50  78 110 143 180 226 274 322
#     4  11  23  40  62  89 115 144 182 225 273 330
#     4  10  22  37  55  79 110 145 180 217 266 321
#     4  10  19  33  55  84 112 144 186 231 278 333
#     4   9  17  33  55  81 112 147 185 228 274 325
#
# _framework density 19.631789000000001
#
# number of rings (size 3 to 8) (size 9 to 14) (size 15 to 20)
#    0.000    2.000    0.000    4.000    0.000    5.333 
#    0.000    0.833    0.000    2.000    0.000    0.000 
#    0.000    0.000    0.000    0.000    0.000    0.000 
#
# Total GULP energy -594896.407693 kJ/mol
# GULP energy per Si atom -12393.675160 kJ/mol
# Density = 1.958711 g / cm^3
# Si number density = 19.631789 Si / 1000 Ang^3
#
#
#
# Elastic Constant Matrix: (Units=GPa)
#
#
# Indices 1 2 3 4 5 6 
#
# 1 108.6224 15.1903 35.0029 0.0000 0.0000 0.0000
# 2 15.1903 71.1547 27.2392 0.0000 0.0000 0.0000
# 3 35.0029 27.2392 70.9437 0.0000 0.0000 0.0000
# 4 0.0000 0.0000 0.0000 34.2524 0.0000 0.0000
# 5 0.0000 0.0000 0.0000 0.0000 23.2053 0.0000
# 6 0.0000 0.0000 0.0000 0.0000 0.0000 20.0352
#
#
#
# Elastic Compliance Matrix: (Units=1/GPa)
#
#
# Indices 1 2 3 4 5 6 
#
# 1 0.010953 -0.000316 -0.005283 0.000000 0.000000 0.000000
# 2 -0.000316 0.016485 -0.006173 0.000000 0.000000 0.000000
# 3 -0.005283 -0.006173 0.019072 0.000000 0.000000 0.000000
# 4 0.000000 0.000000 0.000000 0.029195 0.000000 0.000000
# 5 0.000000 0.000000 0.000000 0.000000 0.043094 0.000000
# 6 0.000000 0.000000 0.000000 0.000000 0.000000 0.049912
#
#
# Mechanical properties :
#
#
# Convention : Reuss Voigt Hill
#
# Bulk Modulus (GPa) = 43.54330 45.06506 44.30418
# Shear Modulus (GPa) = 25.01128 27.05114 26.03121
#
# Velocity S-wave (km/s) = 3.57321 3.71607 3.64534
# Velocity P-wave (km/s) = 6.26514 6.43562 6.35095
#
# Compressibility (1/GPa) = 0.02296565
#
# Stress axis : x y z
#
# Youngs Moduli (GPa) = 91.30188 60.66257 52.43178
#
# Poissons Ratio (x) = 0.01917 0.27698
# Poissons Ratio (y) = 0.02885 0.32369
# Poissons Ratio (z) = 0.48231 0.37450
#
# Static dielectric constant tensor:
#      x y z
#    x 4.601620 0.000000 0.000000 
#    y 0.000000 3.294030 0.000000 
#    z 0.000000 0.000000 3.580400 
# 
# 
# High freq. dielectric constant tensor:
#      x y z
#    x 1.794420 0.000000 0.000000 
#    y 0.000000 1.737620 0.000000 
#    z 0.000000 0.000000 1.766790 
# 
# From -- ./inp_files/4540.got.cif
#   From: 2010.03.12/outbox.cif.g09.slc.cpg/sg57_3_cif.got.tgz:4540.got - 2010.04.16 15:48:40.
