data_PCOD8231663
_publ_section_title
;
Structure prediction by ZEFSAII (Michael W. Deem and Ramdas Pophale) SiO2 
 PCOD8231663
Probable space group: P B C M
;
_chemical_formula_sum "Si O2"
_cell_formula_units_Z 56
_cell_length_a 16.583538
_cell_length_b 21.302300
_cell_length_c 8.768183
_cell_angle_alpha 90.000000
_cell_angle_beta 90.000000
_cell_angle_gamma 90.000000
_cell_volume 3097.514101
_symmetry_space_group_name_H-M "P B C M"
_symmetry_group_IT_number 57
_symmetry_cell_setting 'orthorhombic'
loop_
_space_group_symop_operation_xyz
x,y,z
-x,-y,1/2+z
x,1/2-y,-z
-x,1/2+y,1/2-z
-x,-y,-z
x,y,1/2-z
-x,1/2+y,z
x,1/2-y,1/2+z
loop_
_atom_site_type_symbol
_atom_site_label
_atom_site_fract_x
_atom_site_fract_y
_atom_site_fract_z
Si Si1 0.855748 0.816529 0.572799
Si Si2 0.873466 0.472291 0.072382
Si Si3 0.453007 0.315111 0.069517
Si Si4 0.298487 0.986977 0.930403
Si Si5 0.693532 0.620393 0.430910
Si Si6 0.014693 0.411633 0.572612
Si Si7 0.452347 0.558842 0.569838
O O1 0.847523 0.750000 0.500000
O O2 0.846482 0.806893 0.750000
O O3 0.783837 0.861639 0.518153
O O4 0.942418 0.846168 0.531509
O O5 0.852572 0.469828 0.250000
O O6 0.920819 0.535180 0.026426
O O7 0.790862 0.467701 0.980744
O O8 0.932530 0.415136 0.024833
O O9 0.444032 0.308066 0.250000
O O10 0.508856 0.374236 0.025059
O O11 0.488272 0.250000 0.000000
O O12 0.365886 0.326267 0.993413
O O13 0.304410 0.985256 0.750000
O O14 0.326125 0.054930 0.988980
O O15 0.361973 0.938158 0.002237
O O16 0.684538 0.612690 0.250000
O O17 0.992542 0.417587 0.750000
O O18 0.500000 0.500000 0.500000
O O19 0.450200 0.549594 0.750000
#
# Coordination Sequence:
#
# PCOD8231663 Si02
#       7
#     8   8   8   8   8   8   8
#     4  10  21  35  51  76 111 150 186 224 271 327
#     4  10  19  34  55  79 107 140 179 225 278 327
#     4  11  24  40  59  85 115 153 195 236 287 348
#     4  12  23  35  56  85 116 150 188 233 287 342
#     4  11  21  36  56  80 115 154 190 235 283 334
#     4   9  18  34  52  76 108 141 180 223 271 324
#     4  11  23  39  60  86 116 151 193 238 287 343
#
# _framework density 18.079013
#
# number of rings (size 3 to 8) (size 9 to 14) (size 15 to 20)
#    0.000    1.429    2.857    3.429    0.000    5.143 
#    0.000    0.000    0.000    0.857    0.000    6.000 
#    0.000    0.000    0.000    0.000    0.000    0.000 
#
# Total GULP energy -694480.170047 kJ/mol
# GULP energy per Si atom -12401.431608 kJ/mol
# Density = 1.803786 g / cm^3
# Si number density = 18.079013 Si / 1000 Ang^3
#
#
#
# Elastic Constant Matrix: (Units=GPa)
#
#
# Indices 1 2 3 4 5 6 
#
# 1 102.1297 46.4846 47.5895 0.0000 0.0000 0.0000
# 2 46.4846 91.0709 49.1735 0.0000 0.0000 0.0000
# 3 47.5895 49.1735 87.8497 0.0000 0.0000 0.0000
# 4 0.0000 0.0000 0.0000 29.5920 0.0000 0.0000
# 5 0.0000 0.0000 0.0000 0.0000 32.7654 0.0000
# 6 0.0000 0.0000 0.0000 0.0000 0.0000 19.1593
#
#
#
# Elastic Compliance Matrix: (Units=1/GPa)
#
#
# Indices 1 2 3 4 5 6 
#
# 1 0.014255 -0.004452 -0.005230 0.000000 0.000000 0.000000
# 2 -0.004452 0.017127 -0.007175 0.000000 0.000000 0.000000
# 3 -0.005230 -0.007175 0.018232 0.000000 0.000000 0.000000
# 4 0.000000 0.000000 0.000000 0.033793 0.000000 0.000000
# 5 0.000000 0.000000 0.000000 0.000000 0.030520 0.000000
# 6 0.000000 0.000000 0.000000 0.000000 0.000000 0.052194
#
#
# Mechanical properties :
#
#
# Convention : Reuss Voigt Hill
#
# Bulk Modulus (GPa) = 62.89277 63.06063 62.97670
# Shear Modulus (GPa) = 24.37412 25.49019 24.93215
#
# Velocity S-wave (km/s) = 3.67577 3.75898 3.71761
# Velocity P-wave (km/s) = 7.27174 7.33459 7.30323
#
# Compressibility (1/GPa) = 0.01590008
#
# Stress axis : x y z
#
# Youngs Moduli (GPa) = 70.15129 58.38725 54.84714
#
# Poissons Ratio (x) = 0.25994 0.28686
# Poissons Ratio (y) = 0.31232 0.39353
# Poissons Ratio (z) = 0.36690 0.41893
#
# Static dielectric constant tensor:
#      x y z
#    x 3.554670 0.000000 0.000000 
#    y 0.000000 3.295850 0.000000 
#    z 0.000000 0.000000 3.652800 
# 
# 
# High freq. dielectric constant tensor:
#      x y z
#    x 1.702610 0.000000 0.000000 
#    y 0.000000 1.680500 0.000000 
#    z 0.000000 0.000000 1.710290 
# 
# From -- ./inp_files/5263.got.cif
#   From: 2010.03.12/outbox.cif.g09.slc.cpg/sg57_3_cif.got.tgz:5263.got - 2010.04.16 15:48:40.
