data_PCOD8231171
_publ_section_title
;
Structure prediction by ZEFSAII (Michael W. Deem and Ramdas Pophale) SiO2 
 PCOD8231171
Probable space group: P B C M
;
_chemical_formula_sum "Si O2"
_cell_formula_units_Z 40
_cell_length_a 13.623895
_cell_length_b 20.709198
_cell_length_c 8.834584
_cell_angle_alpha 90.000000
_cell_angle_beta 90.000000
_cell_angle_gamma 90.000000
_cell_volume 2492.588992
_symmetry_space_group_name_H-M "P B C M"
_symmetry_group_IT_number 57
_symmetry_cell_setting 'orthorhombic'
loop_
_space_group_symop_operation_xyz
x,y,z
-x,-y,1/2+z
x,1/2-y,-z
-x,1/2+y,1/2-z
-x,-y,-z
x,y,1/2-z
-x,1/2+y,z
x,1/2-y,1/2+z
loop_
_atom_site_type_symbol
_atom_site_label
_atom_site_fract_x
_atom_site_fract_y
_atom_site_fract_z
Si Si1 0.397972 0.012849 0.420799
Si Si2 0.786000 0.438154 0.079213
Si Si3 0.122327 0.816873 0.926477
Si Si4 0.778554 0.566007 0.570591
Si Si5 0.104414 0.317516 0.572223
O O1 0.416314 0.037519 0.250000
O O2 0.332816 0.946868 0.419416
O O3 0.500000 0.000000 0.500000
O O4 0.335085 0.066920 0.512709
O O5 0.828068 0.435767 0.250000
O O6 0.811071 0.373196 0.992796
O O7 0.831819 0.500917 0.993322
O O8 0.141813 0.811730 0.750000
O O9 0.009196 0.831486 0.964012
O O10 0.156478 0.750000 0.000000
O O11 0.782720 0.566359 0.750000
O O12 0.832733 0.627651 0.506042
O O13 0.137190 0.250000 0.500000
O O14 0.125506 0.316040 0.750000
#
# Coordination Sequence:
#
# PCOD8231171 Si02
#       5
#     8   8   8   8   8
#     4   9  18  32  52  76 100 128 161 204 252 299
#     4   9  19  33  50  74 101 129 166 208 246 292
#     4  10  20  33  51  72 100 136 170 204 246 295
#     4  10  19  32  51  75 100 131 167 206 249 293
#     4  10  20  34  50  72 101 135 171 205 245 295
#
# _framework density 16.04757
#
# number of rings (size 3 to 8) (size 9 to 14) (size 15 to 20)
#    1.200    1.200    0.000    3.600    0.000    3.200 
#    0.000    0.000    0.000    1.200    0.000    2.800 
#    0.000    0.000    0.000    0.000    0.000    0.000 
#
# Total GULP energy -495732.837190 kJ/mol
# GULP energy per Si atom -12393.320930 kJ/mol
# Density = 1.601105 g / cm^3
# Si number density = 16.047570 Si / 1000 Ang^3
#
#
#
# Elastic Constant Matrix: (Units=GPa)
#
#
# Indices 1 2 3 4 5 6 
#
# 1 65.3223 54.2794 47.6656 0.0000 0.0000 0.0000
# 2 54.2794 125.1251 66.7243 0.0000 0.0000 0.0000
# 3 47.6656 66.7243 130.6659 0.0000 0.0000 0.0000
# 4 0.0000 0.0000 0.0000 35.1680 0.0000 0.0000
# 5 0.0000 0.0000 0.0000 0.0000 10.9634 0.0000
# 6 0.0000 0.0000 0.0000 0.0000 0.0000 -16.5098
#
#
#
# Elastic Compliance Matrix: (Units=1/GPa)
#
#
# Indices 1 2 3 4 5 6 
#
# 1 0.026254 -0.008632 -0.005169 0.000000 0.000000 0.000000
# 2 -0.008632 0.013821 -0.003909 0.000000 0.000000 0.000000
# 3 -0.005169 -0.003909 0.011535 0.000000 0.000000 0.000000
# 4 0.000000 0.000000 0.000000 0.028435 0.000000 0.000000
# 5 0.000000 0.000000 0.000000 0.000000 0.091212 0.000000
# 6 0.000000 0.000000 0.000000 0.000000 0.000000 -0.060570
#
#
# Mechanical properties :
#
#
# Convention : Reuss Voigt Hill
#
# Bulk Modulus (GPa) = 61.76943 73.16131 67.46537
# Shear Modulus (GPa) = 33.00263 16.08726 24.54495
#
# Velocity S-wave (km/s) = 4.53984 3.16962 3.91514
# Velocity P-wave (km/s) = 8.12744 7.68665 7.91011
#
# Compressibility (1/GPa) = 0.01618924
#
# Stress axis : x y z
#
# Youngs Moduli (GPa) = 38.09006 72.35300 86.69536
#
# Poissons Ratio (x) = 0.62458 0.44812
# Poissons Ratio (y) = 0.32881 0.33887
# Poissons Ratio (z) = 0.19688 0.28281
#
# Static dielectric constant tensor:
#      x y z
#    x 2.823360 0.000000 0.000000 
#    y 0.000000 2.921950 0.000000 
#    z 0.000000 0.000000 3.497780 
# 
# 
# High freq. dielectric constant tensor:
#      x y z
#    x 1.592380 0.000000 0.000000 
#    y 0.000000 1.604750 0.000000 
#    z 0.000000 0.000000 1.642520 
# 
# From -- ./inp_files/4401.got.cif
#   From: 2010.03.12/outbox.cif.g09.slc.cpg/sg57_3_cif.got.tgz:4401.got - 2010.04.16 15:48:40.
