data_PCOD8231015
_publ_section_title
;
Structure prediction by ZEFSAII (Michael W. Deem and Ramdas Pophale) SiO2 
 PCOD8231015
Probable space group: P B C M
;
_chemical_formula_sum "Si O2"
_cell_formula_units_Z 64
_cell_length_a 14.913008
_cell_length_b 24.701323
_cell_length_c 9.024876
_cell_angle_alpha 90.000000
_cell_angle_beta 90.000000
_cell_angle_gamma 90.000000
_cell_volume 3324.502845
_symmetry_space_group_name_H-M "P B C M"
_symmetry_group_IT_number 57
_symmetry_cell_setting 'orthorhombic'
loop_
_space_group_symop_operation_xyz
x,y,z
-x,-y,1/2+z
x,1/2-y,-z
-x,1/2+y,1/2-z
-x,-y,-z
x,y,1/2-z
-x,1/2+y,z
x,1/2-y,1/2+z
loop_
_atom_site_type_symbol
_atom_site_label
_atom_site_fract_x
_atom_site_fract_y
_atom_site_fract_z
Si Si1 0.754130 0.510215 0.426283
Si Si2 0.928066 0.694041 0.075292
Si Si3 0.535091 0.353012 0.585987
Si Si4 0.134050 0.695638 0.421005
Si Si5 0.728154 0.395774 0.574377
Si Si6 0.437033 0.036627 0.409384
Si Si7 0.626891 0.805425 0.425017
Si Si8 0.209486 0.384084 0.425467
O O1 0.772425 0.509346 0.250000
O O2 0.759590 0.450057 0.491517
O O3 0.660084 0.535390 0.479863
O O4 0.812913 0.556158 0.506583
O O5 0.907608 0.696484 0.250000
O O6 0.031881 0.680549 0.042199
O O7 0.900583 0.750000 0.000000
O O8 0.871164 0.648895 0.995569
O O9 0.548928 0.326395 0.750000
O O10 0.631541 0.372064 0.520124
O O11 0.472069 0.403860 0.604658
O O12 0.476711 0.314592 0.478918
O O13 0.166072 0.750000 0.500000
O O14 0.148124 0.707109 0.250000
O O15 0.196929 0.646926 0.473527
O O16 0.724191 0.407200 0.750000
O O17 0.429612 0.008291 0.250000
O O18 0.500000 0.000000 0.500000
O O19 0.662515 0.750000 0.500000
O O20 0.624274 0.797053 0.250000
O O21 0.695413 0.854483 0.467329
O O22 0.199397 0.387424 0.250000
#
# Coordination Sequence:
#
# PCOD8231015 Si02
#       8
#     8   8   8   8   8   8   8   8
#     4  11  22  35  54  83 117 152 191 235 279 333
#     4  10  20  37  62  89 114 143 184 233 284 340
#     4  10  20  35  54  77 109 148 187 230 276 324
#     4   9  20  39  63  88 114 145 183 231 284 336
#     4  10  21  38  59  85 117 152 190 233 280 333
#     4  10  19  31  51  77 106 144 188 232 274 319
#     4  11  24  38  54  77 110 149 189 233 283 338
#     4  11  23  38  58  84 113 150 189 232 286 341
#
# _framework density 19.251000000000001
#
# number of rings (size 3 to 8) (size 9 to 14) (size 15 to 20)
#    0.000    1.750    2.500    1.875    0.000    5.500 
#    0.000    1.875    0.000    0.000    0.000    0.000 
#    0.000    0.000    0.000    0.000    0.000    0.000 
#
# Total GULP energy -793054.086658 kJ/mol
# GULP energy per Si atom -12391.470104 kJ/mol
# Density = 1.920718 g / cm^3
# Si number density = 19.251000 Si / 1000 Ang^3
#
#
#
# Elastic Constant Matrix: (Units=GPa)
#
#
# Indices 1 2 3 4 5 6 
#
# 1 87.3509 64.7185 39.9538 0.0000 0.0000 0.0000
# 2 64.7185 131.4281 64.7488 0.0000 0.0000 0.0000
# 3 39.9538 64.7488 86.9951 0.0000 0.0000 0.0000
# 4 0.0000 0.0000 0.0000 35.6397 0.0000 0.0000
# 5 0.0000 0.0000 0.0000 0.0000 24.5523 0.0000
# 6 0.0000 0.0000 0.0000 0.0000 0.0000 35.2245
#
#
#
# Elastic Compliance Matrix: (Units=1/GPa)
#
#
# Indices 1 2 3 4 5 6 
#
# 1 0.018416 -0.007740 -0.002697 0.000000 0.000000 0.000000
# 2 -0.007740 0.015267 -0.007808 0.000000 0.000000 0.000000
# 3 -0.002697 -0.007808 0.018545 0.000000 0.000000 0.000000
# 4 0.000000 0.000000 0.000000 0.028059 0.000000 0.000000
# 5 0.000000 0.000000 0.000000 0.000000 0.040729 0.000000
# 6 0.000000 0.000000 0.000000 0.000000 0.000000 0.028389
#
#
# Mechanical properties :
#
#
# Convention : Reuss Voigt Hill
#
# Bulk Modulus (GPa) = 63.54211 71.62401 67.58306
# Shear Modulus (GPa) = 26.15859 28.17349 27.16604
#
# Velocity S-wave (km/s) = 3.69021 3.82970 3.76060
# Velocity P-wave (km/s) = 7.15791 7.53933 7.35110
#
# Compressibility (1/GPa) = 0.01573760
#
# Stress axis : x y z
#
# Youngs Moduli (GPa) = 54.29984 65.50213 53.92249
#
# Poissons Ratio (x) = 0.50697 0.14545
# Poissons Ratio (y) = 0.42027 0.42103
# Poissons Ratio (z) = 0.14647 0.51145
#
# Static dielectric constant tensor:
#      x y z
#    x 3.593460 0.000000 0.000000 
#    y 0.000000 3.500230 0.000000 
#    z 0.000000 0.000000 3.698550 
# 
# 
# High freq. dielectric constant tensor:
#      x y z
#    x 1.740880 0.000000 0.000000 
#    y 0.000000 1.750440 0.000000 
#    z 0.000000 0.000000 1.751900 
# 
# From -- ./inp_files/5640.got.cif
#   From: 2010.03.12/outbox.cif.g09.slc.cpg/sg57_3_cif.got.tgz:5640.got - 2010.04.16 15:48:40.
