data_PCOD8231197
_publ_section_title
;
Structure prediction by ZEFSAII (Michael W. Deem and Ramdas Pophale) SiO2 
 PCOD8231197
Probable space group: P B C M
;
_chemical_formula_sum "Si O2"
_cell_formula_units_Z 40
_cell_length_a 14.294097
_cell_length_b 8.817428
_cell_length_c 16.821122
_cell_angle_alpha 90.000000
_cell_angle_beta 90.000000
_cell_angle_gamma 90.000000
_cell_volume 2120.086632
_symmetry_space_group_name_H-M "P B C M"
_symmetry_group_IT_number 57
_symmetry_cell_setting 'orthorhombic'
loop_
_space_group_symop_operation_xyz
x,y,z
-x,-y,1/2+z
x,1/2-y,-z
-x,1/2+y,1/2-z
-x,-y,-z
x,y,1/2-z
-x,1/2+y,z
x,1/2-y,1/2+z
loop_
_atom_site_type_symbol
_atom_site_label
_atom_site_fract_x
_atom_site_fract_y
_atom_site_fract_z
Si Si1 0.399048 0.929484 0.988578
Si Si2 0.265847 0.140997 0.075075
Si Si3 0.300633 0.067711 0.840799
Si Si4 0.913173 0.528693 0.661256
Si Si5 0.060618 0.171223 0.415874
O O1 0.366888 0.973241 0.899670
O O2 0.402318 0.750000 0.000000
O O3 0.500000 0.000000 0.000000
O O4 0.331702 0.997600 0.057348
O O5 0.305258 0.249122 0.145615
O O6 0.159997 0.081607 0.090426
O O7 0.262855 0.250000 0.000000
O O8 0.331398 0.035942 0.750000
O O9 0.196107 0.006445 0.857684
O O10 0.937651 0.474345 0.750000
O O11 0.973357 0.438631 0.596627
O O12 0.939202 0.704723 0.653816
O O13 0.047187 0.250000 0.500000
#
# Coordination Sequence:
#
# PCOD8231197 Si02
#       5
#     8   8   8   8   8
#     4  11  22  39  61  83 108 140 177 223 277 332
#     4   8  17  35  56  79 106 141 181 221 269 320
#     4   9  19  37  58  80 110 145 183 226 270 317
#     4  10  20  33  51  77 111 147 178 218 269 313
#     4  10  19  32  51  77 107 143 186 222 257 312
#
# _framework density 18.867155
#
# number of rings (size 3 to 8) (size 9 to 14) (size 15 to 20)
#    0.000    2.400    0.000    4.200    0.000    3.200 
#    0.000    5.000    0.000    0.000    0.000    0.000 
#    0.000    0.000    0.000    0.000    0.000    0.000 
#
# Total GULP energy -495832.466091 kJ/mol
# GULP energy per Si atom -12395.811652 kJ/mol
# Density = 1.882421 g / cm^3
# Si number density = 18.867155 Si / 1000 Ang^3
#
#
#
# Elastic Constant Matrix: (Units=GPa)
#
#
# Indices 1 2 3 4 5 6 
#
# 1 134.0738 75.9858 63.6915 0.0000 0.0000 0.0000
# 2 75.9858 113.3313 45.9274 0.0000 0.0000 0.0000
# 3 63.6915 45.9274 98.2649 0.0000 0.0000 0.0000
# 4 0.0000 0.0000 0.0000 25.7278 0.0000 0.0000
# 5 0.0000 0.0000 0.0000 0.0000 21.9502 0.0000
# 6 0.0000 0.0000 0.0000 0.0000 0.0000 33.6591
#
#
#
# Elastic Compliance Matrix: (Units=1/GPa)
#
#
# Indices 1 2 3 4 5 6 
#
# 1 0.014380 -0.007235 -0.005939 0.000000 0.000000 0.000000
# 2 -0.007235 0.014525 -0.002100 0.000000 0.000000 0.000000
# 3 -0.005939 -0.002100 0.015008 0.000000 0.000000 0.000000
# 4 0.000000 0.000000 0.000000 0.038868 0.000000 0.000000
# 5 0.000000 0.000000 0.000000 0.000000 0.045558 0.000000
# 6 0.000000 0.000000 0.000000 0.000000 0.000000 0.029710
#
#
# Mechanical properties :
#
#
# Convention : Reuss Voigt Hill
#
# Bulk Modulus (GPa) = 74.81812 79.65325 77.23568
# Shear Modulus (GPa) = 25.89985 26.93846 26.41915
#
# Velocity S-wave (km/s) = 3.70908 3.78272 3.74608
# Velocity P-wave (km/s) = 7.62131 7.83506 7.72892
#
# Compressibility (1/GPa) = 0.01336575
#
# Stress axis : x y z
#
# Youngs Moduli (GPa) = 69.53958 68.84574 66.63312
#
# Poissons Ratio (x) = 0.49808 0.39576
# Poissons Ratio (y) = 0.50310 0.13990
# Poissons Ratio (z) = 0.41302 0.14455
#
# Static dielectric constant tensor:
#      x y z
#    x 3.552830 0.000000 0.000000 
#    y 0.000000 3.598000 0.000000 
#    z 0.000000 0.000000 3.806510 
# 
# 
# High freq. dielectric constant tensor:
#      x y z
#    x 1.734530 0.000000 0.000000 
#    y 0.000000 1.712740 0.000000 
#    z 0.000000 0.000000 1.732200 
# 
# From -- ./inp_files/21627.got.cif
#   From: 2010.03.12/outbox.cif.g09.slc.cpg/sg57_11_cif.got.tgz:21627.got - 2010.04.16 15:48:40.
