data_PCOD8231567
_publ_section_title
;
Structure prediction by ZEFSAII (Michael W. Deem and Ramdas Pophale) SiO2 
 PCOD8231567
Probable space group: P B C M
;
_chemical_formula_sum "Si O2"
_cell_formula_units_Z 48
_cell_length_a 9.733846
_cell_length_b 9.859716
_cell_length_c 27.311885
_cell_angle_alpha 90.000000
_cell_angle_beta 90.000000
_cell_angle_gamma 90.000000
_cell_volume 2621.202369
_symmetry_space_group_name_H-M "P B C M"
_symmetry_group_IT_number 57
_symmetry_cell_setting 'orthorhombic'
loop_
_space_group_symop_operation_xyz
x,y,z
-x,-y,1/2+z
x,1/2-y,-z
-x,1/2+y,1/2-z
-x,-y,-z
x,y,1/2-z
-x,1/2+y,z
x,1/2-y,1/2+z
loop_
_atom_site_type_symbol
_atom_site_label
_atom_site_fract_x
_atom_site_fract_y
_atom_site_fract_z
Si Si1 0.352077 0.235175 0.052855
Si Si2 0.669913 0.239044 0.054689
Si Si3 0.122199 0.087231 0.806840
Si Si4 0.135808 0.096904 0.192978
Si Si5 0.338133 0.024850 0.883160
Si Si6 0.656220 0.484302 0.116420
O O1 0.510905 0.276930 0.048350
O O2 0.284701 0.338235 0.091073
O O3 0.331671 0.083321 0.070300
O O4 0.280545 0.250000 0.000000
O O5 0.725209 0.346903 0.095115
O O6 0.694644 0.092719 0.077934
O O7 0.738292 0.250000 0.000000
O O8 0.154649 0.069888 0.750000
O O9 0.101631 0.246372 0.820050
O O10 0.249676 0.015528 0.833960
O O11 0.988934 0.001089 0.821937
O O12 0.172052 0.082272 0.250000
O O13 0.266992 0.043120 0.163459
O O14 0.497439 0.030539 0.867407
#
# Coordination Sequence:
#
# PCOD8231567 Si02
#       6
#     8   8   8   8   8   8
#     4   9  16  30  52  79 110 144 181 219 268 321
#     4   9  18  30  50  83 116 142 175 219 264 321
#     4  10  22  40  59  79 106 143 184 225 274 329
#     4  10  22  40  59  79 106 143 184 225 274 329
#     4  10  19  33  56  84 111 142 180 225 271 314
#     4  10  19  33  56  84 111 142 180 225 271 314
#
# _framework density 18.312207000000001
#
# number of rings (size 3 to 8) (size 9 to 14) (size 15 to 20)
#    0.000    2.333    1.667    1.000    2.333    4.667 
#    0.000    0.000    0.000    6.000    0.000    0.000 
#    0.000    0.000    0.000    0.000    0.000    0.000 
#
# Total GULP energy -594988.641785 kJ/mol
# GULP energy per Si atom -12395.596704 kJ/mol
# Density = 1.827053 g / cm^3
# Si number density = 18.312207 Si / 1000 Ang^3
#
#
#
# Elastic Constant Matrix: (Units=GPa)
#
#
# Indices 1 2 3 4 5 6 
#
# 1 71.1281 34.6400 53.5424 0.0000 0.0000 0.0000
# 2 34.6400 88.7130 30.3263 0.0000 0.0000 0.0000
# 3 53.5424 30.3263 89.7472 0.0000 0.0000 0.0000
# 4 0.0000 0.0000 0.0000 30.7485 0.0000 0.0000
# 5 0.0000 0.0000 0.0000 0.0000 10.4305 0.0000
# 6 0.0000 0.0000 0.0000 0.0000 0.0000 22.0183
#
#
#
# Elastic Compliance Matrix: (Units=1/GPa)
#
#
# Indices 1 2 3 4 5 6 
#
# 1 0.028015 -0.005908 -0.014717 0.000000 0.000000 0.000000
# 2 -0.005908 0.013990 -0.001203 0.000000 0.000000 0.000000
# 3 -0.014717 -0.001203 0.020329 0.000000 0.000000 0.000000
# 4 0.000000 0.000000 0.000000 0.032522 0.000000 0.000000
# 5 0.000000 0.000000 0.000000 0.000000 0.095873 0.000000
# 6 0.000000 0.000000 0.000000 0.000000 0.000000 0.045417
#
#
# Mechanical properties :
#
#
# Convention : Reuss Voigt Hill
#
# Bulk Modulus (GPa) = 53.53775 54.06730 53.80253
# Shear Modulus (GPa) = 17.48084 21.37810 19.42947
#
# Velocity S-wave (km/s) = 3.09301 3.42046 3.26085
# Velocity P-wave (km/s) = 6.48500 6.72226 6.60470
#
# Compressibility (1/GPa) = 0.01867841
#
# Stress axis : x y z
#
# Youngs Moduli (GPa) = 35.69545 71.47755 49.19116
#
# Poissons Ratio (x) = 0.42229 0.72395
# Poissons Ratio (y) = 0.21089 0.05917
# Poissons Ratio (z) = 0.52533 0.08597
#
# Static dielectric constant tensor:
#      x y z
#    x 2.983610 0.000000 0.000000 
#    y 0.000000 3.550710 0.000000 
#    z 0.000000 0.000000 3.404560 
# 
# 
# High freq. dielectric constant tensor:
#      x y z
#    x 1.663190 0.000000 0.000000 
#    y 0.000000 1.728840 0.000000 
#    z 0.000000 0.000000 1.716730 
# 
# From -- ./inp_files/26712.got.cif
#   From: 2010.03.12/outbox.cif.g09.slc.cpg/sg57_14_cif.got.tgz:26712.got - 2010.04.16 15:48:40.
