data_PCOD8231133
_publ_section_title
;
Structure prediction by ZEFSAII (Michael W. Deem and Ramdas Pophale) SiO2 
 PCOD8231133
Probable space group: P B C M
;
_chemical_formula_sum "Si O2"
_cell_formula_units_Z 64
_cell_length_a 19.527474
_cell_length_b 19.995251
_cell_length_c 8.887990
_cell_angle_alpha 90.000000
_cell_angle_beta 90.000000
_cell_angle_gamma 90.000000
_cell_volume 3470.375636
_symmetry_space_group_name_H-M "P B C M"
_symmetry_group_IT_number 57
_symmetry_cell_setting 'orthorhombic'
loop_
_space_group_symop_operation_xyz
x,y,z
-x,-y,1/2+z
x,1/2-y,-z
-x,1/2+y,1/2-z
-x,-y,-z
x,y,1/2-z
-x,1/2+y,z
x,1/2-y,1/2+z
loop_
_atom_site_type_symbol
_atom_site_label
_atom_site_fract_x
_atom_site_fract_y
_atom_site_fract_z
Si Si1 0.120337 0.819456 0.927275
Si Si2 0.268783 0.317875 0.571729
Si Si3 0.848175 0.583453 0.071889
Si Si4 0.391890 0.116224 0.575464
Si Si5 0.035643 0.180702 0.072587
Si Si6 0.337217 0.967595 0.579087
Si Si7 0.197914 0.940852 0.427240
Si Si8 0.483219 0.930459 0.575298
O O1 0.128542 0.813233 0.750000
O O2 0.042153 0.835495 0.974443
O O3 0.144611 0.750000 0.000000
O O4 0.168003 0.877874 0.986851
O O5 0.240064 0.250000 0.500000
O O6 0.270159 0.311488 0.750000
O O7 0.218362 0.376498 0.515406
O O8 0.344525 0.330947 0.509751
O O9 0.848857 0.583034 0.250000
O O10 0.842439 0.507115 0.014137
O O11 0.917106 0.619739 0.011837
O O12 0.394510 0.134456 0.750000
O O13 0.468648 0.124144 0.506870
O O14 0.362324 0.042476 0.545608
O O15 0.043602 0.189107 0.250000
O O16 0.060656 0.250000 0.000000
O O17 0.309765 0.962034 0.750000
O O18 0.278134 0.947274 0.463803
O O19 0.401749 0.916993 0.555136
O O20 0.189034 0.930791 0.250000
O O21 0.502817 0.933986 0.750000
O O22 0.500000 0.000000 0.500000
#
# Coordination Sequence:
#
# PCOD8231133 Si02
#       8
#     8   8   8   8   8   8   8   8
#     4  10  21  38  59  81 105 137 176 222 272 329
#     4  11  21  34  51  74 107 149 190 229 274 325
#     4   9  19  34  52  78 110 143 180 225 272 319
#     4  10  19  32  50  74 104 139 181 227 268 317
#     4   9  18  35  56  77 106 142 183 225 268 318
#     4   9  18  32  50  76 108 138 174 219 266 315
#     4  11  21  34  55  81 111 145 178 220 272 325
#     4   9  17  29  48  74 103 136 173 218 265 313
#
# _framework density 18.441808999999999
#
# number of rings (size 3 to 8) (size 9 to 14) (size 15 to 20)
#    0.000    2.250    1.250    3.000    0.000    3.500 
#    0.000    1.875    0.000    0.750    0.000    0.000 
#    0.000    0.000    0.000    0.000    0.000    0.000 
#
# Total GULP energy -793481.582902 kJ/mol
# GULP energy per Si atom -12398.149733 kJ/mol
# Density = 1.839983 g / cm^3
# Si number density = 18.441809 Si / 1000 Ang^3
#
#
#
# Elastic Constant Matrix: (Units=GPa)
#
#
# Indices 1 2 3 4 5 6 
#
# 1 82.4557 44.2593 30.3774 0.0000 0.0000 0.0000
# 2 44.2593 99.8066 33.9554 0.0000 0.0000 0.0000
# 3 30.3774 33.9554 75.1754 0.0000 0.0000 0.0000
# 4 0.0000 0.0000 0.0000 28.0257 0.0000 0.0000
# 5 0.0000 0.0000 0.0000 0.0000 26.9701 0.0000
# 6 0.0000 0.0000 0.0000 0.0000 0.0000 23.6749
#
#
#
# Elastic Compliance Matrix: (Units=1/GPa)
#
#
# Indices 1 2 3 4 5 6 
#
# 1 0.016909 -0.006113 -0.004072 0.000000 0.000000 0.000000
# 2 -0.006113 0.014049 -0.003875 0.000000 0.000000 0.000000
# 3 -0.004072 -0.003875 0.016698 0.000000 0.000000 0.000000
# 4 0.000000 0.000000 0.000000 0.035682 0.000000 0.000000
# 5 0.000000 0.000000 0.000000 0.000000 0.037078 0.000000
# 6 0.000000 0.000000 0.000000 0.000000 0.000000 0.042239
#
#
# Mechanical properties :
#
#
# Convention : Reuss Voigt Hill
#
# Bulk Modulus (GPa) = 51.18845 52.73578 51.96212
# Shear Modulus (GPa) = 25.34393 25.65717 25.50055
#
# Velocity S-wave (km/s) = 3.71113 3.73399 3.72258
# Velocity P-wave (km/s) = 6.79561 6.87373 6.83478
#
# Compressibility (1/GPa) = 0.01953566
#
# Stress axis : x y z
#
# Youngs Moduli (GPa) = 59.14001 71.18105 59.88786
#
# Poissons Ratio (x) = 0.43514 0.24384
# Poissons Ratio (y) = 0.36153 0.23208
# Poissons Ratio (z) = 0.24079 0.27585
#
# Static dielectric constant tensor:
#      x y z
#    x 3.681020 0.000000 0.000000 
#    y 0.000000 3.319750 0.000000 
#    z 0.000000 0.000000 3.382320 
# 
# 
# High freq. dielectric constant tensor:
#      x y z
#    x 1.719920 0.000000 0.000000 
#    y 0.000000 1.689940 0.000000 
#    z 0.000000 0.000000 1.714350 
# 
# From -- ./inp_files/7276.got.cif
#   From: 2010.03.12/outbox.cif.g09.slc.cpg/sg57_4_cif.got.tgz:7276.got - 2010.04.16 15:48:40.
