data_PCOD8231176
_publ_section_title
;
Structure prediction by ZEFSAII (Michael W. Deem and Ramdas Pophale) SiO2 
 PCOD8231176
Probable space group: P B C M
;
_chemical_formula_sum "Si O2"
_cell_formula_units_Z 64
_cell_length_a 20.169460
_cell_length_b 19.421759
_cell_length_c 9.017434
_cell_angle_alpha 90.000000
_cell_angle_beta 90.000000
_cell_angle_gamma 90.000000
_cell_volume 3532.366879
_symmetry_space_group_name_H-M "P B C M"
_symmetry_group_IT_number 57
_symmetry_cell_setting 'orthorhombic'
loop_
_space_group_symop_operation_xyz
x,y,z
-x,-y,1/2+z
x,1/2-y,-z
-x,1/2+y,1/2-z
-x,-y,-z
x,y,1/2-z
-x,1/2+y,z
x,1/2-y,1/2+z
loop_
_atom_site_type_symbol
_atom_site_label
_atom_site_fract_x
_atom_site_fract_y
_atom_site_fract_z
Si Si1 0.769781 0.936278 0.577232
Si Si2 0.621319 0.175182 0.075062
Si Si3 0.967877 0.407458 0.919770
Si Si4 0.264817 0.909310 0.076135
Si Si5 0.522592 0.679288 0.080057
Si Si6 0.907824 0.552245 0.576349
Si Si7 0.333649 0.176188 0.425005
Si Si8 0.844003 0.321637 0.922415
O O1 0.784083 0.926963 0.750000
O O2 0.838819 0.926345 0.494636
O O3 0.720091 0.877980 0.515418
O O4 0.735597 0.009401 0.545532
O O5 0.636667 0.182798 0.250000
O O6 0.547588 0.141149 0.047964
O O7 0.629633 0.250000 0.000000
O O8 0.670645 0.121714 0.000481
O O9 0.990087 0.416170 0.750000
O O10 0.926289 0.474509 0.970478
O O11 0.921180 0.341173 0.942040
O O12 0.033664 0.397681 0.017917
O O13 0.265082 0.891854 0.250000
O O14 0.199227 0.879433 0.001347
O O15 0.526936 0.698529 0.250000
O O16 0.592816 0.644216 0.034232
O O17 0.516183 0.750000 0.000000
O O18 0.900984 0.561616 0.750000
O O19 0.322160 0.250000 0.500000
O O20 0.325926 0.186099 0.250000
O O21 0.824279 0.317298 0.750000
O O22 0.828861 0.250000 0.000000
#
# Coordination Sequence:
#
# PCOD8231176 Si02
#       8
#     8   8   8   8   8   8   8   8
#     4  10  21  36  55  78 108 142 175 215 264 317
#     4  10  19  32  51  75 104 139 178 222 264 309
#     4   9  19  35  54  77 104 134 170 214 260 307
#     4  11  22  35  51  74 105 144 182 217 259 313
#     4   8  15  29  51  75 100 132 172 215 262 313
#     4  10  19  33  56  81 104 132 172 216 257 307
#     4   9  18  35  57  81 105 133 171 217 268 321
#     4  11  22  37  55  78 109 143 179 221 265 311
#
# _framework density 18.118162999999999
#
# number of rings (size 3 to 8) (size 9 to 14) (size 15 to 20)
#    0.000    2.250    1.250    1.875    0.000    3.000 
#    0.000    1.250    0.000    0.000    0.000    0.000 
#    0.000    0.000    0.000    0.000    0.000    0.000 
#
# Total GULP energy -793211.632634 kJ/mol
# GULP energy per Si atom -12393.931760 kJ/mol
# Density = 1.807693 g / cm^3
# Si number density = 18.118163 Si / 1000 Ang^3
#
#
#
# Elastic Constant Matrix: (Units=GPa)
#
#
# Indices 1 2 3 4 5 6 
#
# 1 161.1508 57.9909 63.9524 0.0000 0.0000 0.0000
# 2 57.9909 76.1738 42.5361 0.0000 0.0000 0.0000
# 3 63.9524 42.5361 82.2800 0.0000 0.0000 0.0000
# 4 0.0000 0.0000 0.0000 21.3419 0.0000 0.0000
# 5 0.0000 0.0000 0.0000 0.0000 29.8253 0.0000
# 6 0.0000 0.0000 0.0000 0.0000 0.0000 27.1287
#
#
#
# Elastic Compliance Matrix: (Units=1/GPa)
#
#
# Indices 1 2 3 4 5 6 
#
# 1 0.010003 -0.004602 -0.005395 0.000000 0.000000 0.000000
# 2 -0.004602 0.020573 -0.007059 0.000000 0.000000 0.000000
# 3 -0.005395 -0.007059 0.019996 0.000000 0.000000 0.000000
# 4 0.000000 0.000000 0.000000 0.046856 0.000000 0.000000
# 5 0.000000 0.000000 0.000000 0.000000 0.033529 0.000000
# 6 0.000000 0.000000 0.000000 0.000000 0.000000 0.036861
#
#
# Mechanical properties :
#
#
# Convention : Reuss Voigt Hill
#
# Bulk Modulus (GPa) = 60.75447 72.06260 66.40853
# Shear Modulus (GPa) = 24.10604 26.00085 25.05345
#
# Velocity S-wave (km/s) = 3.65155 3.79234 3.72261
# Velocity P-wave (km/s) = 7.16823 7.68348 7.43032
#
# Compressibility (1/GPa) = 0.01645970
#
# Stress axis : x y z
#
# Youngs Moduli (GPa) = 99.97373 48.60736 50.00924
#
# Poissons Ratio (x) = 0.22370 0.26982
# Poissons Ratio (y) = 0.46009 0.35299
# Poissons Ratio (z) = 0.53940 0.34310
#
# Static dielectric constant tensor:
#      x y z
#    x 3.803210 0.000000 0.000000 
#    y 0.000000 3.066090 0.000000 
#    z 0.000000 0.000000 3.404970 
# 
# 
# High freq. dielectric constant tensor:
#      x y z
#    x 1.720710 0.000000 0.000000 
#    y 0.000000 1.667000 0.000000 
#    z 0.000000 0.000000 1.709490 
# 
# From -- ./inp_files/8555.got.cif
#   From: 2010.03.12/outbox.cif.g09.slc.cpg/sg57_5_cif.got.tgz:8555.got - 2010.04.16 15:48:40.
