data_PCOD8231402
_publ_section_title
;
Structure prediction by ZEFSAII (Michael W. Deem and Ramdas Pophale) SiO2 
 PCOD8231402
Probable space group: P B C M
;
_chemical_formula_sum "Si O2"
_cell_formula_units_Z 40
_cell_length_a 9.565620
_cell_length_b 25.532386
_cell_length_c 8.884077
_cell_angle_alpha 90.000000
_cell_angle_beta 90.000000
_cell_angle_gamma 90.000000
_cell_volume 2169.785686
_symmetry_space_group_name_H-M "P B C M"
_symmetry_group_IT_number 57
_symmetry_cell_setting 'orthorhombic'
loop_
_space_group_symop_operation_xyz
x,y,z
-x,-y,1/2+z
x,1/2-y,-z
-x,1/2+y,1/2-z
-x,-y,-z
x,y,1/2-z
-x,1/2+y,z
x,1/2-y,1/2+z
loop_
_atom_site_type_symbol
_atom_site_label
_atom_site_fract_x
_atom_site_fract_y
_atom_site_fract_z
Si Si1 0.268285 0.468144 0.073631
Si Si2 0.246759 0.920439 0.073323
Si Si3 0.476687 0.106774 0.072758
Si Si4 0.947321 0.621006 0.577008
Si Si5 0.743821 0.694727 0.425629
O O1 0.302667 0.470285 0.250000
O O2 0.134085 0.432426 0.037369
O O3 0.234021 0.525331 0.014283
O O4 0.403248 0.445931 0.986946
O O5 0.262306 0.931619 0.250000
O O6 0.109347 0.886502 0.037956
O O7 0.375957 0.886639 0.011235
O O8 0.500402 0.101463 0.250000
O O9 0.384216 0.156978 0.029641
O O10 0.924176 0.635796 0.750000
O O11 0.889055 0.669451 0.480828
O O12 0.714274 0.750000 0.500000
O O13 0.755092 0.703178 0.250000
#
# Coordination Sequence:
#
# PCOD8231402 Si02
#       5
#     8   8   8   8   8
#     4  10  19  33  53  76 106 145 181 215 254 304
#     4  11  21  33  51  78 111 143 173 213 259 305
#     4  10  21  36  53  77 106 139 178 216 256 308
#     4   9  20  36  54  78 107 139 177 215 257 307
#     4  10  21  38  61  81 100 130 171 217 264 314
#
# _framework density 18.435002000000001
#
# number of rings (size 3 to 8) (size 9 to 14) (size 15 to 20)
#    0.000    2.000    0.000    3.600    0.000    4.800 
#    0.000    1.000    0.000    2.400    0.000    0.000 
#    0.000    0.000    0.000    0.000    0.000    0.000 
#
# Total GULP energy -496190.398113 kJ/mol
# GULP energy per Si atom -12404.759953 kJ/mol
# Density = 1.839304 g / cm^3
# Si number density = 18.435002 Si / 1000 Ang^3
#
#
#
# Elastic Constant Matrix: (Units=GPa)
#
#
# Indices 1 2 3 4 5 6 
#
# 1 124.2447 35.2547 44.8877 0.0000 0.0000 0.0000
# 2 35.2547 98.6755 43.3417 0.0000 0.0000 0.0000
# 3 44.8877 43.3417 62.7611 0.0000 0.0000 0.0000
# 4 0.0000 0.0000 0.0000 33.7160 0.0000 0.0000
# 5 0.0000 0.0000 0.0000 0.0000 32.4269 0.0000
# 6 0.0000 0.0000 0.0000 0.0000 0.0000 12.8983
#
#
#
# Elastic Compliance Matrix: (Units=1/GPa)
#
#
# Indices 1 2 3 4 5 6 
#
# 1 0.010884 -0.000674 -0.007319 0.000000 0.000000 0.000000
# 2 -0.000674 0.014588 -0.009593 0.000000 0.000000 0.000000
# 3 -0.007319 -0.009593 0.027793 0.000000 0.000000 0.000000
# 4 0.000000 0.000000 0.000000 0.029660 0.000000 0.000000
# 5 0.000000 0.000000 0.000000 0.000000 0.030839 0.000000
# 6 0.000000 0.000000 0.000000 0.000000 0.000000 0.077530
#
#
# Mechanical properties :
#
#
# Convention : Reuss Voigt Hill
#
# Bulk Modulus (GPa) = 55.26666 59.18327 57.22497
# Shear Modulus (GPa) = 21.50580 26.62138 24.06359
#
# Velocity S-wave (km/s) = 3.41922 3.80421 3.61684
# Velocity P-wave (km/s) = 6.75517 7.17422 6.96785
#
# Compressibility (1/GPa) = 0.01809409
#
# Stress axis : x y z
#
# Youngs Moduli (GPa) = 91.87677 68.54794 35.98073
#
# Poissons Ratio (x) = 0.04619 0.26335
# Poissons Ratio (y) = 0.06191 0.34515
# Poissons Ratio (z) = 0.67246 0.65755
#
# Static dielectric constant tensor:
#      x y z
#    x 3.539900 0.000000 0.000000 
#    y 0.000000 3.208430 0.000000 
#    z 0.000000 0.000000 3.525330 
# 
# 
# High freq. dielectric constant tensor:
#      x y z
#    x 1.720000 0.000000 0.000000 
#    y 0.000000 1.698710 0.000000 
#    z 0.000000 0.000000 1.729140 
# 
# From -- ./inp_files/1475.got.cif
#   From: 2010.03.12/outbox.cif.g09.slc.cpg/sg57_1_cif.got.tgz:1475.got - 2010.04.16 15:48:40.
