data_PCOD8231870
_publ_section_title
;
Structure prediction by ZEFSAII (Michael W. Deem and Ramdas Pophale) SiO2 
 PCOD8231870
Probable space group: P B C M
;
_chemical_formula_sum "Si O2"
_cell_formula_units_Z 64
_cell_length_a 21.490529
_cell_length_b 17.724428
_cell_length_c 9.035044
_cell_angle_alpha 90.000000
_cell_angle_beta 90.000000
_cell_angle_gamma 90.000000
_cell_volume 3441.514522
_symmetry_space_group_name_H-M "P B C M"
_symmetry_group_IT_number 57
_symmetry_cell_setting 'orthorhombic'
loop_
_space_group_symop_operation_xyz
x,y,z
-x,-y,1/2+z
x,1/2-y,-z
-x,1/2+y,1/2-z
-x,-y,-z
x,y,1/2-z
-x,1/2+y,z
x,1/2-y,1/2+z
loop_
_atom_site_type_symbol
_atom_site_label
_atom_site_fract_x
_atom_site_fract_y
_atom_site_fract_z
Si Si1 0.611245 0.427176 0.075841
Si Si2 0.063656 0.479701 0.077441
Si Si3 0.727812 0.170717 0.577005
Si Si4 0.244231 0.109707 0.078458
Si Si5 0.822943 0.455093 0.418936
Si Si6 0.127545 0.175512 0.924337
Si Si7 0.494082 0.328236 0.077956
Si Si8 0.370257 0.414004 0.074863
O O1 0.617440 0.446012 0.250000
O O2 0.665729 0.371221 0.022775
O O3 0.545989 0.389264 0.033884
O O4 0.615967 0.503052 0.983656
O O5 0.055298 0.491973 0.250000
O O6 0.081852 0.393789 0.038301
O O7 0.117350 0.535993 0.022665
O O8 0.000000 0.500000 0.000000
O O9 0.735121 0.250000 0.500000
O O10 0.723789 0.184927 0.750000
O O11 0.788268 0.121389 0.535518
O O12 0.246973 0.133337 0.250000
O O13 0.226248 0.022343 0.059016
O O14 0.194977 0.162303 0.995433
O O15 0.310650 0.122773 0.003355
O O16 0.846430 0.453183 0.250000
O O17 0.134939 0.187082 0.750000
O O18 0.098233 0.250000 0.000000
O O19 0.497159 0.311417 0.250000
O O20 0.427465 0.360551 0.030320
O O21 0.508504 0.250000 0.000000
O O22 0.359631 0.417575 0.250000
#
# Coordination Sequence:
#
# PCOD8231870 Si02
#       8
#     8   8   8   8   8   8   8   8
#     4  10  20  38  58  78 106 142 187 233 283 342
#     4  10  21  37  60  88 116 150 192 232 273 325
#     4  10  20  34  54  82 111 142 182 228 282 337
#     4  10  19  35  58  81 109 148 184 228 284 332
#     4   9  18  35  56  79 110 145 183 224 273 330
#     4  10  21  37  58  88 120 151 190 235 280 333
#     4  10  23  39  55  76 107 143 184 234 285 342
#     4  11  22  35  54  83 111 142 187 235 281 340
#
# _framework density 18.596464000000001
#
# number of rings (size 3 to 8) (size 9 to 14) (size 15 to 20)
#    0.000    2.000    1.250    2.250    0.000    5.000 
#    0.000    1.875    0.000    0.000    0.000    0.000 
#    0.000    0.000    0.000    0.000    0.000    0.000 
#
# Total GULP energy -793857.187259 kJ/mol
# GULP energy per Si atom -12404.018551 kJ/mol
# Density = 1.855414 g / cm^3
# Si number density = 18.596464 Si / 1000 Ang^3
#
#
#
# Elastic Constant Matrix: (Units=GPa)
#
#
# Indices 1 2 3 4 5 6 
#
# 1 126.5952 32.3832 58.7632 0.0000 0.0000 0.0000
# 2 32.3832 76.9894 41.8003 0.0000 0.0000 0.0000
# 3 58.7632 41.8003 83.3621 0.0000 0.0000 0.0000
# 4 0.0000 0.0000 0.0000 35.8842 0.0000 0.0000
# 5 0.0000 0.0000 0.0000 0.0000 33.0916 0.0000
# 6 0.0000 0.0000 0.0000 0.0000 0.0000 14.9613
#
#
#
# Elastic Compliance Matrix: (Units=1/GPa)
#
#
# Indices 1 2 3 4 5 6 
#
# 1 0.011762 -0.000612 -0.007984 0.000000 0.000000 0.000000
# 2 -0.000612 0.017880 -0.008534 0.000000 0.000000 0.000000
# 3 -0.007984 -0.008534 0.021903 0.000000 0.000000 0.000000
# 4 0.000000 0.000000 0.000000 0.027867 0.000000 0.000000
# 5 0.000000 0.000000 0.000000 0.000000 0.030219 0.000000
# 6 0.000000 0.000000 0.000000 0.000000 0.000000 0.066839
#
#
# Mechanical properties :
#
#
# Convention : Reuss Voigt Hill
#
# Bulk Modulus (GPa) = 57.85633 61.42665 59.64149
# Shear Modulus (GPa) = 23.09557 27.05409 25.07483
#
# Velocity S-wave (km/s) = 3.52793 3.81832 3.67599
# Velocity P-wave (km/s) = 6.91188 7.24862 7.08225
#
# Compressibility (1/GPa) = 0.01728419
#
# Stress axis : x y z
#
# Youngs Moduli (GPa) = 85.02022 55.92956 45.65591
#
# Poissons Ratio (x) = 0.03425 0.36452
# Poissons Ratio (y) = 0.05207 0.38961
# Poissons Ratio (z) = 0.67880 0.47728
#
# Static dielectric constant tensor:
#      x y z
#    x 3.522060 0.000000 0.000000 
#    y 0.000000 3.431860 0.000000 
#    z 0.000000 0.000000 3.489570 
# 
# 
# High freq. dielectric constant tensor:
#      x y z
#    x 1.723160 0.000000 0.000000 
#    y 0.000000 1.721100 0.000000 
#    z 0.000000 0.000000 1.725950 
# 
# From -- ./inp_files/8583.got.cif
#   From: 2010.03.12/outbox.cif.g09.slc.cpg/sg57_5_cif.got.tgz:8583.got - 2010.04.16 15:48:40.
