data_PCOD8231000
_publ_section_title
;
Structure prediction by ZEFSAII (Michael W. Deem and Ramdas Pophale) SiO2 
 PCOD8231000
Probable space group: P B C M
;
_chemical_formula_sum "Si O2"
_cell_formula_units_Z 48
_cell_length_a 11.530962
_cell_length_b 24.899280
_cell_length_c 9.563354
_cell_angle_alpha 90.000000
_cell_angle_beta 90.000000
_cell_angle_gamma 90.000000
_cell_volume 2745.759924
_symmetry_space_group_name_H-M "P B C M"
_symmetry_group_IT_number 57
_symmetry_cell_setting 'orthorhombic'
loop_
_space_group_symop_operation_xyz
x,y,z
-x,-y,1/2+z
x,1/2-y,-z
-x,1/2+y,1/2-z
-x,-y,-z
x,y,1/2-z
-x,1/2+y,z
x,1/2-y,1/2+z
loop_
_atom_site_type_symbol
_atom_site_label
_atom_site_fract_x
_atom_site_fract_y
_atom_site_fract_z
Si Si1 0.860825 0.696115 0.415852
Si Si2 0.017278 0.950159 0.403276
Si Si3 0.126930 0.702193 0.404189
Si Si4 0.384313 0.001783 0.587746
Si Si5 0.792442 0.409814 0.906218
Si Si6 0.228061 0.102776 0.594434
O O1 0.829557 0.750000 0.500000
O O2 0.834453 0.701847 0.250000
O O3 0.775386 0.650416 0.480231
O O4 0.996492 0.681824 0.443477
O O5 0.059661 0.968649 0.250000
O O6 0.114398 0.914466 0.473062
O O7 0.901060 0.917518 0.389305
O O8 0.000000 0.000000 0.500000
O O9 0.172270 0.750000 0.500000
O O10 0.119780 0.727050 0.250000
O O11 0.223917 0.654747 0.407635
O O12 0.416110 0.006211 0.750000
O O13 0.308073 0.053320 0.541210
O O14 0.500000 0.000000 0.500000
O O15 0.319385 0.945313 0.556582
O O16 0.836436 0.427546 0.750000
O O17 0.269080 0.122413 0.750000
#
# Coordination Sequence:
#
# PCOD8231000 Si02
#       6
#     8   8   8   8   8   8
#     4  10  19  31  50  77 110 144 175 208 251 313
#     4  11  20  30  48  76 108 139 170 209 261 321
#     4   9  18  30  48  74 108 142 171 204 250 307
#     4  10  22  39  56  75 103 136 178 228 272 314
#     4  10  19  35  53  75 107 141 174 215 261 311
#     4  10  20  34  52  75 107 141 172 217 265 309
#
# _framework density 17.481497999999998
#
# number of rings (size 3 to 8) (size 9 to 14) (size 15 to 20)
#    0.000    2.000    3.333    1.000    0.000    3.333 
#    0.000    0.000    0.000    1.000    0.000    4.667 
#    0.000    0.000    0.000    0.000    0.000    0.000 
#
# Total GULP energy -594713.962035 kJ/mol
# GULP energy per Si atom -12389.874209 kJ/mol
# Density = 1.744171 g / cm^3
# Si number density = 17.481498 Si / 1000 Ang^3
#
#
#
# Elastic Constant Matrix: (Units=GPa)
#
#
# Indices 1 2 3 4 5 6 
#
# 1 80.2935 46.7964 48.5332 0.0000 0.0000 0.0000
# 2 46.7964 121.5895 69.1989 0.0000 0.0000 0.0000
# 3 48.5332 69.1989 115.2254 0.0000 0.0000 0.0000
# 4 0.0000 0.0000 0.0000 33.1899 0.0000 0.0000
# 5 0.0000 0.0000 0.0000 0.0000 23.4611 0.0000
# 6 0.0000 0.0000 0.0000 0.0000 0.0000 10.6868
#
#
#
# Elastic Compliance Matrix: (Units=1/GPa)
#
#
# Indices 1 2 3 4 5 6 
#
# 1 0.017870 -0.003941 -0.005160 0.000000 0.000000 0.000000
# 2 -0.003941 0.013364 -0.006366 0.000000 0.000000 0.000000
# 3 -0.005160 -0.006366 0.014675 0.000000 0.000000 0.000000
# 4 0.000000 0.000000 0.000000 0.030130 0.000000 0.000000
# 5 0.000000 0.000000 0.000000 0.000000 0.042624 0.000000
# 6 0.000000 0.000000 0.000000 0.000000 0.000000 0.093574
#
#
# Mechanical properties :
#
#
# Convention : Reuss Voigt Hill
#
# Bulk Modulus (GPa) = 66.77638 71.79615 69.28626
# Shear Modulus (GPa) = 20.14807 23.63955 21.89381
#
# Velocity S-wave (km/s) = 3.39859 3.68130 3.54276
# Velocity P-wave (km/s) = 7.32678 7.69599 7.51365
#
# Compressibility (1/GPa) = 0.01497536
#
# Stress axis : x y z
#
# Youngs Moduli (GPa) = 55.95890 74.82726 68.14214
#
# Poissons Ratio (x) = 0.29489 0.35163
# Poissons Ratio (y) = 0.22053 0.43379
# Poissons Ratio (z) = 0.28876 0.47634
#
# Static dielectric constant tensor:
#      x y z
#    x 3.190820 0.000000 0.000000 
#    y 0.000000 3.576650 0.000000 
#    z 0.000000 0.000000 3.428190 
# 
# 
# High freq. dielectric constant tensor:
#      x y z
#    x 1.621680 0.000000 0.000000 
#    y 0.000000 1.679550 0.000000 
#    z 0.000000 0.000000 1.691230 
# 
# From -- ./inp_files/3160.got.cif
#   From: 2010.03.12/outbox.cif.g09.slc.cpg/sg57_2_cif.got.tgz:3160.got - 2010.04.16 15:48:40.
