data_PCOD8231131
_publ_section_title
;
Structure prediction by ZEFSAII (Michael W. Deem and Ramdas Pophale) SiO2 
 PCOD8231131
Probable space group: P B C M
;
_chemical_formula_sum "Si O2"
_cell_formula_units_Z 64
_cell_length_a 19.395772
_cell_length_b 19.973390
_cell_length_c 9.070462
_cell_angle_alpha 90.000000
_cell_angle_beta 90.000000
_cell_angle_gamma 90.000000
_cell_volume 3513.890797
_symmetry_space_group_name_H-M "P B C M"
_symmetry_group_IT_number 57
_symmetry_cell_setting 'orthorhombic'
loop_
_space_group_symop_operation_xyz
x,y,z
-x,-y,1/2+z
x,1/2-y,-z
-x,1/2+y,1/2-z
-x,-y,-z
x,y,1/2-z
-x,1/2+y,z
x,1/2-y,1/2+z
loop_
_atom_site_type_symbol
_atom_site_label
_atom_site_fract_x
_atom_site_fract_y
_atom_site_fract_z
Si Si1 0.353316 0.913970 0.420030
Si Si2 0.109896 0.885394 0.576528
Si Si3 0.014512 0.069164 0.921464
Si Si4 0.613251 0.682786 0.422402
Si Si5 0.546012 0.182160 0.422556
Si Si6 0.162126 0.033534 0.917675
Si Si7 0.770293 0.185093 0.579194
Si Si8 0.301172 0.443815 0.575554
O O1 0.376867 0.912078 0.250000
O O2 0.413093 0.881749 0.517832
O O3 0.281767 0.875771 0.442840
O O4 0.340850 0.989359 0.477776
O O5 0.104173 0.872719 0.750000
O O6 0.158278 0.830366 0.502497
O O7 0.033850 0.876419 0.503162
O O8 0.140265 0.958424 0.538439
O O9 0.994082 0.064190 0.750000
O O10 0.096476 0.083516 0.938376
O O11 0.000000 0.000000 0.000000
O O12 0.640194 0.750000 0.500000
O O13 0.624451 0.692342 0.250000
O O14 0.533627 0.669375 0.460667
O O15 0.656805 0.620174 0.483666
O O16 0.572600 0.250000 0.500000
O O17 0.559509 0.190206 0.250000
O O18 0.188133 0.034414 0.750000
O O19 0.223421 0.059975 0.018385
O O20 0.737639 0.250000 0.500000
O O21 0.784254 0.200016 0.750000
O O22 0.297306 0.444405 0.750000
#
# Coordination Sequence:
#
# PCOD8231131 Si02
#       8
#     8   8   8   8   8   8   8   8
#     4  10  21  35  52  78 108 140 177 219 267 318
#     4  10  19  32  50  74 103 136 177 223 264 313
#     4   9  17  29  47  73 103 135 171 214 261 310
#     4   9  20  38  58  80 105 135 175 217 265 323
#     4  10  20  35  55  77 104 141 180 221 263 311
#     4   9  18  31  49  77 108 136 170 214 262 311
#     4  11  22  35  51  73 104 146 185 221 268 320
#     4  10  20  35  55  79 109 141 173 218 270 321
#
# _framework density 18.213429000000001
#
# number of rings (size 3 to 8) (size 9 to 14) (size 15 to 20)
#    0.000    2.250    1.250    2.625    0.000    6.500 
#    0.000    0.000    0.000    0.750    0.000    1.750 
#    0.000    0.000    0.000    0.000    0.000    0.000 
#
# Total GULP energy -793597.725179 kJ/mol
# GULP energy per Si atom -12399.964456 kJ/mol
# Density = 1.817197 g / cm^3
# Si number density = 18.213429 Si / 1000 Ang^3
#
#
#
# Elastic Constant Matrix: (Units=GPa)
#
#
# Indices 1 2 3 4 5 6 
#
# 1 92.8348 55.2084 48.8042 0.0000 0.0000 0.0000
# 2 55.2084 108.6881 46.6717 0.0000 0.0000 0.0000
# 3 48.8042 46.6717 87.4836 0.0000 0.0000 0.0000
# 4 0.0000 0.0000 0.0000 26.9198 0.0000 0.0000
# 5 0.0000 0.0000 0.0000 0.0000 32.6916 0.0000
# 6 0.0000 0.0000 0.0000 0.0000 0.0000 21.8427
#
#
#
# Elastic Compliance Matrix: (Units=1/GPa)
#
#
# Indices 1 2 3 4 5 6 
#
# 1 0.018034 -0.006278 -0.006711 0.000000 0.000000 0.000000
# 2 -0.006278 0.014121 -0.004031 0.000000 0.000000 0.000000
# 3 -0.006711 -0.004031 0.017325 0.000000 0.000000 0.000000
# 4 0.000000 0.000000 0.000000 0.037147 0.000000 0.000000
# 5 0.000000 0.000000 0.000000 0.000000 0.030589 0.000000
# 6 0.000000 0.000000 0.000000 0.000000 0.000000 0.045782
#
#
# Mechanical properties :
#
#
# Convention : Reuss Voigt Hill
#
# Bulk Modulus (GPa) = 64.77094 65.59724 65.18409
# Shear Modulus (GPa) = 24.73002 25.51229 25.12115
#
# Velocity S-wave (km/s) = 3.68882 3.74671 3.71788
# Velocity P-wave (km/s) = 7.33366 7.40345 7.36864
#
# Compressibility (1/GPa) = 0.01543902
#
# Stress axis : x y z
#
# Youngs Moduli (GPa) = 55.45221 70.81846 57.72087
#
# Poissons Ratio (x) = 0.44463 0.38735
# Poissons Ratio (y) = 0.34816 0.23265
# Poissons Ratio (z) = 0.37213 0.28544
#
# Static dielectric constant tensor:
#      x y z
#    x 3.436470 0.000000 0.000000 
#    y 0.000000 3.277290 0.000000 
#    z 0.000000 0.000000 3.425540 
# 
# 
# High freq. dielectric constant tensor:
#      x y z
#    x 1.707510 0.000000 0.000000 
#    y 0.000000 1.680710 0.000000 
#    z 0.000000 0.000000 1.711540 
# 
# From -- ./inp_files/7122.got.cif
#   From: 2010.03.12/outbox.cif.g09.slc.cpg/sg57_4_cif.got.tgz:7122.got - 2010.04.16 15:48:40.
