data_PCOD8231061
_publ_section_title
;
Structure prediction by ZEFSAII (Michael W. Deem and Ramdas Pophale) SiO2 
 PCOD8231061
Probable space group: P B C M
;
_chemical_formula_sum "Si O2"
_cell_formula_units_Z 56
_cell_length_a 11.816186
_cell_length_b 19.275183
_cell_length_c 14.202817
_cell_angle_alpha 90.000000
_cell_angle_beta 90.000000
_cell_angle_gamma 90.000000
_cell_volume 3234.821492
_symmetry_space_group_name_H-M "P B C M"
_symmetry_group_IT_number 57
_symmetry_cell_setting 'orthorhombic'
loop_
_space_group_symop_operation_xyz
x,y,z
-x,-y,1/2+z
x,1/2-y,-z
-x,1/2+y,1/2-z
-x,-y,-z
x,y,1/2-z
-x,1/2+y,z
x,1/2-y,1/2+z
loop_
_atom_site_type_symbol
_atom_site_label
_atom_site_fract_x
_atom_site_fract_y
_atom_site_fract_z
Si Si1 0.108452 0.802376 0.141005
Si Si2 0.644544 0.171047 0.860402
Si Si3 0.605998 0.176299 0.146710
Si Si4 0.155765 0.972579 0.522081
Si Si5 0.998693 0.941920 0.360497
Si Si6 0.872453 0.345854 0.645083
Si Si7 0.586824 0.062440 0.001959
O O1 0.138542 0.789193 0.250000
O O2 0.227038 0.830057 0.096291
O O3 0.009710 0.858543 0.128451
O O4 0.072838 0.725865 0.103331
O O5 0.642753 0.158877 0.750000
O O6 0.584946 0.244282 0.887895
O O7 0.580805 0.105389 0.905010
O O8 0.552430 0.166365 0.250000
O O9 0.739160 0.165023 0.150511
O O10 0.550006 0.118216 0.081012
O O11 0.290469 0.970890 0.520171
O O12 0.119037 0.036795 0.589608
O O13 0.102584 0.979028 0.417145
O O14 0.097550 0.905517 0.571284
O O15 0.003280 0.963213 0.250000
O O16 0.918711 0.364801 0.750000
O O17 0.500000 0.000000 0.000000
#
# Coordination Sequence:
#
# PCOD8231061 Si02
#       7
#     8   8   8   8   8   8   8
#     4   8  14  26  47  72  95 119 153 200 248 289
#     4   9  16  30  50  72  97 127 161 206 257 300
#     4   8  16  30  48  70  99 129 162 205 254 295
#     4  10  20  31  47  71  99 133 164 192 253 302
#     4  10  19  32  48  68  97 130 162 201 243 297
#     4   8  14  26  45  72 100 121 151 200 250 295
#     4  11  21  31  47  76 107 134 166 204 248 303
#
# _framework density 17.311619
#
# number of rings (size 3 to 8) (size 9 to 14) (size 15 to 20)
#    0.000    2.857    1.429    2.571    0.000    1.714 
#    0.000    0.000    0.000    0.000   14.857    0.000 
#    0.000    0.000    0.000    0.000    0.000    0.000 
#
# Total GULP energy -693866.547634 kJ/mol
# GULP energy per Si atom -12390.474065 kJ/mol
# Density = 1.727222 g / cm^3
# Si number density = 17.311619 Si / 1000 Ang^3
#
#
#
# Elastic Constant Matrix: (Units=GPa)
#
#
# Indices 1 2 3 4 5 6 
#
# 1 55.4061 51.4576 31.6863 0.0000 0.0000 0.0000
# 2 51.4576 131.5181 50.0244 0.0000 0.0000 0.0000
# 3 31.6863 50.0244 92.9034 0.0000 0.0000 0.0000
# 4 0.0000 0.0000 0.0000 27.8246 0.0000 0.0000
# 5 0.0000 0.0000 0.0000 0.0000 14.2451 0.0000
# 6 0.0000 0.0000 0.0000 0.0000 0.0000 29.3897
#
#
#
# Elastic Compliance Matrix: (Units=1/GPa)
#
#
# Indices 1 2 3 4 5 6 
#
# 1 0.030042 -0.009881 -0.004926 0.000000 0.000000 0.000000
# 2 -0.009881 0.012811 -0.003528 0.000000 0.000000 0.000000
# 3 -0.004926 -0.003528 0.014344 0.000000 0.000000 0.000000
# 4 0.000000 0.000000 0.000000 0.035939 0.000000 0.000000
# 5 0.000000 0.000000 0.000000 0.000000 0.070200 0.000000
# 6 0.000000 0.000000 0.000000 0.000000 0.000000 0.034026
#
#
# Mechanical properties :
#
#
# Convention : Reuss Voigt Hill
#
# Bulk Modulus (GPa) = 48.71577 60.68491 54.70034
# Shear Modulus (GPa) = 20.75765 24.06916 22.41341
#
# Velocity S-wave (km/s) = 3.46650 3.73278 3.60210
# Velocity P-wave (km/s) = 6.65009 7.32863 6.99759
#
# Compressibility (1/GPa) = 0.02052723
#
# Stress axis : x y z
#
# Youngs Moduli (GPa) = 33.28649 78.05518 69.71574
#
# Poissons Ratio (x) = 0.77123 0.34343
# Poissons Ratio (y) = 0.32889 0.24599
# Poissons Ratio (z) = 0.16398 0.27542
#
# Static dielectric constant tensor:
#      x y z
#    x 2.637370 0.000000 0.000000 
#    y 0.000000 3.469500 0.000000 
#    z 0.000000 0.000000 3.526310 
# 
# 
# High freq. dielectric constant tensor:
#      x y z
#    x 1.590060 0.000000 0.000000 
#    y 0.000000 1.675010 0.000000 
#    z 0.000000 0.000000 1.687700 
# 
# From -- ./inp_files/18618.got.cif
#   From: 2010.03.12/outbox.cif.g09.slc.cpg/sg57_10_cif.got.tgz:18618.got - 2010.04.16 15:48:40.
