data_PCOD8231289
_publ_section_title
;
Structure prediction by ZEFSAII (Michael W. Deem and Ramdas Pophale) SiO2 
 PCOD8231289
Probable space group: P B C M
;
_chemical_formula_sum "Si O2"
_cell_formula_units_Z 64
_cell_length_a 11.107784
_cell_length_b 33.612762
_cell_length_c 8.878041
_cell_angle_alpha 90.000000
_cell_angle_beta 90.000000
_cell_angle_gamma 90.000000
_cell_volume 3314.734685
_symmetry_space_group_name_H-M "P B C M"
_symmetry_group_IT_number 57
_symmetry_cell_setting 'orthorhombic'
loop_
_space_group_symop_operation_xyz
x,y,z
-x,-y,1/2+z
x,1/2-y,-z
-x,1/2+y,1/2-z
-x,-y,-z
x,y,1/2-z
-x,1/2+y,z
x,1/2-y,1/2+z
loop_
_atom_site_type_symbol
_atom_site_label
_atom_site_fract_x
_atom_site_fract_y
_atom_site_fract_z
Si Si1 0.964148 0.058378 0.577318
Si Si2 0.628467 0.871603 0.574501
Si Si3 0.153055 0.640548 0.919157
Si Si4 0.273599 0.975405 0.571224
Si Si5 0.973750 0.289765 0.574142
Si Si6 0.393090 0.596152 0.573180
Si Si7 0.753705 0.709342 0.427811
Si Si8 0.217966 0.052125 0.074326
O O1 0.973626 0.043654 0.750000
O O2 0.944077 0.105484 0.571240
O O3 0.855078 0.036126 0.497061
O O4 0.084075 0.048100 0.488537
O O5 0.592789 0.871317 0.750000
O O6 0.513721 0.881945 0.475022
O O7 0.675281 0.828502 0.520439
O O8 0.732218 0.903844 0.542790
O O9 0.158114 0.657813 0.750000
O O10 0.283357 0.625051 0.970491
O O11 0.114019 0.674441 0.033478
O O12 0.269803 0.974382 0.750000
O O13 0.377715 0.945643 0.513798
O O14 0.302295 0.019956 0.511748
O O15 0.921365 0.250000 0.500000
O O16 0.972974 0.283645 0.750000
O O17 0.109569 0.297913 0.515754
O O18 0.392728 0.586899 0.750000
O O19 0.701475 0.750000 0.500000
O O20 0.748938 0.714068 0.250000
O O21 0.217833 0.042087 0.250000
#
# Coordination Sequence:
#
# PCOD8231289 Si02
#       8
#     8   8   8   8   8   8   8   8
#     4  10  20  35  55  81 112 144 181 226 277 332
#     4  10  22  39  58  81 110 145 187 230 271 322
#     4   9  19  35  54  77 106 139 177 222 270 323
#     4  11  22  37  57  80 109 146 185 226 278 332
#     4  10  19  32  54  83 114 144 174 215 268 327
#     4  10  22  40  59  79 106 142 186 232 275 322
#     4   9  19  36  57  84 114 142 175 215 265 321
#     4  11  22  36  55  81 113 146 184 230 275 324
#
# _framework density 19.307728999999998
#
# number of rings (size 3 to 8) (size 9 to 14) (size 15 to 20)
#    0.000    2.000    0.000    4.500    0.000    6.500 
#    0.000    0.625    0.000    1.500    0.000    0.000 
#    0.000    0.000    0.000    0.000    0.000    0.000 
#
# Total GULP energy -793784.393145 kJ/mol
# GULP energy per Si atom -12402.881143 kJ/mol
# Density = 1.926378 g / cm^3
# Si number density = 19.307729 Si / 1000 Ang^3
#
#
#
# Elastic Constant Matrix: (Units=GPa)
#
#
# Indices 1 2 3 4 5 6 
#
# 1 46.0192 28.6525 29.2788 0.0000 0.0000 0.0000
# 2 28.6525 122.8060 42.6097 0.0000 0.0000 0.0000
# 3 29.2788 42.6097 76.8171 0.0000 0.0000 0.0000
# 4 0.0000 0.0000 0.0000 36.7225 0.0000 0.0000
# 5 0.0000 0.0000 0.0000 0.0000 30.7507 0.0000
# 6 0.0000 0.0000 0.0000 0.0000 0.0000 19.8032
#
#
#
# Elastic Compliance Matrix: (Units=1/GPa)
#
#
# Indices 1 2 3 4 5 6 
#
# 1 0.030024 -0.003758 -0.009359 0.000000 0.000000 0.000000
# 2 -0.003758 0.010554 -0.004422 0.000000 0.000000 0.000000
# 3 -0.009359 -0.004422 0.019038 0.000000 0.000000 0.000000
# 4 0.000000 0.000000 0.000000 0.027231 0.000000 0.000000
# 5 0.000000 0.000000 0.000000 0.000000 0.032520 0.000000
# 6 0.000000 0.000000 0.000000 0.000000 0.000000 0.050497
#
#
# Mechanical properties :
#
#
# Convention : Reuss Voigt Hill
#
# Bulk Modulus (GPa) = 40.75261 49.63604 45.19433
# Shear Modulus (GPa) = 23.46076 27.12871 25.29474
#
# Velocity S-wave (km/s) = 3.48961 3.75249 3.62343
# Velocity P-wave (km/s) = 6.11467 6.67373 6.40030
#
# Compressibility (1/GPa) = 0.02453830
#
# Stress axis : x y z
#
# Youngs Moduli (GPa) = 33.30616 94.75164 52.52636
#
# Poissons Ratio (x) = 0.35605 0.49162
# Poissons Ratio (y) = 0.12516 0.23227
# Poissons Ratio (z) = 0.31173 0.41898
#
# Static dielectric constant tensor:
#      x y z
#    x 3.367920 0.000000 0.000000 
#    y 0.000000 3.708610 0.000000 
#    z 0.000000 0.000000 3.497740 
# 
# 
# High freq. dielectric constant tensor:
#      x y z
#    x 1.735120 0.000000 0.000000 
#    y 0.000000 1.759680 0.000000 
#    z 0.000000 0.000000 1.757230 
# 
# From -- ./inp_files/3852.got.cif
#   From: 2010.03.12/outbox.cif.g09.slc.cpg/sg57_2_cif.got.tgz:3852.got - 2010.04.16 15:48:40.
