data_PCOD8231042
_publ_section_title
;
Structure prediction by ZEFSAII (Michael W. Deem and Ramdas Pophale) SiO2 
 PCOD8231042
Probable space group: P B C M
;
_chemical_formula_sum "Si O2"
_cell_formula_units_Z 64
_cell_length_a 24.177360
_cell_length_b 14.519863
_cell_length_c 9.097698
_cell_angle_alpha 90.000000
_cell_angle_beta 90.000000
_cell_angle_gamma 90.000000
_cell_volume 3193.764668
_symmetry_space_group_name_H-M "P B C M"
_symmetry_group_IT_number 57
_symmetry_cell_setting 'orthorhombic'
loop_
_space_group_symop_operation_xyz
x,y,z
-x,-y,1/2+z
x,1/2-y,-z
-x,1/2+y,1/2-z
-x,-y,-z
x,y,1/2-z
-x,1/2+y,z
x,1/2-y,1/2+z
loop_
_atom_site_type_symbol
_atom_site_label
_atom_site_fract_x
_atom_site_fract_y
_atom_site_fract_z
Si Si1 0.411580 0.332260 0.418056
Si Si2 0.315587 0.031291 0.583349
Si Si3 0.513228 0.404413 0.575166
Si Si4 0.882197 0.959191 0.578441
Si Si5 0.365673 0.842357 0.922165
Si Si6 0.227141 0.348506 0.577122
Si Si7 0.031438 0.341846 0.077388
Si Si8 0.903900 0.339496 0.419236
O O1 0.377311 0.250000 0.500000
O O2 0.425155 0.306997 0.250000
O O3 0.376916 0.425866 0.425909
O O4 0.467484 0.335388 0.513316
O O5 0.292859 0.041197 0.750000
O O6 0.275357 0.083087 0.472784
O O7 0.322829 0.924586 0.537988
O O8 0.500000 0.500000 0.500000
O O9 0.509933 0.415422 0.750000
O O10 0.572884 0.367763 0.523441
O O11 0.896901 0.949384 0.750000
O O12 0.829936 0.897804 0.533681
O O13 0.934876 0.928148 0.484659
O O14 0.870569 0.067024 0.540894
O O15 0.365986 0.824458 0.750000
O O16 0.344262 0.750000 0.000000
O O17 0.231254 0.250000 0.500000
O O18 0.232455 0.332583 0.750000
O O19 0.041409 0.333086 0.250000
O O20 0.967557 0.356339 0.035879
O O21 0.054670 0.250000 0.000000
O O22 0.878753 0.250000 0.500000
O O23 0.898841 0.315371 0.250000
#
# Coordination Sequence:
#
# PCOD8231042 Si02
#       8
#     8   8   8   8   8   8   8   8
#     4  11  22  37  56  83 115 148 186 229 280 338
#     4  10  22  42  62  82 113 146 187 238 284 334
#     4  11  21  36  57  84 118 154 190 230 278 334
#     4  10  21  37  56  81 115 150 189 238 286 337
#     4  10  22  40  60  86 116 150 189 232 279 332
#     4  11  24  41  62  87 113 145 186 232 287 343
#     4  10  19  31  52  82 115 152 193 232 280 340
#     4   9  19  35  54  80 115 153 191 235 280 330
#
# _framework density 20.039047
#
# number of rings (size 3 to 8) (size 9 to 14) (size 15 to 20)
#    0.000    1.750    1.250    3.000    0.000    7.500 
#    0.000    0.625    0.000    3.000    0.000    0.000 
#    0.000    0.000    0.000    0.000    0.000    0.000 
#
# Total GULP energy -793643.161247 kJ/mol
# GULP energy per Si atom -12400.674394 kJ/mol
# Density = 1.999344 g / cm^3
# Si number density = 20.039047 Si / 1000 Ang^3
#
#
#
# Elastic Constant Matrix: (Units=GPa)
#
#
# Indices 1 2 3 4 5 6 
#
# 1 56.6831 39.3490 34.7247 0.0000 0.0000 0.0000
# 2 39.3490 156.3675 54.5096 0.0000 0.0000 0.0000
# 3 34.7247 54.5096 80.0149 0.0000 0.0000 0.0000
# 4 0.0000 0.0000 0.0000 40.4087 0.0000 0.0000
# 5 0.0000 0.0000 0.0000 0.0000 21.2922 0.0000
# 6 0.0000 0.0000 0.0000 0.0000 0.0000 28.0787
#
#
#
# Elastic Compliance Matrix: (Units=1/GPa)
#
#
# Indices 1 2 3 4 5 6 
#
# 1 0.025286 -0.003328 -0.008706 0.000000 0.000000 0.000000
# 2 -0.003328 0.008825 -0.004568 0.000000 0.000000 0.000000
# 3 -0.008706 -0.004568 0.019388 0.000000 0.000000 0.000000
# 4 0.000000 0.000000 0.000000 0.024747 0.000000 0.000000
# 5 0.000000 0.000000 0.000000 0.000000 0.046965 0.000000
# 6 0.000000 0.000000 0.000000 0.000000 0.000000 0.035614
#
#
# Mechanical properties :
#
#
# Convention : Reuss Voigt Hill
#
# Bulk Modulus (GPa) = 49.27441 61.13692 55.20567
# Shear Modulus (GPa) = 24.90115 28.92141 26.91128
#
# Velocity S-wave (km/s) = 3.52892 3.80314 3.66859
# Velocity P-wave (km/s) = 6.42238 7.06118 6.74934
#
# Compressibility (1/GPa) = 0.02029451
#
# Stress axis : x y z
#
# Youngs Moduli (GPa) = 39.54793 113.31507 51.57915
#
# Poissons Ratio (x) = 0.37711 0.44906
# Poissons Ratio (y) = 0.13162 0.23560
# Poissons Ratio (z) = 0.34432 0.51758
#
# Static dielectric constant tensor:
#      x y z
#    x 3.524120 0.000000 0.000000 
#    y 0.000000 3.869110 0.000000 
#    z 0.000000 0.000000 3.643770 
# 
# 
# High freq. dielectric constant tensor:
#      x y z
#    x 1.756080 0.000000 0.000000 
#    y 0.000000 1.801730 0.000000 
#    z 0.000000 0.000000 1.782640 
# 
# From -- ./inp_files/9461.got.cif
#   From: 2010.03.12/outbox.cif.g09.slc.cpg/sg57_5_cif.got.tgz:9461.got - 2010.04.16 15:48:40.
