data_PCOD8231723
_publ_section_title
;
Structure prediction by ZEFSAII (Michael W. Deem and Ramdas Pophale) SiO2 
 PCOD8231723
Probable space group: P B C M
;
_chemical_formula_sum "Si O2"
_cell_formula_units_Z 40
_cell_length_a 9.522592
_cell_length_b 18.416922
_cell_length_c 10.341332
_cell_angle_alpha 90.000000
_cell_angle_beta 90.000000
_cell_angle_gamma 90.000000
_cell_volume 1813.630067
_symmetry_space_group_name_H-M "P B C M"
_symmetry_group_IT_number 57
_symmetry_cell_setting 'orthorhombic'
loop_
_space_group_symop_operation_xyz
x,y,z
-x,-y,1/2+z
x,1/2-y,-z
-x,1/2+y,1/2-z
-x,-y,-z
x,y,1/2-z
-x,1/2+y,z
x,1/2-y,1/2+z
loop_
_atom_site_type_symbol
_atom_site_label
_atom_site_fract_x
_atom_site_fract_y
_atom_site_fract_z
Si Si1 0.490512 0.906404 0.750000
Si Si2 0.091721 0.864489 0.479832
Si Si3 0.453078 0.573100 0.750000
Si Si4 0.149727 0.250000 0.500000
Si Si5 0.130168 0.959865 0.250000
Si Si6 0.402616 0.667890 0.988236
Si Si7 0.756422 0.809429 0.750000
Si Si8 0.981376 0.396244 0.750000
O O1 0.416054 0.874304 0.623150
O O2 0.652376 0.878692 0.750000
O O3 0.469190 0.994391 0.750000
O O4 0.060567 0.927345 0.378116
O O5 0.238243 0.824432 0.446125
O O6 0.952763 0.816547 0.468544
O O7 0.114182 0.898540 0.622592
O O8 0.293508 0.551107 0.750000
O O9 0.486445 0.621934 0.877562
O O10 0.259590 0.236390 0.382196
O O11 0.100149 0.043669 0.250000
O O12 0.461953 0.750000 0.000000
O O13 0.924035 0.824449 0.750000
#
# Coordination Sequence:
#
# PCOD8231723 Si02
#       8
#     4   8   4   4   4   8   4   4
#     4  12  24  42  61  88 131 165 210 253 309 383
#     4  10  20  35  62  88 118 152 199 258 308 351
#     4  10  23  42  62  89 125 167 203 253 324 362
#     4  10  20  40  60  86 122 154 202 256 308 364
#     4  10  19  34  56  86 120 151 198 243 301 376
#     4  11  23  41  67  95 119 161 214 268 303 362
#     4  10  23  37  60  82 119 166 198 240 311 362
#     4  10  19  35  55  85 117 157 191 243 305 373
#
# _framework density 22.055215
#
# number of rings (size 3 to 8) (size 9 to 14) (size 15 to 20)
#    0.000    1.600    2.000    3.000    1.400    0.000 
#    0.000    0.000    0.000    0.000    0.000    0.000 
#    0.000    0.000    0.000    0.000    0.000    0.000 
#
# Total GULP energy -495704.041396 kJ/mol
# GULP energy per Si atom -12392.601035 kJ/mol
# Density = 2.200502 g / cm^3
# Si number density = 22.055215 Si / 1000 Ang^3
#
#
#
# Elastic Constant Matrix: (Units=GPa)
#
#
# Indices 1 2 3 4 5 6 
#
# 1 41.5453 6.6738 -1.6318 0.0000 0.0000 0.0000
# 2 6.6738 134.6651 56.5112 0.0000 0.0000 0.0000
# 3 -1.6318 56.5112 162.8755 0.0000 0.0000 0.0000
# 4 0.0000 0.0000 0.0000 -125.2482 0.0000 0.0000
# 5 0.0000 0.0000 0.0000 0.0000 26.7810 0.0000
# 6 0.0000 0.0000 0.0000 0.0000 0.0000 20.2961
#
#
#
# Elastic Compliance Matrix: (Units=1/GPa)
#
#
# Indices 1 2 3 4 5 6 
#
# 1 0.024347 -0.001532 0.000775 0.000000 0.000000 0.000000
# 2 -0.001532 0.008788 -0.003064 0.000000 0.000000 0.000000
# 3 0.000775 -0.003064 0.007211 0.000000 0.000000 0.000000
# 4 0.000000 0.000000 0.000000 -0.007984 0.000000 0.000000
# 5 0.000000 0.000000 0.000000 0.000000 0.037340 0.000000
# 6 0.000000 0.000000 0.000000 0.000000 0.000000 0.049271
#
#
# Mechanical properties :
#
#
# Convention : Reuss Voigt Hill
#
# Bulk Modulus (GPa) = 30.57797 51.35469 40.96633
# Shear Modulus (GPa) = 36.35989 2.86795 19.61392
#
# Velocity S-wave (km/s) = 4.06468 1.14157 2.98536
# Velocity P-wave (km/s) = 5.99360 5.00727 5.52250
#
# Compressibility (1/GPa) = 0.03270328
#
# Stress axis : x y z
#
# Youngs Moduli (GPa) = 41.07336 113.79590 138.68436
#
# Poissons Ratio (x) = 0.17433 -0.10754
# Poissons Ratio (y) = 0.06292 0.42497
# Poissons Ratio (z) = -0.03185 0.34871
#
# Static dielectric constant tensor:
#      x y z
#    x 3.546960 0.000000 0.000000 
#    y 0.000000 4.043670 0.000000 
#    z 0.000000 0.000000 4.326930 
# 
# 
# High freq. dielectric constant tensor:
#      x y z
#    x 1.849410 0.000000 0.000000 
#    y 0.000000 1.859980 0.000000 
#    z 0.000000 0.000000 1.885850 
# 
# From -- ./inp_files/2959.got.cif
#   From: 2010.03.12/outbox.cif.g09.slc.cpg/sg57_2_cif.got.tgz:2959.got - 2010.04.16 15:48:40.
