data_PCOD8231144
_publ_section_title
;
Structure prediction by ZEFSAII (Michael W. Deem and Ramdas Pophale) SiO2 
 PCOD8231144
Probable space group: P B C M
;
_chemical_formula_sum "Si O2"
_cell_formula_units_Z 48
_cell_length_a 15.075972
_cell_length_b 20.547614
_cell_length_c 9.189296
_cell_angle_alpha 90.000000
_cell_angle_beta 90.000000
_cell_angle_gamma 90.000000
_cell_volume 2846.616496
_symmetry_space_group_name_H-M "P B C M"
_symmetry_group_IT_number 57
_symmetry_cell_setting 'orthorhombic'
loop_
_space_group_symop_operation_xyz
x,y,z
-x,-y,1/2+z
x,1/2-y,-z
-x,1/2+y,1/2-z
-x,-y,-z
x,y,1/2-z
-x,1/2+y,z
x,1/2-y,1/2+z
loop_
_atom_site_type_symbol
_atom_site_label
_atom_site_fract_x
_atom_site_fract_y
_atom_site_fract_z
Si Si1 0.424466 0.041030 0.076830
Si Si2 0.939414 0.052163 0.578942
Si Si3 0.386654 0.312851 0.583754
Si Si4 0.014113 0.189359 0.921544
Si Si5 0.767942 0.516271 0.079446
Si Si6 0.184698 0.343513 0.917751
O O1 0.435131 0.035399 0.250000
O O2 0.426241 0.117525 0.029318
O O3 0.332077 0.008347 0.019270
O O4 0.500000 0.000000 0.000000
O O5 0.954621 0.042782 0.750000
O O6 0.964571 0.124134 0.527199
O O7 0.835084 0.042131 0.538125
O O8 0.000000 0.000000 0.500000
O O9 0.426785 0.250000 0.500000
O O10 0.413658 0.303424 0.750000
O O11 0.280921 0.311918 0.563851
O O12 0.011350 0.198607 0.750000
O O13 0.964781 0.250000 0.000000
O O14 0.115566 0.191237 0.976125
O O15 0.755899 0.525091 0.250000
O O16 0.812589 0.582576 0.023631
O O17 0.152353 0.338754 0.750000
#
# Coordination Sequence:
#
# PCOD8231144 Si02
#       6
#     8   8   8   8   8   8
#     4   9  18  33  52  74  98 126 161 199 245 296
#     4  10  19  32  51  72  94 126 167 202 236 285
#     4   9  18  30  46  70  98 128 160 192 236 295
#     4  11  22  31  43  67  97 130 167 203 240 283
#     4   8  15  30  51  71  95 127 158 193 244 294
#     4   9  16  29  48  68  95 129 158 191 237 287
#
# _framework density 16.862124999999999
#
# number of rings (size 3 to 8) (size 9 to 14) (size 15 to 20)
#    0.000    2.667    1.667    3.000    0.000    3.333 
#    0.000    3.333    0.000    1.000    0.000    4.667 
#    0.000    0.000    0.000    0.000    0.000    0.000 
#
# Total GULP energy -594795.052034 kJ/mol
# GULP energy per Si atom -12391.563584 kJ/mol
# Density = 1.682375 g / cm^3
# Si number density = 16.862125 Si / 1000 Ang^3
#
#
#
# Elastic Constant Matrix: (Units=GPa)
#
#
# Indices 1 2 3 4 5 6 
#
# 1 84.8755 66.7611 29.5785 0.0000 0.0000 0.0000
# 2 66.7611 144.7949 50.6351 0.0000 0.0000 0.0000
# 3 29.5785 50.6351 48.3730 0.0000 0.0000 0.0000
# 4 0.0000 0.0000 0.0000 29.3699 0.0000 0.0000
# 5 0.0000 0.0000 0.0000 0.0000 20.7772 0.0000
# 6 0.0000 0.0000 0.0000 0.0000 0.0000 22.2415
#
#
#
# Elastic Compliance Matrix: (Units=1/GPa)
#
#
# Indices 1 2 3 4 5 6 
#
# 1 0.018930 -0.007383 -0.003847 0.000000 0.000000 0.000000
# 2 -0.007383 0.013773 -0.009903 0.000000 0.000000 0.000000
# 3 -0.003847 -0.009903 0.033391 0.000000 0.000000 0.000000
# 4 0.000000 0.000000 0.000000 0.034049 0.000000 0.000000
# 5 0.000000 0.000000 0.000000 0.000000 0.048130 0.000000
# 6 0.000000 0.000000 0.000000 0.000000 0.000000 0.044961
#
#
# Mechanical properties :
#
#
# Convention : Reuss Voigt Hill
#
# Bulk Modulus (GPa) = 41.96627 63.55475 52.76051
# Shear Modulus (GPa) = 20.53872 23.21562 21.87717
#
# Velocity S-wave (km/s) = 3.49383 3.71454 3.60587
# Velocity P-wave (km/s) = 6.42010 7.49465 6.97809
#
# Compressibility (1/GPa) = 0.02382866
#
# Stress axis : x y z
#
# Youngs Moduli (GPa) = 52.82722 72.60328 29.94780
#
# Poissons Ratio (x) = 0.53601 0.11521
# Poissons Ratio (y) = 0.39001 0.29658
# Poissons Ratio (z) = 0.20322 0.71901
#
# Static dielectric constant tensor:
#      x y z
#    x 3.109230 0.000000 0.000000 
#    y 0.000000 3.400720 0.000000 
#    z 0.000000 0.000000 2.968140 
# 
# 
# High freq. dielectric constant tensor:
#      x y z
#    x 1.621670 0.000000 0.000000 
#    y 0.000000 1.656050 0.000000 
#    z 0.000000 0.000000 1.633200 
# 
# From -- ./inp_files/4844.got.cif
#   From: 2010.03.12/outbox.cif.g09.slc.cpg/sg57_3_cif.got.tgz:4844.got - 2010.04.16 15:48:40.
