data_PCOD8231602
_publ_section_title
;
Structure prediction by ZEFSAII (Michael W. Deem and Ramdas Pophale) SiO2 
 PCOD8231602
Probable space group: P B C M
;
_chemical_formula_sum "Si O2"
_cell_formula_units_Z 48
_cell_length_a 14.701629
_cell_length_b 18.555333
_cell_length_c 9.010373
_cell_angle_alpha 90.000000
_cell_angle_beta 90.000000
_cell_angle_gamma 90.000000
_cell_volume 2457.972284
_symmetry_space_group_name_H-M "P B C M"
_symmetry_group_IT_number 57
_symmetry_cell_setting 'orthorhombic'
loop_
_space_group_symop_operation_xyz
x,y,z
-x,-y,1/2+z
x,1/2-y,-z
-x,1/2+y,1/2-z
-x,-y,-z
x,y,1/2-z
-x,1/2+y,z
x,1/2-y,1/2+z
loop_
_atom_site_type_symbol
_atom_site_label
_atom_site_fract_x
_atom_site_fract_y
_atom_site_fract_z
Si Si1 0.630528 0.582659 0.075813
Si Si2 0.951570 0.594629 0.580237
Si Si3 0.123310 0.558674 0.076137
Si Si4 0.524739 0.173013 0.923743
Si Si5 0.224196 0.323967 0.422437
Si Si6 0.690070 0.074532 0.580652
O O1 0.626458 0.600398 0.250000
O O2 0.632442 0.497312 0.043711
O O3 0.544274 0.616568 0.995299
O O4 0.722507 0.613113 0.005015
O O5 0.981044 0.584793 0.750000
O O6 0.898843 0.522839 0.525367
O O7 0.883349 0.661555 0.559310
O O8 0.042618 0.609559 0.486348
O O9 0.126275 0.567643 0.250000
O O10 0.220584 0.583639 0.017468
O O11 0.502431 0.180420 0.750000
O O12 0.626134 0.143182 0.950423
O O13 0.514022 0.250000 0.000000
O O14 0.251403 0.250000 0.500000
O O15 0.252503 0.321641 0.250000
O O16 0.722746 0.071912 0.750000
#
# Coordination Sequence:
#
# PCOD8231602 Si02
#       6
#     8   8   8   8   8   8
#     4  11  22  38  61  88 115 150 192 239 292 347
#     4   9  19  35  54  80 115 151 187 232 284 338
#     4  10  19  33  58  87 113 145 188 236 285 337
#     4  11  24  42  61  84 116 154 193 238 290 346
#     4  11  22  37  56  83 119 157 195 239 291 346
#     4  10  22  39  61  88 117 150 192 241 290 342
#
# _framework density 19.528290999999999
#
# number of rings (size 3 to 8) (size 9 to 14) (size 15 to 20)
#    0.000    1.667    1.667    3.000    0.000    4.000 
#    0.000    0.833    0.000    0.000    0.000    0.000 
#    0.000    0.000    0.000    0.000    0.000    0.000 
#
# Total GULP energy -595340.516041 kJ/mol
# GULP energy per Si atom -12402.927418 kJ/mol
# Density = 1.948384 g / cm^3
# Si number density = 19.528291 Si / 1000 Ang^3
#
#
#
# Elastic Constant Matrix: (Units=GPa)
#
#
# Indices 1 2 3 4 5 6 
#
# 1 112.0180 13.1868 55.1278 0.0000 0.0000 0.0000
# 2 13.1868 41.4642 23.2077 0.0000 0.0000 0.0000
# 3 55.1278 23.2077 107.8609 0.0000 0.0000 0.0000
# 4 0.0000 0.0000 0.0000 21.5114 0.0000 0.0000
# 5 0.0000 0.0000 0.0000 0.0000 40.6073 0.0000
# 6 0.0000 0.0000 0.0000 0.0000 0.0000 20.1580
#
#
#
# Elastic Compliance Matrix: (Units=1/GPa)
#
#
# Indices 1 2 3 4 5 6 
#
# 1 0.011934 -0.000434 -0.006006 0.000000 0.000000 0.000000
# 2 -0.000434 0.027435 -0.005681 0.000000 0.000000 0.000000
# 3 -0.006006 -0.005681 0.013563 0.000000 0.000000 0.000000
# 4 0.000000 0.000000 0.000000 0.046487 0.000000 0.000000
# 5 0.000000 0.000000 0.000000 0.000000 0.024626 0.000000
# 6 0.000000 0.000000 0.000000 0.000000 0.000000 0.049608
#
#
# Mechanical properties :
#
#
# Convention : Reuss Voigt Hill
#
# Bulk Modulus (GPa) = 34.85535 49.37641 42.11588
# Shear Modulus (GPa) = 24.10112 27.77673 25.93892
#
# Velocity S-wave (km/s) = 3.51688 3.77554 3.64850
# Velocity P-wave (km/s) = 5.86333 6.65926 6.27393
#
# Compressibility (1/GPa) = 0.02869000
#
# Stress axis : x y z
#
# Youngs Moduli (GPa) = 83.79394 36.44978 73.72787
#
# Poissons Ratio (x) = 0.01581 0.44282
# Poissons Ratio (y) = 0.03634 0.41887
# Poissons Ratio (z) = 0.50328 0.20708
#
# Static dielectric constant tensor:
#      x y z
#    x 3.561020 0.000000 0.000000 
#    y 0.000000 3.360850 0.000000 
#    z 0.000000 0.000000 3.627540 
# 
# 
# High freq. dielectric constant tensor:
#      x y z
#    x 1.768560 0.000000 0.000000 
#    y 0.000000 1.741540 0.000000 
#    z 0.000000 0.000000 1.770920 
# 
# From -- ./inp_files/4694.got.cif
#   From: 2010.03.12/outbox.cif.g09.slc.cpg/sg57_3_cif.got.tgz:4694.got - 2010.04.16 15:48:40.
