data_PCOD8231620
_publ_section_title
;
Structure prediction by ZEFSAII (Michael W. Deem and Ramdas Pophale) SiO2 
 PCOD8231620
Probable space group: P B C M
;
_chemical_formula_sum "Si O2"
_cell_formula_units_Z 64
_cell_length_a 14.993029
_cell_length_b 29.750903
_cell_length_c 8.530525
_cell_angle_alpha 90.000000
_cell_angle_beta 90.000000
_cell_angle_gamma 90.000000
_cell_volume 3805.093151
_symmetry_space_group_name_H-M "P B C M"
_symmetry_group_IT_number 57
_symmetry_cell_setting 'orthorhombic'
loop_
_space_group_symop_operation_xyz
x,y,z
-x,-y,1/2+z
x,1/2-y,-z
-x,1/2+y,1/2-z
-x,-y,-z
x,y,1/2-z
-x,1/2+y,z
x,1/2-y,1/2+z
loop_
_atom_site_type_symbol
_atom_site_label
_atom_site_fract_x
_atom_site_fract_y
_atom_site_fract_z
Si Si1 0.003147 0.202754 0.935260
Si Si2 0.791721 0.795671 0.065769
Si Si3 0.170363 0.957897 0.435728
Si Si4 0.968072 0.391623 0.933833
Si Si5 0.287290 0.114653 0.566027
Si Si6 0.552787 0.941257 0.066622
Si Si7 0.367671 0.530152 0.932806
Si Si8 0.869793 0.947852 0.434803
O O1 0.989735 0.200856 0.750000
O O2 0.106124 0.199363 0.986708
O O3 0.963317 0.250000 0.000000
O O4 0.954726 0.160116 0.013560
O O5 0.783012 0.794508 0.250000
O O6 0.736931 0.837255 0.990767
O O7 0.749339 0.750000 0.000000
O O8 0.165677 0.950153 0.250000
O O9 0.122821 0.917128 0.523914
O O10 0.271680 0.957773 0.506283
O O11 0.121400 0.004855 0.475638
O O12 0.987318 0.394190 0.750000
O O13 0.048392 0.415112 0.027058
O O14 0.270089 0.118045 0.750000
O O15 0.390769 0.103589 0.527243
O O16 0.220984 0.075856 0.503949
O O17 0.558031 0.953207 0.250000
O O18 0.448820 0.936181 0.014681
O O19 0.601921 0.980487 0.974841
O O20 0.352775 0.533018 0.750000
O O21 0.868580 0.957313 0.250000
#
# Coordination Sequence:
#
# PCOD8231620 Si02
#       8
#     8   8   8   8   8   8   8   8
#     4  10  19  34  53  74 100 128 162 203 246 293
#     4   9  17  30  46  68  94 124 156 190 232 280
#     4  11  22  35  48  68  99 133 168 211 251 292
#     4  12  24  36  50  71  96 132 172 207 249 295
#     4   9  16  28  48  70  95 127 160 191 232 288
#     4   9  16  29  49  70  93 124 158 193 237 290
#     4   9  18  30  46  70  96 121 157 202 243 283
#     4  11  20  34  50  69  97 133 169 203 241 292
#
# _framework density 16.819562000000001
#
# number of rings (size 3 to 8) (size 9 to 14) (size 15 to 20)
#    0.000    2.000    2.500    2.625    0.000    1.000 
#    0.000    0.625    0.000    0.000    0.000    0.875 
#    0.000    2.000    0.000    0.000    0.000    0.000 
#
# Total GULP energy -793314.507271 kJ/mol
# GULP energy per Si atom -12395.539176 kJ/mol
# Density = 1.678128 g / cm^3
# Si number density = 16.819562 Si / 1000 Ang^3
#
#
#
# Elastic Constant Matrix: (Units=GPa)
#
#
# Indices 1 2 3 4 5 6 
#
# 1 85.5743 41.7393 13.7429 0.0000 0.0000 0.0000
# 2 41.7393 125.4416 19.0058 0.0000 0.0000 0.0000
# 3 13.7429 19.0058 33.2868 0.0000 0.0000 0.0000
# 4 0.0000 0.0000 0.0000 25.9599 0.0000 0.0000
# 5 0.0000 0.0000 0.0000 0.0000 14.6544 0.0000
# 6 0.0000 0.0000 0.0000 0.0000 0.0000 19.4023
#
#
#
# Elastic Compliance Matrix: (Units=1/GPa)
#
#
# Indices 1 2 3 4 5 6 
#
# 1 0.014311 -0.004233 -0.003492 0.000000 0.000000 0.000000
# 2 -0.004233 0.009979 -0.003950 0.000000 0.000000 0.000000
# 3 -0.003492 -0.003950 0.033739 0.000000 0.000000 0.000000
# 4 0.000000 0.000000 0.000000 0.038521 0.000000 0.000000
# 5 0.000000 0.000000 0.000000 0.000000 0.068239 0.000000
# 6 0.000000 0.000000 0.000000 0.000000 0.000000 0.051540
#
#
# Mechanical properties :
#
#
# Convention : Reuss Voigt Hill
#
# Bulk Modulus (GPa) = 28.83537 43.69764 36.26650
# Shear Modulus (GPa) = 19.90146 23.32429 21.61288
#
# Velocity S-wave (km/s) = 3.44355 3.72793 3.58856
# Velocity P-wave (km/s) = 5.74385 6.67582 6.22730
#
# Compressibility (1/GPa) = 0.03467963
#
# Stress axis : x y z
#
# Youngs Moduli (GPa) = 69.87590 100.21320 29.63940
#
# Poissons Ratio (x) = 0.42418 0.10349
# Poissons Ratio (y) = 0.29577 0.11708
# Poissons Ratio (z) = 0.24399 0.39584
#
# Static dielectric constant tensor:
#      x y z
#    x 3.381700 0.000000 0.000000 
#    y 0.000000 3.369120 0.000000 
#    z 0.000000 0.000000 3.044950 
# 
# 
# High freq. dielectric constant tensor:
#      x y z
#    x 1.631080 0.000000 0.000000 
#    y 0.000000 1.636180 0.000000 
#    z 0.000000 0.000000 1.643500 
# 
# From -- ./inp_files/5985.got.cif
#   From: 2010.03.12/outbox.cif.g09.slc.cpg/sg57_3_cif.got.tgz:5985.got - 2010.04.16 15:48:40.
