data_PCOD8231640
_publ_section_title
;
Structure prediction by ZEFSAII (Michael W. Deem and Ramdas Pophale) SiO2 
 PCOD8231640
Probable space group: P B C M
;
_chemical_formula_sum "Si O2"
_cell_formula_units_Z 64
_cell_length_a 21.524001
_cell_length_b 19.149890
_cell_length_c 8.723582
_cell_angle_alpha 90.000000
_cell_angle_beta 90.000000
_cell_angle_gamma 90.000000
_cell_volume 3595.705670
_symmetry_space_group_name_H-M "P B C M"
_symmetry_group_IT_number 57
_symmetry_cell_setting 'orthorhombic'
loop_
_space_group_symop_operation_xyz
x,y,z
-x,-y,1/2+z
x,1/2-y,-z
-x,1/2+y,1/2-z
-x,-y,-z
x,y,1/2-z
-x,1/2+y,z
x,1/2-y,1/2+z
loop_
_atom_site_type_symbol
_atom_site_label
_atom_site_fract_x
_atom_site_fract_y
_atom_site_fract_z
Si Si1 0.014778 0.425060 0.068862
Si Si2 0.603335 0.678429 0.066006
Si Si3 0.731390 0.633324 0.417060
Si Si4 0.322882 0.980499 0.419086
Si Si5 0.903956 0.174009 0.568807
Si Si6 0.144305 0.079348 0.066223
Si Si7 0.440291 0.036117 0.930440
Si Si8 0.804093 0.432535 0.432238
O O1 0.014958 0.432291 0.250000
O O2 0.963265 0.370099 0.012843
O O3 0.080518 0.395664 0.009470
O O4 0.000000 0.500000 0.000000
O O5 0.601665 0.676782 0.250000
O O6 0.674720 0.673797 0.999174
O O7 0.574029 0.750000 0.000000
O O8 0.564626 0.612797 0.004912
O O9 0.738971 0.667814 0.250000
O O10 0.710491 0.553943 0.398159
O O11 0.799930 0.631299 0.494826
O O12 0.345916 0.955281 0.250000
O O13 0.381286 0.986599 0.532390
O O14 0.268430 0.929945 0.487969
O O15 0.907087 0.250000 0.500000
O O16 0.903415 0.179896 0.750000
O O17 0.841175 0.135534 0.509402
O O18 0.139685 0.082748 0.250000
O O19 0.158979 0.000849 0.008559
O O20 0.446979 0.044193 0.750000
O O21 0.500000 0.000000 0.000000
O O22 0.803166 0.435869 0.250000
#
# Coordination Sequence:
#
# PCOD8231640 Si02
#       8
#     8   8   8   8   8   8   8   8
#     4  11  21  33  50  72  98 129 172 220 264 315
#     4  10  19  34  54  78 107 143 183 220 264 318
#     4   7  13  26  47  71  97 129 161 197 247 306
#     4   8  14  28  51  75  98 127 164 203 250 305
#     4  10  21  36  51  70  98 132 169 212 264 321
#     4   9  15  29  51  73  97 126 163 209 257 304
#     4  11  21  34  53  80 113 146 181 223 265 307
#     4   8  14  29  52  73  96 127 160 202 256 313
#
# _framework density 17.799009000000002
#
# number of rings (size 3 to 8) (size 9 to 14) (size 15 to 20)
#    0.000    2.750    1.250    4.125    0.000    1.000 
#    0.000    7.500    0.000    3.750    0.000    3.500 
#    0.000    0.000    0.000    0.000    0.000    0.000 
#
# Total GULP energy -792855.844800 kJ/mol
# GULP energy per Si atom -12388.372575 kJ/mol
# Density = 1.775850 g / cm^3
# Si number density = 17.799009 Si / 1000 Ang^3
#
#
#
# Elastic Constant Matrix: (Units=GPa)
#
#
# Indices 1 2 3 4 5 6 
#
# 1 138.6225 63.9252 41.6989 0.0000 0.0000 0.0000
# 2 63.9252 103.8593 33.3217 0.0000 0.0000 0.0000
# 3 41.6989 33.3217 64.0407 0.0000 0.0000 0.0000
# 4 0.0000 0.0000 0.0000 22.5242 0.0000 0.0000
# 5 0.0000 0.0000 0.0000 0.0000 25.0333 0.0000
# 6 0.0000 0.0000 0.0000 0.0000 0.0000 20.7419
#
#
#
# Elastic Compliance Matrix: (Units=1/GPa)
#
#
# Indices 1 2 3 4 5 6 
#
# 1 0.011006 -0.005372 -0.004371 0.000000 0.000000 0.000000
# 2 -0.005372 0.014180 -0.003880 0.000000 0.000000 0.000000
# 3 -0.004371 -0.003880 0.020480 0.000000 0.000000 0.000000
# 4 0.000000 0.000000 0.000000 0.044397 0.000000 0.000000
# 5 0.000000 0.000000 0.000000 0.000000 0.039947 0.000000
# 6 0.000000 0.000000 0.000000 0.000000 0.000000 0.048212
#
#
# Mechanical properties :
#
#
# Convention : Reuss Voigt Hill
#
# Bulk Modulus (GPa) = 54.29070 64.93491 59.61281
# Shear Modulus (GPa) = 23.62871 24.83167 24.23019
#
# Velocity S-wave (km/s) = 3.64748 3.73918 3.69361
# Velocity P-wave (km/s) = 6.95033 7.42990 7.19411
#
# Compressibility (1/GPa) = 0.01841936
#
# Stress axis : x y z
#
# Youngs Moduli (GPa) = 90.86073 70.52406 48.82728
#
# Poissons Ratio (x) = 0.37883 0.21344
# Poissons Ratio (y) = 0.48807 0.18946
# Poissons Ratio (z) = 0.39718 0.27365
#
# Static dielectric constant tensor:
#      x y z
#    x 3.709030 0.000000 0.000000 
#    y 0.000000 2.567440 0.000000 
#    z 0.000000 0.000000 3.098260 
# 
# 
# High freq. dielectric constant tensor:
#      x y z
#    x 1.695990 0.000000 0.000000 
#    y 0.000000 1.656950 0.000000 
#    z 0.000000 0.000000 1.664980 
# 
# From -- ./inp_files/8676.got.cif
#   From: 2010.03.12/outbox.cif.g09.slc.cpg/sg57_5_cif.got.tgz:8676.got - 2010.04.16 15:48:40.
