data_PCOD8231425
_publ_section_title
;
Structure prediction by ZEFSAII (Michael W. Deem and Ramdas Pophale) SiO2 
 PCOD8231425
Probable space group: P B C M
;
_chemical_formula_sum "Si O2"
_cell_formula_units_Z 48
_cell_length_a 31.294756
_cell_length_b 9.120732
_cell_length_c 8.780218
_cell_angle_alpha 90.000000
_cell_angle_beta 90.000000
_cell_angle_gamma 90.000000
_cell_volume 2506.147128
_symmetry_space_group_name_H-M "P B C M"
_symmetry_group_IT_number 57
_symmetry_cell_setting 'orthorhombic'
loop_
_space_group_symop_operation_xyz
x,y,z
-x,-y,1/2+z
x,1/2-y,-z
-x,1/2+y,1/2-z
-x,-y,-z
x,y,1/2-z
-x,1/2+y,z
x,1/2-y,1/2+z
loop_
_atom_site_type_symbol
_atom_site_label
_atom_site_fract_x
_atom_site_fract_y
_atom_site_fract_z
Si Si1 0.881042 0.907854 0.427557
Si Si2 0.961536 0.090690 0.068877
Si Si3 0.461292 0.089581 0.430476
Si Si4 0.296734 0.088631 0.430475
Si Si5 0.787482 0.590756 0.571299
Si Si6 0.378312 0.591353 0.571038
O O1 0.888035 0.750000 0.500000
O O2 0.885843 0.880583 0.250000
O O3 0.834173 0.979343 0.463722
O O4 0.917010 0.019012 0.486289
O O5 0.965531 0.096672 0.250000
O O6 0.963616 0.250000 0.000000
O O7 0.000000 0.000000 0.000000
O O8 0.460527 0.250000 0.500000
O O9 0.466638 0.099983 0.250000
O O10 0.500000 0.000000 0.500000
O O11 0.417894 0.008772 0.479100
O O12 0.302431 0.250000 0.500000
O O13 0.295926 0.102367 0.250000
O O14 0.252675 0.010956 0.489861
O O15 0.335308 0.986896 0.488121
O O16 0.789334 0.750000 0.500000
O O17 0.778226 0.599188 0.750000
O O18 0.383339 0.750000 0.500000
O O19 0.376956 0.611705 0.750000
#
# Coordination Sequence:
#
# PCOD8231425 Si02
#       6
#     8   8   8   8   8   8
#     4   9  19  34  54  79 108 139 176 218 265 318
#     4  11  23  39  57  80 108 141 179 222 269 322
#     4  11  23  40  61  87 115 147 184 226 273 326
#     4  10  19  33  53  80 108 139 179 223 267 317
#     4   9  16  29  50  77 106 139 176 218 264 315
#     4  10  23  39  56  79 110 145 184 225 271 322
#
# _framework density 19.152906000000002
#
# number of rings (size 3 to 8) (size 9 to 14) (size 15 to 20)
#    0.000    2.000    0.000    4.500    0.000    7.333 
#    0.000    0.833    0.000    4.000    0.000    0.000 
#    0.000    0.000    0.000    0.000    0.000    0.000 
#
# Total GULP energy -595046.921560 kJ/mol
# GULP energy per Si atom -12396.810866 kJ/mol
# Density = 1.910931 g / cm^3
# Si number density = 19.152906 Si / 1000 Ang^3
#
#
#
# Elastic Constant Matrix: (Units=GPa)
#
#
# Indices 1 2 3 4 5 6 
#
# 1 210.4783 93.5155 64.1479 0.0000 0.0000 0.0000
# 2 93.5155 136.9043 45.9511 0.0000 0.0000 0.0000
# 3 64.1479 45.9511 74.8314 0.0000 0.0000 0.0000
# 4 0.0000 0.0000 0.0000 31.1350 0.0000 0.0000
# 5 0.0000 0.0000 0.0000 0.0000 31.4991 0.0000
# 6 0.0000 0.0000 0.0000 0.0000 0.0000 31.4813
#
#
#
# Elastic Compliance Matrix: (Units=1/GPa)
#
#
# Indices 1 2 3 4 5 6 
#
# 1 0.007780 -0.003874 -0.004290 0.000000 0.000000 0.000000
# 2 -0.003874 0.011130 -0.003513 0.000000 0.000000 0.000000
# 3 -0.004290 -0.003513 0.019198 0.000000 0.000000 0.000000
# 4 0.000000 0.000000 0.000000 0.032118 0.000000 0.000000
# 5 0.000000 0.000000 0.000000 0.000000 0.031747 0.000000
# 6 0.000000 0.000000 0.000000 0.000000 0.000000 0.031765
#
#
# Mechanical properties :
#
#
# Convention : Reuss Voigt Hill
#
# Bulk Modulus (GPa) = 67.78368 92.16034 79.97201
# Shear Modulus (GPa) = 30.86196 33.39638 32.12917
#
# Velocity S-wave (km/s) = 4.01851 4.18026 4.10018
# Velocity P-wave (km/s) = 7.54976 8.45707 8.01626
#
# Compressibility (1/GPa) = 0.01475281
#
# Stress axis : x y z
#
# Youngs Moduli (GPa) = 128.53531 89.84700 52.08749
#
# Poissons Ratio (x) = 0.34809 0.22346
# Poissons Ratio (y) = 0.49799 0.18300
# Poissons Ratio (z) = 0.55144 0.31566
#
# Static dielectric constant tensor:
#      x y z
#    x 4.569300 0.000000 0.000000 
#    y 0.000000 3.418710 0.000000 
#    z 0.000000 0.000000 3.572470 
# 
# 
# High freq. dielectric constant tensor:
#      x y z
#    x 1.775130 0.000000 0.000000 
#    y 0.000000 1.722000 0.000000 
#    z 0.000000 0.000000 1.752710 
# 
# From -- ./inp_files/10067.got.cif
#   From: 2010.03.12/outbox.cif.g09.slc.cpg/sg57_6_cif.got.tgz:10067.got - 2010.04.16 15:48:40.
