data_PCOD8231684
_publ_section_title
;
Structure prediction by ZEFSAII (Michael W. Deem and Ramdas Pophale) SiO2 
 PCOD8231684
Probable space group: P B C M
;
_chemical_formula_sum "Si O2"
_cell_formula_units_Z 64
_cell_length_a 20.198078
_cell_length_b 19.235103
_cell_length_c 9.003100
_cell_angle_alpha 90.000000
_cell_angle_beta 90.000000
_cell_angle_gamma 90.000000
_cell_volume 3497.813384
_symmetry_space_group_name_H-M "P B C M"
_symmetry_group_IT_number 57
_symmetry_cell_setting 'orthorhombic'
loop_
_space_group_symop_operation_xyz
x,y,z
-x,-y,1/2+z
x,1/2-y,-z
-x,1/2+y,1/2-z
-x,-y,-z
x,y,1/2-z
-x,1/2+y,z
x,1/2-y,1/2+z
loop_
_atom_site_type_symbol
_atom_site_label
_atom_site_fract_x
_atom_site_fract_y
_atom_site_fract_z
Si Si1 0.809517 0.041918 0.925625
Si Si2 0.939816 0.962853 0.576518
Si Si3 0.484116 0.820631 0.425575
Si Si4 0.636674 0.819826 0.423510
Si Si5 0.445121 0.954527 0.921117
Si Si6 0.308169 0.033846 0.580013
Si Si7 0.007690 0.318413 0.577809
Si Si8 0.143755 0.821818 0.573698
O O1 0.810024 0.054569 0.750000
O O2 0.870824 0.994292 0.978855
O O3 0.812199 0.115854 0.008227
O O4 0.744121 0.000821 0.970820
O O5 0.949421 0.973871 0.750000
O O6 0.943453 0.881303 0.535062
O O7 0.000000 0.000000 0.500000
O O8 0.458636 0.750000 0.500000
O O9 0.473112 0.817928 0.250000
O O10 0.560646 0.833930 0.468765
O O11 0.439674 0.881056 0.495947
O O12 0.664468 0.750000 0.500000
O O13 0.641574 0.807271 0.250000
O O14 0.680109 0.886392 0.471543
O O15 0.465214 0.943783 0.750000
O O16 0.375661 0.992234 0.935456
O O17 0.500000 0.000000 0.000000
O O18 0.282746 0.031477 0.750000
O O19 0.035935 0.250000 0.500000
O O20 0.007671 0.302275 0.750000
O O21 0.932548 0.335602 0.527073
O O22 0.168429 0.750000 0.500000
O O23 0.153682 0.818074 0.750000
#
# Coordination Sequence:
#
# PCOD8231684 Si02
#       8
#     8   8   8   8   8   8   8   8
#     4  11  23  37  56  84 115 148 190 235 279 333
#     4  10  20  35  55  81 111 141 181 228 275 328
#     4  10  19  34  55  85 117 147 186 234 284 338
#     4   9  18  34  55  81 110 144 185 229 275 330
#     4  11  21  36  58  84 113 147 186 234 283 335
#     4  10  22  40  57  79 115 153 191 231 279 336
#     4   9  18  32  52  80 110 142 180 225 275 327
#     4  10  19  34  57  82 111 146 184 228 279 336
#
# _framework density 18.297146000000001
#
# number of rings (size 3 to 8) (size 9 to 14) (size 15 to 20)
#    0.000    2.000    2.500    1.500    0.000    3.500 
#    0.000    1.250    0.000    6.000    0.000    0.000 
#    0.000    0.000    0.000    0.000    0.000    0.000 
#
# Total GULP energy -793721.905442 kJ/mol
# GULP energy per Si atom -12401.904773 kJ/mol
# Density = 1.825550 g / cm^3
# Si number density = 18.297146 Si / 1000 Ang^3
#
#
#
# Elastic Constant Matrix: (Units=GPa)
#
#
# Indices 1 2 3 4 5 6 
#
# 1 56.8578 43.3376 32.6930 0.0000 0.0000 0.0000
# 2 43.3376 160.2151 60.2383 0.0000 0.0000 0.0000
# 3 32.6930 60.2383 78.2336 0.0000 0.0000 0.0000
# 4 0.0000 0.0000 0.0000 38.9476 0.0000 0.0000
# 5 0.0000 0.0000 0.0000 0.0000 24.2670 0.0000
# 6 0.0000 0.0000 0.0000 0.0000 0.0000 25.1819
#
#
#
# Elastic Compliance Matrix: (Units=1/GPa)
#
#
# Indices 1 2 3 4 5 6 
#
# 1 0.024816 -0.003960 -0.007321 0.000000 0.000000 0.000000
# 2 -0.003960 0.009417 -0.005596 0.000000 0.000000 0.000000
# 3 -0.007321 -0.005596 0.020150 0.000000 0.000000 0.000000
# 4 0.000000 0.000000 0.000000 0.025676 0.000000 0.000000
# 5 0.000000 0.000000 0.000000 0.000000 0.041208 0.000000
# 6 0.000000 0.000000 0.000000 0.000000 0.000000 0.039711
#
#
# Mechanical properties :
#
#
# Convention : Reuss Voigt Hill
#
# Bulk Modulus (GPa) = 48.47574 63.09382 55.78478
# Shear Modulus (GPa) = 24.80064 28.28180 26.54122
#
# Velocity S-wave (km/s) = 3.68562 3.93580 3.81276
# Velocity P-wave (km/s) = 6.68303 7.43046 7.06663
#
# Compressibility (1/GPa) = 0.02062888
#
# Stress axis : x y z
#
# Youngs Moduli (GPa) = 40.29713 106.19424 49.62689
#
# Poissons Ratio (x) = 0.42052 0.36333
# Poissons Ratio (y) = 0.15957 0.27771
# Poissons Ratio (z) = 0.29502 0.59425
#
# Static dielectric constant tensor:
#      x y z
#    x 2.821540 0.000000 0.000000 
#    y 0.000000 3.525870 0.000000 
#    z 0.000000 0.000000 3.415780 
# 
# 
# High freq. dielectric constant tensor:
#      x y z
#    x 1.676650 0.000000 0.000000 
#    y 0.000000 1.727510 0.000000 
#    z 0.000000 0.000000 1.715010 
# 
# From -- ./inp_files/8613.got.cif
#   From: 2010.03.12/outbox.cif.g09.slc.cpg/sg57_5_cif.got.tgz:8613.got - 2010.04.16 15:48:40.
