data_PCOD8231287
_publ_section_title
;
Structure prediction by ZEFSAII (Michael W. Deem and Ramdas Pophale) SiO2 
 PCOD8231287
Probable space group: P B C M
;
_chemical_formula_sum "Si O2"
_cell_formula_units_Z 52
_cell_length_a 4.957608
_cell_length_b 16.569421
_cell_length_c 28.687643
_cell_angle_alpha 90.000000
_cell_angle_beta 90.000000
_cell_angle_gamma 90.000000
_cell_volume 2356.537659
_symmetry_space_group_name_H-M "P B C M"
_symmetry_group_IT_number 57
_symmetry_cell_setting 'orthorhombic'
loop_
_space_group_symop_operation_xyz
x,y,z
-x,-y,1/2+z
x,1/2-y,-z
-x,1/2+y,1/2-z
-x,-y,-z
x,y,1/2-z
-x,1/2+y,z
x,1/2-y,1/2+z
loop_
_atom_site_type_symbol
_atom_site_label
_atom_site_fract_x
_atom_site_fract_y
_atom_site_fract_z
Si Si1 0.783337 0.031970 0.958509
Si Si2 0.207633 0.650797 0.148967
Si Si3 0.379472 0.601153 0.448858
Si Si4 0.176574 0.248825 0.250000
Si Si5 0.322334 0.645075 0.250000
Si Si6 0.268269 0.374428 0.070273
Si Si7 0.404921 0.250000 0.500000
Si Si8 0.293317 0.260688 0.152603
O O1 0.569194 0.094820 0.937597
O O2 0.062928 0.050914 0.932818
O O3 0.676694 0.940943 0.950201
O O4 0.812314 0.050560 0.014666
O O5 0.260629 0.594922 0.103539
O O6 0.251454 0.603057 0.199244
O O7 0.904854 0.684324 0.144883
O O8 0.405852 0.727655 0.146427
O O9 0.411314 0.693838 0.465857
O O10 0.361649 0.166887 0.250000
O O11 0.861574 0.225965 0.250000
O O12 0.249203 0.298824 0.203926
O O13 0.210293 0.305263 0.031663
O O14 0.235154 0.336109 0.120465
#
# Coordination Sequence:
#
# PCOD8231287 Si02
#       8
#     8   8   8   4   4   8   4   8
#     4  10  25  38  54  75 120 152 180 215 280 341
#     4  10  19  32  56  80 108 136 180 229 275 316
#     4  10  22  40  55  82 110 153 183 227 276 323
#     4   8  16  30  48  76 112 132 168 221 283 322
#     4   8  16  30  48  80 106 132 168 227 281 318
#     4  11  22  38  55  82 110 144 183 226 269 323
#     4  10  22  34  60  82 108 134 200 228 260 316
#     4  10  19  32  54  83 106 139 177 230 274 315
#
# _framework density 22.066274
#
# number of rings (size 3 to 8) (size 9 to 14) (size 15 to 20)
#    0.000    2.154    1.538    0.923    4.308    7.385 
#    0.000    0.000    0.000    1.846    0.000    0.000 
#    0.000    0.000    0.000    0.000    0.000    0.000 
#
# Total GULP energy -644403.746223 kJ/mol
# GULP energy per Si atom -12392.379735 kJ/mol
# Density = 2.201605 g / cm^3
# Si number density = 22.066274 Si / 1000 Ang^3
#
#
#
# Elastic Constant Matrix: (Units=GPa)
#
#
# Indices 1 2 3 4 5 6 
#
# 1 51.7527 -5.7041 12.5286 0.0000 0.0000 0.0000
# 2 -5.7041 62.9085 32.5669 0.0000 0.0000 0.0000
# 3 12.5286 32.5669 193.1315 0.0000 0.0000 0.0000
# 4 0.0000 0.0000 0.0000 29.4555 0.0000 0.0000
# 5 0.0000 0.0000 0.0000 0.0000 25.1868 0.0000
# 6 0.0000 0.0000 0.0000 0.0000 0.0000 22.1775
#
#
#
# Elastic Compliance Matrix: (Units=1/GPa)
#
#
# Indices 1 2 3 4 5 6 
#
# 1 0.020050 0.002730 -0.001761 0.000000 0.000000 0.000000
# 2 0.002730 0.017788 -0.003177 0.000000 0.000000 0.000000
# 3 -0.001761 -0.003177 0.005828 0.000000 0.000000 0.000000
# 4 0.000000 0.000000 0.000000 0.033950 0.000000 0.000000
# 5 0.000000 0.000000 0.000000 0.000000 0.039703 0.000000
# 6 0.000000 0.000000 0.000000 0.000000 0.000000 0.045091
#
#
# Mechanical properties :
#
#
# Convention : Reuss Voigt Hill
#
# Bulk Modulus (GPa) = 25.47790 42.95282 34.21536
# Shear Modulus (GPa) = 27.79193 33.25738 30.52465
#
# Velocity S-wave (km/s) = 3.55276 3.88643 3.72333
# Velocity P-wave (km/s) = 5.32922 6.29656 5.83298
#
# Compressibility (1/GPa) = 0.03924970
#
# Stress axis : x y z
#
# Youngs Moduli (GPa) = 49.87582 56.21746 171.59415
#
# Poissons Ratio (x) = -0.15345 0.30216
# Poissons Ratio (y) = -0.13614 0.54508
# Poissons Ratio (z) = 0.08783 0.17858
#
# Static dielectric constant tensor:
#      x y z
#    x 3.952340 0.000000 0.000000 
#    y 0.000000 3.588370 0.000000 
#    z 0.000000 0.000000 4.560600 
# 
# 
# High freq. dielectric constant tensor:
#      x y z
#    x 1.880100 0.000000 0.000000 
#    y 0.000000 1.815630 0.000000 
#    z 0.000000 0.000000 1.885230 
# 
# From -- ./inp_files/29240.got.cif
#   From: 2010.03.12/outbox.cif.g09.slc.cpg/sg57_15_cif.got.tgz:29240.got - 2010.04.16 15:48:40.
