data_PCOD8231961
_publ_section_title
;
Structure prediction by ZEFSAII (Michael W. Deem and Ramdas Pophale) SiO2 
 PCOD8231961
Probable space group: P B C M
;
_chemical_formula_sum "Si O2"
_cell_formula_units_Z 40
_cell_length_a 9.650995
_cell_length_b 13.743198
_cell_length_c 14.910327
_cell_angle_alpha 90.000000
_cell_angle_beta 90.000000
_cell_angle_gamma 90.000000
_cell_volume 1977.639201
_symmetry_space_group_name_H-M "P B C M"
_symmetry_group_IT_number 57
_symmetry_cell_setting 'orthorhombic'
loop_
_space_group_symop_operation_xyz
x,y,z
-x,-y,1/2+z
x,1/2-y,-z
-x,1/2+y,1/2-z
-x,-y,-z
x,y,1/2-z
-x,1/2+y,z
x,1/2-y,1/2+z
loop_
_atom_site_type_symbol
_atom_site_label
_atom_site_fract_x
_atom_site_fract_y
_atom_site_fract_z
Si Si1 0.249581 0.158195 0.561906
Si Si2 0.223190 0.820253 0.651475
Si Si3 0.036807 0.859340 0.352700
Si Si4 0.548441 0.190055 0.590034
Si Si5 0.760104 0.045996 0.980947
O O1 0.217768 0.250000 0.500000
O O2 0.127284 0.143406 0.632689
O O3 0.391080 0.168346 0.620762
O O4 0.264300 0.067701 0.493955
O O5 0.198425 0.866637 0.750000
O O6 0.365934 0.757786 0.658224
O O7 0.224065 0.904661 0.578459
O O8 0.100156 0.746468 0.625048
O O9 0.068102 0.889154 0.250000
O O10 0.102668 0.938146 0.420584
O O11 0.538141 0.250000 0.500000
O O12 0.629040 0.088945 0.573046
#
# Coordination Sequence:
#
# PCOD8231961 Si02
#       5
#     8   8   8   8   8
#     4  11  21  34  53  80 112 145 178 226 280 326
#     4   9  18  35  58  80 105 141 184 225 267 325
#     4  10  21  36  55  80 108 141 183 229 277 327
#     4   8  17  33  55  79 105 138 176 217 268 324
#     4  10  19  36  58  79 106 147 188 221 266 332
#
# _framework density 20.226137000000001
#
# number of rings (size 3 to 8) (size 9 to 14) (size 15 to 20)
#    0.000    2.400    0.000    4.200    0.000    1.600 
#    0.000    3.000    0.000   16.800    0.000    0.000 
#    0.000    0.000    0.000    0.000    0.000    0.000 
#
# Total GULP energy -495915.276384 kJ/mol
# GULP energy per Si atom -12397.881910 kJ/mol
# Density = 2.018010 g / cm^3
# Si number density = 20.226137 Si / 1000 Ang^3
#
#
#
# Elastic Constant Matrix: (Units=GPa)
#
#
# Indices 1 2 3 4 5 6 
#
# 1 141.8607 19.8454 19.6112 0.0000 0.0000 0.0000
# 2 19.8454 104.9083 27.3084 0.0000 0.0000 0.0000
# 3 19.6112 27.3084 79.9636 0.0000 0.0000 0.0000
# 4 0.0000 0.0000 0.0000 15.5756 0.0000 0.0000
# 5 0.0000 0.0000 0.0000 0.0000 11.0300 0.0000
# 6 0.0000 0.0000 0.0000 0.0000 0.0000 12.3630
#
#
#
# Elastic Compliance Matrix: (Units=1/GPa)
#
#
# Indices 1 2 3 4 5 6 
#
# 1 0.007394 -0.001017 -0.001466 0.000000 0.000000 0.000000
# 2 -0.001017 0.010602 -0.003371 0.000000 0.000000 0.000000
# 3 -0.001466 -0.003371 0.014017 0.000000 0.000000 0.000000
# 4 0.000000 0.000000 0.000000 0.064203 0.000000 0.000000
# 5 0.000000 0.000000 0.000000 0.000000 0.090662 0.000000
# 6 0.000000 0.000000 0.000000 0.000000 0.000000 0.080886
#
#
# Mechanical properties :
#
#
# Convention : Reuss Voigt Hill
#
# Bulk Modulus (GPa) = 49.25164 51.14029 50.19597
# Shear Modulus (GPa) = 17.46778 25.12489 21.29634
#
# Velocity S-wave (km/s) = 2.94194 3.52831 3.24838
# Velocity P-wave (km/s) = 5.99528 6.47594 6.24024
#
# Compressibility (1/GPa) = 0.02030389
#
# Stress axis : x y z
#
# Youngs Moduli (GPa) = 135.24245 94.32090 71.34415
#
# Poissons Ratio (x) = 0.09594 0.10460
# Poissons Ratio (y) = 0.13756 0.24052
# Poissons Ratio (z) = 0.19827 0.31798
#
# Static dielectric constant tensor:
#      x y z
#    x 4.250840 0.000000 0.000000 
#    y 0.000000 3.490210 0.000000 
#    z 0.000000 0.000000 2.997090 
# 
# 
# High freq. dielectric constant tensor:
#      x y z
#    x 1.801260 0.000000 0.000000 
#    y 0.000000 1.776360 0.000000 
#    z 0.000000 0.000000 1.770880 
# 
# From -- ./inp_files/15910.got.cif
#   From: 2010.03.12/outbox.cif.g09.slc.cpg/sg57_8_cif.got.tgz:15910.got - 2010.04.16 15:48:40.
