data_PCOD8231529
_publ_section_title
;
Structure prediction by ZEFSAII (Michael W. Deem and Ramdas Pophale) SiO2 
 PCOD8231529
Probable space group: P B C M
;
_chemical_formula_sum "Si O2"
_cell_formula_units_Z 64
_cell_length_a 17.672492
_cell_length_b 19.867575
_cell_length_c 9.358470
_cell_angle_alpha 90.000000
_cell_angle_beta 90.000000
_cell_angle_gamma 90.000000
_cell_volume 3285.848286
_symmetry_space_group_name_H-M "P B C M"
_symmetry_group_IT_number 57
_symmetry_cell_setting 'orthorhombic'
loop_
_space_group_symop_operation_xyz
x,y,z
-x,-y,1/2+z
x,1/2-y,-z
-x,1/2+y,1/2-z
-x,-y,-z
x,y,1/2-z
-x,1/2+y,z
x,1/2-y,1/2+z
loop_
_atom_site_type_symbol
_atom_site_label
_atom_site_fract_x
_atom_site_fract_y
_atom_site_fract_z
Si Si1 0.839716 0.182017 0.920060
Si Si2 0.212070 0.946980 0.913827
Si Si3 0.245738 0.181691 0.089051
Si Si4 0.589222 0.811899 0.592804
Si Si5 0.498501 0.404960 0.091224
Si Si6 0.013835 0.185484 0.586265
Si Si7 0.856706 0.914744 0.414400
Si Si8 0.616061 0.022834 0.408367
O O1 0.824574 0.187933 0.750000
O O2 0.927665 0.170808 0.957021
O O3 0.810996 0.250000 0.000000
O O4 0.796546 0.117041 0.982543
O O5 0.203408 0.922441 0.750000
O O6 0.294699 0.980265 0.939684
O O7 0.149332 0.005035 0.947684
O O8 0.216888 0.196853 0.250000
O O9 0.330499 0.149754 0.097341
O O10 0.236097 0.250000 0.000000
O O11 0.199308 0.122484 0.018938
O O12 0.613521 0.750000 0.500000
O O13 0.561540 0.791268 0.750000
O O14 0.518223 0.846435 0.519276
O O15 0.514367 0.377578 0.250000
O O16 0.423115 0.450091 0.091052
O O17 0.575584 0.437630 0.035937
O O18 0.046395 0.250000 0.500000
O O19 0.019992 0.206993 0.750000
O O20 0.059921 0.116390 0.556082
O O21 0.832439 0.902507 0.250000
O O22 0.601930 0.054874 0.250000
#
# Coordination Sequence:
#
# PCOD8231529 Si02
#       8
#     8   8   8   8   8   8   8   8
#     4  10  21  39  61  82 106 139 181 227 274 326
#     4  10  21  37  57  82 112 144 177 218 271 324
#     4  10  20  32  48  73 107 148 189 225 265 316
#     4  10  20  33  49  71 102 138 175 216 261 311
#     4  10  19  33  55  79 103 135 175 216 260 310
#     4   9  19  35  55  80 110 146 185 222 263 314
#     4  10  20  34  53  79 113 147 179 220 268 317
#     4   9  19  35  54  77 106 139 173 211 259 316
#
# _framework density 19.477466
#
# number of rings (size 3 to 8) (size 9 to 14) (size 15 to 20)
#    0.000    2.250    0.000    2.625    0.000    6.500 
#    0.000    0.625    0.000    3.000    0.000    0.000 
#    0.000    0.000    0.000    0.000    0.000    0.000 
#
# Total GULP energy -793062.876508 kJ/mol
# GULP energy per Si atom -12391.607445 kJ/mol
# Density = 1.943313 g / cm^3
# Si number density = 19.477466 Si / 1000 Ang^3
#
#
#
# Elastic Constant Matrix: (Units=GPa)
#
#
# Indices 1 2 3 4 5 6 
#
# 1 57.5305 25.5796 26.4548 0.0000 0.0000 0.0000
# 2 25.5796 80.4396 43.4868 0.0000 0.0000 0.0000
# 3 26.4548 43.4868 129.3358 0.0000 0.0000 0.0000
# 4 0.0000 0.0000 0.0000 32.7509 0.0000 0.0000
# 5 0.0000 0.0000 0.0000 0.0000 30.0097 0.0000
# 6 0.0000 0.0000 0.0000 0.0000 0.0000 30.7353
#
#
#
# Elastic Compliance Matrix: (Units=1/GPa)
#
#
# Indices 1 2 3 4 5 6 
#
# 1 0.020881 -0.005293 -0.002491 0.000000 0.000000 0.000000
# 2 -0.005293 0.016535 -0.004477 0.000000 0.000000 0.000000
# 3 -0.002491 -0.004477 0.009747 0.000000 0.000000 0.000000
# 4 0.000000 0.000000 0.000000 0.030533 0.000000 0.000000
# 5 0.000000 0.000000 0.000000 0.000000 0.033323 0.000000
# 6 0.000000 0.000000 0.000000 0.000000 0.000000 0.032536
#
#
# Mechanical properties :
#
#
# Convention : Reuss Voigt Hill
#
# Bulk Modulus (GPa) = 44.16972 50.92757 47.54865
# Shear Modulus (GPa) = 28.46973 30.15149 29.31061
#
# Velocity S-wave (km/s) = 3.82733 3.93876 3.88344
# Velocity P-wave (km/s) = 6.50061 6.84754 6.67632
#
# Compressibility (1/GPa) = 0.02263994
#
# Stress axis : x y z
#
# Youngs Moduli (GPa) = 47.88987 60.47677 102.59885
#
# Poissons Ratio (x) = 0.32012 0.25561
# Poissons Ratio (y) = 0.25350 0.45933
# Poissons Ratio (z) = 0.11931 0.27075
#
# Static dielectric constant tensor:
#      x y z
#    x 3.471060 0.000000 0.000000 
#    y 0.000000 3.216910 0.000000 
#    z 0.000000 0.000000 3.694590 
# 
# 
# High freq. dielectric constant tensor:
#      x y z
#    x 1.745750 0.000000 0.000000 
#    y 0.000000 1.737670 0.000000 
#    z 0.000000 0.000000 1.771230 
# 
# From -- ./inp_files/7134.got.cif
#   From: 2010.03.12/outbox.cif.g09.slc.cpg/sg57_4_cif.got.tgz:7134.got - 2010.04.16 15:48:40.
