data_PCOD8231790
_publ_section_title
;
Structure prediction by ZEFSAII (Michael W. Deem and Ramdas Pophale) SiO2 
 PCOD8231790
Probable space group: P B C M
;
_chemical_formula_sum "Si O2"
_cell_formula_units_Z 64
_cell_length_a 15.411415
_cell_length_b 23.680161
_cell_length_c 8.963873
_cell_angle_alpha 90.000000
_cell_angle_beta 90.000000
_cell_angle_gamma 90.000000
_cell_volume 3271.318736
_symmetry_space_group_name_H-M "P B C M"
_symmetry_group_IT_number 57
_symmetry_cell_setting 'orthorhombic'
loop_
_space_group_symop_operation_xyz
x,y,z
-x,-y,1/2+z
x,1/2-y,-z
-x,1/2+y,1/2-z
-x,-y,-z
x,y,1/2-z
-x,1/2+y,z
x,1/2-y,1/2+z
loop_
_atom_site_type_symbol
_atom_site_label
_atom_site_fract_x
_atom_site_fract_y
_atom_site_fract_z
Si Si1 0.344580 0.622978 0.573662
Si Si2 0.662935 0.892835 0.074704
Si Si3 0.151183 0.871455 0.074253
Si Si4 0.091089 0.994151 0.076663
Si Si5 0.995191 0.809081 0.925882
Si Si6 0.406311 0.998049 0.427677
Si Si7 0.834841 0.887528 0.923986
Si Si8 0.491920 0.309219 0.425511
O O1 0.352503 0.621910 0.750000
O O2 0.249273 0.644440 0.525452
O O3 0.360509 0.559388 0.517207
O O4 0.418103 0.665062 0.509711
O O5 0.664528 0.904876 0.250000
O O6 0.585557 0.851059 0.031034
O O7 0.753534 0.865237 0.020480
O O8 0.651930 0.950848 0.985502
O O9 0.136272 0.862793 0.250000
O O10 0.137312 0.936491 0.027236
O O11 0.087189 0.830739 0.985856
O O12 0.071401 0.994691 0.250000
O O13 0.151679 0.046846 0.034040
O O14 0.000000 0.000000 0.000000
O O15 0.002545 0.801252 0.750000
O O16 0.920426 0.853121 0.970986
O O17 0.970851 0.750000 0.000000
O O18 0.414735 0.001019 0.250000
O O19 0.500000 0.000000 0.500000
O O20 0.814517 0.878857 0.750000
O O21 0.472235 0.250000 0.500000
O O22 0.497317 0.300188 0.250000
#
# Coordination Sequence:
#
# PCOD8231790 Si02
#       8
#     8   8   8   8   8   8   8   8
#     4   9  19  38  61  85 120 156 189 238 294 348
#     4  11  23  39  60  89 121 155 198 246 295 352
#     4  10  20  36  62  89 116 155 194 234 295 353
#     4  10  19  34  58  88 120 153 190 233 292 354
#     4  11  24  42  62  84 117 155 199 249 296 350
#     4  11  20  36  62  90 125 160 194 238 296 358
#     4  10  22  40  61  87 119 156 194 239 299 354
#     4  10  22  41  60  82 114 152 197 245 294 345
#
# _framework density 19.563977000000001
#
# number of rings (size 3 to 8) (size 9 to 14) (size 15 to 20)
#    0.000    1.750    2.500    1.875    0.000    5.500 
#    0.000    6.875    0.000    0.000    0.000    0.000 
#    0.000    0.000    0.000    0.000    0.000    0.000 
#
# Total GULP energy -793749.742811 kJ/mol
# GULP energy per Si atom -12402.339731 kJ/mol
# Density = 1.951945 g / cm^3
# Si number density = 19.563977 Si / 1000 Ang^3
#
#
#
# Elastic Constant Matrix: (Units=GPa)
#
#
# Indices 1 2 3 4 5 6 
#
# 1 130.3269 20.8046 36.3782 0.0000 0.0000 0.0000
# 2 20.8046 85.5696 27.9556 0.0000 0.0000 0.0000
# 3 36.3782 27.9556 50.2429 0.0000 0.0000 0.0000
# 4 0.0000 0.0000 0.0000 28.3272 0.0000 0.0000
# 5 0.0000 0.0000 0.0000 0.0000 34.9345 0.0000
# 6 0.0000 0.0000 0.0000 0.0000 0.0000 10.8769
#
#
#
# Elastic Compliance Matrix: (Units=1/GPa)
#
#
# Indices 1 2 3 4 5 6 
#
# 1 0.009617 -0.000077 -0.006920 0.000000 0.000000 0.000000
# 2 -0.000077 0.014283 -0.007891 0.000000 0.000000 0.000000
# 3 -0.006920 -0.007891 0.029305 0.000000 0.000000 0.000000
# 4 0.000000 0.000000 0.000000 0.035302 0.000000 0.000000
# 5 0.000000 0.000000 0.000000 0.000000 0.028625 0.000000
# 6 0.000000 0.000000 0.000000 0.000000 0.000000 0.091938
#
#
# Mechanical properties :
#
#
# Convention : Reuss Voigt Hill
#
# Bulk Modulus (GPa) = 42.68528 48.49068 45.58798
# Shear Modulus (GPa) = 20.27114 26.89444 23.58279
#
# Velocity S-wave (km/s) = 3.22241 3.71171 3.47568
# Velocity P-wave (km/s) = 5.97586 6.57332 6.28170
#
# Compressibility (1/GPa) = 0.02342728
#
# Stress axis : x y z
#
# Youngs Moduli (GPa) = 103.98281 70.01180 34.12434
#
# Poissons Ratio (x) = 0.00542 0.23614
# Poissons Ratio (y) = 0.00805 0.26929
# Poissons Ratio (z) = 0.71957 0.55249
#
# Static dielectric constant tensor:
#      x y z
#    x 3.735770 0.000000 0.000000 
#    y 0.000000 3.696610 0.000000 
#    z 0.000000 0.000000 3.373590 
# 
# 
# High freq. dielectric constant tensor:
#      x y z
#    x 1.778620 0.000000 0.000000 
#    y 0.000000 1.761760 0.000000 
#    z 0.000000 0.000000 1.746560 
# 
# From -- ./inp_files/5692.got.cif
#   From: 2010.03.12/outbox.cif.g09.slc.cpg/sg57_3_cif.got.tgz:5692.got - 2010.04.16 15:48:40.
