data_PCOD8231583
_publ_section_title
;
Structure prediction by ZEFSAII (Michael W. Deem and Ramdas Pophale) SiO2 
 PCOD8231583
Probable space group: P B C M
;
_chemical_formula_sum "Si O2"
_cell_formula_units_Z 56
_cell_length_a 13.689842
_cell_length_b 22.905917
_cell_length_c 9.150534
_cell_angle_alpha 90.000000
_cell_angle_beta 90.000000
_cell_angle_gamma 90.000000
_cell_volume 2869.409670
_symmetry_space_group_name_H-M "P B C M"
_symmetry_group_IT_number 57
_symmetry_cell_setting 'orthorhombic'
loop_
_space_group_symop_operation_xyz
x,y,z
-x,-y,1/2+z
x,1/2-y,-z
-x,1/2+y,1/2-z
-x,-y,-z
x,y,1/2-z
-x,1/2+y,z
x,1/2-y,1/2+z
loop_
_atom_site_type_symbol
_atom_site_label
_atom_site_fract_x
_atom_site_fract_y
_atom_site_fract_z
Si Si1 0.249634 0.084207 0.418703
Si Si2 0.384829 0.187922 0.079682
Si Si3 0.457689 0.610327 0.913795
Si Si4 0.282274 0.802889 0.408669
Si Si5 0.836729 0.114964 0.083658
Si Si6 0.965893 0.943459 0.582303
Si Si7 0.670831 0.023932 0.422437
O O1 0.258778 0.064550 0.250000
O O2 0.284576 0.151197 0.437141
O O3 0.137664 0.081116 0.474695
O O4 0.317456 0.041490 0.515234
O O5 0.410713 0.198931 0.250000
O O6 0.373962 0.250000 0.000000
O O7 0.467304 0.148132 0.007145
O O8 0.497983 0.594965 0.750000
O O9 0.361410 0.647638 0.894860
O O10 0.425027 0.552306 0.001551
O O11 0.327859 0.750000 0.500000
O O12 0.250591 0.779883 0.250000
O O13 0.187049 0.828643 0.487424
O O14 0.812669 0.130605 0.250000
O O15 0.951107 0.104809 0.057688
O O16 0.770610 0.058911 0.039285
O O17 0.957337 0.961349 0.750000
O O18 0.000000 0.000000 0.500000
O O19 0.651635 0.021128 0.250000
#
# Coordination Sequence:
#
# PCOD8231583 Si02
#       7
#     8   8   8   8   8   8   8
#     4  10  22  38  58  84 117 152 188 234 288 341
#     4  11  24  42  61  82 109 150 197 240 284 332
#     4  10  21  37  59  85 113 149 188 233 287 342
#     4  10  20  33  52  78 108 143 182 226 278 333
#     4   9  18  32  51  79 113 145 180 224 274 328
#     4  10  19  34  57  84 113 147 184 228 279 339
#     4  10  19  33  56  88 120 149 184 230 282 338
#
# _framework density 19.516209
#
# number of rings (size 3 to 8) (size 9 to 14) (size 15 to 20)
#    0.000    2.000    1.429    2.143    0.000    5.714 
#    0.000    0.714    0.000    1.714    0.000    0.000 
#    0.000    0.000    0.000    0.000    0.000    0.000 
#
# Total GULP energy -694290.080515 kJ/mol
# GULP energy per Si atom -12398.037152 kJ/mol
# Density = 1.947179 g / cm^3
# Si number density = 19.516209 Si / 1000 Ang^3
#
#
#
# Elastic Constant Matrix: (Units=GPa)
#
#
# Indices 1 2 3 4 5 6 
#
# 1 89.5539 42.7276 43.1112 0.0000 0.0000 0.0000
# 2 42.7276 81.8424 44.8670 0.0000 0.0000 0.0000
# 3 43.1112 44.8670 115.5697 0.0000 0.0000 0.0000
# 4 0.0000 0.0000 0.0000 35.1547 0.0000 0.0000
# 5 0.0000 0.0000 0.0000 0.0000 17.6322 0.0000
# 6 0.0000 0.0000 0.0000 0.0000 0.0000 16.5185
#
#
#
# Elastic Compliance Matrix: (Units=1/GPa)
#
#
# Indices 1 2 3 4 5 6 
#
# 1 0.015876 -0.006405 -0.003436 0.000000 0.000000 0.000000
# 2 -0.006405 0.018106 -0.004640 0.000000 0.000000 0.000000
# 3 -0.003436 -0.004640 0.011736 0.000000 0.000000 0.000000
# 4 0.000000 0.000000 0.000000 0.028446 0.000000 0.000000
# 5 0.000000 0.000000 0.000000 0.000000 0.056714 0.000000
# 6 0.000000 0.000000 0.000000 0.000000 0.000000 0.060538
#
#
# Mechanical properties :
#
#
# Convention : Reuss Voigt Hill
#
# Bulk Modulus (GPa) = 59.67759 60.93087 60.30423
# Shear Modulus (GPa) = 22.12740 24.27841 23.20290
#
# Velocity S-wave (km/s) = 3.37084 3.53088 3.45179
# Velocity P-wave (km/s) = 6.76720 6.92180 6.84493
#
# Compressibility (1/GPa) = 0.01675671
#
# Stress axis : x y z
#
# Youngs Moduli (GPa) = 62.98648 55.22968 85.20929
#
# Poissons Ratio (x) = 0.35375 0.29276
# Poissons Ratio (y) = 0.40343 0.39537
# Poissons Ratio (z) = 0.21641 0.25626
#
# Static dielectric constant tensor:
#      x y z
#    x 3.503050 0.000000 0.000000 
#    y 0.000000 3.420090 0.000000 
#    z 0.000000 0.000000 3.854730 
# 
# 
# High freq. dielectric constant tensor:
#      x y z
#    x 1.753370 0.000000 0.000000 
#    y 0.000000 1.750040 0.000000 
#    z 0.000000 0.000000 1.770920 
# 
# From -- ./inp_files/5144.got.cif
#   From: 2010.03.12/outbox.cif.g09.slc.cpg/sg57_3_cif.got.tgz:5144.got - 2010.04.16 15:48:40.
