data_PCOD8231845
_publ_section_title
;
Structure prediction by ZEFSAII (Michael W. Deem and Ramdas Pophale) SiO2 
 PCOD8231845
Probable space group: P B C M
;
_chemical_formula_sum "Si O2"
_cell_formula_units_Z 48
_cell_length_a 9.418887
_cell_length_b 30.804101
_cell_length_c 8.655891
_cell_angle_alpha 90.000000
_cell_angle_beta 90.000000
_cell_angle_gamma 90.000000
_cell_volume 2511.423214
_symmetry_space_group_name_H-M "P B C M"
_symmetry_group_IT_number 57
_symmetry_cell_setting 'orthorhombic'
loop_
_space_group_symop_operation_xyz
x,y,z
-x,-y,1/2+z
x,1/2-y,-z
-x,1/2+y,1/2-z
-x,-y,-z
x,y,1/2-z
-x,1/2+y,z
x,1/2-y,1/2+z
loop_
_atom_site_type_symbol
_atom_site_label
_atom_site_fract_x
_atom_site_fract_y
_atom_site_fract_z
Si Si1 0.656455 0.124738 0.933125
Si Si2 0.849594 0.796144 0.567405
Si Si3 0.333138 0.128792 0.566744
Si Si4 0.153040 0.703685 0.566469
Si Si5 0.164764 0.544414 0.567142
Si Si6 0.842589 0.954553 0.432030
O O1 0.664208 0.122975 0.750000
O O2 0.494829 0.124481 0.989636
O O3 0.733462 0.168355 0.991977
O O4 0.736644 0.082580 0.001590
O O5 0.801277 0.750000 0.500000
O O6 0.865204 0.792498 0.750000
O O7 0.730695 0.830427 0.521693
O O8 0.999573 0.810587 0.495653
O O9 0.320040 0.135956 0.750000
O O10 0.251600 0.085696 0.512000
O O11 0.200874 0.750000 0.500000
O O12 0.145140 0.706408 0.750000
O O13 0.172225 0.543877 0.750000
O O14 0.221246 0.498374 0.505158
O O15 0.003728 0.552888 0.510153
O O16 0.836189 0.959664 0.250000
#
# Coordination Sequence:
#
# PCOD8231845 Si02
#       6
#     8   8   8   8   8   8
#     4   9  19  34  54  78 106 142 177 214 263 316
#     4  11  22  37  57  81 106 136 176 218 262 309
#     4  10  20  36  55  77 108 143 177 214 262 316
#     4  10  19  35  57  80 105 135 174 216 261 310
#     4   9  17  32  52  74 101 136 179 220 258 306
#     4   9  18  32  52  76 103 137 175 217 263 307
#
# _framework density 19.112670000000001
#
# number of rings (size 3 to 8) (size 9 to 14) (size 15 to 20)
#    0.000    2.333    0.000    4.000    0.000    4.667 
#    0.000    9.167    0.000    0.000    0.000    0.000 
#    0.000    0.000    0.000    0.000    0.000    0.000 
#
# Total GULP energy -595290.533902 kJ/mol
# GULP energy per Si atom -12401.886123 kJ/mol
# Density = 1.906917 g / cm^3
# Si number density = 19.112670 Si / 1000 Ang^3
#
#
#
# Elastic Constant Matrix: (Units=GPa)
#
#
# Indices 1 2 3 4 5 6 
#
# 1 134.3695 105.0244 29.4197 0.0000 0.0000 0.0000
# 2 105.0244 170.4721 37.8655 0.0000 0.0000 0.0000
# 3 29.4197 37.8655 55.7269 0.0000 0.0000 0.0000
# 4 0.0000 0.0000 0.0000 33.1396 0.0000 0.0000
# 5 0.0000 0.0000 0.0000 0.0000 19.8735 0.0000
# 6 0.0000 0.0000 0.0000 0.0000 0.0000 16.7624
#
#
#
# Elastic Compliance Matrix: (Units=1/GPa)
#
#
# Indices 1 2 3 4 5 6 
#
# 1 0.014518 -0.008529 -0.001869 0.000000 0.000000 0.000000
# 2 -0.008529 0.011919 -0.003596 0.000000 0.000000 0.000000
# 3 -0.001869 -0.003596 0.021375 0.000000 0.000000 0.000000
# 4 0.000000 0.000000 0.000000 0.030175 0.000000 0.000000
# 5 0.000000 0.000000 0.000000 0.000000 0.050318 0.000000
# 6 0.000000 0.000000 0.000000 0.000000 0.000000 0.059657
#
#
# Mechanical properties :
#
#
# Convention : Reuss Voigt Hill
#
# Bulk Modulus (GPa) = 50.44524 78.35418 64.39971
# Shear Modulus (GPa) = 22.46590 26.50568 24.48579
#
# Velocity S-wave (km/s) = 3.43220 3.72803 3.58317
# Velocity P-wave (km/s) = 6.49288 7.72113 7.13349
#
# Compressibility (1/GPa) = 0.01982347
#
# Stress axis : x y z
#
# Youngs Moduli (GPa) = 68.88176 83.89707 46.78358
#
# Poissons Ratio (x) = 0.71555 0.08744
# Poissons Ratio (y) = 0.58748 0.16825
# Poissons Ratio (z) = 0.12874 0.30173
#
# Static dielectric constant tensor:
#      x y z
#    x 3.605460 0.000000 0.000000 
#    y 0.000000 3.698100 0.000000 
#    z 0.000000 0.000000 3.256850 
# 
# 
# High freq. dielectric constant tensor:
#      x y z
#    x 1.738780 0.000000 0.000000 
#    y 0.000000 1.758480 0.000000 
#    z 0.000000 0.000000 1.723110 
# 
# From -- ./inp_files/2118.got.cif
#   From: 2010.03.12/outbox.cif.g09.slc.cpg/sg57_2_cif.got.tgz:2118.got - 2010.04.16 15:48:40.
