data_PCOD8231775
_publ_section_title
;
Structure prediction by ZEFSAII (Michael W. Deem and Ramdas Pophale) SiO2 
 PCOD8231775
Probable space group: P B C M
;
_chemical_formula_sum "Si O2"
_cell_formula_units_Z 64
_cell_length_a 12.463865
_cell_length_b 28.669046
_cell_length_c 9.106923
_cell_angle_alpha 90.000000
_cell_angle_beta 90.000000
_cell_angle_gamma 90.000000
_cell_volume 3254.150559
_symmetry_space_group_name_H-M "P B C M"
_symmetry_group_IT_number 57
_symmetry_cell_setting 'orthorhombic'
loop_
_space_group_symop_operation_xyz
x,y,z
-x,-y,1/2+z
x,1/2-y,-z
-x,1/2+y,1/2-z
-x,-y,-z
x,y,1/2-z
-x,1/2+y,z
x,1/2-y,1/2+z
loop_
_atom_site_type_symbol
_atom_site_label
_atom_site_fract_x
_atom_site_fract_y
_atom_site_fract_z
Si Si1 0.110531 0.206128 0.583037
Si Si2 0.530957 0.545460 0.413065
Si Si3 0.061264 0.635026 0.921000
Si Si4 0.264189 0.800551 0.424207
Si Si5 0.246315 0.084851 0.412885
Si Si6 0.012027 0.451735 0.919633
Si Si7 0.332412 0.332105 0.417713
Si Si8 0.538673 0.351732 0.575295
O O1 0.061249 0.250000 0.500000
O O2 0.076784 0.213028 0.750000
O O3 0.239186 0.206194 0.561368
O O4 0.050190 0.159540 0.527713
O O5 0.500000 0.500000 0.500000
O O6 0.485918 0.538837 0.250000
O O7 0.659767 0.546476 0.415148
O O8 0.479833 0.594238 0.473504
O O9 0.061965 0.621906 0.750000
O O10 0.157904 0.669963 0.959785
O O11 0.067979 0.587028 0.011928
O O12 0.257105 0.750000 0.500000
O O13 0.281573 0.793951 0.250000
O O14 0.360683 0.830473 0.491996
O O15 0.245816 0.108964 0.250000
O O16 0.271564 0.120494 0.541999
O O17 0.135040 0.060731 0.446116
O O18 0.981676 0.457002 0.750000
O O19 0.000000 0.500000 0.000000
O O20 0.372796 0.334351 0.250000
O O21 0.433308 0.322494 0.523978
O O22 0.551081 0.346347 0.750000
#
# Coordination Sequence:
#
# PCOD8231775 Si02
#       8
#     8   8   8   8   8   8   8   8
#     4  10  21  35  56  86 117 149 188 237 291 352
#     4   9  19  35  56  83 115 153 198 249 304 362
#     4  10  22  42  62  86 121 157 200 254 307 363
#     4  11  24  42  66  91 122 165 211 261 317 376
#     4   9  19  36  55  78 111 152 193 241 301 357
#     4  11  23  38  60  88 119 160 206 254 310 369
#     4  10  19  34  58  85 114 150 193 240 298 359
#     4  10  22  40  60  85 122 160 204 256 306 367
#
# _framework density 19.667190999999999
#
# number of rings (size 3 to 8) (size 9 to 14) (size 15 to 20)
#    0.000    2.000    1.250    2.625    0.000    7.000 
#    0.000    5.000    0.000    0.000    0.000    0.000 
#    0.000    0.000    0.000    0.000    0.000    0.000 
#
# Total GULP energy -793318.550691 kJ/mol
# GULP energy per Si atom -12395.602355 kJ/mol
# Density = 1.962243 g / cm^3
# Si number density = 19.667191 Si / 1000 Ang^3
#
#
#
# Elastic Constant Matrix: (Units=GPa)
#
#
# Indices 1 2 3 4 5 6 
#
# 1 102.6058 46.1543 51.4523 0.0000 0.0000 0.0000
# 2 46.1543 124.4837 67.3264 0.0000 0.0000 0.0000
# 3 51.4523 67.3264 100.3783 0.0000 0.0000 0.0000
# 4 0.0000 0.0000 0.0000 38.9948 0.0000 0.0000
# 5 0.0000 0.0000 0.0000 0.0000 30.5890 0.0000
# 6 0.0000 0.0000 0.0000 0.0000 0.0000 21.7396
#
#
#
# Elastic Compliance Matrix: (Units=1/GPa)
#
#
# Indices 1 2 3 4 5 6 
#
# 1 0.013419 -0.001970 -0.005557 0.000000 0.000000 0.000000
# 2 -0.001970 0.012895 -0.007640 0.000000 0.000000 0.000000
# 3 -0.005557 -0.007640 0.017935 0.000000 0.000000 0.000000
# 4 0.000000 0.000000 0.000000 0.025644 0.000000 0.000000
# 5 0.000000 0.000000 0.000000 0.000000 0.032691 0.000000
# 6 0.000000 0.000000 0.000000 0.000000 0.000000 0.045999
#
#
# Mechanical properties :
#
#
# Convention : Reuss Voigt Hill
#
# Bulk Modulus (GPa) = 71.85901 73.03707 72.44804
# Shear Modulus (GPa) = 27.23977 29.10034 28.17005
#
# Velocity S-wave (km/s) = 3.72564 3.85078 3.78873
# Velocity P-wave (km/s) = 7.42456 7.54907 7.48707
#
# Compressibility (1/GPa) = 0.01391614
#
# Stress axis : x y z
#
# Youngs Moduli (GPa) = 74.52304 77.54765 55.75734
#
# Poissons Ratio (x) = 0.15274 0.30985
# Poissons Ratio (y) = 0.14679 0.42596
# Poissons Ratio (z) = 0.41413 0.59243
#
# Static dielectric constant tensor:
#      x y z
#    x 3.865330 0.000000 0.000000 
#    y 0.000000 3.473650 0.000000 
#    z 0.000000 0.000000 3.522250 
# 
# 
# High freq. dielectric constant tensor:
#      x y z
#    x 1.771400 0.000000 0.000000 
#    y 0.000000 1.758680 0.000000 
#    z 0.000000 0.000000 1.771700 
# 
# From -- ./inp_files/3813.got.cif
#   From: 2010.03.12/outbox.cif.g09.slc.cpg/sg57_2_cif.got.tgz:3813.got - 2010.04.16 15:48:40.
