data_PCOD8231354
_publ_section_title
;
Structure prediction by ZEFSAII (Michael W. Deem and Ramdas Pophale) SiO2 
 PCOD8231354
Probable space group: P B C M
;
_chemical_formula_sum "Si O2"
_cell_formula_units_Z 48
_cell_length_a 30.751530
_cell_length_b 9.563240
_cell_length_c 8.916585
_cell_angle_alpha 90.000000
_cell_angle_beta 90.000000
_cell_angle_gamma 90.000000
_cell_volume 2622.227317
_symmetry_space_group_name_H-M "P B C M"
_symmetry_group_IT_number 57
_symmetry_cell_setting 'orthorhombic'
loop_
_space_group_symop_operation_xyz
x,y,z
-x,-y,1/2+z
x,1/2-y,-z
-x,1/2+y,1/2-z
-x,-y,-z
x,y,1/2-z
-x,1/2+y,z
x,1/2-y,1/2+z
loop_
_atom_site_type_symbol
_atom_site_label
_atom_site_fract_x
_atom_site_fract_y
_atom_site_fract_z
Si Si1 0.964787 0.901774 0.573407
Si Si2 0.289708 0.606475 0.427177
Si Si3 0.129340 0.104119 0.421878
Si Si4 0.223000 0.401354 0.926759
Si Si5 0.463809 0.402527 0.427489
Si Si6 0.611447 0.391403 0.575942
O O1 0.968309 0.750000 0.500000
O O2 0.973717 0.888921 0.750000
O O3 0.916709 0.971543 0.539998
O O4 0.000000 0.000000 0.500000
O O5 0.273536 0.750000 0.500000
O O6 0.284102 0.615261 0.250000
O O7 0.260528 0.485106 0.492450
O O8 0.339411 0.575365 0.475471
O O9 0.129452 0.250000 0.500000
O O10 0.129482 0.143864 0.250000
O O11 0.175211 0.025679 0.458736
O O12 0.232794 0.392165 0.750000
O O13 0.223278 0.250000 0.000000
O O14 0.464714 0.250000 0.500000
O O15 0.500000 0.500000 0.500000
O O16 0.471753 0.389678 0.250000
O O17 0.417629 0.474530 0.465550
O O18 0.593390 0.250000 0.500000
O O19 0.609349 0.358913 0.750000
#
# Coordination Sequence:
#
# PCOD8231354 Si02
#       6
#     8   8   8   8   8   8
#     4  10  19  33  52  75 101 132 168 210 256 307
#     4  10  20  36  55  78 107 141 176 214 260 311
#     4   8  16  30  49  71  98 130 167 207 253 305
#     4  10  19  33  53  78 104 134 171 214 258 306
#     4  11  23  39  58  83 112 144 179 219 263 311
#     4   9  20  37  57  79 106 139 177 216 260 310
#
# _framework density 18.305049
#
# number of rings (size 3 to 8) (size 9 to 14) (size 15 to 20)
#    0.000    2.333    0.000    2.500    0.000    5.333 
#    0.000    2.500    0.000    0.000    0.000    0.000 
#    0.000    0.000    0.000    0.000    0.000    0.000 
#
# Total GULP energy -594749.892581 kJ/mol
# GULP energy per Si atom -12390.622762 kJ/mol
# Density = 1.826339 g / cm^3
# Si number density = 18.305049 Si / 1000 Ang^3
#
#
#
# Elastic Constant Matrix: (Units=GPa)
#
#
# Indices 1 2 3 4 5 6 
#
# 1 132.0877 74.1692 59.2892 0.0000 0.0000 0.0000
# 2 74.1692 109.1155 50.6679 0.0000 0.0000 0.0000
# 3 59.2892 50.6679 88.4738 0.0000 0.0000 0.0000
# 4 0.0000 0.0000 0.0000 35.5915 0.0000 0.0000
# 5 0.0000 0.0000 0.0000 0.0000 27.7035 0.0000
# 6 0.0000 0.0000 0.0000 0.0000 0.0000 30.3615
#
#
#
# Elastic Compliance Matrix: (Units=1/GPa)
#
#
# Indices 1 2 3 4 5 6 
#
# 1 0.013857 -0.006957 -0.005302 0.000000 0.000000 0.000000
# 2 -0.006957 0.015978 -0.004488 0.000000 0.000000 0.000000
# 3 -0.005302 -0.004488 0.017426 0.000000 0.000000 0.000000
# 4 0.000000 0.000000 0.000000 0.028097 0.000000 0.000000
# 5 0.000000 0.000000 0.000000 0.000000 0.036096 0.000000
# 6 0.000000 0.000000 0.000000 0.000000 0.000000 0.032936
#
#
# Mechanical properties :
#
#
# Convention : Reuss Voigt Hill
#
# Bulk Modulus (GPa) = 72.63899 77.54777 75.09338
# Shear Modulus (GPa) = 27.40135 28.43469 27.91802
#
# Velocity S-wave (km/s) = 3.87321 3.94557 3.90956
# Velocity P-wave (km/s) = 7.73117 7.95065 7.84168
#
# Compressibility (1/GPa) = 0.01376671
#
# Stress axis : x y z
#
# Youngs Moduli (GPa) = 72.16533 62.58760 57.38597
#
# Poissons Ratio (x) = 0.43543 0.30425
# Poissons Ratio (y) = 0.50207 0.25754
# Poissons Ratio (z) = 0.38260 0.28089
#
# Static dielectric constant tensor:
#      x y z
#    x 4.141940 0.000000 0.000000 
#    y 0.000000 3.038790 0.000000 
#    z 0.000000 0.000000 3.545690 
# 
# 
# High freq. dielectric constant tensor:
#      x y z
#    x 1.732960 0.000000 0.000000 
#    y 0.000000 1.680730 0.000000 
#    z 0.000000 0.000000 1.724110 
# 
# From -- ./inp_files/9881.got.cif
#   From: 2010.03.12/outbox.cif.g09.slc.cpg/sg57_5_cif.got.tgz:9881.got - 2010.04.16 15:48:40.
