data_PCOD8231466
_publ_section_title
;
Structure prediction by ZEFSAII (Michael W. Deem and Ramdas Pophale) SiO2 
 PCOD8231466
Probable space group: P B C M
;
_chemical_formula_sum "Si O2"
_cell_formula_units_Z 40
_cell_length_a 18.453048
_cell_length_b 13.281837
_cell_length_c 8.913917
_cell_angle_alpha 90.000000
_cell_angle_beta 90.000000
_cell_angle_gamma 90.000000
_cell_volume 2184.715266
_symmetry_space_group_name_H-M "P B C M"
_symmetry_group_IT_number 57
_symmetry_cell_setting 'orthorhombic'
loop_
_space_group_symop_operation_xyz
x,y,z
-x,-y,1/2+z
x,1/2-y,-z
-x,1/2+y,1/2-z
-x,-y,-z
x,y,1/2-z
-x,1/2+y,z
x,1/2-y,1/2+z
loop_
_atom_site_type_symbol
_atom_site_label
_atom_site_fract_x
_atom_site_fract_y
_atom_site_fract_z
Si Si1 0.892152 0.052592 0.924731
Si Si2 0.536897 0.850506 0.074827
Si Si3 0.026514 0.349796 0.575461
Si Si4 0.243588 0.641539 0.427166
Si Si5 0.599570 0.438324 0.575128
O O1 0.884668 0.078324 0.750000
O O2 0.915807 0.937834 0.952093
O O3 0.816105 0.066209 0.007379
O O4 0.950542 0.127597 0.995564
O O5 0.532768 0.832140 0.250000
O O6 0.588639 0.944264 0.033031
O O7 0.569598 0.750000 0.000000
O O8 0.455768 0.869422 0.016365
O O9 0.059876 0.250000 0.500000
O O10 0.011404 0.332619 0.750000
O O11 0.234070 0.750000 0.500000
O O12 0.234318 0.651123 0.250000
O O13 0.320364 0.593975 0.472257
O O14 0.584342 0.420350 0.750000
#
# Coordination Sequence:
#
# PCOD8231466 Si02
#       5
#     8   8   8   8   8
#     4  10  21  36  54  78 106 136 173 212 253 304
#     4  10  19  33  54  78 104 135 172 213 257 304
#     4  10  20  35  56  79 104 136 172 212 256 302
#     4  11  22  36  54  76 105 137 170 211 258 306
#     4   9  20  36  53  76 104 136 174 213 254 303
#
# _framework density 18.309021999999999
#
# number of rings (size 3 to 8) (size 9 to 14) (size 15 to 20)
#    0.000    2.000    0.000    3.600    0.000    6.400 
#    0.000    1.000    0.000    4.800    0.000    0.000 
#    0.000    0.000    0.000    0.000    0.000    0.000 
#
# Total GULP energy -496184.344281 kJ/mol
# GULP energy per Si atom -12404.608607 kJ/mol
# Density = 1.826735 g / cm^3
# Si number density = 18.309022 Si / 1000 Ang^3
#
#
#
# Elastic Constant Matrix: (Units=GPa)
#
#
# Indices 1 2 3 4 5 6 
#
# 1 96.2142 32.0311 39.2901 0.0000 0.0000 0.0000
# 2 32.0311 108.5531 43.9433 0.0000 0.0000 0.0000
# 3 39.2901 43.9433 87.9912 0.0000 0.0000 0.0000
# 4 0.0000 0.0000 0.0000 36.3627 0.0000 0.0000
# 5 0.0000 0.0000 0.0000 0.0000 28.9832 0.0000
# 6 0.0000 0.0000 0.0000 0.0000 0.0000 19.7898
#
#
#
# Elastic Compliance Matrix: (Units=1/GPa)
#
#
# Indices 1 2 3 4 5 6 
#
# 1 0.013005 -0.001863 -0.004877 0.000000 0.000000 0.000000
# 2 -0.001863 0.011813 -0.005068 0.000000 0.000000 0.000000
# 3 -0.004877 -0.005068 0.016073 0.000000 0.000000 0.000000
# 4 0.000000 0.000000 0.000000 0.027501 0.000000 0.000000
# 5 0.000000 0.000000 0.000000 0.000000 0.034503 0.000000
# 6 0.000000 0.000000 0.000000 0.000000 0.000000 0.050531
#
#
# Mechanical properties :
#
#
# Convention : Reuss Voigt Hill
#
# Bulk Modulus (GPa) = 57.88203 58.14304 58.01253
# Shear Modulus (GPa) = 27.35228 28.86006 28.10617
#
# Velocity S-wave (km/s) = 3.86932 3.97454 3.92229
# Velocity P-wave (km/s) = 7.18643 7.27242 7.22955
#
# Compressibility (1/GPa) = 0.01727652
#
# Stress axis : x y z
#
# Youngs Moduli (GPa) = 76.89217 84.65009 62.21605
#
# Poissons Ratio (x) = 0.15774 0.30340
# Poissons Ratio (y) = 0.14328 0.31528
# Poissons Ratio (z) = 0.37497 0.42897
#
# Static dielectric constant tensor:
#      x y z
#    x 3.257080 0.000000 0.000000 
#    y 0.000000 3.509220 0.000000 
#    z 0.000000 0.000000 3.487310 
# 
# 
# High freq. dielectric constant tensor:
#      x y z
#    x 1.693220 0.000000 0.000000 
#    y 0.000000 1.720500 0.000000 
#    z 0.000000 0.000000 1.725160 
# 
# From -- ./inp_files/6236.got.cif
#   From: 2010.03.12/outbox.cif.g09.slc.cpg/sg57_4_cif.got.tgz:6236.got - 2010.04.16 15:48:40.
