data_PCOD8231687
_publ_section_title
;
Structure prediction by ZEFSAII (Michael W. Deem and Ramdas Pophale) SiO2 
 PCOD8231687
Probable space group: P B C M
;
_chemical_formula_sum "Si O2"
_cell_formula_units_Z 56
_cell_length_a 19.457679
_cell_length_b 15.976205
_cell_length_c 9.252091
_cell_angle_alpha 90.000000
_cell_angle_beta 90.000000
_cell_angle_gamma 90.000000
_cell_volume 2876.103792
_symmetry_space_group_name_H-M "P B C M"
_symmetry_group_IT_number 57
_symmetry_cell_setting 'orthorhombic'
loop_
_space_group_symop_operation_xyz
x,y,z
-x,-y,1/2+z
x,1/2-y,-z
-x,1/2+y,1/2-z
-x,-y,-z
x,y,1/2-z
-x,1/2+y,z
x,1/2-y,1/2+z
loop_
_atom_site_type_symbol
_atom_site_label
_atom_site_fract_x
_atom_site_fract_y
_atom_site_fract_z
Si Si1 0.847269 0.167000 0.578633
Si Si2 0.703827 0.594699 0.415403
Si Si3 0.429832 0.836005 0.418591
Si Si4 0.580897 0.663193 0.918429
Si Si5 0.290712 0.592466 0.582736
Si Si6 0.928131 0.999307 0.920817
Si Si7 0.847203 0.666875 0.418948
O O1 0.876651 0.250000 0.500000
O O2 0.850585 0.180899 0.750000
O O3 0.769112 0.152247 0.520322
O O4 0.889966 0.084833 0.533971
O O5 0.679211 0.606168 0.250000
O O6 0.638983 0.602756 0.520148
O O7 0.733244 0.502201 0.442063
O O8 0.765867 0.657376 0.452651
O O9 0.426100 0.750000 0.500000
O O10 0.421157 0.817792 0.250000
O O11 0.505152 0.877182 0.446557
O O12 0.367240 0.891986 0.482126
O O13 0.594225 0.678752 0.750000
O O14 0.588527 0.750000 0.000000
O O15 0.295600 0.612668 0.750000
O O16 0.939149 0.996219 0.750000
O O17 0.886677 0.916471 0.972315
O O18 0.000000 0.000000 0.000000
O O19 0.874466 0.750000 0.500000
O O20 0.859762 0.680322 0.250000
#
# Coordination Sequence:
#
# PCOD8231687 Si02
#       7
#     8   8   8   8   8   8   8
#     4  10  20  37  61  87 116 150 189 231 276 331
#     4  10  19  34  56  78 105 144 186 229 279 331
#     4   9  18  32  50  72 102 140 183 228 277 330
#     4  10  20  33  48  72 105 140 181 231 280 330
#     4   9  17  33  56  78 105 145 186 226 277 334
#     4  10  22  41  62  86 118 151 184 225 275 334
#     4  10  21  38  60  85 113 148 190 232 276 329
#
# _framework density 19.470786
#
# number of rings (size 3 to 8) (size 9 to 14) (size 15 to 20)
#    0.000    2.286    1.429    1.286    0.000    4.571 
#    0.000    4.286    0.000    0.000    0.000    0.000 
#    0.000    0.000    0.000    0.000    0.000    0.000 
#
# Total GULP energy -694045.393860 kJ/mol
# GULP energy per Si atom -12393.667748 kJ/mol
# Density = 1.942647 g / cm^3
# Si number density = 19.470786 Si / 1000 Ang^3
#
#
#
# Elastic Constant Matrix: (Units=GPa)
#
#
# Indices 1 2 3 4 5 6 
#
# 1 125.9003 62.7868 46.5725 0.0000 0.0000 0.0000
# 2 62.7868 123.2727 39.0332 0.0000 0.0000 0.0000
# 3 46.5725 39.0332 50.2065 0.0000 0.0000 0.0000
# 4 0.0000 0.0000 0.0000 29.8645 0.0000 0.0000
# 5 0.0000 0.0000 0.0000 0.0000 24.7764 0.0000
# 6 0.0000 0.0000 0.0000 0.0000 0.0000 24.1962
#
#
#
# Elastic Compliance Matrix: (Units=1/GPa)
#
#
# Indices 1 2 3 4 5 6 
#
# 1 0.013316 -0.003809 -0.009391 0.000000 0.000000 0.000000
# 2 -0.003809 0.011851 -0.005680 0.000000 0.000000 0.000000
# 3 -0.009391 -0.005680 0.033045 0.000000 0.000000 0.000000
# 4 0.000000 0.000000 0.000000 0.033485 0.000000 0.000000
# 5 0.000000 0.000000 0.000000 0.000000 0.040361 0.000000
# 6 0.000000 0.000000 0.000000 0.000000 0.000000 0.041329
#
#
# Mechanical properties :
#
#
# Convention : Reuss Voigt Hill
#
# Bulk Modulus (GPa) = 48.89560 66.24047 57.56804
# Shear Modulus (GPa) = 22.93954 25.83321 24.38638
#
# Velocity S-wave (km/s) = 3.43615 3.64643 3.54285
# Velocity P-wave (km/s) = 6.39606 7.19881 6.80928
#
# Compressibility (1/GPa) = 0.02045174
#
# Stress axis : x y z
#
# Youngs Moduli (GPa) = 75.09667 84.38393 30.26142
#
# Poissons Ratio (x) = 0.32139 0.28419
# Poissons Ratio (y) = 0.28602 0.17189
# Poissons Ratio (z) = 0.70525 0.47932
#
# Static dielectric constant tensor:
#      x y z
#    x 3.877890 0.000000 0.000000 
#    y 0.000000 3.496100 0.000000 
#    z 0.000000 0.000000 3.221020 
# 
# 
# High freq. dielectric constant tensor:
#      x y z
#    x 1.768460 0.000000 0.000000 
#    y 0.000000 1.755270 0.000000 
#    z 0.000000 0.000000 1.733290 
# 
# From -- ./inp_files/14309.got.cif
#   From: 2010.03.12/outbox.cif.g09.slc.cpg/sg57_8_cif.got.tgz:14309.got - 2010.04.16 15:48:40.
