data_PCOD8231348
_publ_section_title
;
Structure prediction by ZEFSAII (Michael W. Deem and Ramdas Pophale) SiO2 
 PCOD8231348
Probable space group: P B C M
;
_chemical_formula_sum "Si O2"
_cell_formula_units_Z 56
_cell_length_a 21.678640
_cell_length_b 15.273046
_cell_length_c 8.891180
_cell_angle_alpha 90.000000
_cell_angle_beta 90.000000
_cell_angle_gamma 90.000000
_cell_volume 2943.859615
_symmetry_space_group_name_H-M "P B C M"
_symmetry_group_IT_number 57
_symmetry_cell_setting 'orthorhombic'
loop_
_space_group_symop_operation_xyz
x,y,z
-x,-y,1/2+z
x,1/2-y,-z
-x,1/2+y,1/2-z
-x,-y,-z
x,y,1/2-z
-x,1/2+y,z
x,1/2-y,1/2+z
loop_
_atom_site_type_symbol
_atom_site_label
_atom_site_fract_x
_atom_site_fract_y
_atom_site_fract_z
Si Si1 0.127168 0.345413 0.071550
Si Si2 0.993372 0.843779 0.574423
Si Si3 0.573008 0.659652 0.072504
Si Si4 0.213339 0.500640 0.428044
Si Si5 0.567443 0.160701 0.426375
Si Si6 0.870246 0.344023 0.925769
Si Si7 0.353501 0.496202 0.428392
O O1 0.123244 0.336055 0.250000
O O2 0.182334 0.409536 0.020144
O O3 0.138988 0.250000 0.000000
O O4 0.063708 0.391034 0.010101
O O5 0.996211 0.750000 0.500000
O O6 0.977724 0.836950 0.750000
O O7 0.061045 0.884854 0.546084
O O8 0.580023 0.666114 0.250000
O O9 0.502579 0.639469 0.023982
O O10 0.595442 0.750000 0.000000
O O11 0.616622 0.585366 0.009788
O O12 0.210133 0.506973 0.250000
O O13 0.177312 0.585093 0.494267
O O14 0.283375 0.503396 0.485126
O O15 0.591445 0.250000 0.500000
O O16 0.572134 0.173357 0.250000
O O17 0.610987 0.082809 0.482781
O O18 0.859721 0.329207 0.750000
O O19 0.859360 0.250000 0.000000
O O20 0.358371 0.483243 0.250000
#
# Coordination Sequence:
#
# PCOD8231348 Si02
#       7
#     8   8   8   8   8   8   8
#     4  10  19  33  52  72  97 130 166 208 255 301
#     4   9  16  28  49  74  98 125 161 207 256 302
#     4  10  20  35  55  81 108 135 170 213 259 305
#     4   9  20  36  52  72 102 139 172 202 248 305
#     4   9  19  34  55  81 108 137 170 211 258 305
#     4   9  18  34  53  74 101 132 166 206 253 302
#     4  10  20  36  55  76 105 141 176 211 254 303
#
# _framework density 19.022645000000001
#
# number of rings (size 3 to 8) (size 9 to 14) (size 15 to 20)
#    0.000    2.571    0.000    2.571    0.000    3.429 
#    0.000    5.000    0.000    0.000    0.000    0.000 
#    0.000    0.000    0.000    0.000    0.000    0.000 
#
# Total GULP energy -694168.853991 kJ/mol
# GULP energy per Si atom -12395.872393 kJ/mol
# Density = 1.897935 g / cm^3
# Si number density = 19.022645 Si / 1000 Ang^3
#
#
#
# Elastic Constant Matrix: (Units=GPa)
#
#
# Indices 1 2 3 4 5 6 
#
# 1 151.0351 93.7405 39.6529 0.0000 0.0000 0.0000
# 2 93.7405 141.8434 39.5966 0.0000 0.0000 0.0000
# 3 39.6529 39.5966 55.3248 0.0000 0.0000 0.0000
# 4 0.0000 0.0000 0.0000 26.1162 0.0000 0.0000
# 5 0.0000 0.0000 0.0000 0.0000 20.9284 0.0000
# 6 0.0000 0.0000 0.0000 0.0000 0.0000 43.1066
#
#
#
# Elastic Compliance Matrix: (Units=1/GPa)
#
#
# Indices 1 2 3 4 5 6 
#
# 1 0.011768 -0.006776 -0.003584 0.000000 0.000000 0.000000
# 2 -0.006776 0.012712 -0.004242 0.000000 0.000000 0.000000
# 3 -0.003584 -0.004242 0.023680 0.000000 0.000000 0.000000
# 4 0.000000 0.000000 0.000000 0.038290 0.000000 0.000000
# 5 0.000000 0.000000 0.000000 0.000000 0.047782 0.000000
# 6 0.000000 0.000000 0.000000 0.000000 0.000000 0.023198
#
#
# Mechanical properties :
#
#
# Convention : Reuss Voigt Hill
#
# Bulk Modulus (GPa) = 52.75558 77.13149 64.94353
# Shear Modulus (GPa) = 25.91291 29.71113 27.81202
#
# Velocity S-wave (km/s) = 3.69482 3.95635 3.82782
# Velocity P-wave (km/s) = 6.78200 7.84255 7.33147
#
# Compressibility (1/GPa) = 0.01895534
#
# Stress axis : x y z
#
# Youngs Moduli (GPa) = 84.97726 78.66298 42.23000
#
# Poissons Ratio (x) = 0.53306 0.15137
# Poissons Ratio (y) = 0.57584 0.17912
# Poissons Ratio (z) = 0.30459 0.33365
#
# Static dielectric constant tensor:
#      x y z
#    x 4.031840 0.000000 0.000000 
#    y 0.000000 3.267370 0.000000 
#    z 0.000000 0.000000 3.349440 
# 
# 
# High freq. dielectric constant tensor:
#      x y z
#    x 1.744500 0.000000 0.000000 
#    y 0.000000 1.736620 0.000000 
#    z 0.000000 0.000000 1.726210 
# 
# From -- ./inp_files/8057.got.cif
#   From: 2010.03.12/outbox.cif.g09.slc.cpg/sg57_5_cif.got.tgz:8057.got - 2010.04.16 15:48:40.
