data_PCOD8231557
_publ_section_title
;
Structure prediction by ZEFSAII (Michael W. Deem and Ramdas Pophale) SiO2 
 PCOD8231557
Probable space group: P B C M
;
_chemical_formula_sum "Si O2"
_cell_formula_units_Z 64
_cell_length_a 6.802171
_cell_length_b 17.435158
_cell_length_c 28.144982
_cell_angle_alpha 90.000000
_cell_angle_beta 90.000000
_cell_angle_gamma 90.000000
_cell_volume 3337.908351
_symmetry_space_group_name_H-M "P B C M"
_symmetry_group_IT_number 57
_symmetry_cell_setting 'orthorhombic'
loop_
_space_group_symop_operation_xyz
x,y,z
-x,-y,1/2+z
x,1/2-y,-z
-x,1/2+y,1/2-z
-x,-y,-z
x,y,1/2-z
-x,1/2+y,z
x,1/2-y,1/2+z
loop_
_atom_site_type_symbol
_atom_site_label
_atom_site_fract_x
_atom_site_fract_y
_atom_site_fract_z
Si Si1 0.408890 0.614587 0.019475
Si Si2 0.541115 0.031342 0.880844
Si Si3 0.855636 0.375594 0.064819
Si Si4 0.539063 0.352728 0.879439
Si Si5 0.135655 0.755351 0.144444
Si Si6 0.264338 0.269200 0.695967
Si Si7 0.740778 0.951474 0.459337
Si Si8 0.557410 0.359514 0.302031
O O1 0.461948 0.670253 0.064176
O O2 0.268071 0.543688 0.035541
O O3 0.288461 0.656166 0.977045
O O4 0.621993 0.584726 0.003175
O O5 0.746483 0.057606 0.904908
O O6 0.365725 0.071644 0.910128
O O7 0.527789 0.059339 0.827019
O O8 0.508781 0.941673 0.878135
O O9 0.920776 0.301409 0.096072
O O10 0.041610 0.417413 0.041238
O O11 0.757541 0.326655 0.863707
O O12 0.378557 0.315578 0.844876
O O13 0.285529 0.809329 0.171097
O O14 0.957587 0.736839 0.178916
O O15 0.275251 0.305503 0.750000
O O16 0.349829 0.183902 0.698981
O O17 0.638133 0.377200 0.250000
#
# Coordination Sequence:
#
# PCOD8231557 Si02
#       8
#     8   8   8   8   8   8   8   8
#     4   9  19  33  51  79 110 142 179 219 271 328
#     4   9  19  34  54  81 106 136 180 226 273 326
#     4  10  19  33  56  80 106 144 189 228 266 321
#     4  10  22  37  53  78 114 144 173 220 276 329
#     4  10  21  36  54  77 107 144 182 221 270 328
#     4  10  21  38  58  78 104 144 185 220 271 333
#     4   9  17  32  54  78 107 142 179 223 270 320
#     4   9  18  35  58  79 101 131 174 228 274 318
#
# _framework density 19.173683
#
# number of rings (size 3 to 8) (size 9 to 14) (size 15 to 20)
#    0.000    2.500    0.000    2.250    0.000    5.500 
#    0.000    0.000    0.000    3.000    0.000    0.000 
#    0.000    0.000    0.000    0.000    0.000    0.000 
#
# Total GULP energy -792871.715175 kJ/mol
# GULP energy per Si atom -12388.620550 kJ/mol
# Density = 1.913004 g / cm^3
# Si number density = 19.173683 Si / 1000 Ang^3
#
#
#
# Elastic Constant Matrix: (Units=GPa)
#
#
# Indices 1 2 3 4 5 6 
#
# 1 85.1741 26.8601 19.8728 0.0000 0.0000 0.0000
# 2 26.8601 53.3611 31.0611 0.0000 0.0000 0.0000
# 3 19.8728 31.0611 120.5904 0.0000 0.0000 0.0000
# 4 0.0000 0.0000 0.0000 26.4025 0.0000 0.0000
# 5 0.0000 0.0000 0.0000 0.0000 29.7174 0.0000
# 6 0.0000 0.0000 0.0000 0.0000 0.0000 13.8009
#
#
#
# Elastic Compliance Matrix: (Units=1/GPa)
#
#
# Indices 1 2 3 4 5 6 
#
# 1 0.013990 -0.006706 -0.000578 0.000000 0.000000 0.000000
# 2 -0.006706 0.025260 -0.005401 0.000000 0.000000 0.000000
# 3 -0.000578 -0.005401 0.009779 0.000000 0.000000 0.000000
# 4 0.000000 0.000000 0.000000 0.037875 0.000000 0.000000
# 5 0.000000 0.000000 0.000000 0.000000 0.033650 0.000000
# 6 0.000000 0.000000 0.000000 0.000000 0.000000 0.072459
#
#
# Mechanical properties :
#
#
# Convention : Reuss Voigt Hill
#
# Bulk Modulus (GPa) = 42.26777 46.07929 44.17353
# Shear Modulus (GPa) = 22.09749 26.07293 24.08521
#
# Velocity S-wave (km/s) = 3.39852 3.69159 3.54808
# Velocity P-wave (km/s) = 6.12311 6.50040 6.31457
#
# Compressibility (1/GPa) = 0.02365869
#
# Stress axis : x y z
#
# Youngs Moduli (GPa) = 71.47845 39.58892 102.25932
#
# Poissons Ratio (x) = 0.26547 0.05914
# Poissons Ratio (y) = 0.47930 0.55232
# Poissons Ratio (z) = 0.04134 0.21383
#
# Static dielectric constant tensor:
#      x y z
#    x 3.438390 0.000000 0.000000 
#    y 0.000000 3.337590 0.000000 
#    z 0.000000 0.000000 4.098470 
# 
# 
# High freq. dielectric constant tensor:
#      x y z
#    x 1.740440 0.000000 0.000000 
#    y 0.000000 1.719410 0.000000 
#    z 0.000000 0.000000 1.763340 
# 
# From -- ./inp_files/29274.got.cif
#   From: 2010.03.12/outbox.cif.g09.slc.cpg/sg57_15_cif.got.tgz:29274.got - 2010.04.16 15:48:40.
