data_PCOD8231018
_publ_section_title
;
Structure prediction by ZEFSAII (Michael W. Deem and Ramdas Pophale) SiO2 
 PCOD8231018
Probable space group: P B C M
;
_chemical_formula_sum "Si O2"
_cell_formula_units_Z 40
_cell_length_a 13.715825
_cell_length_b 18.040925
_cell_length_c 9.092512
_cell_angle_alpha 90.000000
_cell_angle_beta 90.000000
_cell_angle_gamma 90.000000
_cell_volume 2249.907271
_symmetry_space_group_name_H-M "P B C M"
_symmetry_group_IT_number 57
_symmetry_cell_setting 'orthorhombic'
loop_
_space_group_symop_operation_xyz
x,y,z
-x,-y,1/2+z
x,1/2-y,-z
-x,1/2+y,1/2-z
-x,-y,-z
x,y,1/2-z
-x,1/2+y,z
x,1/2-y,1/2+z
loop_
_atom_site_type_symbol
_atom_site_label
_atom_site_fract_x
_atom_site_fract_y
_atom_site_fract_z
Si Si1 0.190402 0.677806 0.921742
Si Si2 0.697695 0.968805 0.922830
Si Si3 0.580770 0.825666 0.579234
Si Si4 0.373275 0.609494 0.075254
Si Si5 0.904295 0.475502 0.418250
O O1 0.209412 0.692326 0.750000
O O2 0.114396 0.611393 0.946043
O O3 0.144796 0.750000 0.000000
O O4 0.292660 0.660437 0.999094
O O5 0.686051 0.988125 0.750000
O O6 0.663549 0.885977 0.959568
O O7 0.810261 0.977752 0.972299
O O8 0.631352 0.026006 0.013751
O O9 0.608850 0.750000 0.500000
O O10 0.579042 0.808134 0.750000
O O11 0.476677 0.856728 0.528111
O O12 0.358253 0.608544 0.250000
O O13 0.923842 0.492799 0.250000
O O14 0.000000 0.500000 0.500000
#
# Coordination Sequence:
#
# PCOD8231018 Si02
#       5
#     8   8   8   8   8
#     4  10  20  34  52  77 106 134 164 206 255 300
#     4   9  19  36  53  72 100 133 168 210 253 297
#     4  10  21  34  49  72 104 138 171 204 244 292
#     4  10  19  31  51  78 103 133 169 205 246 296
#     4   9  19  35  55  75  98 128 164 207 254 299
#
# _framework density 17.778510000000001
#
# number of rings (size 3 to 8) (size 9 to 14) (size 15 to 20)
#    0.000    2.400    0.000    3.600    0.000    8.000 
#    0.000    1.000    0.000    4.800    0.000    0.000 
#    0.000    0.000    0.000    0.000    0.000    0.000 
#
# Total GULP energy -496039.016049 kJ/mol
# GULP energy per Si atom -12400.975401 kJ/mol
# Density = 1.773805 g / cm^3
# Si number density = 17.778510 Si / 1000 Ang^3
#
#
#
# Elastic Constant Matrix: (Units=GPa)
#
#
# Indices 1 2 3 4 5 6 
#
# 1 91.9397 63.7780 41.7776 0.0000 0.0000 0.0000
# 2 63.7780 132.5875 56.1077 0.0000 0.0000 0.0000
# 3 41.7776 56.1077 71.8554 0.0000 0.0000 0.0000
# 4 0.0000 0.0000 0.0000 37.8730 0.0000 0.0000
# 5 0.0000 0.0000 0.0000 0.0000 29.4951 0.0000
# 6 0.0000 0.0000 0.0000 0.0000 0.0000 18.9398
#
#
#
# Elastic Compliance Matrix: (Units=1/GPa)
#
#
# Indices 1 2 3 4 5 6 
#
# 1 0.017632 -0.006188 -0.005420 0.000000 0.000000 0.000000
# 2 -0.006188 0.013436 -0.006894 0.000000 0.000000 0.000000
# 3 -0.005420 -0.006894 0.022451 0.000000 0.000000 0.000000
# 4 0.000000 0.000000 0.000000 0.026404 0.000000 0.000000
# 5 0.000000 0.000000 0.000000 0.000000 0.033904 0.000000
# 6 0.000000 0.000000 0.000000 0.000000 0.000000 0.052799
#
#
# Mechanical properties :
#
#
# Convention : Reuss Voigt Hill
#
# Bulk Modulus (GPa) = 60.54647 68.85655 64.70151
# Shear Modulus (GPa) = 23.90822 26.24287 25.07555
#
# Velocity S-wave (km/s) = 3.67111 3.84617 3.75966
# Velocity P-wave (km/s) = 7.21798 7.65104 7.43766
#
# Compressibility (1/GPa) = 0.01651624
#
# Stress axis : x y z
#
# Youngs Moduli (GPa) = 56.71532 74.42722 44.54215
#
# Poissons Ratio (x) = 0.46055 0.24140
# Poissons Ratio (y) = 0.35095 0.30705
# Poissons Ratio (z) = 0.30737 0.51307
#
# Static dielectric constant tensor:
#      x y z
#    x 3.166390 0.000000 0.000000 
#    y 0.000000 3.423950 0.000000 
#    z 0.000000 0.000000 3.325900 
# 
# 
# High freq. dielectric constant tensor:
#      x y z
#    x 1.673070 0.000000 0.000000 
#    y 0.000000 1.692910 0.000000 
#    z 0.000000 0.000000 1.691930 
# 
# From -- ./inp_files/2645.got.cif
#   From: 2010.03.12/outbox.cif.g09.slc.cpg/sg57_2_cif.got.tgz:2645.got - 2010.04.16 15:48:40.
