data_PCOD8231879
_publ_section_title
;
Structure prediction by ZEFSAII (Michael W. Deem and Ramdas Pophale) SiO2 
 PCOD8231879
Probable space group: P B C M
;
_chemical_formula_sum "Si O2"
_cell_formula_units_Z 56
_cell_length_a 16.919964
_cell_length_b 19.834370
_cell_length_c 8.791366
_cell_angle_alpha 90.000000
_cell_angle_beta 90.000000
_cell_angle_gamma 90.000000
_cell_volume 2950.354529
_symmetry_space_group_name_H-M "P B C M"
_symmetry_group_IT_number 57
_symmetry_cell_setting 'orthorhombic'
loop_
_space_group_symop_operation_xyz
x,y,z
-x,-y,1/2+z
x,1/2-y,-z
-x,1/2+y,1/2-z
-x,-y,-z
x,y,1/2-z
-x,1/2+y,z
x,1/2-y,1/2+z
loop_
_atom_site_type_symbol
_atom_site_label
_atom_site_fract_x
_atom_site_fract_y
_atom_site_fract_z
Si Si1 0.184636 0.321240 0.428767
Si Si2 0.629710 0.179773 0.073505
Si Si3 0.887914 0.050135 0.425802
Si Si4 0.323860 0.082663 0.569533
Si Si5 0.720992 0.057126 0.570725
Si Si6 0.444114 0.320005 0.574477
Si Si7 0.039036 0.405796 0.073908
O O1 0.204566 0.250000 0.500000
O O2 0.192169 0.314801 0.250000
O O3 0.248110 0.375279 0.488678
O O4 0.096451 0.344763 0.474762
O O5 0.654188 0.178583 0.250000
O O6 0.536728 0.169238 0.052280
O O7 0.656890 0.250000 0.000000
O O8 0.672958 0.121614 0.982542
O O9 0.867426 0.061576 0.250000
O O10 0.811783 0.067288 0.524389
O O11 0.959744 0.099268 0.474200
O O12 0.913017 0.973872 0.460014
O O13 0.327301 0.078587 0.750000
O O14 0.402947 0.117345 0.508004
O O15 0.318159 0.007653 0.506344
O O16 0.714795 0.049245 0.750000
O O17 0.415589 0.250000 0.500000
O O18 0.419342 0.318147 0.750000
O O19 0.014894 0.402264 0.250000
#
# Coordination Sequence:
#
# PCOD8231879 Si02
#       7
#     8   8   8   8   8   8   8
#     4  10  21  36  54  80 117 156 193 237 288 343
#     4  10  22  42  65  87 116 151 192 240 295 353
#     4  10  19  35  58  83 112 145 188 237 289 342
#     4  11  22  38  58  84 119 157 197 245 294 343
#     4  12  24  38  60  89 119 152 195 243 294 353
#     4  10  21  38  60  87 117 156 198 239 289 350
#     4   9  18  35  55  79 111 147 190 235 284 342
#
# _framework density 18.98077
#
# number of rings (size 3 to 8) (size 9 to 14) (size 15 to 20)
#    0.000    1.714    1.429    3.429    0.000    5.714 
#    0.000    0.714    0.000    1.714    0.000    0.000 
#    0.000    0.000    0.000    0.000    0.000    0.000 
#
# Total GULP energy -694645.721741 kJ/mol
# GULP energy per Si atom -12404.387888 kJ/mol
# Density = 1.893757 g / cm^3
# Si number density = 18.980770 Si / 1000 Ang^3
#
#
#
# Elastic Constant Matrix: (Units=GPa)
#
#
# Indices 1 2 3 4 5 6 
#
# 1 74.4551 52.4400 47.3300 0.0000 0.0000 0.0000
# 2 52.4400 123.1112 49.5412 0.0000 0.0000 0.0000
# 3 47.3300 49.5412 103.8800 0.0000 0.0000 0.0000
# 4 0.0000 0.0000 0.0000 35.5504 0.0000 0.0000
# 5 0.0000 0.0000 0.0000 0.0000 31.9404 0.0000
# 6 0.0000 0.0000 0.0000 0.0000 0.0000 34.7898
#
#
#
# Elastic Compliance Matrix: (Units=1/GPa)
#
#
# Indices 1 2 3 4 5 6 
#
# 1 0.022767 -0.006835 -0.007113 0.000000 0.000000 0.000000
# 2 -0.006835 0.012104 -0.002658 0.000000 0.000000 0.000000
# 3 -0.007113 -0.002658 0.014135 0.000000 0.000000 0.000000
# 4 0.000000 0.000000 0.000000 0.028129 0.000000 0.000000
# 5 0.000000 0.000000 0.000000 0.000000 0.031308 0.000000
# 6 0.000000 0.000000 0.000000 0.000000 0.000000 0.028744
#
#
# Mechanical properties :
#
#
# Convention : Reuss Voigt Hill
#
# Bulk Modulus (GPa) = 63.32099 66.67429 64.99764
# Shear Modulus (GPa) = 28.46324 30.59846 29.53085
#
# Velocity S-wave (km/s) = 3.87665 4.01942 3.94868
# Velocity P-wave (km/s) = 7.31238 7.53290 7.42346
#
# Compressibility (1/GPa) = 0.01579255
#
# Stress axis : x y z
#
# Youngs Moduli (GPa) = 43.92333 82.61779 70.74548
#
# Poissons Ratio (x) = 0.56471 0.50324
# Poissons Ratio (y) = 0.30023 0.18805
# Poissons Ratio (z) = 0.31244 0.21961
#
# Static dielectric constant tensor:
#      x y z
#    x 3.556220 0.000000 0.000000 
#    y 0.000000 3.389160 0.000000 
#    z 0.000000 0.000000 3.570150 
# 
# 
# High freq. dielectric constant tensor:
#      x y z
#    x 1.742940 0.000000 0.000000 
#    y 0.000000 1.729800 0.000000 
#    z 0.000000 0.000000 1.746660 
# 
# From -- ./inp_files/5141.got.cif
#   From: 2010.03.12/outbox.cif.g09.slc.cpg/sg57_3_cif.got.tgz:5141.got - 2010.04.16 15:48:40.
