data_PCOD8231092
_publ_section_title
;
Structure prediction by ZEFSAII (Michael W. Deem and Ramdas Pophale) SiO2 
 PCOD8231092
Probable space group: P B C M
;
_chemical_formula_sum "Si O2"
_cell_formula_units_Z 56
_cell_length_a 15.890067
_cell_length_b 20.021625
_cell_length_c 8.940347
_cell_angle_alpha 90.000000
_cell_angle_beta 90.000000
_cell_angle_gamma 90.000000
_cell_volume 2844.326363
_symmetry_space_group_name_H-M "P B C M"
_symmetry_group_IT_number 57
_symmetry_cell_setting 'orthorhombic'
loop_
_space_group_symop_operation_xyz
x,y,z
-x,-y,1/2+z
x,1/2-y,-z
-x,1/2+y,1/2-z
-x,-y,-z
x,y,1/2-z
-x,1/2+y,z
x,1/2-y,1/2+z
loop_
_atom_site_type_symbol
_atom_site_label
_atom_site_fract_x
_atom_site_fract_y
_atom_site_fract_z
Si Si1 0.829815 0.409708 0.426397
Si Si2 0.495253 0.815822 0.923453
Si Si3 0.037531 0.681276 0.074138
Si Si4 0.757221 0.951623 0.925834
Si Si5 0.303211 0.681803 0.427317
Si Si6 0.569892 0.954311 0.926005
Si Si7 0.157541 0.181834 0.425358
O O1 0.832103 0.395580 0.250000
O O2 0.913572 0.381245 0.503053
O O3 0.822605 0.488833 0.461547
O O4 0.747361 0.378040 0.498967
O O5 0.498062 0.801497 0.750000
O O6 0.399645 0.829902 0.973973
O O7 0.552223 0.877869 0.970207
O O8 0.532743 0.750000 0.000000
O O9 0.056044 0.684560 0.250000
O O10 0.940143 0.670213 0.036899
O O11 0.070155 0.750000 0.000000
O O12 0.748159 0.941533 0.750000
O O13 0.663827 0.969326 0.988124
O O14 0.792518 0.881934 0.992868
O O15 0.269163 0.750000 0.500000
O O16 0.288697 0.683412 0.250000
O O17 0.562519 0.966014 0.750000
O O18 0.500000 0.000000 0.000000
O O19 0.190940 0.250000 0.500000
O O20 0.172032 0.189146 0.250000
#
# Coordination Sequence:
#
# PCOD8231092 Si02
#       7
#     8   8   8   8   8   8   8
#     4  11  21  33  51  76 106 140 177 213 255 311
#     4   9  19  33  51  75 102 133 171 216 262 310
#     4  10  20  35  56  80 107 139 174 214 258 307
#     4   9  20  37  56  78 107 142 174 211 264 317
#     4  10  19  32  49  72 104 139 175 216 261 308
#     4  10  20  36  56  78 106 140 177 216 261 312
#     4   9  19  38  60  81 106 138 176 216 262 313
#
# _framework density 19.688316
#
# number of rings (size 3 to 8) (size 9 to 14) (size 15 to 20)
#    0.000    2.286    0.000    2.571    0.000    2.857 
#    0.000    2.857    0.000    0.000    0.000    0.000 
#    0.000    0.000    0.000    0.000    0.000    0.000 
#
# Total GULP energy -694394.961637 kJ/mol
# GULP energy per Si atom -12399.910029 kJ/mol
# Density = 1.964350 g / cm^3
# Si number density = 19.688316 Si / 1000 Ang^3
#
#
#
# Elastic Constant Matrix: (Units=GPa)
#
#
# Indices 1 2 3 4 5 6 
#
# 1 92.7648 64.5052 31.8933 0.0000 0.0000 0.0000
# 2 64.5052 138.2676 47.7511 0.0000 0.0000 0.0000
# 3 31.8933 47.7511 64.2196 0.0000 0.0000 0.0000
# 4 0.0000 0.0000 0.0000 30.5920 0.0000 0.0000
# 5 0.0000 0.0000 0.0000 0.0000 22.0388 0.0000
# 6 0.0000 0.0000 0.0000 0.0000 0.0000 31.3717
#
#
#
# Elastic Compliance Matrix: (Units=1/GPa)
#
#
# Indices 1 2 3 4 5 6 
#
# 1 0.016465 -0.006536 -0.003317 0.000000 0.000000 0.000000
# 2 -0.006536 0.012326 -0.005919 0.000000 0.000000 0.000000
# 3 -0.003317 -0.005919 0.021620 0.000000 0.000000 0.000000
# 4 0.000000 0.000000 0.000000 0.032688 0.000000 0.000000
# 5 0.000000 0.000000 0.000000 0.000000 0.045374 0.000000
# 6 0.000000 0.000000 0.000000 0.000000 0.000000 0.031876
#
#
# Mechanical properties :
#
#
# Convention : Reuss Voigt Hill
#
# Bulk Modulus (GPa) = 53.00319 64.83902 58.92110
# Shear Modulus (GPa) = 25.22925 26.87399 26.05162
#
# Velocity S-wave (km/s) = 3.58359 3.69856 3.64153
# Velocity P-wave (km/s) = 6.64097 7.15845 6.90456
#
# Compressibility (1/GPa) = 0.01886679
#
# Stress axis : x y z
#
# Youngs Moduli (GPa) = 60.73412 81.13211 46.25315
#
# Poissons Ratio (x) = 0.53026 0.15344
# Poissons Ratio (y) = 0.39694 0.27377
# Poissons Ratio (z) = 0.20148 0.48022
#
# Static dielectric constant tensor:
#      x y z
#    x 3.493140 0.000000 0.000000 
#    y 0.000000 3.696920 0.000000 
#    z 0.000000 0.000000 3.457280 
# 
# 
# High freq. dielectric constant tensor:
#      x y z
#    x 1.766960 0.000000 0.000000 
#    y 0.000000 1.775200 0.000000 
#    z 0.000000 0.000000 1.751770 
# 
# From -- ./inp_files/5226.got.cif
#   From: 2010.03.12/outbox.cif.g09.slc.cpg/sg57_3_cif.got.tgz:5226.got - 2010.04.16 15:48:40.
