data_PCOD8231229
_publ_section_title
;
Structure prediction by ZEFSAII (Michael W. Deem and Ramdas Pophale) SiO2 
 PCOD8231229
Probable space group: P B C M
;
_chemical_formula_sum "Si O2"
_cell_formula_units_Z 64
_cell_length_a 11.576909
_cell_length_b 33.897161
_cell_length_c 8.736054
_cell_angle_alpha 90.000000
_cell_angle_beta 90.000000
_cell_angle_gamma 90.000000
_cell_volume 3428.240297
_symmetry_space_group_name_H-M "P B C M"
_symmetry_group_IT_number 57
_symmetry_cell_setting 'orthorhombic'
loop_
_space_group_symop_operation_xyz
x,y,z
-x,-y,1/2+z
x,1/2-y,-z
-x,1/2+y,1/2-z
-x,-y,-z
x,y,1/2-z
-x,1/2+y,z
x,1/2-y,1/2+z
loop_
_atom_site_type_symbol
_atom_site_label
_atom_site_fract_x
_atom_site_fract_y
_atom_site_fract_z
Si Si1 0.472192 0.088384 0.922219
Si Si2 0.115557 0.517698 0.069464
Si Si3 0.123819 0.121639 0.427435
Si Si4 0.681175 0.666038 0.578105
Si Si5 0.888313 0.397320 0.070648
Si Si6 0.518302 0.209474 0.070445
Si Si7 0.274884 0.455483 0.928115
Si Si8 0.667897 0.133833 0.429384
O O1 0.506410 0.075838 0.750000
O O2 0.393601 0.126761 0.920671
O O3 0.400965 0.053338 0.002296
O O4 0.587247 0.097307 0.018888
O O5 0.106869 0.513983 0.250000
O O6 0.129410 0.562853 0.023881
O O7 0.226796 0.494256 0.009943
O O8 0.000000 0.500000 0.000000
O O9 0.093078 0.126780 0.250000
O O10 0.203341 0.158120 0.480540
O O11 0.186837 0.080242 0.458596
O O12 0.008566 0.123141 0.527566
O O13 0.714673 0.678753 0.750000
O O14 0.607697 0.700672 0.500017
O O15 0.885045 0.406387 0.250000
O O16 0.786842 0.367424 0.023003
O O17 0.503309 0.213662 0.250000
O O18 0.608759 0.175295 0.028012
O O19 0.566575 0.250000 0.000000
O O20 0.289555 0.463995 0.750000
O O21 0.691956 0.129955 0.250000
#
# Coordination Sequence:
#
# PCOD8231229 Si02
#       8
#     8   8   8   8   8   8   8   8
#     4   9  17  31  52  77 105 139 179 224 273 324
#     4  12  23  36  53  76 107 142 185 237 286 333
#     4  10  19  32  52  77 108 142 179 222 271 324
#     4   9  17  30  51  80 112 140 174 217 263 317
#     4  12  24  37  55  78 108 147 190 232 279 331
#     4  10  20  35  59  88 116 145 178 219 267 319
#     4  10  19  32  52  77 105 139 180 228 282 332
#     4  10  21  38  57  80 111 146 186 227 272 329
#
# _framework density 18.668469999999999
#
# number of rings (size 3 to 8) (size 9 to 14) (size 15 to 20)
#    0.000    1.750    1.250    4.500    0.000    5.500 
#    0.000    0.625    0.000    0.750    0.000    3.500 
#    0.000    0.000    0.000    0.000    0.000    0.000 
#
# Total GULP energy -793843.402488 kJ/mol
# GULP energy per Si atom -12403.803164 kJ/mol
# Density = 1.862598 g / cm^3
# Si number density = 18.668470 Si / 1000 Ang^3
#
#
#
# Elastic Constant Matrix: (Units=GPa)
#
#
# Indices 1 2 3 4 5 6 
#
# 1 77.6391 25.9003 25.7481 0.0000 0.0000 0.0000
# 2 25.9003 60.9186 23.6553 0.0000 0.0000 0.0000
# 3 25.7481 23.6553 99.3274 0.0000 0.0000 0.0000
# 4 0.0000 0.0000 0.0000 28.8339 0.0000 0.0000
# 5 0.0000 0.0000 0.0000 0.0000 34.2649 0.0000
# 6 0.0000 0.0000 0.0000 0.0000 0.0000 18.6911
#
#
#
# Elastic Compliance Matrix: (Units=1/GPa)
#
#
# Indices 1 2 3 4 5 6 
#
# 1 0.015650 -0.005596 -0.002724 0.000000 0.000000 0.000000
# 2 -0.005596 0.020089 -0.003334 0.000000 0.000000 0.000000
# 3 -0.002724 -0.003334 0.011568 0.000000 0.000000 0.000000
# 4 0.000000 0.000000 0.000000 0.034681 0.000000 0.000000
# 5 0.000000 0.000000 0.000000 0.000000 0.029184 0.000000
# 6 0.000000 0.000000 0.000000 0.000000 0.000000 0.053501
#
#
# Mechanical properties :
#
#
# Convention : Reuss Voigt Hill
#
# Bulk Modulus (GPa) = 41.66785 43.16583 42.41684
# Shear Modulus (GPa) = 25.51249 27.19673 26.35461
#
# Velocity S-wave (km/s) = 3.70078 3.82098 3.76136
# Velocity P-wave (km/s) = 6.37412 6.52986 6.45246
#
# Compressibility (1/GPa) = 0.02399932
#
# Stress axis : x y z
#
# Youngs Moduli (GPa) = 63.89602 49.77823 86.44668
#
# Poissons Ratio (x) = 0.27857 0.23550
# Poissons Ratio (y) = 0.35757 0.28818
# Poissons Ratio (z) = 0.17407 0.16594
#
# Static dielectric constant tensor:
#      x y z
#    x 3.478190 0.000000 0.000000 
#    y 0.000000 3.273260 0.000000 
#    z 0.000000 0.000000 3.581880 
# 
# 
# High freq. dielectric constant tensor:
#      x y z
#    x 1.720190 0.000000 0.000000 
#    y 0.000000 1.692730 0.000000 
#    z 0.000000 0.000000 1.744750 
# 
# From -- ./inp_files/3859.got.cif
#   From: 2010.03.12/outbox.cif.g09.slc.cpg/sg57_2_cif.got.tgz:3859.got - 2010.04.16 15:48:40.
