data_PCOD8231743
_publ_section_title
;
Structure prediction by ZEFSAII (Michael W. Deem and Ramdas Pophale) SiO2 
 PCOD8231743
Probable space group: P B C M
;
_chemical_formula_sum "Si O2"
_cell_formula_units_Z 64
_cell_length_a 11.943190
_cell_length_b 30.995168
_cell_length_c 8.982460
_cell_angle_alpha 90.000000
_cell_angle_beta 90.000000
_cell_angle_gamma 90.000000
_cell_volume 3325.137647
_symmetry_space_group_name_H-M "P B C M"
_symmetry_group_IT_number 57
_symmetry_cell_setting 'orthorhombic'
loop_
_space_group_symop_operation_xyz
x,y,z
-x,-y,1/2+z
x,1/2-y,-z
-x,1/2+y,1/2-z
-x,-y,-z
x,y,1/2-z
-x,1/2+y,z
x,1/2-y,1/2+z
loop_
_atom_site_type_symbol
_atom_site_label
_atom_site_fract_x
_atom_site_fract_y
_atom_site_fract_z
Si Si1 0.005518 0.797166 0.926887
Si Si2 0.522374 0.794843 0.921992
Si Si3 0.485348 0.063078 0.915287
Si Si4 0.907915 0.470145 0.074660
Si Si5 0.136851 0.625636 0.925277
Si Si6 0.238464 0.205042 0.077322
Si Si7 0.630279 0.128487 0.076724
Si Si8 0.325734 0.008481 0.415467
O O1 0.023788 0.792764 0.750000
O O2 0.880905 0.815648 0.970830
O O3 0.027355 0.750000 0.000000
O O4 0.089119 0.833211 0.988279
O O5 0.527144 0.783934 0.750000
O O6 0.643134 0.818452 0.963730
O O7 0.416531 0.824205 0.959547
O O8 0.501081 0.750000 0.000000
O O9 0.468457 0.083135 0.750000
O O10 0.574763 0.025280 0.905322
O O11 0.529225 0.096974 0.035206
O O12 0.364574 0.046450 0.973605
O O13 0.918093 0.475451 0.250000
O O14 0.924542 0.419517 0.031638
O O15 0.785958 0.486118 0.019713
O O16 0.000000 0.500000 0.000000
O O17 0.129273 0.634230 0.750000
O O18 0.265450 0.619709 0.970817
O O19 0.228067 0.214000 0.250000
O O20 0.250468 0.250000 0.000000
O O21 0.662259 0.122650 0.250000
O O22 0.302416 0.027322 0.250000
#
# Coordination Sequence:
#
# PCOD8231743 Si02
#       8
#     8   8   8   8   8   8   8   8
#     4  10  20  36  60  89 117 153 198 240 289 345
#     4   9  19  35  55  81 112 147 185 228 277 333
#     4  10  19  34  57  84 112 142 183 230 281 335
#     4  10  22  41  62  84 115 153 193 241 296 350
#     4  11  23  41  60  82 117 154 195 245 292 346
#     4   8  15  31  54  77 105 138 177 223 274 329
#     4  11  22  36  56  82 115 152 192 235 287 348
#     4   9  18  36  58  82 110 143 183 228 281 336
#
# _framework density 19.247323000000002
#
# number of rings (size 3 to 8) (size 9 to 14) (size 15 to 20)
#    0.000    2.250    1.250    1.500    0.000    4.000 
#    2.250    1.250    0.000    0.000    0.000    0.000 
#    0.000    0.000    0.000    0.000    0.000    0.000 
#
# Total GULP energy -792902.747207 kJ/mol
# GULP energy per Si atom -12389.105425 kJ/mol
# Density = 1.920352 g / cm^3
# Si number density = 19.247323 Si / 1000 Ang^3
#
#
#
# Elastic Constant Matrix: (Units=GPa)
#
#
# Indices 1 2 3 4 5 6 
#
# 1 73.9959 42.5877 35.4575 0.0000 0.0000 0.0000
# 2 42.5877 94.3319 40.2646 0.0000 0.0000 0.0000
# 3 35.4575 40.2646 57.7233 0.0000 0.0000 0.0000
# 4 0.0000 0.0000 0.0000 30.0980 0.0000 0.0000
# 5 0.0000 0.0000 0.0000 0.0000 27.0867 0.0000
# 6 0.0000 0.0000 0.0000 0.0000 0.0000 109.7703
#
#
#
# Elastic Compliance Matrix: (Units=1/GPa)
#
#
# Indices 1 2 3 4 5 6 
#
# 1 0.021096 -0.005686 -0.008992 0.000000 0.000000 0.000000
# 2 -0.005686 0.016628 -0.008106 0.000000 0.000000 0.000000
# 3 -0.008992 -0.008106 0.028502 0.000000 0.000000 0.000000
# 4 0.000000 0.000000 0.000000 0.033225 0.000000 0.000000
# 5 0.000000 0.000000 0.000000 0.000000 0.036919 0.000000
# 6 0.000000 0.000000 0.000000 0.000000 0.000000 0.009110
#
#
# Mechanical properties :
#
#
# Convention : Reuss Voigt Hill
#
# Bulk Modulus (GPa) = 48.40911 51.40785 49.90848
# Shear Modulus (GPa) = 25.26117 40.57376 32.91747
#
# Velocity S-wave (km/s) = 3.62671 4.59630 4.13999
# Velocity P-wave (km/s) = 6.53782 7.41182 6.98849
#
# Compressibility (1/GPa) = 0.02065727
#
# Stress axis : x y z
#
# Youngs Moduli (GPa) = 47.40343 60.14039 35.08527
#
# Poissons Ratio (x) = 0.34194 0.31550
# Poissons Ratio (y) = 0.26952 0.28440
# Poissons Ratio (z) = 0.42626 0.48750
#
# Static dielectric constant tensor:
#      x y z
#    x 3.915370 0.000000 0.000000 
#    y 0.000000 3.240800 0.000000 
#    z 0.000000 0.000000 3.550910 
# 
# 
# High freq. dielectric constant tensor:
#      x y z
#    x 1.754700 0.000000 0.000000 
#    y 0.000000 1.728700 0.000000 
#    z 0.000000 0.000000 1.753160 
# 
# From -- ./inp_files/3888.got.cif
#   From: 2010.03.12/outbox.cif.g09.slc.cpg/sg57_2_cif.got.tgz:3888.got - 2010.04.16 15:48:40.
