data_PCOD8231047
_publ_section_title
;
Structure prediction by ZEFSAII (Michael W. Deem and Ramdas Pophale) SiO2 
 PCOD8231047
Probable space group: P B C M
;
_chemical_formula_sum "Si O2"
_cell_formula_units_Z 64
_cell_length_a 12.385109
_cell_length_b 29.221711
_cell_length_c 9.336526
_cell_angle_alpha 90.000000
_cell_angle_beta 90.000000
_cell_angle_gamma 90.000000
_cell_volume 3379.020179
_symmetry_space_group_name_H-M "P B C M"
_symmetry_group_IT_number 57
_symmetry_cell_setting 'orthorhombic'
loop_
_space_group_symop_operation_xyz
x,y,z
-x,-y,1/2+z
x,1/2-y,-z
-x,1/2+y,1/2-z
-x,-y,-z
x,y,1/2-z
-x,1/2+y,z
x,1/2-y,1/2+z
loop_
_atom_site_type_symbol
_atom_site_label
_atom_site_fract_x
_atom_site_fract_y
_atom_site_fract_z
Si Si1 0.068554 0.205895 0.084721
Si Si2 0.294042 0.537126 0.082162
Si Si3 0.599525 0.207253 0.087074
Si Si4 0.168250 0.675476 0.089695
Si Si5 0.110446 0.116793 0.585567
Si Si6 0.477268 0.608298 0.419326
Si Si7 0.329422 0.434039 0.084942
Si Si8 0.125620 0.911620 0.416679
O O1 0.104469 0.209009 0.250000
O O2 0.939141 0.205198 0.068692
O O3 0.112810 0.250000 0.000000
O O4 0.120785 0.160716 0.016253
O O5 0.269234 0.540437 0.250000
O O6 0.383815 0.573452 0.031464
O O7 0.336468 0.487014 0.040096
O O8 0.182306 0.546429 0.998629
O O9 0.563766 0.214203 0.250000
O O10 0.729035 0.208065 0.070136
O O11 0.552967 0.159275 0.028654
O O12 0.550639 0.250000 0.000000
O O13 0.170502 0.653496 0.250000
O O14 0.176054 0.635507 0.973975
O O15 0.108019 0.133938 0.750000
O O16 0.208961 0.083258 0.554206
O O17 0.002309 0.087947 0.551179
O O18 0.491001 0.605992 0.250000
O O19 0.589577 0.595180 0.490290
O O20 0.361321 0.427376 0.250000
O O21 0.151638 0.915799 0.250000
#
# Coordination Sequence:
#
# PCOD8231047 Si02
#       8
#     8   8   8   8   8   8   8   8
#     4  10  19  31  53  81 108 145 187 227 274 329
#     4  10  20  37  59  83 113 145 178 225 285 337
#     4  10  20  34  53  79 111 145 177 217 271 325
#     4   9  17  32  51  75 112 148 177 214 273 332
#     4   9  20  38  54  77 114 147 183 231 277 324
#     4  10  21  38  58  80 113 146 179 230 278 324
#     4  10  22  39  60  81 105 145 190 231 277 328
#     4  10  19  31  53  83 114 145 179 222 270 323
#
# _framework density 18.940401999999999
#
# number of rings (size 3 to 8) (size 9 to 14) (size 15 to 20)
#    0.000    2.250    1.250    1.500    0.000    4.000 
#    0.000    0.625    0.000    1.500    0.000    0.000 
#    0.000    0.000    0.000    0.000    0.000    0.000 
#
# Total GULP energy -793714.734714 kJ/mol
# GULP energy per Si atom -12401.792730 kJ/mol
# Density = 1.889729 g / cm^3
# Si number density = 18.940402 Si / 1000 Ang^3
#
#
#
# Elastic Constant Matrix: (Units=GPa)
#
#
# Indices 1 2 3 4 5 6 
#
# 1 77.7258 47.5205 36.1380 0.0000 0.0000 0.0000
# 2 47.5205 129.4247 50.6250 0.0000 0.0000 0.0000
# 3 36.1380 50.6250 68.9600 0.0000 0.0000 0.0000
# 4 0.0000 0.0000 0.0000 31.8919 0.0000 0.0000
# 5 0.0000 0.0000 0.0000 0.0000 27.8380 0.0000
# 6 0.0000 0.0000 0.0000 0.0000 0.0000 15.9399
#
#
#
# Elastic Compliance Matrix: (Units=1/GPa)
#
#
# Indices 1 2 3 4 5 6 
#
# 1 0.018514 -0.004212 -0.006610 0.000000 0.000000 0.000000
# 2 -0.004212 0.011797 -0.006453 0.000000 0.000000 0.000000
# 3 -0.006610 -0.006453 0.022703 0.000000 0.000000 0.000000
# 4 0.000000 0.000000 0.000000 0.031356 0.000000 0.000000
# 5 0.000000 0.000000 0.000000 0.000000 0.035922 0.000000
# 6 0.000000 0.000000 0.000000 0.000000 0.000000 0.062736
#
#
# Mechanical properties :
#
#
# Convention : Reuss Voigt Hill
#
# Bulk Modulus (GPa) = 54.16190 60.51971 57.34081
# Shear Modulus (GPa) = 22.34801 24.58907 23.46854
#
# Velocity S-wave (km/s) = 3.43871 3.60701 3.52387
# Velocity P-wave (km/s) = 6.66516 7.02634 6.84813
#
# Compressibility (1/GPa) = 0.01846316
#
# Stress axis : x y z
#
# Youngs Moduli (GPa) = 54.01206 84.76485 44.04798
#
# Poissons Ratio (x) = 0.35706 0.29116
# Poissons Ratio (y) = 0.22752 0.28425
# Poissons Ratio (z) = 0.35702 0.54701
#
# Static dielectric constant tensor:
#      x y z
#    x 3.328860 0.000000 0.000000 
#    y 0.000000 3.378130 0.000000 
#    z 0.000000 0.000000 3.467140 
# 
# 
# High freq. dielectric constant tensor:
#      x y z
#    x 1.720950 0.000000 0.000000 
#    y 0.000000 1.733410 0.000000 
#    z 0.000000 0.000000 1.734730 
# 
# From -- ./inp_files/3861.got.cif
#   From: 2010.03.12/outbox.cif.g09.slc.cpg/sg57_2_cif.got.tgz:3861.got - 2010.04.16 15:48:40.
