data_PCOD8231158
_publ_section_title
;
Structure prediction by ZEFSAII (Michael W. Deem and Ramdas Pophale) SiO2 
 PCOD8231158
Probable space group: P B C M
;
_chemical_formula_sum "Si O2"
_cell_formula_units_Z 64
_cell_length_a 20.657382
_cell_length_b 18.811806
_cell_length_c 8.985769
_cell_angle_alpha 90.000000
_cell_angle_beta 90.000000
_cell_angle_gamma 90.000000
_cell_volume 3491.893759
_symmetry_space_group_name_H-M "P B C M"
_symmetry_group_IT_number 57
_symmetry_cell_setting 'orthorhombic'
loop_
_space_group_symop_operation_xyz
x,y,z
-x,-y,1/2+z
x,1/2-y,-z
-x,1/2+y,1/2-z
-x,-y,-z
x,y,1/2-z
-x,1/2+y,z
x,1/2-y,1/2+z
loop_
_atom_site_type_symbol
_atom_site_label
_atom_site_fract_x
_atom_site_fract_y
_atom_site_fract_z
Si Si1 0.497023 0.675014 0.925579
Si Si2 0.132124 0.673990 0.575021
Si Si3 0.852738 0.826481 0.074926
Si Si4 0.386022 0.428120 0.423134
Si Si5 0.747464 0.416441 0.421262
Si Si6 0.384158 0.908716 0.575607
Si Si7 0.007268 0.175797 0.577951
Si Si8 0.254945 0.418022 0.579522
O O1 0.490683 0.685500 0.750000
O O2 0.553077 0.619536 0.967775
O O3 0.513821 0.750000 0.000000
O O4 0.430411 0.644484 0.988225
O O5 0.140871 0.750000 0.500000
O O6 0.138785 0.685318 0.750000
O O7 0.188164 0.621845 0.517796
O O8 0.061330 0.637933 0.535420
O O9 0.842304 0.817191 0.250000
O O10 0.924049 0.861916 0.038074
O O11 0.845629 0.750000 0.000000
O O12 0.799079 0.878252 0.012998
O O13 0.368425 0.421934 0.250000
O O14 0.401943 0.509815 0.465029
O O15 0.325534 0.399022 0.516358
O O16 0.731964 0.397274 0.250000
O O17 0.688355 0.390934 0.523439
O O18 0.759825 0.499453 0.439717
O O19 0.390709 0.893895 0.750000
O O20 0.007029 0.250000 0.500000
O O21 0.006961 0.193232 0.750000
O O22 0.252353 0.393355 0.750000
#
# Coordination Sequence:
#
# PCOD8231158 Si02
#       8
#     8   8   8   8   8   8   8   8
#     4  11  23  38  56  80 109 136 166 208 256 303
#     4   9  17  31  51  74 100 131 170 213 256 303
#     4  10  19  32  51  74 101 132 169 213 259 308
#     4   9  20  38  58  78 102 136 175 213 253 302
#     4   9  19  35  53  74 104 140 174 210 253 303
#     4  10  20  36  58  80 103 135 174 212 253 304
#     4   8  15  28  47  70  96 129 167 208 254 303
#     4  10  20  34  53  76 103 137 174 211 253 302
#
# _framework density 18.328164999999998
#
# number of rings (size 3 to 8) (size 9 to 14) (size 15 to 20)
#    0.000    2.500    0.000    1.875    0.000    4.000 
#    0.000    3.125    0.000    0.000    0.000    0.000 
#    0.000    0.000    0.000    0.000    0.000    0.000 
#
# Total GULP energy -793246.153150 kJ/mol
# GULP energy per Si atom -12394.471143 kJ/mol
# Density = 1.828645 g / cm^3
# Si number density = 18.328165 Si / 1000 Ang^3
#
#
#
# Elastic Constant Matrix: (Units=GPa)
#
#
# Indices 1 2 3 4 5 6 
#
# 1 126.2644 43.3087 48.1404 0.0000 0.0000 0.0000
# 2 43.3087 49.4430 26.9311 0.0000 0.0000 0.0000
# 3 48.1404 26.9311 66.7049 0.0000 0.0000 0.0000
# 4 0.0000 0.0000 0.0000 27.5081 0.0000 0.0000
# 5 0.0000 0.0000 0.0000 0.0000 21.5492 0.0000
# 6 0.0000 0.0000 0.0000 0.0000 0.0000 25.7512
#
#
#
# Elastic Compliance Matrix: (Units=1/GPa)
#
#
# Indices 1 2 3 4 5 6 
#
# 1 0.013030 -0.008065 -0.006148 0.000000 0.000000 0.000000
# 2 -0.008065 0.030919 -0.006663 0.000000 0.000000 0.000000
# 3 -0.006148 -0.006663 0.022118 0.000000 0.000000 0.000000
# 4 0.000000 0.000000 0.000000 0.036353 0.000000 0.000000
# 5 0.000000 0.000000 0.000000 0.000000 0.046405 0.000000
# 6 0.000000 0.000000 0.000000 0.000000 0.000000 0.038833
#
#
# Mechanical properties :
#
#
# Convention : Reuss Voigt Hill
#
# Bulk Modulus (GPa) = 41.12425 53.24142 47.18283
# Shear Modulus (GPa) = 21.05143 23.23051 22.14097
#
# Velocity S-wave (km/s) = 3.39275 3.56403 3.47944
# Velocity P-wave (km/s) = 6.15095 6.78590 6.47621
#
# Compressibility (1/GPa) = 0.02431655
#
# Stress axis : x y z
#
# Youngs Moduli (GPa) = 76.74581 32.34298 45.21212
#
# Poissons Ratio (x) = 0.26084 0.27795
# Poissons Ratio (y) = 0.61895 0.30123
# Poissons Ratio (z) = 0.47180 0.21549
#
# Static dielectric constant tensor:
#      x y z
#    x 3.847590 0.000000 0.000000 
#    y 0.000000 3.174200 0.000000 
#    z 0.000000 0.000000 3.348460 
# 
# 
# High freq. dielectric constant tensor:
#      x y z
#    x 1.731580 0.000000 0.000000 
#    y 0.000000 1.684050 0.000000 
#    z 0.000000 0.000000 1.717360 
# 
# From -- ./inp_files/7264.got.cif
#   From: 2010.03.12/outbox.cif.g09.slc.cpg/sg57_4_cif.got.tgz:7264.got - 2010.04.16 15:48:40.
