data_PCOD8231091
_publ_section_title
;
Structure prediction by ZEFSAII (Michael W. Deem and Ramdas Pophale) SiO2 
 PCOD8231091
Probable space group: P B C M
;
_chemical_formula_sum "Si O2"
_cell_formula_units_Z 40
_cell_length_a 15.799155
_cell_length_b 13.901325
_cell_length_c 8.928798
_cell_angle_alpha 90.000000
_cell_angle_beta 90.000000
_cell_angle_gamma 90.000000
_cell_volume 1961.024658
_symmetry_space_group_name_H-M "P B C M"
_symmetry_group_IT_number 57
_symmetry_cell_setting 'orthorhombic'
loop_
_space_group_symop_operation_xyz
x,y,z
-x,-y,1/2+z
x,1/2-y,-z
-x,1/2+y,1/2-z
-x,-y,-z
x,y,1/2-z
-x,1/2+y,z
x,1/2-y,1/2+z
loop_
_atom_site_type_symbol
_atom_site_label
_atom_site_fract_x
_atom_site_fract_y
_atom_site_fract_z
Si Si1 0.541923 0.853462 0.926096
Si Si2 0.969219 0.407682 0.081193
Si Si3 0.854058 0.655970 0.924038
Si Si4 0.375652 0.969621 0.574588
Si Si5 0.794314 0.459905 0.426383
O O1 0.557576 0.844835 0.750000
O O2 0.448490 0.893028 0.963793
O O3 0.554347 0.750000 0.000000
O O4 0.609411 0.928057 0.994062
O O5 0.961391 0.441613 0.250000
O O6 0.871582 0.384545 0.032379
O O7 0.042989 0.328892 0.061048
O O8 0.000000 0.500000 0.000000
O O9 0.827350 0.647628 0.750000
O O10 0.812713 0.750000 0.000000
O O11 0.819971 0.565009 0.013934
O O12 0.369237 0.989270 0.750000
O O13 0.289037 0.923663 0.512197
O O14 0.774978 0.464348 0.250000
#
# Coordination Sequence:
#
# PCOD8231091 Si02
#       5
#     8   8   8   8   8
#     4  10  21  38  60  83 109 142 178 219 268 323
#     4   8  16  30  48  68  93 127 164 202 245 294
#     4  10  19  32  49  72 102 135 173 216 262 310
#     4  10  21  37  57  83 112 142 178 220 269 323
#     4  10  19  33  53  76 102 134 172 214 261 311
#
# _framework density 20.397499
#
# number of rings (size 3 to 8) (size 9 to 14) (size 15 to 20)
#    0.000    2.400    0.000    2.400    0.000    4.800 
#    0.000    5.000    0.000    4.800    0.000    0.000 
#    0.000    0.000    0.000    0.000    0.000    0.000 
#
# Total GULP energy -495524.241168 kJ/mol
# GULP energy per Si atom -12388.106029 kJ/mol
# Density = 2.035107 g / cm^3
# Si number density = 20.397499 Si / 1000 Ang^3
#
#
#
# Elastic Constant Matrix: (Units=GPa)
#
#
# Indices 1 2 3 4 5 6 
#
# 1 80.3622 -20.7716 18.9862 0.0000 0.0000 0.0000
# 2 -20.7716 33.4656 10.2636 0.0000 0.0000 0.0000
# 3 18.9862 10.2636 74.1972 0.0000 0.0000 0.0000
# 4 0.0000 0.0000 0.0000 24.3862 0.0000 0.0000
# 5 0.0000 0.0000 0.0000 0.0000 35.1024 0.0000
# 6 0.0000 0.0000 0.0000 0.0000 0.0000 13.5087
#
#
#
# Elastic Compliance Matrix: (Units=1/GPa)
#
#
# Indices 1 2 3 4 5 6 
#
# 1 0.017117 0.012498 -0.006109 0.000000 0.000000 0.000000
# 2 0.012498 0.040331 -0.008777 0.000000 0.000000 0.000000
# 3 -0.006109 -0.008777 0.016255 0.000000 0.000000 0.000000
# 4 0.000000 0.000000 0.000000 0.041007 0.000000 0.000000
# 5 0.000000 0.000000 0.000000 0.000000 0.028488 0.000000
# 6 0.000000 0.000000 0.000000 0.000000 0.000000 0.074026
#
#
# Mechanical properties :
#
#
# Convention : Reuss Voigt Hill
#
# Bulk Modulus (GPa) = 14.50804 22.77568 18.64186
# Shear Modulus (GPa) = 20.41017 26.56924 23.48971
#
# Velocity S-wave (km/s) = 3.16669 3.61303 3.39720
# Velocity P-wave (km/s) = 4.52755 5.34748 4.95450
#
# Compressibility (1/GPa) = 0.06892728
#
# Stress axis : x y z
#
# Youngs Moduli (GPa) = 58.42006 24.79503 61.51983
#
# Poissons Ratio (x) = -0.30989 0.37582
# Poissons Ratio (y) = -0.73014 0.53996
# Poissons Ratio (z) = 0.35689 0.21763
#
# Static dielectric constant tensor:
#      x y z
#    x 4.418330 0.000000 0.000000 
#    y 0.000000 3.380880 0.000000 
#    z 0.000000 0.000000 3.742860 
# 
# 
# High freq. dielectric constant tensor:
#      x y z
#    x 1.810550 0.000000 0.000000 
#    y 0.000000 1.759970 0.000000 
#    z 0.000000 0.000000 1.810630 
# 
# From -- ./inp_files/4264.got.cif
#   From: 2010.03.12/outbox.cif.g09.slc.cpg/sg57_3_cif.got.tgz:4264.got - 2010.04.16 15:48:40.
