data_PCOD8231228
_publ_section_title
;
Structure prediction by ZEFSAII (Michael W. Deem and Ramdas Pophale) SiO2 
 PCOD8231228
Probable space group: P B C M
;
_chemical_formula_sum "Si O2"
_cell_formula_units_Z 48
_cell_length_a 11.131142
_cell_length_b 23.099499
_cell_length_c 9.300531
_cell_angle_alpha 90.000000
_cell_angle_beta 90.000000
_cell_angle_gamma 90.000000
_cell_volume 2391.387905
_symmetry_space_group_name_H-M "P B C M"
_symmetry_group_IT_number 57
_symmetry_cell_setting 'orthorhombic'
loop_
_space_group_symop_operation_xyz
x,y,z
-x,-y,1/2+z
x,1/2-y,-z
-x,1/2+y,1/2-z
-x,-y,-z
x,y,1/2-z
-x,1/2+y,z
x,1/2-y,1/2+z
loop_
_atom_site_type_symbol
_atom_site_label
_atom_site_fract_x
_atom_site_fract_y
_atom_site_fract_z
Si Si1 0.445448 0.398233 0.581689
Si Si2 0.312566 0.306814 0.412920
Si Si3 0.923373 0.883451 0.089043
Si Si4 0.679443 0.088838 0.914572
Si Si5 0.144614 0.690156 0.582487
Si Si6 0.211341 0.470934 0.913342
O O1 0.456841 0.384451 0.750000
O O2 0.420127 0.339083 0.495266
O O3 0.570469 0.422999 0.522702
O O4 0.341816 0.444557 0.548668
O O5 0.279308 0.250000 0.500000
O O6 0.353165 0.292434 0.250000
O O7 0.195046 0.345400 0.413104
O O8 0.960829 0.901534 0.250000
O O9 0.030802 0.845652 0.020089
O O10 0.896610 0.942873 0.004724
O O11 0.633431 0.083116 0.750000
O O12 0.736853 0.151635 0.942344
O O13 0.780892 0.039662 0.943259
O O14 0.161088 0.750000 0.500000
O O15 0.124003 0.704138 0.750000
O O16 0.178755 0.456823 0.750000
#
# Coordination Sequence:
#
# PCOD8231228 Si02
#       6
#     8   8   8   8   8   8
#     4  10  20  34  53  78 107 140 180 221 266 321
#     4  10  19  32  52  77 105 137 175 221 270 317
#     4   9  19  35  55  80 108 137 172 218 269 317
#     4  10  21  37  55  77 109 145 179 219 267 315
#     4  10  22  39  57  78 107 143 180 218 261 312
#     4   9  19  35  56  82 109 138 174 220 271 320
#
# _framework density 20.072026999999999
#
# number of rings (size 3 to 8) (size 9 to 14) (size 15 to 20)
#    0.000    2.333    0.000    2.000    0.000    4.667 
#    0.000    1.667    0.000    0.000    0.000    0.000 
#    0.000    0.000    0.000    0.000    0.000    0.000 
#
# Total GULP energy -595258.379695 kJ/mol
# GULP energy per Si atom -12401.216244 kJ/mol
# Density = 2.002634 g / cm^3
# Si number density = 20.072027 Si / 1000 Ang^3
#
#
#
# Elastic Constant Matrix: (Units=GPa)
#
#
# Indices 1 2 3 4 5 6 
#
# 1 37.7894 16.8632 24.0628 0.0000 0.0000 0.0000
# 2 16.8632 90.1717 42.4427 0.0000 0.0000 0.0000
# 3 24.0628 42.4427 95.1637 0.0000 0.0000 0.0000
# 4 0.0000 0.0000 0.0000 34.7743 0.0000 0.0000
# 5 0.0000 0.0000 0.0000 0.0000 26.1314 0.0000
# 6 0.0000 0.0000 0.0000 0.0000 0.0000 23.0978
#
#
#
# Elastic Compliance Matrix: (Units=1/GPa)
#
#
# Indices 1 2 3 4 5 6 
#
# 1 0.032075 -0.002760 -0.006879 0.000000 0.000000 0.000000
# 2 -0.002760 0.014274 -0.005668 0.000000 0.000000 0.000000
# 3 -0.006879 -0.005668 0.014776 0.000000 0.000000 0.000000
# 4 0.000000 0.000000 0.000000 0.028757 0.000000 0.000000
# 5 0.000000 0.000000 0.000000 0.000000 0.038268 0.000000
# 6 0.000000 0.000000 0.000000 0.000000 0.000000 0.043294
#
#
# Mechanical properties :
#
#
# Convention : Reuss Voigt Hill
#
# Bulk Modulus (GPa) = 32.77742 43.31806 38.04774
# Shear Modulus (GPa) = 23.55946 26.11776 24.83861
#
# Velocity S-wave (km/s) = 3.42971 3.61113 3.52159
# Velocity P-wave (km/s) = 5.66121 6.24621 5.96089
#
# Compressibility (1/GPa) = 0.03050881
#
# Stress axis : x y z
#
# Youngs Moduli (GPa) = 31.17729 70.05670 67.67879
#
# Poissons Ratio (x) = 0.19339 0.46557
# Poissons Ratio (y) = 0.08606 0.38362
# Poissons Ratio (z) = 0.21447 0.39710
#
# Static dielectric constant tensor:
#      x y z
#    x 3.440170 0.000000 0.000000 
#    y 0.000000 3.641630 0.000000 
#    z 0.000000 0.000000 3.718960 
# 
# 
# High freq. dielectric constant tensor:
#      x y z
#    x 1.775480 0.000000 0.000000 
#    y 0.000000 1.786500 0.000000 
#    z 0.000000 0.000000 1.778340 
# 
# From -- ./inp_files/3099.got.cif
#   From: 2010.03.12/outbox.cif.g09.slc.cpg/sg57_2_cif.got.tgz:3099.got - 2010.04.16 15:48:40.
