data_PCOD8231101
_publ_section_title
;
Structure prediction by ZEFSAII (Michael W. Deem and Ramdas Pophale) SiO2 
 PCOD8231101
Probable space group: P B C M
;
_chemical_formula_sum "Si O2"
_cell_formula_units_Z 64
_cell_length_a 15.448995
_cell_length_b 25.288822
_cell_length_c 9.150883
_cell_angle_alpha 90.000000
_cell_angle_beta 90.000000
_cell_angle_gamma 90.000000
_cell_volume 3575.129971
_symmetry_space_group_name_H-M "P B C M"
_symmetry_group_IT_number 57
_symmetry_cell_setting 'orthorhombic'
loop_
_space_group_symop_operation_xyz
x,y,z
-x,-y,1/2+z
x,1/2-y,-z
-x,1/2+y,1/2-z
-x,-y,-z
x,y,1/2-z
-x,1/2+y,z
x,1/2-y,1/2+z
loop_
_atom_site_type_symbol
_atom_site_label
_atom_site_fract_x
_atom_site_fract_y
_atom_site_fract_z
Si Si1 0.117245 0.063831 0.911178
Si Si2 0.063827 0.605836 0.577909
Si Si3 0.376268 0.978062 0.418971
Si Si4 0.021028 0.302183 0.579828
Si Si5 0.202910 0.954401 0.914595
Si Si6 0.613175 0.694631 0.422958
Si Si7 0.521492 0.583896 0.418632
Si Si8 0.204892 0.150615 0.080974
O O1 0.124738 0.089252 0.750000
O O2 0.017775 0.068397 0.964565
O O3 0.137400 0.002799 0.910153
O O4 0.188316 0.093655 0.009344
O O5 0.072864 0.614171 0.750000
O O6 0.046143 0.659122 0.493681
O O7 0.156117 0.587621 0.517227
O O8 0.357795 0.965436 0.250000
O O9 0.292189 0.971579 0.515689
O O10 0.444160 0.934221 0.476097
O O11 0.404721 0.039166 0.438618
O O12 0.995398 0.250000 0.500000
O O13 0.002325 0.299294 0.750000
O O14 0.121419 0.314088 0.547252
O O15 0.218334 0.932789 0.750000
O O16 0.583085 0.750000 0.500000
O O17 0.610741 0.704685 0.250000
O O18 0.554073 0.643111 0.463296
O O19 0.710018 0.680416 0.479470
O O20 0.490468 0.584342 0.250000
O O21 0.219439 0.138761 0.250000
#
# Coordination Sequence:
#
# PCOD8231101 Si02
#       8
#     8   8   8   8   8   8   8   8
#     4   9  19  32  48  72 103 138 172 207 246 293
#     4  10  20  34  50  71 100 134 172 210 249 296
#     4  10  20  35  57  80 101 131 170 212 258 308
#     4  10  19  32  50  71  97 132 172 213 255 296
#     4  11  21  33  50  75 105 134 166 205 252 301
#     4  10  20  33  50  75 107 141 173 207 250 301
#     4   9  19  36  55  77 106 135 167 209 257 307
#     4   9  18  31  48  72 103 137 172 209 248 292
#
# _framework density 17.901447000000001
#
# number of rings (size 3 to 8) (size 9 to 14) (size 15 to 20)
#    0.000    2.250    0.000    3.000    0.000    4.500 
#    0.000    0.000    0.000    0.750    0.000    3.500 
#    0.000    0.000    0.000    0.000    0.000    0.000 
#
# Total GULP energy -793229.165548 kJ/mol
# GULP energy per Si atom -12394.205712 kJ/mol
# Density = 1.786070 g / cm^3
# Si number density = 17.901447 Si / 1000 Ang^3
#
#
#
# Elastic Constant Matrix: (Units=GPa)
#
#
# Indices 1 2 3 4 5 6 
#
# 1 43.6140 23.8345 14.0534 0.0000 0.0000 0.0000
# 2 23.8345 92.6514 37.2101 0.0000 0.0000 0.0000
# 3 14.0534 37.2101 59.4473 0.0000 0.0000 0.0000
# 4 0.0000 0.0000 0.0000 31.9627 0.0000 0.0000
# 5 0.0000 0.0000 0.0000 0.0000 29.7789 0.0000
# 6 0.0000 0.0000 0.0000 0.0000 0.0000 18.5423
#
#
#
# Elastic Compliance Matrix: (Units=1/GPa)
#
#
# Indices 1 2 3 4 5 6 
#
# 1 0.027004 -0.005855 -0.002719 0.000000 0.000000 0.000000
# 2 -0.005855 0.015687 -0.008435 0.000000 0.000000 0.000000
# 3 -0.002719 -0.008435 0.022744 0.000000 0.000000 0.000000
# 4 0.000000 0.000000 0.000000 0.031286 0.000000 0.000000
# 5 0.000000 0.000000 0.000000 0.000000 0.033581 0.000000
# 6 0.000000 0.000000 0.000000 0.000000 0.000000 0.053931
#
#
# Mechanical properties :
#
#
# Convention : Reuss Voigt Hill
#
# Bulk Modulus (GPa) = 31.82931 38.43433 35.13182
# Shear Modulus (GPa) = 21.86050 24.09776 22.97913
#
# Velocity S-wave (km/s) = 3.49830 3.67295 3.58669
# Velocity P-wave (km/s) = 5.84263 6.28522 6.06796
#
# Compressibility (1/GPa) = 0.03141758
#
# Stress axis : x y z
#
# Youngs Moduli (GPa) = 37.03133 63.74773 43.96749
#
# Poissons Ratio (x) = 0.37323 0.11955
# Poissons Ratio (y) = 0.21681 0.37086
# Poissons Ratio (z) = 0.10069 0.53770
#
# Static dielectric constant tensor:
#      x y z
#    x 3.275660 0.000000 0.000000 
#    y 0.000000 3.271320 0.000000 
#    z 0.000000 0.000000 3.440090 
# 
# 
# High freq. dielectric constant tensor:
#      x y z
#    x 1.677340 0.000000 0.000000 
#    y 0.000000 1.683030 0.000000 
#    z 0.000000 0.000000 1.701480 
# 
# From -- ./inp_files/5555.got.cif
#   From: 2010.03.12/outbox.cif.g09.slc.cpg/sg57_3_cif.got.tgz:5555.got - 2010.04.16 15:48:40.
