data_PCOD8231362
_publ_section_title
;
Structure prediction by ZEFSAII (Michael W. Deem and Ramdas Pophale) SiO2 
 PCOD8231362
Probable space group: P B C M
;
_chemical_formula_sum "Si O2"
_cell_formula_units_Z 48
_cell_length_a 30.871865
_cell_length_b 9.594724
_cell_length_c 8.903746
_cell_angle_alpha 90.000000
_cell_angle_beta 90.000000
_cell_angle_gamma 90.000000
_cell_volume 2637.352105
_symmetry_space_group_name_H-M "P B C M"
_symmetry_group_IT_number 57
_symmetry_cell_setting 'orthorhombic'
loop_
_space_group_symop_operation_xyz
x,y,z
-x,-y,1/2+z
x,1/2-y,-z
-x,1/2+y,1/2-z
-x,-y,-z
x,y,1/2-z
-x,1/2+y,z
x,1/2-y,1/2+z
loop_
_atom_site_type_symbol
_atom_site_label
_atom_site_fract_x
_atom_site_fract_y
_atom_site_fract_z
Si Si1 0.293839 0.598495 0.071868
Si Si2 0.222871 0.403112 0.571893
Si Si3 0.034893 0.098595 0.426459
Si Si4 0.128535 0.105381 0.078206
Si Si5 0.630942 0.606153 0.575246
Si Si6 0.532871 0.604907 0.572860
O O1 0.288551 0.611515 0.250000
O O2 0.338031 0.519666 0.025730
O O3 0.295288 0.750000 0.000000
O O4 0.254224 0.512332 0.005435
O O5 0.229010 0.250000 0.500000
O O6 0.232087 0.393615 0.750000
O O7 0.174473 0.466494 0.536034
O O8 0.031458 0.250000 0.500000
O O9 0.025658 0.112605 0.250000
O O10 0.082817 0.027633 0.456907
O O11 0.000000 0.000000 0.500000
O O12 0.130476 0.144559 0.250000
O O13 0.125745 0.250000 0.000000
O O14 0.646016 0.750000 0.500000
O O15 0.634539 0.635378 0.750000
O O16 0.582112 0.563722 0.529695
O O17 0.520632 0.750000 0.500000
O O18 0.500000 0.500000 0.500000
O O19 0.525982 0.611244 0.750000
#
# Coordination Sequence:
#
# PCOD8231362 Si02
#       6
#     8   8   8   8   8   8
#     4  11  23  38  54  77 107 140 174 214 262 312
#     4  10  19  34  56  81 105 134 171 213 257 308
#     4  10  19  33  52  76 104 136 172 213 257 306
#     4   8  16  30  50  74 101 131 168 210 254 302
#     4   9  20  37  57  79 105 137 177 217 258 307
#     4  10  20  36  56  81 110 142 177 217 261 309
#
# _framework density 18.200073
#
# number of rings (size 3 to 8) (size 9 to 14) (size 15 to 20)
#    0.000    2.333    0.000    2.500    0.000    5.333 
#    0.000    2.500    0.000    0.000    0.000    0.000 
#    0.000    0.000    0.000    0.000    0.000    0.000 
#
# Total GULP energy -594748.726837 kJ/mol
# GULP energy per Si atom -12390.598476 kJ/mol
# Density = 1.815865 g / cm^3
# Si number density = 18.200073 Si / 1000 Ang^3
#
#
#
# Elastic Constant Matrix: (Units=GPa)
#
#
# Indices 1 2 3 4 5 6 
#
# 1 164.0483 102.4260 70.8059 0.0000 0.0000 0.0000
# 2 102.4260 127.8211 61.8443 0.0000 0.0000 0.0000
# 3 70.8059 61.8443 88.5032 0.0000 0.0000 0.0000
# 4 0.0000 0.0000 0.0000 34.2581 0.0000 0.0000
# 5 0.0000 0.0000 0.0000 0.0000 29.5682 0.0000
# 6 0.0000 0.0000 0.0000 0.0000 0.0000 28.5920
#
#
#
# Elastic Compliance Matrix: (Units=1/GPa)
#
#
# Indices 1 2 3 4 5 6 
#
# 1 0.013465 -0.008427 -0.004884 0.000000 0.000000 0.000000
# 2 -0.008427 0.017093 -0.005203 0.000000 0.000000 0.000000
# 3 -0.004884 -0.005203 0.018842 0.000000 0.000000 0.000000
# 4 0.000000 0.000000 0.000000 0.029190 0.000000 0.000000
# 5 0.000000 0.000000 0.000000 0.000000 0.033820 0.000000
# 6 0.000000 0.000000 0.000000 0.000000 0.000000 0.034975
#
#
# Mechanical properties :
#
#
# Convention : Reuss Voigt Hill
#
# Bulk Modulus (GPa) = 80.81973 94.50280 87.66126
# Shear Modulus (GPa) = 26.51986 28.17008 27.34497
#
# Velocity S-wave (km/s) = 3.82138 3.93848 3.88037
# Velocity P-wave (km/s) = 7.99833 8.52756 8.26718
#
# Compressibility (1/GPa) = 0.01237322
#
# Stress axis : x y z
#
# Youngs Moduli (GPa) = 74.26460 58.50224 53.07271
#
# Poissons Ratio (x) = 0.49300 0.25922
# Poissons Ratio (y) = 0.62582 0.27612
# Poissons Ratio (z) = 0.36272 0.30437
#
# Static dielectric constant tensor:
#      x y z
#    x 4.245740 0.000000 0.000000 
#    y 0.000000 3.063440 0.000000 
#    z 0.000000 0.000000 3.528390 
# 
# 
# High freq. dielectric constant tensor:
#      x y z
#    x 1.730570 0.000000 0.000000 
#    y 0.000000 1.675940 0.000000 
#    z 0.000000 0.000000 1.719970 
# 
# From -- ./inp_files/9920.got.cif
#   From: 2010.03.12/outbox.cif.g09.slc.cpg/sg57_5_cif.got.tgz:9920.got - 2010.04.16 15:48:40.
