data_PCOD8231139
_publ_section_title
;
Structure prediction by ZEFSAII (Michael W. Deem and Ramdas Pophale) SiO2 
 PCOD8231139
Probable space group: P B C M
;
_chemical_formula_sum "Si O2"
_cell_formula_units_Z 64
_cell_length_a 23.063328
_cell_length_b 17.826588
_cell_length_c 8.628709
_cell_angle_alpha 90.000000
_cell_angle_beta 90.000000
_cell_angle_gamma 90.000000
_cell_volume 3547.611268
_symmetry_space_group_name_H-M "P B C M"
_symmetry_group_IT_number 57
_symmetry_cell_setting 'orthorhombic'
loop_
_space_group_symop_operation_xyz
x,y,z
-x,-y,1/2+z
x,1/2-y,-z
-x,1/2+y,1/2-z
-x,-y,-z
x,y,1/2-z
-x,1/2+y,z
x,1/2-y,1/2+z
loop_
_atom_site_type_symbol
_atom_site_label
_atom_site_fract_x
_atom_site_fract_y
_atom_site_fract_z
Si Si1 0.570664 0.618852 0.432789
Si Si2 0.623250 0.464693 0.067294
Si Si3 0.066967 0.332370 0.933887
Si Si4 0.863106 0.974182 0.066791
Si Si5 0.740924 0.533640 0.067292
Si Si6 0.032847 0.568237 0.429632
Si Si7 0.314027 0.175403 0.567694
Si Si8 0.450455 0.829265 0.432908
O O1 0.559999 0.623617 0.250000
O O2 0.584972 0.534836 0.491965
O O3 0.624997 0.669634 0.478407
O O4 0.514904 0.648777 0.520159
O O5 0.618010 0.462808 0.250000
O O6 0.690804 0.473789 0.019344
O O7 0.595629 0.389142 0.997375
O O8 0.075433 0.329332 0.750000
O O9 0.999795 0.354702 0.982858
O O10 0.081385 0.250000 0.000000
O O11 0.109911 0.396694 0.000173
O O12 0.855216 0.963065 0.250000
O O13 0.900027 0.050917 0.029336
O O14 0.803191 0.995783 0.984379
O O15 0.738443 0.549772 0.250000
O O16 0.729879 0.609488 0.973916
O O17 0.022974 0.562540 0.250000
O O18 0.000000 0.500000 0.500000
O O19 0.283970 0.250000 0.500000
O O20 0.324325 0.178973 0.750000
O O21 0.431589 0.750000 0.500000
O O22 0.447162 0.825452 0.250000
#
# Coordination Sequence:
#
# PCOD8231139 Si02
#       8
#     8   8   8   8   8   8   8   8
#     4  10  19  34  53  75  99 128 163 203 248 301
#     4   8  18  35  54  72  97 129 165 206 250 295
#     4  10  19  32  50  76 107 139 167 202 246 291
#     4  10  19  33  52  76 101 131 168 207 245 292
#     4  10  20  36  54  74  97 128 168 210 249 292
#     4   8  16  30  49  71  99 130 164 200 239 282
#     4  11  21  34  50  71  99 133 166 202 245 295
#     4  11  21  34  51  75 101 128 160 202 252 304
#
# _framework density 18.040306999999999
#
# number of rings (size 3 to 8) (size 9 to 14) (size 15 to 20)
#    0.000    2.250    0.000    4.500    0.000    1.500 
#    0.000    9.375    0.000    0.750    0.000    5.250 
#    0.000    0.000    0.000    0.000    0.000    0.000 
#
# Total GULP energy -792978.457241 kJ/mol
# GULP energy per Si atom -12390.288394 kJ/mol
# Density = 1.799925 g / cm^3
# Si number density = 18.040307 Si / 1000 Ang^3
#
#
#
# Elastic Constant Matrix: (Units=GPa)
#
#
# Indices 1 2 3 4 5 6 
#
# 1 69.3958 19.9231 8.8228 0.0000 0.0000 0.0000
# 2 19.9231 62.3034 16.4323 0.0000 0.0000 0.0000
# 3 8.8228 16.4323 50.9980 0.0000 0.0000 0.0000
# 4 0.0000 0.0000 0.0000 20.2081 0.0000 0.0000
# 5 0.0000 0.0000 0.0000 0.0000 24.4490 0.0000
# 6 0.0000 0.0000 0.0000 0.0000 0.0000 5.1363
#
#
#
# Elastic Compliance Matrix: (Units=1/GPa)
#
#
# Indices 1 2 3 4 5 6 
#
# 1 0.015936 -0.004774 -0.001219 0.000000 0.000000 0.000000
# 2 -0.004774 0.018972 -0.005287 0.000000 0.000000 0.000000
# 3 -0.001219 -0.005287 0.021523 0.000000 0.000000 0.000000
# 4 0.000000 0.000000 0.000000 0.049485 0.000000 0.000000
# 5 0.000000 0.000000 0.000000 0.000000 0.040902 0.000000
# 6 0.000000 0.000000 0.000000 0.000000 0.000000 0.194692
#
#
# Mechanical properties :
#
#
# Convention : Reuss Voigt Hill
#
# Bulk Modulus (GPa) = 29.52425 30.33928 29.93176
# Shear Modulus (GPa) = 13.32058 19.12662 16.22360
#
# Velocity S-wave (km/s) = 2.72026 3.25963 3.00208
# Velocity P-wave (km/s) = 5.12520 5.56964 5.35204
#
# Compressibility (1/GPa) = 0.03387046
#
# Stress axis : x y z
#
# Youngs Moduli (GPa) = 62.75210 52.71020 46.46209
#
# Poissons Ratio (x) = 0.25166 0.05662
# Poissons Ratio (y) = 0.29961 0.24564
# Poissons Ratio (z) = 0.07646 0.27868
#
# Static dielectric constant tensor:
#      x y z
#    x 2.971870 0.000000 0.000000 
#    y 0.000000 3.477300 0.000000 
#    z 0.000000 0.000000 3.336190 
# 
# 
# High freq. dielectric constant tensor:
#      x y z
#    x 1.693710 0.000000 0.000000 
#    y 0.000000 1.684000 0.000000 
#    z 0.000000 0.000000 1.703120 
# 
# From -- ./inp_files/9488.got.cif
#   From: 2010.03.12/outbox.cif.g09.slc.cpg/sg57_5_cif.got.tgz:9488.got - 2010.04.16 15:48:40.
