data_PCOD8231843
_publ_section_title
;
Structure prediction by ZEFSAII (Michael W. Deem and Ramdas Pophale) SiO2 
 PCOD8231843
Probable space group: P B C M
;
_chemical_formula_sum "Si O2"
_cell_formula_units_Z 48
_cell_length_a 14.052863
_cell_length_b 10.110432
_cell_length_c 17.135124
_cell_angle_alpha 90.000000
_cell_angle_beta 90.000000
_cell_angle_gamma 90.000000
_cell_volume 2434.567256
_symmetry_space_group_name_H-M "P B C M"
_symmetry_group_IT_number 57
_symmetry_cell_setting 'orthorhombic'
loop_
_space_group_symop_operation_xyz
x,y,z
-x,-y,1/2+z
x,1/2-y,-z
-x,1/2+y,1/2-z
-x,-y,-z
x,y,1/2-z
-x,1/2+y,z
x,1/2-y,1/2+z
loop_
_atom_site_type_symbol
_atom_site_label
_atom_site_fract_x
_atom_site_fract_y
_atom_site_fract_z
Si Si1 0.896457 0.938993 0.659607
Si Si2 0.604415 0.124978 0.555518
Si Si3 0.219474 0.683108 0.657726
Si Si4 0.799318 0.802148 0.088443
Si Si5 0.889930 0.054641 0.342785
Si Si6 0.603881 0.878803 0.450773
O O1 0.902528 0.966617 0.750000
O O2 0.827211 0.816401 0.644993
O O3 0.003070 0.908232 0.630293
O O4 0.852124 0.072466 0.622335
O O5 0.603517 0.250000 0.500000
O O6 0.675217 0.155997 0.625883
O O7 0.498185 0.091750 0.590420
O O8 0.638329 0.998229 0.506211
O O9 0.227022 0.673660 0.750000
O O10 0.179761 0.826150 0.632374
O O11 0.690778 0.847491 0.108138
O O12 0.865909 0.926242 0.106476
O O13 0.810473 0.750000 0.000000
O O14 0.882395 0.025496 0.250000
O O15 0.583888 0.750000 0.500000
#
# Coordination Sequence:
#
# PCOD8231843 Si02
#       6
#     8   8   8   8   8   8
#     4  10  21  38  57  76 106 148 183 214 265 332
#     4  10  19  35  57  77 105 144 179 214 266 328
#     4  10  20  34  55  82 108 138 182 231 270 312
#     4  11  21  35  56  83 110 135 177 232 272 311
#     4  10  21  38  57  77 107 148 185 216 266 334
#     4   9  19  34  55  78 103 139 177 211 262 327
#
# _framework density 19.716031000000001
#
# number of rings (size 3 to 8) (size 9 to 14) (size 15 to 20)
#    0.000    2.000    0.000    4.500    0.000    3.333 
#    0.000    5.000    0.000   13.000    0.000    0.000 
#    0.000    0.000    0.000    0.000    0.000    0.000 
#
# Total GULP energy -594914.843793 kJ/mol
# GULP energy per Si atom -12394.059246 kJ/mol
# Density = 1.967116 g / cm^3
# Si number density = 19.716031 Si / 1000 Ang^3
#
#
#
# Elastic Constant Matrix: (Units=GPa)
#
#
# Indices 1 2 3 4 5 6 
#
# 1 132.6442 44.7686 42.3346 0.0000 0.0000 0.0000
# 2 44.7686 145.2225 29.8319 0.0000 0.0000 0.0000
# 3 42.3346 29.8319 25.2738 0.0000 0.0000 0.0000
# 4 0.0000 0.0000 0.0000 31.6510 0.0000 0.0000
# 5 0.0000 0.0000 0.0000 0.0000 32.7736 0.0000
# 6 0.0000 0.0000 0.0000 0.0000 0.0000 33.7843
#
#
#
# Elastic Compliance Matrix: (Units=1/GPa)
#
#
# Indices 1 2 3 4 5 6 
#
# 1 0.016264 0.000769 -0.028150 0.000000 0.000000 0.000000
# 2 0.000769 0.009126 -0.012060 0.000000 0.000000 0.000000
# 3 -0.028150 -0.012060 0.100955 0.000000 0.000000 0.000000
# 4 0.000000 0.000000 0.000000 0.031595 0.000000 0.000000
# 5 0.000000 0.000000 0.000000 0.000000 0.030512 0.000000
# 6 0.000000 0.000000 0.000000 0.000000 0.000000 0.029600
#
#
# Mechanical properties :
#
#
# Convention : Reuss Voigt Hill
#
# Bulk Modulus (GPa) = 21.06957 59.66789 40.36873
# Shear Modulus (GPa) = 15.98695 32.05546 24.02120
#
# Velocity S-wave (km/s) = 2.85065 4.03657 3.49429
# Velocity P-wave (km/s) = 4.64162 7.21488 6.06627
#
# Compressibility (1/GPa) = 0.04746181
#
# Stress axis : x y z
#
# Youngs Moduli (GPa) = 61.48611 109.57225 9.90543
#
# Poissons Ratio (x) = -0.08425 0.27884
# Poissons Ratio (y) = -0.04728 0.11946
# Poissons Ratio (z) = 1.73084 1.32147
#
# Static dielectric constant tensor:
#      x y z
#    x 4.169790 0.000000 0.000000 
#    y 0.000000 3.797300 0.000000 
#    z 0.000000 0.000000 3.168050 
# 
# 
# High freq. dielectric constant tensor:
#      x y z
#    x 1.787350 0.000000 0.000000 
#    y 0.000000 1.792490 0.000000 
#    z 0.000000 0.000000 1.721020 
# 
# From -- ./inp_files/22455.got.cif
#   From: 2010.03.12/outbox.cif.g09.slc.cpg/sg57_12_cif.got.tgz:22455.got - 2010.04.16 15:48:40.
