data_PCOD8231725
_publ_section_title
;
Structure prediction by ZEFSAII (Michael W. Deem and Ramdas Pophale) SiO2 
 PCOD8231725
Probable space group: P B C M
;
_chemical_formula_sum "Si O2"
_cell_formula_units_Z 64
_cell_length_a 10.210750
_cell_length_b 19.164243
_cell_length_c 17.244337
_cell_angle_alpha 90.000000
_cell_angle_beta 90.000000
_cell_angle_gamma 90.000000
_cell_volume 3374.394182
_symmetry_space_group_name_H-M "P B C M"
_symmetry_group_IT_number 57
_symmetry_cell_setting 'orthorhombic'
loop_
_space_group_symop_operation_xyz
x,y,z
-x,-y,1/2+z
x,1/2-y,-z
-x,1/2+y,1/2-z
-x,-y,-z
x,y,1/2-z
-x,1/2+y,z
x,1/2-y,1/2+z
loop_
_atom_site_type_symbol
_atom_site_label
_atom_site_fract_x
_atom_site_fract_y
_atom_site_fract_z
Si Si1 0.797815 0.607111 0.600652
Si Si2 0.641688 0.386141 0.841432
Si Si3 0.472038 0.754019 0.591534
Si Si4 0.232627 0.240417 0.408742
Si Si5 0.854918 0.906728 0.578427
Si Si6 0.101464 0.968480 0.839112
Si Si7 0.611698 0.531151 0.161496
Si Si8 0.485636 0.112836 0.660971
O O1 0.828068 0.687787 0.626806
O O2 0.846689 0.593886 0.513841
O O3 0.872869 0.551639 0.654492
O O4 0.641285 0.597358 0.607845
O O5 0.642342 0.378801 0.750000
O O6 0.634078 0.309802 0.879089
O O7 0.771870 0.426107 0.868692
O O8 0.517275 0.430197 0.869952
O O9 0.461431 0.750000 0.500000
O O10 0.618962 0.773642 0.620632
O O11 0.436437 0.680011 0.629794
O O12 0.241087 0.250000 0.500000
O O13 0.146414 0.172620 0.387292
O O14 0.732641 0.950162 0.608330
O O15 0.985159 0.945101 0.605329
O O16 0.066787 0.951669 0.750000
O O17 0.642045 0.552484 0.250000
O O18 0.589406 0.448912 0.153870
O O19 0.438948 0.122080 0.750000
#
# Coordination Sequence:
#
# PCOD8231725 Si02
#       8
#     8   8   8   8   8   8   8   8
#     4  10  20  36  60  83 113 150 191 234 285 343
#     4  10  20  36  57  80 113 151 188 231 281 339
#     4  10  19  34  56  87 117 144 189 241 286 335
#     4   8  17  33  54  82 112 139 175 231 280 330
#     4  11  21  37  59  86 114 148 192 241 286 330
#     4  11  23  40  56  79 116 154 194 232 281 349
#     4  10  20  35  56  84 115 147 188 235 284 338
#     4  10  20  35  56  85 118 151 186 234 294 344
#
# _framework density 18.966367999999999
#
# number of rings (size 3 to 8) (size 9 to 14) (size 15 to 20)
#    0.000    2.000    2.500    2.250    0.000    1.500 
#    0.000    5.000    0.000    1.500    0.000    0.000 
#    0.000    0.000    0.000    0.000    0.000    0.000 
#
# Total GULP energy -793529.102203 kJ/mol
# GULP energy per Si atom -12398.892222 kJ/mol
# Density = 1.892320 g / cm^3
# Si number density = 18.966368 Si / 1000 Ang^3
#
#
#
# Elastic Constant Matrix: (Units=GPa)
#
#
# Indices 1 2 3 4 5 6 
#
# 1 86.1626 45.6933 38.5486 0.0000 0.0000 0.0000
# 2 45.6933 129.1022 37.2825 0.0000 0.0000 0.0000
# 3 38.5486 37.2825 48.5510 0.0000 0.0000 0.0000
# 4 0.0000 0.0000 0.0000 25.3526 0.0000 0.0000
# 5 0.0000 0.0000 0.0000 0.0000 23.3186 0.0000
# 6 0.0000 0.0000 0.0000 0.0000 0.0000 22.0777
#
#
#
# Elastic Compliance Matrix: (Units=1/GPa)
#
#
# Indices 1 2 3 4 5 6 
#
# 1 0.018876 -0.003023 -0.012665 0.000000 0.000000 0.000000
# 2 -0.003023 0.010437 -0.005614 0.000000 0.000000 0.000000
# 3 -0.012665 -0.005614 0.034964 0.000000 0.000000 0.000000
# 4 0.000000 0.000000 0.000000 0.039444 0.000000 0.000000
# 5 0.000000 0.000000 0.000000 0.000000 0.042884 0.000000
# 6 0.000000 0.000000 0.000000 0.000000 0.000000 0.045295
#
#
# Mechanical properties :
#
#
# Convention : Reuss Voigt Hill
#
# Bulk Modulus (GPa) = 46.14426 56.31829 51.23127
# Shear Modulus (GPa) = 20.68430 23.63586 22.16008
#
# Velocity S-wave (km/s) = 3.30597 3.53398 3.42188
# Velocity P-wave (km/s) = 6.24139 6.81251 6.53319
#
# Compressibility (1/GPa) = 0.02167117
#
# Stress axis : x y z
#
# Youngs Moduli (GPa) = 52.97843 95.81186 28.60058
#
# Poissons Ratio (x) = 0.28965 0.36224
# Poissons Ratio (y) = 0.16016 0.16058
# Poissons Ratio (z) = 0.67099 0.53793
#
# Static dielectric constant tensor:
#      x y z
#    x 3.266040 0.000000 0.000000 
#    y 0.000000 3.854110 0.000000 
#    z 0.000000 0.000000 3.366690 
# 
# 
# High freq. dielectric constant tensor:
#      x y z
#    x 1.703660 0.000000 0.000000 
#    y 0.000000 1.755780 0.000000 
#    z 0.000000 0.000000 1.729740 
# 
# From -- ./inp_files/17967.got.cif
#   From: 2010.03.12/outbox.cif.g09.slc.cpg/sg57_9_cif.got.tgz:17967.got - 2010.04.16 15:48:40.
