data_PCOD8231631
_publ_section_title
;
Structure prediction by ZEFSAII (Michael W. Deem and Ramdas Pophale) SiO2 
 PCOD8231631
Probable space group: P B C M
;
_chemical_formula_sum "Si O2"
_cell_formula_units_Z 48
_cell_length_a 11.704076
_cell_length_b 25.594466
_cell_length_c 9.147514
_cell_angle_alpha 90.000000
_cell_angle_beta 90.000000
_cell_angle_gamma 90.000000
_cell_volume 2740.225408
_symmetry_space_group_name_H-M "P B C M"
_symmetry_group_IT_number 57
_symmetry_cell_setting 'orthorhombic'
loop_
_space_group_symop_operation_xyz
x,y,z
-x,-y,1/2+z
x,1/2-y,-z
-x,1/2+y,1/2-z
-x,-y,-z
x,y,1/2-z
-x,1/2+y,z
x,1/2-y,1/2+z
loop_
_atom_site_type_symbol
_atom_site_label
_atom_site_fract_x
_atom_site_fract_y
_atom_site_fract_z
Si Si1 0.879346 0.497473 0.423722
Si Si2 0.499454 0.445094 0.580352
Si Si3 0.262250 0.402931 0.577223
Si Si4 0.869669 0.802674 0.577547
Si Si5 0.131161 0.801600 0.919501
Si Si6 0.251939 0.907282 0.919610
O O1 0.894096 0.496301 0.250000
O O2 0.809042 0.547545 0.479194
O O3 0.813843 0.446259 0.475163
O O4 0.000000 0.500000 0.500000
O O5 0.500000 0.500000 0.500000
O O6 0.483970 0.458410 0.750000
O O7 0.393302 0.409730 0.524991
O O8 0.613301 0.412056 0.550112
O O9 0.253175 0.400182 0.750000
O O10 0.208086 0.349675 0.513753
O O11 0.827623 0.750000 0.500000
O O12 0.854419 0.795669 0.750000
O O13 0.000953 0.815322 0.536007
O O14 0.138938 0.789177 0.750000
O O15 0.213185 0.849246 0.963462
O O16 0.175805 0.750000 0.000000
O O17 0.221999 0.919282 0.750000
#
# Coordination Sequence:
#
# PCOD8231631 Si02
#       6
#     8   8   8   8   8   8
#     4  11  21  33  51  76 106 136 171 213 263 318
#     4  10  19  34  54  75 102 138 176 211 256 311
#     4   9  18  33  52  73 101 137 169 205 257 311
#     4   9  17  32  52  71  97 131 169 209 254 307
#     4   9  18  33  52  74 101 135 173 214 262 312
#     4  10  20  34  53  77 105 136 173 217 262 312
#
# _framework density 17.516805999999999
#
# number of rings (size 3 to 8) (size 9 to 14) (size 15 to 20)
#    0.000    2.333    1.667    1.500    0.000    3.333 
#    0.000    6.667    0.000    0.000    0.000    0.000 
#    0.000    0.000    0.000    0.000    0.000    0.000 
#
# Total GULP energy -595219.701896 kJ/mol
# GULP energy per Si atom -12400.410456 kJ/mol
# Density = 1.747694 g / cm^3
# Si number density = 17.516806 Si / 1000 Ang^3
#
#
#
# Elastic Constant Matrix: (Units=GPa)
#
#
# Indices 1 2 3 4 5 6 
#
# 1 143.7413 89.5064 42.4937 0.0000 0.0000 0.0000
# 2 89.5064 166.4382 47.2047 0.0000 0.0000 0.0000
# 3 42.4937 47.2047 45.1574 0.0000 0.0000 0.0000
# 4 0.0000 0.0000 0.0000 31.7952 0.0000 0.0000
# 5 0.0000 0.0000 0.0000 0.0000 21.6486 0.0000
# 6 0.0000 0.0000 0.0000 0.0000 0.0000 22.3116
#
#
#
# Elastic Compliance Matrix: (Units=1/GPa)
#
#
# Indices 1 2 3 4 5 6 
#
# 1 0.011575 -0.004457 -0.006233 0.000000 0.000000 0.000000
# 2 -0.004457 0.010256 -0.006527 0.000000 0.000000 0.000000
# 3 -0.006233 -0.006527 0.034834 0.000000 0.000000 0.000000
# 4 0.000000 0.000000 0.000000 0.031451 0.000000 0.000000
# 5 0.000000 0.000000 0.000000 0.000000 0.046192 0.000000
# 6 0.000000 0.000000 0.000000 0.000000 0.000000 0.044820
#
#
# Mechanical properties :
#
#
# Convention : Reuss Voigt Hill
#
# Bulk Modulus (GPa) = 44.98431 79.30515 62.14473
# Shear Modulus (GPa) = 22.62721 26.89321 24.76021
#
# Velocity S-wave (km/s) = 3.59798 3.92252 3.76375
# Velocity P-wave (km/s) = 6.55721 8.11707 7.37848
#
# Compressibility (1/GPa) = 0.02222997
#
# Stress axis : x y z
#
# Youngs Moduli (GPa) = 86.39399 97.50130 28.70794
#
# Poissons Ratio (x) = 0.43455 0.17894
# Poissons Ratio (y) = 0.38504 0.18739
# Poissons Ratio (z) = 0.53851 0.63642
#
# Static dielectric constant tensor:
#      x y z
#    x 3.043750 0.000000 0.000000 
#    y 0.000000 3.193850 0.000000 
#    z 0.000000 0.000000 3.115430 
# 
# 
# High freq. dielectric constant tensor:
#      x y z
#    x 1.680910 0.000000 0.000000 
#    y 0.000000 1.678820 0.000000 
#    z 0.000000 0.000000 1.659870 
# 
# From -- ./inp_files/3105.got.cif
#   From: 2010.03.12/outbox.cif.g09.slc.cpg/sg57_2_cif.got.tgz:3105.got - 2010.04.16 15:48:40.
