data_PCOD8231237
_publ_section_title
;
Structure prediction by ZEFSAII (Michael W. Deem and Ramdas Pophale) SiO2 
 PCOD8231237
Probable space group: P B C M
;
_chemical_formula_sum "Si O2"
_cell_formula_units_Z 64
_cell_length_a 19.423756
_cell_length_b 20.620782
_cell_length_c 8.994061
_cell_angle_alpha 90.000000
_cell_angle_beta 90.000000
_cell_angle_gamma 90.000000
_cell_volume 3602.418577
_symmetry_space_group_name_H-M "P B C M"
_symmetry_group_IT_number 57
_symmetry_cell_setting 'orthorhombic'
loop_
_space_group_symop_operation_xyz
x,y,z
-x,-y,1/2+z
x,1/2-y,-z
-x,1/2+y,1/2-z
-x,-y,-z
x,y,1/2-z
-x,1/2+y,z
x,1/2-y,1/2+z
loop_
_atom_site_type_symbol
_atom_site_label
_atom_site_fract_x
_atom_site_fract_y
_atom_site_fract_z
Si Si1 0.677791 0.867562 0.077222
Si Si2 0.685024 0.482198 0.578800
Si Si3 0.961561 0.815589 0.575629
Si Si4 0.463155 0.940476 0.576538
Si Si5 0.183918 0.369178 0.921449
Si Si6 0.822658 0.479429 0.421636
Si Si7 0.545692 0.815372 0.926144
Si Si8 0.957636 0.057562 0.073685
O O1 0.668993 0.850814 0.250000
O O2 0.666730 0.943312 0.043626
O O3 0.753408 0.845638 0.024119
O O4 0.622617 0.827698 0.983542
O O5 0.707104 0.474609 0.750000
O O6 0.618077 0.439637 0.539052
O O7 0.747368 0.457284 0.477008
O O8 0.988048 0.750000 0.500000
O O9 0.967264 0.806655 0.750000
O O10 0.882806 0.829159 0.528493
O O11 0.009440 0.874551 0.522662
O O12 0.475452 0.950243 0.750000
O O13 0.495452 0.873087 0.520869
O O14 0.500000 0.000000 0.500000
O O15 0.203501 0.357259 0.750000
O O16 0.166960 0.444410 0.948097
O O17 0.830878 0.460438 0.250000
O O18 0.879350 0.441801 0.517461
O O19 0.546822 0.807837 0.750000
O O20 0.516545 0.750000 0.000000
O O21 0.960882 0.048509 0.250000
O O22 0.000000 0.000000 0.000000
#
# Coordination Sequence:
#
# PCOD8231237 Si02
#       8
#     8   8   8   8   8   8   8   8
#     4  10  19  32  52  78 108 143 182 221 264 320
#     4   9  18  33  53  81 111 139 175 222 272 324
#     4  10  22  38  54  77 108 143 180 221 268 318
#     4  10  20  35  57  82 108 140 180 224 273 321
#     4   9  18  34  51  73 110 146 180 221 262 315
#     4  10  19  33  54  82 111 141 179 224 269 319
#     4  11  23  37  54  77 108 147 183 223 272 322
#     4  11  21  36  57  82 110 142 181 226 273 321
#
# _framework density 17.765841999999999
#
# number of rings (size 3 to 8) (size 9 to 14) (size 15 to 20)
#    0.000    2.000    2.500    1.500    0.000    4.000 
#    0.000    1.250    0.000    0.750    0.000    1.750 
#    0.000    0.000    0.000    0.000    0.000    0.000 
#
# Total GULP energy -793823.484624 kJ/mol
# GULP energy per Si atom -12403.491947 kJ/mol
# Density = 1.772541 g / cm^3
# Si number density = 17.765842 Si / 1000 Ang^3
#
#
#
# Elastic Constant Matrix: (Units=GPa)
#
#
# Indices 1 2 3 4 5 6 
#
# 1 99.9944 65.3410 43.3102 0.0000 0.0000 0.0000
# 2 65.3410 114.1400 49.1988 0.0000 0.0000 0.0000
# 3 43.3102 49.1988 69.1749 0.0000 0.0000 0.0000
# 4 0.0000 0.0000 0.0000 27.1644 0.0000 0.0000
# 5 0.0000 0.0000 0.0000 0.0000 30.4609 0.0000
# 6 0.0000 0.0000 0.0000 0.0000 0.0000 23.5334
#
#
#
# Elastic Compliance Matrix: (Units=1/GPa)
#
#
# Indices 1 2 3 4 5 6 
#
# 1 0.017299 -0.007549 -0.005462 0.000000 0.000000 0.000000
# 2 -0.007549 0.015928 -0.006602 0.000000 0.000000 0.000000
# 3 -0.005462 -0.006602 0.022572 0.000000 0.000000 0.000000
# 4 0.000000 0.000000 0.000000 0.036813 0.000000 0.000000
# 5 0.000000 0.000000 0.000000 0.000000 0.032829 0.000000
# 6 0.000000 0.000000 0.000000 0.000000 0.000000 0.042493
#
#
# Mechanical properties :
#
#
# Convention : Reuss Voigt Hill
#
# Bulk Modulus (GPa) = 60.34006 66.55660 63.44833
# Shear Modulus (GPa) = 23.50899 24.59568 24.05233
#
# Velocity S-wave (km/s) = 3.64162 3.72484 3.68347
# Velocity P-wave (km/s) = 7.19164 7.48624 7.34042
#
# Compressibility (1/GPa) = 0.01657274
#
# Stress axis : x y z
#
# Youngs Moduli (GPa) = 57.80680 62.78073 44.30322
#
# Poissons Ratio (x) = 0.47391 0.24199
# Poissons Ratio (y) = 0.43637 0.29251
# Poissons Ratio (z) = 0.31574 0.41451
#
# Static dielectric constant tensor:
#      x y z
#    x 3.425430 0.000000 0.000000 
#    y 0.000000 3.218860 0.000000 
#    z 0.000000 0.000000 3.306950 
# 
# 
# High freq. dielectric constant tensor:
#      x y z
#    x 1.689960 0.000000 0.000000 
#    y 0.000000 1.664750 0.000000 
#    z 0.000000 0.000000 1.692610 
# 
# From -- ./inp_files/7155.got.cif
#   From: 2010.03.12/outbox.cif.g09.slc.cpg/sg57_4_cif.got.tgz:7155.got - 2010.04.16 15:48:40.
