data_PCOD8231341
_publ_section_title
;
Structure prediction by ZEFSAII (Michael W. Deem and Ramdas Pophale) SiO2 
 PCOD8231341
Probable space group: P B C M
;
_chemical_formula_sum "Si O2"
_cell_formula_units_Z 48
_cell_length_a 11.809417
_cell_length_b 25.510949
_cell_length_c 8.734946
_cell_angle_alpha 90.000000
_cell_angle_beta 90.000000
_cell_angle_gamma 90.000000
_cell_volume 2631.572244
_symmetry_space_group_name_H-M "P B C M"
_symmetry_group_IT_number 57
_symmetry_cell_setting 'orthorhombic'
loop_
_space_group_symop_operation_xyz
x,y,z
-x,-y,1/2+z
x,1/2-y,-z
-x,1/2+y,1/2-z
-x,-y,-z
x,y,1/2-z
-x,1/2+y,z
x,1/2-y,1/2+z
loop_
_atom_site_type_symbol
_atom_site_label
_atom_site_fract_x
_atom_site_fract_y
_atom_site_fract_z
Si Si1 0.619081 0.305588 0.067866
Si Si2 0.378091 0.195081 0.069609
Si Si3 0.622826 0.500192 0.431012
Si Si4 0.997360 0.557789 0.569324
Si Si5 0.772903 0.596999 0.428963
Si Si6 0.764019 0.097533 0.568649
O O1 0.613111 0.302083 0.250000
O O2 0.711468 0.347779 0.009887
O O3 0.657059 0.250000 0.000000
O O4 0.496190 0.322543 0.005917
O O5 0.397789 0.200830 0.250000
O O6 0.281859 0.152861 0.030875
O O7 0.336194 0.250000 0.000000
O O8 0.500000 0.500000 0.500000
O O9 0.612904 0.498314 0.250000
O O10 0.687425 0.552207 0.485591
O O11 0.690147 0.450370 0.497274
O O12 0.998447 0.551070 0.750000
O O13 0.890057 0.591603 0.518395
O O14 0.000000 0.500000 0.500000
O O15 0.107081 0.590436 0.512258
O O16 0.798375 0.590942 0.250000
O O17 0.758494 0.095812 0.750000
#
# Coordination Sequence:
#
# PCOD8231341 Si02
#       6
#     8   8   8   8   8   8
#     4  10  19  34  56  80 108 142 179 219 267 322
#     4  10  20  35  56  81 111 144 178 223 271 321
#     4  10  19  33  51  75 108 136 169 217 268 321
#     4  11  21  37  58  79 107 145 185 223 271 327
#     4  10  21  37  55  78 110 142 179 227 273 317
#     4   9  19  35  54  75 106 142 174 216 268 318
#
# _framework density 18.240047000000001
#
# number of rings (size 3 to 8) (size 9 to 14) (size 15 to 20)
#    0.000    2.000    1.667    3.500    0.000    2.000 
#    0.000    5.000    0.000    4.000    0.000    0.000 
#    0.000    0.000    0.000    0.000    0.000    0.000 
#
# Total GULP energy -595251.041459 kJ/mol
# GULP energy per Si atom -12401.063364 kJ/mol
# Density = 1.819853 g / cm^3
# Si number density = 18.240047 Si / 1000 Ang^3
#
#
#
# Elastic Constant Matrix: (Units=GPa)
#
#
# Indices 1 2 3 4 5 6 
#
# 1 171.2478 94.5388 47.1256 0.0000 0.0000 0.0000
# 2 94.5388 145.8882 46.7146 0.0000 0.0000 0.0000
# 3 47.1256 46.7146 61.8795 0.0000 0.0000 0.0000
# 4 0.0000 0.0000 0.0000 26.2181 0.0000 0.0000
# 5 0.0000 0.0000 0.0000 0.0000 31.1804 0.0000
# 6 0.0000 0.0000 0.0000 0.0000 0.0000 33.5716
#
#
#
# Elastic Compliance Matrix: (Units=1/GPa)
#
#
# Indices 1 2 3 4 5 6 
#
# 1 0.009622 -0.005128 -0.003456 0.000000 0.000000 0.000000
# 2 -0.005128 0.011773 -0.004982 0.000000 0.000000 0.000000
# 3 -0.003456 -0.004982 0.022554 0.000000 0.000000 0.000000
# 4 0.000000 0.000000 0.000000 0.038142 0.000000 0.000000
# 5 0.000000 0.000000 0.000000 0.000000 0.032071 0.000000
# 6 0.000000 0.000000 0.000000 0.000000 0.000000 0.029787
#
#
# Mechanical properties :
#
#
# Convention : Reuss Voigt Hill
#
# Bulk Modulus (GPa) = 59.46999 83.97482 71.72240
# Shear Modulus (GPa) = 28.29853 30.90312 29.60082
#
# Velocity S-wave (km/s) = 3.94312 4.12059 4.03283
# Velocity P-wave (km/s) = 7.30793 8.29323 7.81612
#
# Compressibility (1/GPa) = 0.01681520
#
# Stress axis : x y z
#
# Youngs Moduli (GPa) = 103.93092 84.93792 44.33851
#
# Poissons Ratio (x) = 0.43560 0.15324
# Poissons Ratio (y) = 0.53301 0.22091
# Poissons Ratio (z) = 0.35919 0.42319
#
# Static dielectric constant tensor:
#      x y z
#    x 3.438830 0.000000 0.000000 
#    y 0.000000 3.484380 0.000000 
#    z 0.000000 0.000000 3.245750 
# 
# 
# High freq. dielectric constant tensor:
#      x y z
#    x 1.709690 0.000000 0.000000 
#    y 0.000000 1.712510 0.000000 
#    z 0.000000 0.000000 1.698380 
# 
# From -- ./inp_files/3259.got.cif
#   From: 2010.03.12/outbox.cif.g09.slc.cpg/sg57_2_cif.got.tgz:3259.got - 2010.04.16 15:48:40.
