data_PCOD8231118
_publ_section_title
;
Structure prediction by ZEFSAII (Michael W. Deem and Ramdas Pophale) SiO2 
 PCOD8231118
Probable space group: P B C M
;
_chemical_formula_sum "Si O2"
_cell_formula_units_Z 56
_cell_length_a 17.726189
_cell_length_b 18.487896
_cell_length_c 9.460071
_cell_angle_alpha 90.000000
_cell_angle_beta 90.000000
_cell_angle_gamma 90.000000
_cell_volume 3100.253888
_symmetry_space_group_name_H-M "P B C M"
_symmetry_group_IT_number 57
_symmetry_cell_setting 'orthorhombic'
loop_
_space_group_symop_operation_xyz
x,y,z
-x,-y,1/2+z
x,1/2-y,-z
-x,1/2+y,1/2-z
-x,-y,-z
x,y,1/2-z
-x,1/2+y,z
x,1/2-y,1/2+z
loop_
_atom_site_type_symbol
_atom_site_label
_atom_site_fract_x
_atom_site_fract_y
_atom_site_fract_z
Si Si1 0.921790 0.107288 0.904309
Si Si2 0.600754 0.320528 0.093696
Si Si3 0.144997 0.459586 0.586098
Si Si4 0.440595 0.952740 0.583488
Si Si5 0.730472 0.476132 0.595262
Si Si6 0.234488 0.833198 0.463085
Si Si7 0.952582 0.677636 0.081769
O O1 0.962351 0.111605 0.750000
O O2 0.839040 0.141237 0.879144
O O3 0.913801 0.023704 0.953730
O O4 0.966613 0.151414 0.023221
O O5 0.563212 0.312248 0.250000
O O6 0.688242 0.340632 0.124957
O O7 0.596509 0.250000 0.000000
O O8 0.556059 0.377177 0.998338
O O9 0.163549 0.462364 0.750000
O O10 0.224495 0.471692 0.510009
O O11 0.109194 0.382918 0.543552
O O12 0.461096 0.943598 0.750000
O O13 0.357955 0.987335 0.565569
O O14 0.500000 0.000000 0.500000
O O15 0.751094 0.504158 0.750000
O O16 0.754167 0.390832 0.591079
O O17 0.220872 0.750000 0.500000
O O18 0.959575 0.691055 0.250000
O O19 0.927731 0.750000 0.000000
#
# Coordination Sequence:
#
# PCOD8231118 Si02
#       7
#     8   8   8   8   8   8   8
#     4  10  19  32  50  74 102 133 168 208 254 304
#     4  10  19  32  50  73 104 141 175 209 249 299
#     4   9  20  37  55  74  99 130 167 209 256 306
#     4  10  20  34  53  80 109 137 169 207 252 303
#     4   9  19  33  52  78 104 132 171 210 247 296
#     4   9  18  29  46  72 105 139 170 203 244 294
#     4  11  23  37  52  73  99 130 169 214 260 306
#
# _framework density 18.063036
#
# number of rings (size 3 to 8) (size 9 to 14) (size 15 to 20)
#    0.000    2.286    0.000    2.571    0.000   11.429 
#    0.000    0.000    0.000    0.857    0.000    2.000 
#    0.000    0.000    0.000    0.000    0.000    0.000 
#
# Total GULP energy -693847.212257 kJ/mol
# GULP energy per Si atom -12390.128790 kJ/mol
# Density = 1.802192 g / cm^3
# Si number density = 18.063036 Si / 1000 Ang^3
#
#
#
# Elastic Constant Matrix: (Units=GPa)
#
#
# Indices 1 2 3 4 5 6 
#
# 1 78.1395 57.5391 52.2267 0.0000 0.0000 0.0000
# 2 57.5391 130.8849 63.0044 0.0000 0.0000 0.0000
# 3 52.2267 63.0044 130.4184 0.0000 0.0000 0.0000
# 4 0.0000 0.0000 0.0000 24.6953 0.0000 0.0000
# 5 0.0000 0.0000 0.0000 0.0000 21.5244 0.0000
# 6 0.0000 0.0000 0.0000 0.0000 0.0000 24.0814
#
#
#
# Elastic Compliance Matrix: (Units=1/GPa)
#
#
# Indices 1 2 3 4 5 6 
#
# 1 0.021352 -0.006868 -0.005233 0.000000 0.000000 0.000000
# 2 -0.006868 0.012164 -0.003126 0.000000 0.000000 0.000000
# 3 -0.005233 -0.003126 0.011273 0.000000 0.000000 0.000000
# 4 0.000000 0.000000 0.000000 0.040493 0.000000 0.000000
# 5 0.000000 0.000000 0.000000 0.000000 0.046459 0.000000
# 6 0.000000 0.000000 0.000000 0.000000 0.000000 0.041526
#
#
# Mechanical properties :
#
#
# Convention : Reuss Voigt Hill
#
# Bulk Modulus (GPa) = 69.75334 76.10925 72.93130
# Shear Modulus (GPa) = 23.98068 25.17175 24.57622
#
# Velocity S-wave (km/s) = 3.64759 3.73708 3.69261
# Velocity P-wave (km/s) = 7.51268 7.80050 7.65794
#
# Compressibility (1/GPa) = 0.01433623
#
# Stress axis : x y z
#
# Youngs Moduli (GPa) = 46.83317 82.20670 88.70416
#
# Poissons Ratio (x) = 0.56459 0.46417
# Poissons Ratio (y) = 0.32165 0.27732
# Poissons Ratio (z) = 0.24507 0.25700
#
# Static dielectric constant tensor:
#      x y z
#    x 3.161720 0.000000 0.000000 
#    y 0.000000 3.147090 0.000000 
#    z 0.000000 0.000000 3.409240 
# 
# 
# High freq. dielectric constant tensor:
#      x y z
#    x 1.673670 0.000000 0.000000 
#    y 0.000000 1.693310 0.000000 
#    z 0.000000 0.000000 1.710570 
# 
# From -- ./inp_files/7017.got.cif
#   From: 2010.03.12/outbox.cif.g09.slc.cpg/sg57_4_cif.got.tgz:7017.got - 2010.04.16 15:48:40.
