data_PCOD8231097
_publ_section_title
;
Structure prediction by ZEFSAII (Michael W. Deem and Ramdas Pophale) SiO2 
 PCOD8231097
Probable space group: P B C M
;
_chemical_formula_sum "Si O2"
_cell_formula_units_Z 40
_cell_length_a 9.553794
_cell_length_b 25.509504
_cell_length_c 9.056107
_cell_angle_alpha 90.000000
_cell_angle_beta 90.000000
_cell_angle_gamma 90.000000
_cell_volume 2207.086896
_symmetry_space_group_name_H-M "P B C M"
_symmetry_group_IT_number 57
_symmetry_cell_setting 'orthorhombic'
loop_
_space_group_symop_operation_xyz
x,y,z
-x,-y,1/2+z
x,1/2-y,-z
-x,1/2+y,1/2-z
-x,-y,-z
x,y,1/2-z
-x,1/2+y,z
x,1/2-y,1/2+z
loop_
_atom_site_type_symbol
_atom_site_label
_atom_site_fract_x
_atom_site_fract_y
_atom_site_fract_z
Si Si1 0.540818 0.396392 0.579849
Si Si2 0.748576 0.033403 0.922226
Si Si3 0.226065 0.084937 0.422896
Si Si4 0.746807 0.304518 0.924189
Si Si5 0.039414 0.623784 0.576155
O O1 0.562904 0.409795 0.750000
O O2 0.606521 0.445343 0.494046
O O3 0.377731 0.390914 0.541413
O O4 0.617033 0.342388 0.536962
O O5 0.719305 0.032368 0.750000
O O6 0.878971 0.070330 0.964430
O O7 0.780865 0.975077 0.979132
O O8 0.188950 0.088838 0.250000
O O9 0.117546 0.119089 0.516472
O O10 0.767872 0.297286 0.750000
O O11 0.709908 0.250000 0.000000
O O12 0.888716 0.327475 0.994059
O O13 0.038863 0.634870 0.750000
#
# Coordination Sequence:
#
# PCOD8231097 Si02
#       5
#     8   8   8   8   8
#     4   9  19  33  51  75 102 132 169 209 254 303
#     4   9  18  31  49  73 104 140 176 208 244 295
#     4  10  19  32  49  74 108 141 169 206 252 297
#     4  10  20  37  58  76  95 125 164 209 256 305
#     4  10  20  33  50  76 104 134 172 210 248 296
#
# _framework density 18.123436000000002
#
# number of rings (size 3 to 8) (size 9 to 14) (size 15 to 20)
#    0.000    2.400    0.000    2.400    0.000    3.200 
#    0.000    1.000    0.000    2.400    0.000    0.000 
#    0.000    0.000    0.000    0.000    0.000    0.000 
#
# Total GULP energy -496132.904825 kJ/mol
# GULP energy per Si atom -12403.322621 kJ/mol
# Density = 1.808219 g / cm^3
# Si number density = 18.123436 Si / 1000 Ang^3
#
#
#
# Elastic Constant Matrix: (Units=GPa)
#
#
# Indices 1 2 3 4 5 6 
#
# 1 108.0993 39.4257 40.8475 0.0000 0.0000 0.0000
# 2 39.4257 81.1675 33.2844 0.0000 0.0000 0.0000
# 3 40.8475 33.2844 64.2633 0.0000 0.0000 0.0000
# 4 0.0000 0.0000 0.0000 28.3531 0.0000 0.0000
# 5 0.0000 0.0000 0.0000 0.0000 31.3411 0.0000
# 6 0.0000 0.0000 0.0000 0.0000 0.0000 14.6563
#
#
#
# Elastic Compliance Matrix: (Units=1/GPa)
#
#
# Indices 1 2 3 4 5 6 
#
# 1 0.013001 -0.003716 -0.006340 0.000000 0.000000 0.000000
# 2 -0.003716 0.016704 -0.006290 0.000000 0.000000 0.000000
# 3 -0.006340 -0.006290 0.022849 0.000000 0.000000 0.000000
# 4 0.000000 0.000000 0.000000 0.035269 0.000000 0.000000
# 5 0.000000 0.000000 0.000000 0.000000 0.031907 0.000000
# 6 0.000000 0.000000 0.000000 0.000000 0.000000 0.068230
#
#
# Mechanical properties :
#
#
# Convention : Reuss Voigt Hill
#
# Bulk Modulus (GPa) = 50.34304 53.40501 51.87403
# Shear Modulus (GPa) = 22.00001 24.20161 23.10081
#
# Velocity S-wave (km/s) = 3.48788 3.65824 3.57408
# Velocity P-wave (km/s) = 6.63767 6.88295 6.76142
#
# Compressibility (1/GPa) = 0.01986372
#
# Stress axis : x y z
#
# Youngs Moduli (GPa) = 76.91454 59.86462 43.76646
#
# Poissons Ratio (x) = 0.22243 0.27746
# Poissons Ratio (y) = 0.28578 0.27530
# Poissons Ratio (z) = 0.48761 0.37656
#
# Static dielectric constant tensor:
#      x y z
#    x 3.361510 0.000000 0.000000 
#    y 0.000000 3.317370 0.000000 
#    z 0.000000 0.000000 3.312240 
# 
# 
# High freq. dielectric constant tensor:
#      x y z
#    x 1.702930 0.000000 0.000000 
#    y 0.000000 1.689510 0.000000 
#    z 0.000000 0.000000 1.704520 
# 
# From -- ./inp_files/1476.got.cif
#   From: 2010.03.12/outbox.cif.g09.slc.cpg/sg57_1_cif.got.tgz:1476.got - 2010.04.16 15:48:40.
