data_PCOD8231001
_publ_section_title
;
Structure prediction by ZEFSAII (Michael W. Deem and Ramdas Pophale) SiO2 
 PCOD8231001
Probable space group: P B C M
;
_chemical_formula_sum "Si O2"
_cell_formula_units_Z 56
_cell_length_a 22.500932
_cell_length_b 14.104801
_cell_length_c 9.278335
_cell_angle_alpha 90.000000
_cell_angle_beta 90.000000
_cell_angle_gamma 90.000000
_cell_volume 2944.676018
_symmetry_space_group_name_H-M "P B C M"
_symmetry_group_IT_number 57
_symmetry_cell_setting 'orthorhombic'
loop_
_space_group_symop_operation_xyz
x,y,z
-x,-y,1/2+z
x,1/2-y,-z
-x,1/2+y,1/2-z
-x,-y,-z
x,y,1/2-z
-x,1/2+y,z
x,1/2-y,1/2+z
loop_
_atom_site_type_symbol
_atom_site_label
_atom_site_fract_x
_atom_site_fract_y
_atom_site_fract_z
Si Si1 0.969615 0.158674 0.415883
Si Si2 0.516855 0.410984 0.911617
Si Si3 0.893778 0.655166 0.080321
Si Si4 0.394519 0.341167 0.581256
Si Si5 0.359308 0.967716 0.581722
Si Si6 0.134993 0.524014 0.082826
Si Si7 0.246696 0.848541 0.581502
O O1 0.946114 0.250000 0.500000
O O2 0.963177 0.185494 0.250000
O O3 0.928799 0.069378 0.455562
O O4 0.037330 0.134850 0.456433
O O5 0.510640 0.446069 0.750000
O O6 0.466761 0.331329 0.940567
O O7 0.586740 0.390424 0.943728
O O8 0.500000 0.500000 0.000000
O O9 0.881874 0.665091 0.250000
O O10 0.872358 0.750000 0.000000
O O11 0.855984 0.568425 0.015824
O O12 0.366640 0.250000 0.500000
O O13 0.377132 0.338851 0.750000
O O14 0.368716 0.437025 0.511090
O O15 0.354696 0.996585 0.750000
O O16 0.299919 0.916258 0.528178
O O17 0.138525 0.493765 0.250000
O O18 0.185441 0.599448 0.043573
O O19 0.249270 0.750000 0.500000
O O20 0.252560 0.827064 0.750000
#
# Coordination Sequence:
#
# PCOD8231001 Si02
#       7
#     8   8   8   8   8   8   8
#     4   9  18  31  50  77 108 138 170 209 255 304
#     4   8  15  28  47  70  98 130 165 204 249 296
#     4  10  20  34  53  78 105 136 171 210 257 309
#     4  10  19  31  50  78 107 137 171 210 257 309
#     4   9  18  35  54  74 103 138 174 214 255 300
#     4  10  20  35  53  76 106 138 172 213 255 299
#     4  10  22  38  57  79 104 135 172 212 255 301
#
# _framework density 19.017372000000002
#
# number of rings (size 3 to 8) (size 9 to 14) (size 15 to 20)
#    0.000    2.571    0.000    1.714    0.000    3.429 
#    0.000    0.714    0.000    0.000    0.000    0.000 
#    0.000    0.000    0.000    0.000    0.000    0.000 
#
# Total GULP energy -693964.342156 kJ/mol
# GULP energy per Si atom -12392.220396 kJ/mol
# Density = 1.897409 g / cm^3
# Si number density = 19.017372 Si / 1000 Ang^3
#
#
#
# Elastic Constant Matrix: (Units=GPa)
#
#
# Indices 1 2 3 4 5 6 
#
# 1 62.1281 41.3525 31.7479 0.0000 0.0000 0.0000
# 2 41.3525 131.9175 71.3955 0.0000 0.0000 0.0000
# 3 31.7479 71.3955 85.2968 0.0000 0.0000 0.0000
# 4 0.0000 0.0000 0.0000 38.2751 0.0000 0.0000
# 5 0.0000 0.0000 0.0000 0.0000 20.4760 0.0000
# 6 0.0000 0.0000 0.0000 0.0000 0.0000 20.2451
#
#
#
# Elastic Compliance Matrix: (Units=1/GPa)
#
#
# Indices 1 2 3 4 5 6 
#
# 1 0.021149 -0.004331 -0.004246 0.000000 0.000000 0.000000
# 2 -0.004331 0.014746 -0.010730 0.000000 0.000000 0.000000
# 3 -0.004246 -0.010730 0.022286 0.000000 0.000000 0.000000
# 4 0.000000 0.000000 0.000000 0.026127 0.000000 0.000000
# 5 0.000000 0.000000 0.000000 0.000000 0.048838 0.000000
# 6 0.000000 0.000000 0.000000 0.000000 0.000000 0.049395
#
#
# Mechanical properties :
#
#
# Convention : Reuss Voigt Hill
#
# Bulk Modulus (GPa) = 51.11352 63.14824 57.13088
# Shear Modulus (GPa) = 21.96105 24.78901 23.37503
#
# Velocity S-wave (km/s) = 3.40191 3.61431 3.50971
# Velocity P-wave (km/s) = 6.50894 7.12006 6.82135
#
# Compressibility (1/GPa) = 0.01956429
#
# Stress axis : x y z
#
# Youngs Moduli (GPa) = 47.28449 67.81660 44.87188
#
# Poissons Ratio (x) = 0.29375 0.19053
# Poissons Ratio (y) = 0.20481 0.48149
# Poissons Ratio (z) = 0.20077 0.72769
#
# Static dielectric constant tensor:
#      x y z
#    x 3.291180 0.000000 0.000000 
#    y 0.000000 3.231820 0.000000 
#    z 0.000000 0.000000 3.459150 
# 
# 
# High freq. dielectric constant tensor:
#      x y z
#    x 1.729630 0.000000 0.000000 
#    y 0.000000 1.728870 0.000000 
#    z 0.000000 0.000000 1.741540 
# 
# From -- ./inp_files/8137.got.cif
#   From: 2010.03.12/outbox.cif.g09.slc.cpg/sg57_5_cif.got.tgz:8137.got - 2010.04.16 15:48:40.
