data_PCOD8231132
_publ_section_title
;
Structure prediction by ZEFSAII (Michael W. Deem and Ramdas Pophale) SiO2 
 PCOD8231132
Probable space group: P B C M
;
_chemical_formula_sum "Si O2"
_cell_formula_units_Z 64
_cell_length_a 20.030553
_cell_length_b 20.228478
_cell_length_c 8.841357
_cell_angle_alpha 90.000000
_cell_angle_beta 90.000000
_cell_angle_gamma 90.000000
_cell_volume 3582.408230
_symmetry_space_group_name_H-M "P B C M"
_symmetry_group_IT_number 57
_symmetry_cell_setting 'orthorhombic'
loop_
_space_group_symop_operation_xyz
x,y,z
-x,-y,1/2+z
x,1/2-y,-z
-x,1/2+y,1/2-z
-x,-y,-z
x,y,1/2-z
-x,1/2+y,z
x,1/2-y,1/2+z
loop_
_atom_site_type_symbol
_atom_site_label
_atom_site_fract_x
_atom_site_fract_y
_atom_site_fract_z
Si Si1 0.302614 0.898177 0.073108
Si Si2 0.525029 0.933482 0.425970
Si Si3 0.949286 0.181070 0.430288
Si Si4 0.185063 0.064304 0.926915
Si Si5 0.166756 0.917262 0.928336
Si Si6 0.569575 0.180528 0.572069
Si Si7 0.908334 0.680370 0.931323
Si Si8 0.669999 0.533581 0.575142
O O1 0.289861 0.899774 0.250000
O O2 0.355760 0.841989 0.027260
O O3 0.232620 0.881979 0.993298
O O4 0.333563 0.967979 0.024393
O O5 0.509503 0.940112 0.250000
O O6 0.484682 0.871423 0.493254
O O7 0.604187 0.922853 0.457190
O O8 0.500000 0.000000 0.500000
O O9 0.923318 0.250000 0.500000
O O10 0.956907 0.187963 0.250000
O O11 0.897942 0.123772 0.477866
O O12 0.019205 0.161462 0.505298
O O13 0.172013 0.064825 0.750000
O O14 0.141979 0.124311 0.995170
O O15 0.263405 0.075392 0.966086
O O16 0.161441 0.992645 0.991122
O O17 0.174994 0.918062 0.750000
O O18 0.552679 0.250000 0.500000
O O19 0.561843 0.186832 0.750000
O O20 0.910332 0.685145 0.750000
O O21 0.884214 0.750000 0.000000
O O22 0.673783 0.511278 0.750000
#
# Coordination Sequence:
#
# PCOD8231132 Si02
#       8
#     8   8   8   8   8   8   8   8
#     4  10  19  32  50  74 104 131 165 213 253 297
#     4  10  19  33  55  79 102 133 174 216 257 307
#     4  10  20  34  52  73 100 132 170 212 250 304
#     4   8  16  32  52  75 100 129 167 207 248 299
#     4   9  19  35  53  74 101 134 171 206 249 306
#     4  10  22  36  49  73 107 138 173 214 256 303
#     4  10  19  33  53  73  99 132 168 210 253 304
#     4   9  17  32  55  77  99 132 169 204 252 310
#
# _framework density 17.865078
#
# number of rings (size 3 to 8) (size 9 to 14) (size 15 to 20)
#    0.000    2.500    1.250    2.625    0.000    3.500 
#    0.000    8.125    0.000    0.000    0.000    0.000 
#    0.000    0.000    0.000    0.000    0.000    0.000 
#
# Total GULP energy -793418.607030 kJ/mol
# GULP energy per Si atom -12397.165735 kJ/mol
# Density = 1.782442 g / cm^3
# Si number density = 17.865078 Si / 1000 Ang^3
#
#
#
# Elastic Constant Matrix: (Units=GPa)
#
#
# Indices 1 2 3 4 5 6 
#
# 1 139.9196 99.6099 37.6996 0.0000 0.0000 0.0000
# 2 99.6099 138.2825 32.8666 0.0000 0.0000 0.0000
# 3 37.6996 32.8666 37.4567 0.0000 0.0000 0.0000
# 4 0.0000 0.0000 0.0000 24.5569 0.0000 0.0000
# 5 0.0000 0.0000 0.0000 0.0000 23.2222 0.0000
# 6 0.0000 0.0000 0.0000 0.0000 0.0000 31.5975
#
#
#
# Elastic Compliance Matrix: (Units=1/GPa)
#
#
# Indices 1 2 3 4 5 6 
#
# 1 0.016252 -0.009879 -0.007688 0.000000 0.000000 0.000000
# 2 -0.009879 0.015143 -0.003344 0.000000 0.000000 0.000000
# 3 -0.007688 -0.003344 0.037370 0.000000 0.000000 0.000000
# 4 0.000000 0.000000 0.000000 0.040722 0.000000 0.000000
# 5 0.000000 0.000000 0.000000 0.000000 0.043062 0.000000
# 6 0.000000 0.000000 0.000000 0.000000 0.000000 0.031648
#
#
# Mechanical properties :
#
#
# Convention : Reuss Voigt Hill
#
# Bulk Modulus (GPa) = 37.11777 72.89012 55.00394
# Shear Modulus (GPa) = 21.27664 25.57415 23.42540
#
# Velocity S-wave (km/s) = 3.45478 3.78764 3.62503
# Velocity P-wave (km/s) = 6.06101 7.74708 6.95532
#
# Compressibility (1/GPa) = 0.02694128
#
# Stress axis : x y z
#
# Youngs Moduli (GPa) = 61.53213 66.03827 26.75966
#
# Poissons Ratio (x) = 0.65241 0.20574
# Poissons Ratio (y) = 0.60790 0.08948
# Poissons Ratio (z) = 0.47308 0.22081
#
# Static dielectric constant tensor:
#      x y z
#    x 3.624650 0.000000 0.000000 
#    y 0.000000 3.464020 0.000000 
#    z 0.000000 0.000000 3.149960 
# 
# 
# High freq. dielectric constant tensor:
#      x y z
#    x 1.701540 0.000000 0.000000 
#    y 0.000000 1.678430 0.000000 
#    z 0.000000 0.000000 1.681110 
# 
# From -- ./inp_files/8478.got.cif
#   From: 2010.03.12/outbox.cif.g09.slc.cpg/sg57_5_cif.got.tgz:8478.got - 2010.04.16 15:48:40.
