data_PCOD8231705
_publ_section_title
;
Structure prediction by ZEFSAII (Michael W. Deem and Ramdas Pophale) SiO2 
 PCOD8231705
Probable space group: P B C M
;
_chemical_formula_sum "Si O2"
_cell_formula_units_Z 64
_cell_length_a 19.724006
_cell_length_b 19.981268
_cell_length_c 9.001938
_cell_angle_alpha 90.000000
_cell_angle_beta 90.000000
_cell_angle_gamma 90.000000
_cell_volume 3547.759636
_symmetry_space_group_name_H-M "P B C M"
_symmetry_group_IT_number 57
_symmetry_cell_setting 'orthorhombic'
loop_
_space_group_symop_operation_xyz
x,y,z
-x,-y,1/2+z
x,1/2-y,-z
-x,1/2+y,1/2-z
-x,-y,-z
x,y,1/2-z
-x,1/2+y,z
x,1/2-y,1/2+z
loop_
_atom_site_type_symbol
_atom_site_label
_atom_site_fract_x
_atom_site_fract_y
_atom_site_fract_z
Si Si1 0.335810 0.086399 0.423194
Si Si2 0.799886 0.894065 0.420798
Si Si3 0.406193 0.817269 0.076326
Si Si4 0.932564 0.819030 0.424226
Si Si5 0.692752 0.065423 0.923531
Si Si6 0.170395 0.952443 0.921299
Si Si7 0.967051 0.064173 0.574136
Si Si8 0.438346 0.318371 0.425177
O O1 0.344884 0.101109 0.250000
O O2 0.265045 0.118535 0.476291
O O3 0.397243 0.118897 0.512578
O O4 0.337289 0.007622 0.459890
O O5 0.778702 0.882305 0.250000
O O6 0.857923 0.843220 0.474325
O O7 0.829765 0.967961 0.441792
O O8 0.399282 0.806142 0.250000
O O9 0.362222 0.880446 0.023196
O O10 0.483701 0.831147 0.030500
O O11 0.378509 0.750000 0.000000
O O12 0.951458 0.750000 0.500000
O O13 0.933748 0.808675 0.250000
O O14 0.988650 0.872301 0.473414
O O15 0.709919 0.071578 0.750000
O O16 0.760772 0.079297 0.015339
O O17 0.162780 0.931924 0.750000
O O18 0.108218 0.922530 0.013906
O O19 0.965917 0.053378 0.750000
O O20 0.000000 0.000000 0.500000
O O21 0.411788 0.250000 0.500000
O O22 0.427753 0.312698 0.250000
#
# Coordination Sequence:
#
# PCOD8231705 Si02
#       8
#     8   8   8   8   8   8   8   8
#     4  10  20  33  52  80 110 142 179 219 266 322
#     4   9  18  35  53  73 106 141 175 218 263 315
#     4   9  19  36  57  79 106 140 183 227 273 327
#     4  10  22  38  54  78 110 142 178 223 269 317
#     4   9  19  36  55  80 112 143 176 222 273 323
#     4  10  19  34  56  83 109 137 179 224 265 318
#     4  11  21  36  58  83 109 141 181 225 270 321
#     4  10  20  35  54  76 104 142 182 225 272 322
#
# _framework density 18.039553999999999
#
# number of rings (size 3 to 8) (size 9 to 14) (size 15 to 20)
#    0.000    2.250    1.250    1.500    0.000    4.500 
#    0.000    1.875    0.000    0.000    0.000    0.000 
#    0.000    0.000    0.000    0.000    0.000    0.000 
#
# Total GULP energy -793832.422718 kJ/mol
# GULP energy per Si atom -12403.631605 kJ/mol
# Density = 1.799850 g / cm^3
# Si number density = 18.039554 Si / 1000 Ang^3
#
#
#
# Elastic Constant Matrix: (Units=GPa)
#
#
# Indices 1 2 3 4 5 6 
#
# 1 117.0369 78.6756 54.1646 0.0000 0.0000 0.0000
# 2 78.6756 117.0141 52.3926 0.0000 0.0000 0.0000
# 3 54.1646 52.3926 74.0586 0.0000 0.0000 0.0000
# 4 0.0000 0.0000 0.0000 30.8316 0.0000 0.0000
# 5 0.0000 0.0000 0.0000 0.0000 32.4750 0.0000
# 6 0.0000 0.0000 0.0000 0.0000 0.0000 29.6397
#
#
#
# Elastic Compliance Matrix: (Units=1/GPa)
#
#
# Indices 1 2 3 4 5 6 
#
# 1 0.017528 -0.008848 -0.006560 0.000000 0.000000 0.000000
# 2 -0.008848 0.016974 -0.005537 0.000000 0.000000 0.000000
# 3 -0.006560 -0.005537 0.022218 0.000000 0.000000 0.000000
# 4 0.000000 0.000000 0.000000 0.032434 0.000000 0.000000
# 5 0.000000 0.000000 0.000000 0.000000 0.030793 0.000000
# 6 0.000000 0.000000 0.000000 0.000000 0.000000 0.033738
#
#
# Mechanical properties :
#
#
# Convention : Reuss Voigt Hill
#
# Bulk Modulus (GPa) = 67.43198 75.39725 71.41461
# Shear Modulus (GPa) = 24.93512 26.78107 25.85810
#
# Velocity S-wave (km/s) = 3.72189 3.85720 3.79015
# Velocity P-wave (km/s) = 7.47872 7.85643 7.66990
#
# Compressibility (1/GPa) = 0.01482976
#
# Stress axis : x y z
#
# Youngs Moduli (GPa) = 57.05071 58.91269 45.00828
#
# Poissons Ratio (x) = 0.52126 0.29527
# Poissons Ratio (y) = 0.50478 0.24922
# Poissons Ratio (z) = 0.37427 0.32621
#
# Static dielectric constant tensor:
#      x y z
#    x 3.469960 0.000000 0.000000 
#    y 0.000000 3.169400 0.000000 
#    z 0.000000 0.000000 3.355430 
# 
# 
# High freq. dielectric constant tensor:
#      x y z
#    x 1.703880 0.000000 0.000000 
#    y 0.000000 1.687010 0.000000 
#    z 0.000000 0.000000 1.703780 
# 
# From -- ./inp_files/7149.got.cif
#   From: 2010.03.12/outbox.cif.g09.slc.cpg/sg57_4_cif.got.tgz:7149.got - 2010.04.16 15:48:40.
