data_PCOD8231784
_publ_section_title
;
Structure prediction by ZEFSAII (Michael W. Deem and Ramdas Pophale) SiO2 
 PCOD8231784
Probable space group: P B C M
;
_chemical_formula_sum "Si O2"
_cell_formula_units_Z 64
_cell_length_a 11.222160
_cell_length_b 18.204961
_cell_length_c 16.042121
_cell_angle_alpha 90.000000
_cell_angle_beta 90.000000
_cell_angle_gamma 90.000000
_cell_volume 3277.389040
_symmetry_space_group_name_H-M "P B C M"
_symmetry_group_IT_number 57
_symmetry_cell_setting 'orthorhombic'
loop_
_space_group_symop_operation_xyz
x,y,z
-x,-y,1/2+z
x,1/2-y,-z
-x,1/2+y,1/2-z
-x,-y,-z
x,y,1/2-z
-x,1/2+y,z
x,1/2-y,1/2+z
loop_
_atom_site_type_symbol
_atom_site_label
_atom_site_fract_x
_atom_site_fract_y
_atom_site_fract_z
Si Si1 0.437608 0.965301 0.840968
Si Si2 0.553571 0.669179 0.526763
Si Si3 0.677393 0.094139 0.002956
Si Si4 0.700702 0.887269 0.342942
Si Si5 0.316895 0.055167 0.409966
Si Si6 0.941212 0.918082 0.845917
Si Si7 0.968096 0.582026 0.653551
Si Si8 0.928185 0.163868 0.496901
O O1 0.399124 0.937485 0.750000
O O2 0.379400 0.909249 0.905147
O O3 0.580716 0.969615 0.846043
O O4 0.388503 0.045878 0.857820
O O5 0.518738 0.750000 0.500000
O O6 0.429045 0.629486 0.551900
O O7 0.642752 0.678787 0.605071
O O8 0.632194 0.623501 0.461166
O O9 0.788866 0.147630 0.011596
O O10 0.714460 0.014000 0.969417
O O11 0.706829 0.858084 0.250000
O O12 0.830751 0.911580 0.372524
O O13 0.200345 0.079660 0.359938
O O14 0.965023 0.890655 0.750000
O O15 0.996004 0.998137 0.858069
O O16 0.001069 0.866862 0.916297
O O17 0.992417 0.607164 0.750000
O O18 0.036913 0.631293 0.586963
O O19 0.952426 0.250000 0.500000
#
# Coordination Sequence:
#
# PCOD8231784 Si02
#       8
#     8   8   8   8   8   8   8   8
#     4  10  19  34  60  93 121 150 199 255 304 359
#     4  11  22  38  58  89 124 160 197 246 312 375
#     4  11  21  40  63  87 121 161 210 253 302 372
#     4  10  19  34  58  87 117 152 198 247 304 365
#     4  11  20  38  64  90 119 157 206 257 311 362
#     4  11  24  41  66  94 123 164 215 266 314 370
#     4  10  22  40  63  92 123 165 216 265 312 372
#     4  12  26  42  64  91 128 173 209 260 322 377
#
# _framework density 19.527740999999999
#
# number of rings (size 3 to 8) (size 9 to 14) (size 15 to 20)
#    0.000    1.250    3.750    3.375    0.000    4.000 
#    0.000    5.000    0.000    1.500    0.000    0.000 
#    0.000    0.000    0.000    0.000    0.000    0.000 
#
# Total GULP energy -793303.348602 kJ/mol
# GULP energy per Si atom -12395.364822 kJ/mol
# Density = 1.948330 g / cm^3
# Si number density = 19.527741 Si / 1000 Ang^3
#
#
#
# Elastic Constant Matrix: (Units=GPa)
#
#
# Indices 1 2 3 4 5 6 
#
# 1 130.3529 27.7307 56.2855 0.0000 0.0000 0.0000
# 2 27.7307 90.5992 43.5928 0.0000 0.0000 0.0000
# 3 56.2855 43.5928 105.9763 0.0000 0.0000 0.0000
# 4 0.0000 0.0000 0.0000 17.8852 0.0000 0.0000
# 5 0.0000 0.0000 0.0000 0.0000 27.5680 0.0000
# 6 0.0000 0.0000 0.0000 0.0000 0.0000 23.0645
#
#
#
# Elastic Compliance Matrix: (Units=1/GPa)
#
#
# Indices 1 2 3 4 5 6 
#
# 1 0.009983 -0.000629 -0.005043 0.000000 0.000000 0.000000
# 2 -0.000629 0.013801 -0.005343 0.000000 0.000000 0.000000
# 3 -0.005043 -0.005343 0.014312 0.000000 0.000000 0.000000
# 4 0.000000 0.000000 0.000000 0.055912 0.000000 0.000000
# 5 0.000000 0.000000 0.000000 0.000000 0.036274 0.000000
# 6 0.000000 0.000000 0.000000 0.000000 0.000000 0.043357
#
#
# Mechanical properties :
#
#
# Convention : Reuss Voigt Hill
#
# Bulk Modulus (GPa) = 62.24354 64.68292 63.46323
# Shear Modulus (GPa) = 24.87255 26.99150 25.93203
#
# Velocity S-wave (km/s) = 3.57277 3.72185 3.64807
# Velocity P-wave (km/s) = 6.99737 7.18784 7.09324
#
# Compressibility (1/GPa) = 0.01606592
#
# Stress axis : x y z
#
# Youngs Moduli (GPa) = 100.17048 72.45892 69.86920
#
# Poissons Ratio (x) = 0.04557 0.35238
# Poissons Ratio (y) = 0.06300 0.37330
# Poissons Ratio (z) = 0.50520 0.38714
#
# Static dielectric constant tensor:
#      x y z
#    x 3.820300 0.000000 0.000000 
#    y 0.000000 3.323980 0.000000 
#    z 0.000000 0.000000 3.782510 
# 
# 
# High freq. dielectric constant tensor:
#      x y z
#    x 1.779750 0.000000 0.000000 
#    y 0.000000 1.734040 0.000000 
#    z 0.000000 0.000000 1.766940 
# 
# From -- ./inp_files/17936.got.cif
#   From: 2010.03.12/outbox.cif.g09.slc.cpg/sg57_9_cif.got.tgz:17936.got - 2010.04.16 15:48:40.
