data_PCOD8231675
_publ_section_title
;
Structure prediction by ZEFSAII (Michael W. Deem and Ramdas Pophale) SiO2 
 PCOD8231675
Probable space group: P B C M
;
_chemical_formula_sum "Si O2"
_cell_formula_units_Z 40
_cell_length_a 9.605359
_cell_length_b 8.398604
_cell_length_c 25.839622
_cell_angle_alpha 90.000000
_cell_angle_beta 90.000000
_cell_angle_gamma 90.000000
_cell_volume 2084.523819
_symmetry_space_group_name_H-M "P B C M"
_symmetry_group_IT_number 57
_symmetry_cell_setting 'orthorhombic'
loop_
_space_group_symop_operation_xyz
x,y,z
-x,-y,1/2+z
x,1/2-y,-z
-x,1/2+y,1/2-z
-x,-y,-z
x,y,1/2-z
-x,1/2+y,z
x,1/2-y,1/2+z
loop_
_atom_site_type_symbol
_atom_site_label
_atom_site_fract_x
_atom_site_fract_y
_atom_site_fract_z
Si Si1 0.090901 0.644607 0.250000
Si Si2 0.813906 0.795959 0.250000
Si Si3 0.112145 0.675073 0.362150
Si Si4 0.189941 0.311842 0.137494
Si Si5 0.392578 0.170895 0.445667
Si Si6 0.312684 0.804448 0.444948
O O1 0.098769 0.456638 0.250000
O O2 0.157138 0.717979 0.302680
O O3 0.924939 0.655760 0.250000
O O4 0.734594 0.790866 0.305447
O O5 0.145888 0.492265 0.374470
O O6 0.197400 0.788095 0.400578
O O7 0.947310 0.703072 0.368486
O O8 0.303963 0.258235 0.097426
O O9 0.353684 0.250000 0.500000
O O10 0.555084 0.192939 0.432349
O O11 0.362067 0.985158 0.448004
O O12 0.247582 0.750000 0.500000
#
# Coordination Sequence:
#
# PCOD8231675 Si02
#       6
#     4   4   8   8   8   8
#     4   8  16  30  51  76 107 140 172 210 258 308
#     4   8  16  30  51  76 107 140 172 210 258 308
#     4  10  19  34  55  82 110 140 176 217 260 309
#     4  10  19  34  55  82 110 140 176 217 260 309
#     4  11  22  38  57  78 104 139 176 217 265 317
#     4  11  22  38  57  78 104 139 176 217 265 317
#
# _framework density 19.189036000000002
#
# number of rings (size 3 to 8) (size 9 to 14) (size 15 to 20)
#    0.000    2.000    0.000    6.000    0.000    2.400 
#    0.000    5.000    0.000    0.000    0.000    0.000 
#    0.000    0.000    0.000    0.000    0.000    0.000 
#
# Total GULP energy -495694.909106 kJ/mol
# GULP energy per Si atom -12392.372728 kJ/mol
# Density = 1.914536 g / cm^3
# Si number density = 19.189036 Si / 1000 Ang^3
#
#
#
# Elastic Constant Matrix: (Units=GPa)
#
#
# Indices 1 2 3 4 5 6 
#
# 1 43.2721 -0.3404 47.9446 0.0000 0.0000 0.0000
# 2 -0.3404 56.4870 16.4877 0.0000 0.0000 0.0000
# 3 47.9446 16.4877 128.6936 0.0000 0.0000 0.0000
# 4 0.0000 0.0000 0.0000 28.8835 0.0000 0.0000
# 5 0.0000 0.0000 0.0000 0.0000 99.1100 0.0000
# 6 0.0000 0.0000 0.0000 0.0000 0.0000 29.7514
#
#
#
# Elastic Compliance Matrix: (Units=1/GPa)
#
#
# Indices 1 2 3 4 5 6 
#
# 1 0.040589 0.004839 -0.015741 0.000000 0.000000 0.000000
# 2 0.004839 0.018968 -0.004233 0.000000 0.000000 0.000000
# 3 -0.015741 -0.004233 0.014177 0.000000 0.000000 0.000000
# 4 0.000000 0.000000 0.000000 0.034622 0.000000 0.000000
# 5 0.000000 0.000000 0.000000 0.000000 0.010090 0.000000
# 6 0.000000 0.000000 0.000000 0.000000 0.000000 0.033612
#
#
# Mechanical properties :
#
#
# Convention : Reuss Voigt Hill
#
# Bulk Modulus (GPa) = 23.00770 39.62627 31.31699
# Shear Modulus (GPa) = 25.40462 42.50636 33.95549
#
# Velocity S-wave (km/s) = 3.64251 4.71163 4.21114
# Velocity P-wave (km/s) = 5.45037 7.09187 6.32460
#
# Compressibility (1/GPa) = 0.04346371
#
# Stress axis : x y z
#
# Youngs Moduli (GPa) = 24.63751 52.72065 70.53658
#
# Poissons Ratio (x) = -0.25513 1.11033
# Poissons Ratio (y) = -0.11923 0.29858
# Poissons Ratio (z) = 0.38782 0.22316
#
# Static dielectric constant tensor:
#      x y z
#    x 3.232520 0.000000 0.000000 
#    y 0.000000 3.620770 0.000000 
#    z 0.000000 0.000000 4.014100 
# 
# 
# High freq. dielectric constant tensor:
#      x y z
#    x 1.706840 0.000000 0.000000 
#    y 0.000000 1.761060 0.000000 
#    z 0.000000 0.000000 1.768110 
# 
# From -- ./inp_files/24878.got.cif
#   From: 2010.03.12/outbox.cif.g09.slc.cpg/sg57_13_cif.got.tgz:24878.got - 2010.04.16 15:48:40.
