data_PCOD8231896
_publ_section_title
;
Structure prediction by ZEFSAII (Michael W. Deem and Ramdas Pophale) SiO2 
 PCOD8231896
Probable space group: P B C M
;
_chemical_formula_sum "Si O2"
_cell_formula_units_Z 64
_cell_length_a 9.459908
_cell_length_b 23.499939
_cell_length_c 13.824868
_cell_angle_alpha 90.000000
_cell_angle_beta 90.000000
_cell_angle_gamma 90.000000
_cell_volume 3073.368538
_symmetry_space_group_name_H-M "P B C M"
_symmetry_group_IT_number 57
_symmetry_cell_setting 'orthorhombic'
loop_
_space_group_symop_operation_xyz
x,y,z
-x,-y,1/2+z
x,1/2-y,-z
-x,1/2+y,1/2-z
-x,-y,-z
x,y,1/2-z
-x,1/2+y,z
x,1/2-y,1/2+z
loop_
_atom_site_type_symbol
_atom_site_label
_atom_site_fract_x
_atom_site_fract_y
_atom_site_fract_z
Si Si1 0.510777 0.322470 0.640499
Si Si2 0.652922 0.711813 0.864535
Si Si3 0.162284 0.684014 0.138362
Si Si4 0.967450 0.785802 0.361839
Si Si5 0.203038 0.577417 0.017014
Si Si6 0.711124 0.970715 0.138271
Si Si7 0.496834 0.392040 0.463002
Si Si8 0.996456 0.413969 0.142120
O O1 0.476190 0.339817 0.750000
O O2 0.415114 0.271067 0.602928
O O3 0.672034 0.301746 0.628379
O O4 0.472547 0.377935 0.576768
O O5 0.657105 0.704965 0.750000
O O6 0.811041 0.712299 0.909380
O O7 0.553998 0.660956 0.900132
O O8 0.123648 0.671829 0.250000
O O9 0.127519 0.628567 0.075065
O O10 0.068887 0.736306 0.094837
O O11 0.948150 0.771350 0.250000
O O12 0.038496 0.847441 0.374778
O O13 0.242842 0.531375 0.097490
O O14 0.335994 0.597592 0.952421
O O15 0.092039 0.551906 0.938909
O O16 0.663559 0.977732 0.250000
O O17 0.583485 0.948585 0.071590
O O18 0.837182 0.925138 0.129815
O O19 0.949886 0.433160 0.250000
#
# Coordination Sequence:
#
# PCOD8231896 Si02
#       8
#     8   8   8   8   8   8   8   8
#     4   9  20  36  56  85 126 164 194 244 306 362
#     4  10  19  35  58  87 121 160 202 248 302 362
#     4   9  19  37  59  86 122 161 200 244 301 365
#     4   9  18  35  58  85 116 153 199 244 296 365
#     4  11  24  39  60  91 123 158 209 255 311 363
#     4  11  23  44  67  86 117 162 209 257 311 368
#     4  11  22  38  60  90 121 158 207 254 302 368
#     4  10  22  40  60  86 118 153 198 255 308 365
#
# _framework density 20.824057
#
# number of rings (size 3 to 8) (size 9 to 14) (size 15 to 20)
#    0.000    2.000    1.250    1.875    1.750    3.000 
#    2.250    0.625    0.000    0.750    0.000    0.000 
#    0.000    0.000    0.000    0.000    0.000    0.000 
#
# Total GULP energy -793501.364364 kJ/mol
# GULP energy per Si atom -12398.458818 kJ/mol
# Density = 2.077666 g / cm^3
# Si number density = 20.824057 Si / 1000 Ang^3
#
#
#
# Elastic Constant Matrix: (Units=GPa)
#
#
# Indices 1 2 3 4 5 6 
#
# 1 75.7740 24.4285 43.7541 0.0000 0.0000 0.0000
# 2 24.4285 74.1630 29.7439 0.0000 0.0000 0.0000
# 3 43.7541 29.7439 71.5464 0.0000 0.0000 0.0000
# 4 0.0000 0.0000 0.0000 36.6881 0.0000 0.0000
# 5 0.0000 0.0000 0.0000 0.0000 28.8946 0.0000
# 6 0.0000 0.0000 0.0000 0.0000 0.0000 31.1901
#
#
#
# Elastic Compliance Matrix: (Units=1/GPa)
#
#
# Indices 1 2 3 4 5 6 
#
# 1 0.020667 -0.002086 -0.011771 0.000000 0.000000 0.000000
# 2 -0.002086 0.016392 -0.005539 0.000000 0.000000 0.000000
# 3 -0.011771 -0.005539 0.023478 0.000000 0.000000 0.000000
# 4 0.000000 0.000000 0.000000 0.027257 0.000000 0.000000
# 5 0.000000 0.000000 0.000000 0.000000 0.034609 0.000000
# 6 0.000000 0.000000 0.000000 0.000000 0.000000 0.032061
#
#
# Mechanical properties :
#
#
# Convention : Reuss Voigt Hill
#
# Bulk Modulus (GPa) = 45.98892 46.37070 46.17981
# Shear Modulus (GPa) = 24.93688 27.59167 26.26427
#
# Velocity S-wave (km/s) = 3.46425 3.64399 3.55526
# Velocity P-wave (km/s) = 6.17526 6.32622 6.25120
#
# Compressibility (1/GPa) = 0.02174437
#
# Stress axis : x y z
#
# Youngs Moduli (GPa) = 48.38651 61.00357 42.59233
#
# Poissons Ratio (x) = 0.12728 0.50137
# Poissons Ratio (y) = 0.10095 0.23591
# Poissons Ratio (z) = 0.56958 0.33789
#
# Static dielectric constant tensor:
#      x y z
#    x 3.875390 0.000000 0.000000 
#    y 0.000000 3.634910 0.000000 
#    z 0.000000 0.000000 3.848170 
# 
# 
# High freq. dielectric constant tensor:
#      x y z
#    x 1.810080 0.000000 0.000000 
#    y 0.000000 1.803470 0.000000 
#    z 0.000000 0.000000 1.823810 
# 
# From -- ./inp_files/16921.got.cif
#   From: 2010.03.12/outbox.cif.g09.slc.cpg/sg57_9_cif.got.tgz:16921.got - 2010.04.16 15:48:40.
