data_PCOD8231140
_publ_section_title
;
Structure prediction by ZEFSAII (Michael W. Deem and Ramdas Pophale) SiO2 
 PCOD8231140
Probable space group: P B C M
;
_chemical_formula_sum "Si O2"
_cell_formula_units_Z 64
_cell_length_a 22.991225
_cell_length_b 17.520418
_cell_length_c 8.915600
_cell_angle_alpha 90.000000
_cell_angle_beta 90.000000
_cell_angle_gamma 90.000000
_cell_volume 3591.345191
_symmetry_space_group_name_H-M "P B C M"
_symmetry_group_IT_number 57
_symmetry_cell_setting 'orthorhombic'
loop_
_space_group_symop_operation_xyz
x,y,z
-x,-y,1/2+z
x,1/2-y,-z
-x,1/2+y,1/2-z
-x,-y,-z
x,y,1/2-z
-x,1/2+y,z
x,1/2-y,1/2+z
loop_
_atom_site_type_symbol
_atom_site_label
_atom_site_fract_x
_atom_site_fract_y
_atom_site_fract_z
Si Si1 0.571885 0.604928 0.424524
Si Si2 0.627404 0.446594 0.078711
Si Si3 0.067411 0.331736 0.927979
Si Si4 0.862674 0.972167 0.073037
Si Si5 0.741720 0.533099 0.074552
Si Si6 0.032466 0.566748 0.421625
Si Si7 0.321037 0.172635 0.927552
Si Si8 0.448331 0.830845 0.575866
O O1 0.585573 0.621227 0.250000
O O2 0.587028 0.518167 0.465787
O O3 0.612259 0.660271 0.522619
O O4 0.505228 0.620037 0.466528
O O5 0.616769 0.423580 0.250000
O O6 0.694990 0.465571 0.049086
O O7 0.609011 0.375326 0.977628
O O8 0.078697 0.327099 0.750000
O O9 0.999068 0.353121 0.966463
O O10 0.081724 0.250000 0.000000
O O11 0.109126 0.396830 0.997826
O O12 0.855404 0.956056 0.250000
O O13 0.899351 0.051384 0.044566
O O14 0.802165 0.992971 0.995740
O O15 0.747935 0.551979 0.250000
O O16 0.720999 0.607643 0.988280
O O17 0.019379 0.553508 0.250000
O O18 0.000000 0.500000 0.500000
O O19 0.317182 0.176644 0.750000
O O20 0.297278 0.250000 0.000000
O O21 0.452936 0.750000 0.500000
O O22 0.443007 0.816598 0.750000
#
# Coordination Sequence:
#
# PCOD8231140 Si02
#       8
#     8   8   8   8   8   8   8   8
#     4   9  19  35  53  76 103 132 165 205 252 307
#     4   9  19  36  55  74 101 132 167 211 257 303
#     4  10  19  32  50  76 109 141 168 202 248 295
#     4  10  19  33  53  77 101 131 172 212 248 294
#     4  10  21  37  54  74 100 132 170 212 254 299
#     4   8  16  30  49  72 100 131 165 202 240 282
#     4  11  21  33  50  72 100 135 170 207 250 300
#     4  11  22  34  52  77 104 132 166 207 257 310
#
# _framework density 17.820620999999999
#
# number of rings (size 3 to 8) (size 9 to 14) (size 15 to 20)
#    0.000    2.250    0.000    4.125    0.000    6.000 
#    0.000    2.500    0.000    0.750    0.000    3.500 
#    0.000    0.000    0.000    0.000    0.000    0.000 
#
# Total GULP energy -793205.079350 kJ/mol
# GULP energy per Si atom -12393.829365 kJ/mol
# Density = 1.778006 g / cm^3
# Si number density = 17.820621 Si / 1000 Ang^3
#
#
#
# Elastic Constant Matrix: (Units=GPa)
#
#
# Indices 1 2 3 4 5 6 
#
# 1 104.0793 33.5390 49.5326 0.0000 0.0000 0.0000
# 2 33.5390 44.7202 34.1353 0.0000 0.0000 0.0000
# 3 49.5326 34.1353 95.1630 0.0000 0.0000 0.0000
# 4 0.0000 0.0000 0.0000 26.4444 0.0000 0.0000
# 5 0.0000 0.0000 0.0000 0.0000 29.9469 0.0000
# 6 0.0000 0.0000 0.0000 0.0000 0.0000 -21.7627
#
#
#
# Elastic Compliance Matrix: (Units=1/GPa)
#
#
# Indices 1 2 3 4 5 6 
#
# 1 0.014157 -0.006875 -0.004902 0.000000 0.000000 0.000000
# 2 -0.006875 0.034131 -0.008664 0.000000 0.000000 0.000000
# 3 -0.004902 -0.008664 0.016168 0.000000 0.000000 0.000000
# 4 0.000000 0.000000 0.000000 0.037815 0.000000 0.000000
# 5 0.000000 0.000000 0.000000 0.000000 0.033392 0.000000
# 6 0.000000 0.000000 0.000000 0.000000 0.000000 -0.045950
#
#
# Mechanical properties :
#
#
# Convention : Reuss Voigt Hill
#
# Bulk Modulus (GPa) = 42.42365 53.15291 47.78828
# Shear Modulus (GPa) = 36.11307 15.37610 25.74459
#
# Velocity S-wave (km/s) = 4.50652 2.94058 3.80498
# Velocity P-wave (km/s) = 7.13694 6.43589 6.79546
#
# Compressibility (1/GPa) = 0.02357176
#
# Stress axis : x y z
#
# Youngs Moduli (GPa) = 70.63819 29.29895 61.85056
#
# Poissons Ratio (x) = 0.20143 0.30322
# Poissons Ratio (y) = 0.48564 0.53590
# Poissons Ratio (z) = 0.34630 0.25386
#
# Static dielectric constant tensor:
#      x y z
#    x 4.702700 0.000000 0.000000 
#    y 0.000000 2.882210 0.000000 
#    z 0.000000 0.000000 3.386540 
# 
# 
# High freq. dielectric constant tensor:
#      x y z
#    x 1.684590 0.000000 0.000000 
#    y 0.000000 1.669820 0.000000 
#    z 0.000000 0.000000 1.702680 
# 
# From -- ./inp_files/8575.got.cif
#   From: 2010.03.12/outbox.cif.g09.slc.cpg/sg57_5_cif.got.tgz:8575.got - 2010.04.16 15:48:40.
