data_PCOD8231317
_publ_section_title
;
Structure prediction by ZEFSAII (Michael W. Deem and Ramdas Pophale) SiO2 
 PCOD8231317
Probable space group: P B C M
;
_chemical_formula_sum "Si O2"
_cell_formula_units_Z 48
_cell_length_a 14.450264
_cell_length_b 9.342715
_cell_length_c 17.957905
_cell_angle_alpha 90.000000
_cell_angle_beta 90.000000
_cell_angle_gamma 90.000000
_cell_volume 2424.401545
_symmetry_space_group_name_H-M "P B C M"
_symmetry_group_IT_number 57
_symmetry_cell_setting 'orthorhombic'
loop_
_space_group_symop_operation_xyz
x,y,z
-x,-y,1/2+z
x,1/2-y,-z
-x,1/2+y,1/2-z
-x,-y,-z
x,y,1/2-z
-x,1/2+y,z
x,1/2-y,1/2+z
loop_
_atom_site_type_symbol
_atom_site_label
_atom_site_fract_x
_atom_site_fract_y
_atom_site_fract_z
Si Si1 0.757111 0.215617 0.336636
Si Si2 0.076083 0.644328 0.433666
Si Si3 0.693295 0.484115 0.422015
Si Si4 0.616099 0.037165 0.410140
Si Si5 0.124241 0.107490 0.032234
Si Si6 0.439383 0.225622 0.085705
O O1 0.760472 0.248093 0.250000
O O2 0.863273 0.195445 0.363528
O O3 0.694988 0.337203 0.376571
O O4 0.702279 0.069712 0.355952
O O5 0.103706 0.750000 0.500000
O O6 0.097529 0.483687 0.459353
O O7 0.965721 0.648669 0.417455
O O8 0.651891 0.460392 0.504572
O O9 0.800499 0.528668 0.418502
O O10 0.633716 0.609068 0.381967
O O11 0.540831 0.162822 0.400616
O O12 0.573305 0.885816 0.381093
O O13 0.171332 0.250000 0.000000
O O14 0.417932 0.250000 0.000000
#
# Coordination Sequence:
#
# PCOD8231317 Si02
#       6
#     8   8   8   8   8   8
#     4  12  24  39  57  81 117 163 199 237 292 349
#     4  10  19  37  61  89 115 150 196 242 283 343
#     4  11  20  37  61  89 118 148 193 246 292 351
#     4  11  20  38  61  89 118 151 192 249 295 352
#     4  10  19  32  64  94 114 141 190 243 296 340
#     4  10  20  33  62  95 116 142 192 250 302 341
#
# _framework density 19.798701999999999
#
# number of rings (size 3 to 8) (size 9 to 14) (size 15 to 20)
#    0.000    1.333    3.333    6.000    0.000    0.000 
#    0.000    5.000    0.000    0.000    0.000    0.000 
#    0.000    0.000    0.000    0.000    0.000    0.000 
#
# Total GULP energy -594864.717802 kJ/mol
# GULP energy per Si atom -12393.014954 kJ/mol
# Density = 1.975364 g / cm^3
# Si number density = 19.798702 Si / 1000 Ang^3
#
#
#
# Elastic Constant Matrix: (Units=GPa)
#
#
# Indices 1 2 3 4 5 6 
#
# 1 127.4666 46.8212 43.4354 0.0000 0.0000 0.0000
# 2 46.8212 106.1812 18.4679 0.0000 0.0000 0.0000
# 3 43.4354 18.4679 54.9636 0.0000 0.0000 0.0000
# 4 0.0000 0.0000 0.0000 2.5798 0.0000 0.0000
# 5 0.0000 0.0000 0.0000 0.0000 10.6887 0.0000
# 6 0.0000 0.0000 0.0000 0.0000 0.0000 36.8770
#
#
#
# Elastic Compliance Matrix: (Units=1/GPa)
#
#
# Indices 1 2 3 4 5 6 
#
# 1 0.012084 -0.003895 -0.008241 0.000000 0.000000 0.000000
# 2 -0.003895 0.011258 -0.000704 0.000000 0.000000 0.000000
# 3 -0.008241 -0.000704 0.024943 0.000000 0.000000 0.000000
# 4 0.000000 0.000000 0.000000 0.387623 0.000000 0.000000
# 5 0.000000 0.000000 0.000000 0.000000 0.093557 0.000000
# 6 0.000000 0.000000 0.000000 0.000000 0.000000 0.027117
#
#
# Mechanical properties :
#
#
# Convention : Reuss Voigt Hill
#
# Bulk Modulus (GPa) = 44.23981 56.22893 50.23437
# Shear Modulus (GPa) = 8.47749 22.02158 15.24953
#
# Velocity S-wave (km/s) = 2.07151 3.33869 2.77831
# Velocity P-wave (km/s) = 5.30234 6.58213 5.97659
#
# Compressibility (1/GPa) = 0.02260408
#
# Stress axis : x y z
#
# Youngs Moduli (GPa) = 82.75329 88.82555 40.09161
#
# Poissons Ratio (x) = 0.34600 0.33039
# Poissons Ratio (y) = 0.32235 0.02824
# Poissons Ratio (z) = 0.68195 0.06257
#
# Static dielectric constant tensor:
#      x y z
#    x 3.839180 0.000000 0.000000 
#    y 0.000000 4.218720 0.000000 
#    z 0.000000 0.000000 2.918540 
# 
# 
# High freq. dielectric constant tensor:
#      x y z
#    x 1.793760 0.000000 0.000000 
#    y 0.000000 1.799960 0.000000 
#    z 0.000000 0.000000 1.685800 
# 
# From -- ./inp_files/22481.got.cif
#   From: 2010.03.12/outbox.cif.g09.slc.cpg/sg57_12_cif.got.tgz:22481.got - 2010.04.16 15:48:40.
