data_PCOD8231335
_publ_section_title
;
Structure prediction by ZEFSAII (Michael W. Deem and Ramdas Pophale) SiO2 
 PCOD8231335
Probable space group: P B C M
;
_chemical_formula_sum "Si O2"
_cell_formula_units_Z 64
_cell_length_a 16.838384
_cell_length_b 23.947984
_cell_length_c 8.531333
_cell_angle_alpha 90.000000
_cell_angle_beta 90.000000
_cell_angle_gamma 90.000000
_cell_volume 3440.220367
_symmetry_space_group_name_H-M "P B C M"
_symmetry_group_IT_number 57
_symmetry_cell_setting 'orthorhombic'
loop_
_space_group_symop_operation_xyz
x,y,z
-x,-y,1/2+z
x,1/2-y,-z
-x,1/2+y,1/2-z
-x,-y,-z
x,y,1/2-z
-x,1/2+y,z
x,1/2-y,1/2+z
loop_
_atom_site_type_symbol
_atom_site_label
_atom_site_fract_x
_atom_site_fract_y
_atom_site_fract_z
Si Si1 0.420868 0.188387 0.934654
Si Si2 0.175580 0.476040 0.935334
Si Si3 0.870992 0.809459 0.933970
Si Si4 0.405285 0.811516 0.065830
Si Si5 0.135946 0.912694 0.934716
Si Si6 0.035060 0.405663 0.433989
Si Si7 0.754819 0.188318 0.066657
Si Si8 0.729867 0.622118 0.934519
O O1 0.414193 0.194826 0.750000
O O2 0.508162 0.163840 0.982282
O O3 0.355538 0.144262 0.995300
O O4 0.404969 0.250000 0.000000
O O5 0.165900 0.478917 0.750000
O O6 0.193185 0.536972 0.008107
O O7 0.093731 0.454553 0.011425
O O8 0.248935 0.435322 0.977390
O O9 0.853274 0.807701 0.750000
O O10 0.895832 0.750000 0.000000
O O11 0.944783 0.849731 0.969761
O O12 0.793394 0.830319 0.025148
O O13 0.394557 0.811351 0.250000
O O14 0.402514 0.750000 0.000000
O O15 0.327741 0.840840 0.991991
O O16 0.121220 0.916257 0.750000
O O17 0.174835 0.853592 0.982713
O O18 0.054654 0.921581 0.028223
O O19 0.046614 0.395478 0.250000
O O20 0.749155 0.194574 0.250000
O O21 0.771913 0.250000 0.000000
O O22 0.730024 0.610724 0.750000
#
# Coordination Sequence:
#
# PCOD8231335 Si02
#       8
#     8   8   8   8   8   8   8   8
#     4   9  18  29  47  76 107 140 174 210 252 299
#     4  11  22  37  56  78 103 134 173 215 259 303
#     4  11  21  34  50  72 104 141 177 212 257 308
#     4   9  16  29  49  74 105 137 170 207 249 299
#     4  11  23  39  57  78 103 133 170 212 257 306
#     4  11  22  37  56  78 103 134 172 215 261 306
#     4  10  21  36  56  80 107 136 166 205 255 307
#     4  10  19  33  51  74 105 139 175 214 257 303
#
# _framework density 18.603459000000001
#
# number of rings (size 3 to 8) (size 9 to 14) (size 15 to 20)
#    0.000    1.750    0.000    7.875    0.000    5.000 
#    0.000    1.250    0.000    0.750    0.000    0.000 
#    0.000    0.000    0.000    0.000    0.000    0.000 
#
# Total GULP energy -793421.151574 kJ/mol
# GULP energy per Si atom -12397.205493 kJ/mol
# Density = 1.856112 g / cm^3
# Si number density = 18.603459 Si / 1000 Ang^3
#
#
#
# Elastic Constant Matrix: (Units=GPa)
#
#
# Indices 1 2 3 4 5 6 
#
# 1 91.0406 35.9904 34.9464 0.0000 0.0000 0.0000
# 2 35.9904 99.5343 31.5986 0.0000 0.0000 0.0000
# 3 34.9464 31.5986 74.6711 0.0000 0.0000 0.0000
# 4 0.0000 0.0000 0.0000 26.6625 0.0000 0.0000
# 5 0.0000 0.0000 0.0000 0.0000 26.3503 0.0000
# 6 0.0000 0.0000 0.0000 0.0000 0.0000 15.1070
#
#
#
# Elastic Compliance Matrix: (Units=1/GPa)
#
#
# Indices 1 2 3 4 5 6 
#
# 1 0.014395 -0.003542 -0.005238 0.000000 0.000000 0.000000
# 2 -0.003542 0.012478 -0.003622 0.000000 0.000000 0.000000
# 3 -0.005238 -0.003622 0.017376 0.000000 0.000000 0.000000
# 4 0.000000 0.000000 0.000000 0.037506 0.000000 0.000000
# 5 0.000000 0.000000 0.000000 0.000000 0.037950 0.000000
# 6 0.000000 0.000000 0.000000 0.000000 0.000000 0.066194
#
#
# Mechanical properties :
#
#
# Convention : Reuss Voigt Hill
#
# Bulk Modulus (GPa) = 51.43020 52.25745 51.84382
# Shear Modulus (GPa) = 23.02175 24.47133 23.74654
#
# Velocity S-wave (km/s) = 3.52163 3.63080 3.57663
# Velocity P-wave (km/s) = 6.65141 6.76226 6.70707
#
# Compressibility (1/GPa) = 0.01944383
#
# Stress axis : x y z
#
# Youngs Moduli (GPa) = 69.46834 80.14377 57.54947
#
# Poissons Ratio (x) = 0.28388 0.30144
# Poissons Ratio (y) = 0.24607 0.20847
# Poissons Ratio (z) = 0.36387 0.29031
#
# Static dielectric constant tensor:
#      x y z
#    x 3.981870 0.000000 0.000000 
#    y 0.000000 3.502870 0.000000 
#    z 0.000000 0.000000 3.529660 
# 
# 
# High freq. dielectric constant tensor:
#      x y z
#    x 1.718920 0.000000 0.000000 
#    y 0.000000 1.702790 0.000000 
#    z 0.000000 0.000000 1.737440 
# 
# From -- ./inp_files/7426.got.cif
#   From: 2010.03.12/outbox.cif.g09.slc.cpg/sg57_4_cif.got.tgz:7426.got - 2010.04.16 15:48:40.
