data_PCOD8231957
_publ_section_title
;
Structure prediction by ZEFSAII (Michael W. Deem and Ramdas Pophale) SiO2 
 PCOD8231957
Probable space group: P B C M
;
_chemical_formula_sum "Si O2"
_cell_formula_units_Z 64
_cell_length_a 20.039370
_cell_length_b 9.809391
_cell_length_c 17.247707
_cell_angle_alpha 90.000000
_cell_angle_beta 90.000000
_cell_angle_gamma 90.000000
_cell_volume 3390.451027
_symmetry_space_group_name_H-M "P B C M"
_symmetry_group_IT_number 57
_symmetry_cell_setting 'orthorhombic'
loop_
_space_group_symop_operation_xyz
x,y,z
-x,-y,1/2+z
x,1/2-y,-z
-x,1/2+y,1/2-z
-x,-y,-z
x,y,1/2-z
-x,1/2+y,z
x,1/2-y,1/2+z
loop_
_atom_site_type_symbol
_atom_site_label
_atom_site_fract_x
_atom_site_fract_y
_atom_site_fract_z
Si Si1 0.696337 0.294909 0.414793
Si Si2 0.931271 0.774825 0.339501
Si Si3 0.808152 0.861289 0.060592
Si Si4 0.051354 0.536137 0.839703
Si Si5 0.834849 0.109617 0.543901
Si Si6 0.550669 0.464922 0.658828
Si Si7 0.563331 0.159650 0.842399
Si Si8 0.299863 0.508351 0.159325
O O1 0.673101 0.250000 0.500000
O O2 0.760540 0.392662 0.419747
O O3 0.636140 0.379611 0.375616
O O4 0.716273 0.163621 0.363781
O O5 0.913503 0.799117 0.250000
O O6 0.863986 0.790680 0.387204
O O7 0.960714 0.624008 0.353640
O O8 0.985550 0.884493 0.368258
O O9 0.745839 0.903845 0.112930
O O10 0.781323 0.750000 0.000000
O O11 0.841588 0.989241 0.018024
O O12 0.065891 0.568903 0.750000
O O13 0.113948 0.591615 0.886710
O O14 0.849255 0.250000 0.500000
O O15 0.540763 0.463048 0.750000
O O16 0.492048 0.557457 0.622518
O O17 0.544756 0.310930 0.627479
O O18 0.623245 0.526157 0.638350
O O19 0.567011 0.154009 0.750000
O O20 0.285418 0.490953 0.250000
#
# Coordination Sequence:
#
# PCOD8231957 Si02
#       8
#     8   8   8   8   8   8   8   8
#     4  10  19  36  57  82 118 149 192 243 286 345
#     4  10  23  42  63  89 119 152 195 240 287 345
#     4  12  23  41  61  86 121 156 191 243 299 344
#     4  10  23  42  62  88 119 151 191 240 286 342
#     4  11  23  41  59  85 118 154 194 237 286 346
#     4   8  16  32  54  80 108 142 193 243 285 340
#     4   9  17  33  55  78 107 147 191 238 288 343
#     4  10  20  38  63  85 112 159 204 239 287 355
#
# _framework density 18.876546000000001
#
# number of rings (size 3 to 8) (size 9 to 14) (size 15 to 20)
#    0.000    2.000    3.750    1.500    1.750    2.000 
#    2.250    3.125    0.000    0.000    0.000    0.000 
#    0.000    0.000    0.000    0.000    0.000    0.000 
#
# Total GULP energy -793665.244461 kJ/mol
# GULP energy per Si atom -12401.019445 kJ/mol
# Density = 1.883358 g / cm^3
# Si number density = 18.876546 Si / 1000 Ang^3
#
#
#
# Elastic Constant Matrix: (Units=GPa)
#
#
# Indices 1 2 3 4 5 6 
#
# 1 105.6932 38.4663 40.3773 0.0000 0.0000 0.0000
# 2 38.4663 85.2092 28.0117 0.0000 0.0000 0.0000
# 3 40.3773 28.0117 63.9889 0.0000 0.0000 0.0000
# 4 0.0000 0.0000 0.0000 29.9340 0.0000 0.0000
# 5 0.0000 0.0000 0.0000 0.0000 24.1549 0.0000
# 6 0.0000 0.0000 0.0000 0.0000 0.0000 35.5412
#
#
#
# Elastic Compliance Matrix: (Units=1/GPa)
#
#
# Indices 1 2 3 4 5 6 
#
# 1 0.013461 -0.003837 -0.006814 0.000000 0.000000 0.000000
# 2 -0.003837 0.014802 -0.004059 0.000000 0.000000 0.000000
# 3 -0.006814 -0.004059 0.021704 0.000000 0.000000 0.000000
# 4 0.000000 0.000000 0.000000 0.033407 0.000000 0.000000
# 5 0.000000 0.000000 0.000000 0.000000 0.041400 0.000000
# 6 0.000000 0.000000 0.000000 0.000000 0.000000 0.028136
#
#
# Mechanical properties :
#
#
# Convention : Reuss Voigt Hill
#
# Bulk Modulus (GPa) = 48.66705 52.06688 50.36697
# Shear Modulus (GPa) = 26.43000 27.79509 27.11255
#
# Velocity S-wave (km/s) = 3.74592 3.84144 3.79398
# Velocity P-wave (km/s) = 6.67435 6.87883 6.77736
#
# Compressibility (1/GPa) = 0.02054778
#
# Stress axis : x y z
#
# Youngs Moduli (GPa) = 74.28930 67.55807 46.07352
#
# Poissons Ratio (x) = 0.25919 0.31396
# Poissons Ratio (y) = 0.28501 0.18701
# Poissons Ratio (z) = 0.50624 0.27421
#
# Static dielectric constant tensor:
#      x y z
#    x 3.535740 0.000000 0.000000 
#    y 0.000000 3.560350 0.000000 
#    z 0.000000 0.000000 3.449090 
# 
# 
# High freq. dielectric constant tensor:
#      x y z
#    x 1.736270 0.000000 0.000000 
#    y 0.000000 1.728420 0.000000 
#    z 0.000000 0.000000 1.729730 
# 
# From -- ./inp_files/23022.got.cif
#   From: 2010.03.12/outbox.cif.g09.slc.cpg/sg57_12_cif.got.tgz:23022.got - 2010.04.16 15:48:40.
