data_PCOD8231276
_publ_section_title
;
Structure prediction by ZEFSAII (Michael W. Deem and Ramdas Pophale) SiO2 
 PCOD8231276
Probable space group: P B C M
;
_chemical_formula_sum "Si O2"
_cell_formula_units_Z 56
_cell_length_a 22.890868
_cell_length_b 14.087243
_cell_length_c 8.805990
_cell_angle_alpha 90.000000
_cell_angle_beta 90.000000
_cell_angle_gamma 90.000000
_cell_volume 2839.660727
_symmetry_space_group_name_H-M "P B C M"
_symmetry_group_IT_number 57
_symmetry_cell_setting 'orthorhombic'
loop_
_space_group_symop_operation_xyz
x,y,z
-x,-y,1/2+z
x,1/2-y,-z
-x,1/2+y,1/2-z
-x,-y,-z
x,y,1/2-z
-x,1/2+y,z
x,1/2-y,1/2+z
loop_
_atom_site_type_symbol
_atom_site_label
_atom_site_fract_x
_atom_site_fract_y
_atom_site_fract_z
Si Si1 0.859899 0.842820 0.424081
Si Si2 0.527214 0.850811 0.071540
Si Si3 0.814713 0.040345 0.075781
Si Si4 0.300755 0.646278 0.428788
Si Si5 0.419769 0.548347 0.071909
Si Si6 0.981171 0.598805 0.070086
Si Si7 0.906409 0.339280 0.428524
O O1 0.831167 0.750000 0.500000
O O2 0.875654 0.822679 0.250000
O O3 0.919662 0.865999 0.509245
O O4 0.811732 0.926309 0.438245
O O5 0.525050 0.835278 0.250000
O O6 0.571547 0.937077 0.027130
O O7 0.547049 0.750000 0.000000
O O8 0.463434 0.881617 0.015176
O O9 0.826766 0.070416 0.250000
O O10 0.755992 0.088972 0.013102
O O11 0.869594 0.067919 0.970909
O O12 0.304249 0.750000 0.500000
O O13 0.298717 0.659708 0.250000
O O14 0.355415 0.581300 0.477224
O O15 0.431256 0.561989 0.250000
O O16 0.978353 0.590468 0.250000
O O17 0.000000 0.500000 0.000000
O O18 0.031991 0.668786 0.015803
O O19 0.870419 0.250000 0.500000
O O20 0.915496 0.333699 0.250000
#
# Coordination Sequence:
#
# PCOD8231276 Si02
#       7
#     8   8   8   8   8   8   8
#     4  11  23  40  61  83 111 146 186 231 282 338
#     4  10  19  32  53  82 117 155 193 237 286 337
#     4  10  22  40  60  81 110 145 185 231 279 334
#     4  10  21  38  59  84 112 147 187 232 285 337
#     4   9  19  35  55  81 115 153 195 238 284 340
#     4  12  23  38  59  85 114 144 181 225 280 340
#     4  12  24  38  58  83 113 146 181 225 277 335
#
# _framework density 19.720665
#
# number of rings (size 3 to 8) (size 9 to 14) (size 15 to 20)
#    0.000    1.429    1.429    4.714    0.000    4.571 
#    0.000    0.714    0.000    0.000    0.000    0.000 
#    0.000    0.000    0.000    0.000    0.000    0.000 
#
# Total GULP energy -694300.197908 kJ/mol
# GULP energy per Si atom -12398.217820 kJ/mol
# Density = 1.967578 g / cm^3
# Si number density = 19.720665 Si / 1000 Ang^3
#
#
#
# Elastic Constant Matrix: (Units=GPa)
#
#
# Indices 1 2 3 4 5 6 
#
# 1 103.3211 52.5083 34.4974 0.0000 0.0000 0.0000
# 2 52.5083 150.9139 52.1172 0.0000 0.0000 0.0000
# 3 34.4974 52.1172 112.6294 0.0000 0.0000 0.0000
# 4 0.0000 0.0000 0.0000 38.1138 0.0000 0.0000
# 5 0.0000 0.0000 0.0000 0.0000 20.5785 0.0000
# 6 0.0000 0.0000 0.0000 0.0000 0.0000 19.7766
#
#
#
# Elastic Compliance Matrix: (Units=1/GPa)
#
#
# Indices 1 2 3 4 5 6 
#
# 1 0.012162 -0.003505 -0.002103 0.000000 0.000000 0.000000
# 2 -0.003505 0.008897 -0.003043 0.000000 0.000000 0.000000
# 3 -0.002103 -0.003043 0.010931 0.000000 0.000000 0.000000
# 4 0.000000 0.000000 0.000000 0.026237 0.000000 0.000000
# 5 0.000000 0.000000 0.000000 0.000000 0.048594 0.000000
# 6 0.000000 0.000000 0.000000 0.000000 0.000000 0.050565
#
#
# Mechanical properties :
#
#
# Convention : Reuss Voigt Hill
#
# Bulk Modulus (GPa) = 68.08872 71.67892 69.88382
# Shear Modulus (GPa) = 27.84190 30.87656 29.35923
#
# Velocity S-wave (km/s) = 3.76149 3.96118 3.86262
# Velocity P-wave (km/s) = 7.31208 7.57280 7.44358
#
# Compressibility (1/GPa) = 0.01468672
#
# Stress axis : x y z
#
# Youngs Moduli (GPa) = 82.22183 112.39881 91.48256
#
# Poissons Ratio (x) = 0.39400 0.19240
# Poissons Ratio (y) = 0.28822 0.27840
# Poissons Ratio (z) = 0.17292 0.34205
#
# Static dielectric constant tensor:
#      x y z
#    x 3.517990 0.000000 0.000000 
#    y 0.000000 4.020640 0.000000 
#    z 0.000000 0.000000 3.748080 
# 
# 
# High freq. dielectric constant tensor:
#      x y z
#    x 1.742700 0.000000 0.000000 
#    y 0.000000 1.791300 0.000000 
#    z 0.000000 0.000000 1.772270 
# 
# From -- ./inp_files/8117.got.cif
#   From: 2010.03.12/outbox.cif.g09.slc.cpg/sg57_5_cif.got.tgz:8117.got - 2010.04.16 15:48:40.
