data_PCOD8231791
_publ_section_title
;
Structure prediction by ZEFSAII (Michael W. Deem and Ramdas Pophale) SiO2 
 PCOD8231791
Probable space group: P B C M
;
_chemical_formula_sum "Si O2"
_cell_formula_units_Z 40
_cell_length_a 7.687810
_cell_length_b 28.818188
_cell_length_c 8.718105
_cell_angle_alpha 90.000000
_cell_angle_beta 90.000000
_cell_angle_gamma 90.000000
_cell_volume 1931.485299
_symmetry_space_group_name_H-M "P B C M"
_symmetry_group_IT_number 57
_symmetry_cell_setting 'orthorhombic'
loop_
_space_group_symop_operation_xyz
x,y,z
-x,-y,1/2+z
x,1/2-y,-z
-x,1/2+y,1/2-z
-x,-y,-z
x,y,1/2-z
-x,1/2+y,z
x,1/2-y,1/2+z
loop_
_atom_site_type_symbol
_atom_site_label
_atom_site_fract_x
_atom_site_fract_y
_atom_site_fract_z
Si Si1 0.989100 0.050479 0.070294
Si Si2 0.294552 0.395664 0.076237
Si Si3 0.831421 0.703965 0.572240
Si Si4 0.206736 0.702219 0.068742
Si Si5 0.683365 0.109990 0.927862
O O1 0.961478 0.046618 0.250000
O O2 0.167275 0.077855 0.038363
O O3 0.823871 0.076211 0.000657
O O4 0.000000 0.000000 0.000000
O O5 0.233718 0.406511 0.250000
O O6 0.291546 0.340265 0.047513
O O7 0.492266 0.412535 0.049773
O O8 0.741597 0.750000 0.500000
O O9 0.872346 0.713187 0.750000
O O10 0.010245 0.693891 0.485003
O O11 0.215308 0.704477 0.250000
O O12 0.282562 0.750000 0.000000
O O13 0.321123 0.659665 0.009556
O O14 0.728710 0.117128 0.750000
#
# Coordination Sequence:
#
# PCOD8231791 Si02
#       5
#     8   8   8   8   8
#     4  12  26  45  70  95 124 163 206 260 320 378
#     4  10  23  42  66  94 128 168 209 259 314 371
#     4  10  19  34  58  88 125 167 210 257 306 364
#     4  11  21  35  58  90 126 171 215 258 309 366
#     4  11  23  42  66  95 130 167 209 259 313 374
#
# _framework density 20.709451000000001
#
# number of rings (size 3 to 8) (size 9 to 14) (size 15 to 20)
#    0.000    1.200    2.000    6.000    0.000    4.000 
#    0.000    2.000    0.000    0.000    0.000    0.000 
#    0.000    0.000    0.000    0.000    0.000    0.000 
#
# Total GULP energy -496129.765643 kJ/mol
# GULP energy per Si atom -12403.244141 kJ/mol
# Density = 2.066232 g / cm^3
# Si number density = 20.709451 Si / 1000 Ang^3
#
#
#
# Elastic Constant Matrix: (Units=GPa)
#
#
# Indices 1 2 3 4 5 6 
#
# 1 99.7128 47.8867 51.5729 0.0000 0.0000 0.0000
# 2 47.8867 122.5830 57.9565 0.0000 0.0000 0.0000
# 3 51.5729 57.9565 176.3313 0.0000 0.0000 0.0000
# 4 0.0000 0.0000 0.0000 40.2558 0.0000 0.0000
# 5 0.0000 0.0000 0.0000 0.0000 19.1552 0.0000
# 6 0.0000 0.0000 0.0000 0.0000 0.0000 3.5347
#
#
#
# Elastic Compliance Matrix: (Units=1/GPa)
#
#
# Indices 1 2 3 4 5 6 
#
# 1 0.013265 -0.003964 -0.002577 0.000000 0.000000 0.000000
# 2 -0.003964 0.010843 -0.002405 0.000000 0.000000 0.000000
# 3 -0.002577 -0.002405 0.007215 0.000000 0.000000 0.000000
# 4 0.000000 0.000000 0.000000 0.024841 0.000000 0.000000
# 5 0.000000 0.000000 0.000000 0.000000 0.052205 0.000000
# 6 0.000000 0.000000 0.000000 0.000000 0.000000 0.282910
#
#
# Mechanical properties :
#
#
# Convention : Reuss Voigt Hill
#
# Bulk Modulus (GPa) = 74.44391 79.27325 76.85858
# Shear Modulus (GPa) = 12.08759 28.66987 20.37873
#
# Velocity S-wave (km/s) = 2.41856 3.72477 3.14033
# Velocity P-wave (km/s) = 6.61998 7.54059 7.09523
#
# Compressibility (1/GPa) = 0.01343293
#
# Stress axis : x y z
#
# Youngs Moduli (GPa) = 75.38533 92.22548 138.59623
#
# Poissons Ratio (x) = 0.36555 0.35716
# Poissons Ratio (y) = 0.29880 0.33327
# Poissons Ratio (z) = 0.19427 0.22177
#
# Static dielectric constant tensor:
#      x y z
#    x 3.602960 0.000000 0.000000 
#    y 0.000000 3.955830 0.000000 
#    z 0.000000 0.000000 3.894330 
# 
# 
# High freq. dielectric constant tensor:
#      x y z
#    x 1.804390 0.000000 0.000000 
#    y 0.000000 1.813620 0.000000 
#    z 0.000000 0.000000 1.822460 
# 
# From -- ./inp_files/1816.got.cif
#   From: 2010.03.12/outbox.cif.g09.slc.cpg/sg57_1_cif.got.tgz:1816.got - 2010.04.16 15:48:40.
