data_PCOD8231010
_publ_section_title
;
Structure prediction by ZEFSAII (Michael W. Deem and Ramdas Pophale) SiO2 
 PCOD8231010
Probable space group: P B C M
;
_chemical_formula_sum "Si O2"
_cell_formula_units_Z 64
_cell_length_a 18.928110
_cell_length_b 19.135725
_cell_length_c 8.890163
_cell_angle_alpha 90.000000
_cell_angle_beta 90.000000
_cell_angle_gamma 90.000000
_cell_volume 3220.044667
_symmetry_space_group_name_H-M "P B C M"
_symmetry_group_IT_number 57
_symmetry_cell_setting 'orthorhombic'
loop_
_space_group_symop_operation_xyz
x,y,z
-x,-y,1/2+z
x,1/2-y,-z
-x,1/2+y,1/2-z
-x,-y,-z
x,y,1/2-z
-x,1/2+y,z
x,1/2-y,1/2+z
loop_
_atom_site_type_symbol
_atom_site_label
_atom_site_fract_x
_atom_site_fract_y
_atom_site_fract_z
Si Si1 0.282903 0.595550 0.573112
Si Si2 0.058626 0.315799 0.082526
Si Si3 0.977997 0.073852 0.070764
Si Si4 0.289234 0.049097 0.925964
Si Si5 0.222834 0.314634 0.086225
Si Si6 0.857712 0.173397 0.570233
Si Si7 0.560798 0.094420 0.915244
Si Si8 0.429753 0.069801 0.414944
O O1 0.286850 0.584668 0.750000
O O2 0.263055 0.520709 0.505820
O O3 0.222825 0.651270 0.527310
O O4 0.362115 0.617439 0.517448
O O5 0.025001 0.326035 0.250000
O O6 0.140404 0.301648 0.099867
O O7 0.021663 0.250000 0.000000
O O8 0.046222 0.380743 0.972501
O O9 0.966857 0.066895 0.250000
O O10 0.910477 0.113887 0.996337
O O11 0.000000 0.000000 0.000000
O O12 0.283882 0.034631 0.750000
O O13 0.236824 0.109740 0.986194
O O14 0.366696 0.077069 0.966887
O O15 0.258672 0.315084 0.250000
O O16 0.258582 0.250000 0.000000
O O17 0.872016 0.250000 0.500000
O O18 0.867105 0.176745 0.750000
O O19 0.550308 0.128729 0.750000
O O20 0.554024 0.011565 0.898244
O O21 0.497126 0.115355 0.026893
O O22 0.409420 0.099508 0.250000
#
# Coordination Sequence:
#
# PCOD8231010 Si02
#       8
#     8   8   8   8   8   8   8   8
#     4   9  20  36  56  83 112 145 187 232 282 336
#     4  10  20  38  60  84 113 148 189 232 279 337
#     4  12  26  43  63  90 119 152 190 237 288 339
#     4  10  19  31  50  79 112 146 187 235 287 338
#     4   9  20  35  53  78 107 143 183 225 273 331
#     4  11  24  44  66  91 121 158 197 237 289 351
#     4   8  14  27  46  71 104 139 180 231 279 330
#     4   9  16  26  43  71 105 144 185 228 280 337
#
# _framework density 19.875499999999999
#
# number of rings (size 3 to 8) (size 9 to 14) (size 15 to 20)
#    0.000    2.250    0.000    3.750    1.750    5.500 
#    0.000    0.000    0.000    0.750    0.000    1.750 
#    0.000    0.000    0.000    0.000    0.000    0.000 
#
# Total GULP energy -792835.313885 kJ/mol
# GULP energy per Si atom -12388.051779 kJ/mol
# Density = 1.983026 g / cm^3
# Si number density = 19.875500 Si / 1000 Ang^3
#
#
#
# Elastic Constant Matrix: (Units=GPa)
#
#
# Indices 1 2 3 4 5 6 
#
# 1 75.9560 37.0915 28.7663 0.0000 0.0000 0.0000
# 2 37.0915 105.7801 41.2660 0.0000 0.0000 0.0000
# 3 28.7663 41.2660 84.8248 0.0000 0.0000 0.0000
# 4 0.0000 0.0000 0.0000 29.5362 0.0000 0.0000
# 5 0.0000 0.0000 0.0000 0.0000 23.0272 0.0000
# 6 0.0000 0.0000 0.0000 0.0000 0.0000 14.8402
#
#
#
# Elastic Compliance Matrix: (Units=1/GPa)
#
#
# Indices 1 2 3 4 5 6 
#
# 1 0.016673 -0.004493 -0.003468 0.000000 0.000000 0.000000
# 2 -0.004493 0.012879 -0.004742 0.000000 0.000000 0.000000
# 3 -0.003468 -0.004742 0.015272 0.000000 0.000000 0.000000
# 4 0.000000 0.000000 0.000000 0.033857 0.000000 0.000000
# 5 0.000000 0.000000 0.000000 0.000000 0.043427 0.000000
# 6 0.000000 0.000000 0.000000 0.000000 0.000000 0.067385
#
#
# Mechanical properties :
#
#
# Convention : Reuss Voigt Hill
#
# Bulk Modulus (GPa) = 51.50007 53.42317 52.46162
# Shear Modulus (GPa) = 22.58645 24.10986 23.34816
#
# Velocity S-wave (km/s) = 3.37471 3.48666 3.43114
# Velocity P-wave (km/s) = 6.41502 6.56858 6.49225
#
# Compressibility (1/GPa) = 0.01941745
#
# Stress axis : x y z
#
# Youngs Moduli (GPa) = 59.97603 77.64630 65.47959
#
# Poissons Ratio (x) = 0.34890 0.22711
# Poissons Ratio (y) = 0.26950 0.31048
# Poissons Ratio (z) = 0.20802 0.36817
#
# Static dielectric constant tensor:
#      x y z
#    x 3.795990 0.000000 0.000000 
#    y 0.000000 3.480950 0.000000 
#    z 0.000000 0.000000 3.977220 
# 
# 
# High freq. dielectric constant tensor:
#      x y z
#    x 1.777240 0.000000 0.000000 
#    y 0.000000 1.745150 0.000000 
#    z 0.000000 0.000000 1.782640 
# 
# From -- ./inp_files/8494.got.cif
#   From: 2010.03.12/outbox.cif.g09.slc.cpg/sg57_5_cif.got.tgz:8494.got - 2010.04.16 15:48:40.
