data_PCOD8231476
_publ_section_title
;
Structure prediction by ZEFSAII (Michael W. Deem and Ramdas Pophale) SiO2 
 PCOD8231476
Probable space group: P B C M
;
_chemical_formula_sum "Si O2"
_cell_formula_units_Z 64
_cell_length_a 11.614111
_cell_length_b 32.855900
_cell_length_c 8.731451
_cell_angle_alpha 90.000000
_cell_angle_beta 90.000000
_cell_angle_gamma 90.000000
_cell_volume 3331.852458
_symmetry_space_group_name_H-M "P B C M"
_symmetry_group_IT_number 57
_symmetry_cell_setting 'orthorhombic'
loop_
_space_group_symop_operation_xyz
x,y,z
-x,-y,1/2+z
x,1/2-y,-z
-x,1/2+y,1/2-z
-x,-y,-z
x,y,1/2-z
-x,1/2+y,z
x,1/2-y,1/2+z
loop_
_atom_site_type_symbol
_atom_site_label
_atom_site_fract_x
_atom_site_fract_y
_atom_site_fract_z
Si Si1 0.730888 0.205941 0.431721
Si Si2 0.765323 0.972990 0.427046
Si Si3 0.352939 0.107845 0.931328
Si Si4 0.978390 0.560290 0.422687
Si Si5 0.763528 0.062964 0.429375
Si Si6 0.857020 0.646371 0.075994
Si Si7 0.391684 0.631315 0.929842
Si Si8 0.972379 0.206820 0.569610
O O1 0.698776 0.250000 0.500000
O O2 0.734614 0.209228 0.250000
O O3 0.636510 0.173053 0.482543
O O4 0.854701 0.190636 0.492677
O O5 0.781287 0.965134 0.250000
O O6 0.681208 0.937623 0.491866
O O7 0.894989 0.971503 0.493058
O O8 0.711668 0.017639 0.458819
O O9 0.338025 0.111588 0.750000
O O10 0.482350 0.117034 0.982789
O O11 0.272030 0.141089 0.012598
O O12 0.989309 0.544746 0.250000
O O13 0.923288 0.604363 0.434905
O O14 0.105968 0.562767 0.492926
O O15 0.757993 0.075029 0.250000
O O16 0.694772 0.095345 0.527801
O O17 0.852918 0.662721 0.250000
O O18 0.922049 0.677610 0.966769
O O19 0.384935 0.639677 0.750000
O O20 0.005442 0.250000 0.500000
O O21 0.952526 0.210302 0.750000
#
# Coordination Sequence:
#
# PCOD8231476 Si02
#       8
#     8   8   8   8   8   8   8   8
#     4  11  22  39  62  87 115 143 175 217 268 326
#     4   9  18  33  53  76 105 143 183 226 277 329
#     4   9  20  38  55  74 105 145 190 237 279 323
#     4   9  18  31  49  75 106 138 174 222 275 330
#     4  10  20  33  51  78 111 144 180 226 279 330
#     4  10  19  33  54  79 107 142 184 226 273 326
#     4  11  23  38  56  79 108 145 189 232 276 326
#     4  11  21  35  57  86 118 147 176 214 265 324
#
# _framework density 19.208532999999999
#
# number of rings (size 3 to 8) (size 9 to 14) (size 15 to 20)
#    0.000    2.000    0.000    4.875    0.000    4.000 
#    0.000    0.625    0.000    3.000    0.000    0.000 
#    0.000    0.000    0.000    0.000    0.000    0.000 
#
# Total GULP energy -793647.920316 kJ/mol
# GULP energy per Si atom -12400.748755 kJ/mol
# Density = 1.916481 g / cm^3
# Si number density = 19.208533 Si / 1000 Ang^3
#
#
#
# Elastic Constant Matrix: (Units=GPa)
#
#
# Indices 1 2 3 4 5 6 
#
# 1 118.5256 62.3259 39.1386 0.0000 0.0000 0.0000
# 2 62.3259 81.1751 37.5043 0.0000 0.0000 0.0000
# 3 39.1386 37.5043 91.3696 0.0000 0.0000 0.0000
# 4 0.0000 0.0000 0.0000 29.4688 0.0000 0.0000
# 5 0.0000 0.0000 0.0000 0.0000 29.1089 0.0000
# 6 0.0000 0.0000 0.0000 0.0000 0.0000 26.6439
#
#
#
# Elastic Compliance Matrix: (Units=1/GPa)
#
#
# Indices 1 2 3 4 5 6 
#
# 1 0.014445 -0.010159 -0.002018 0.000000 0.000000 0.000000
# 2 -0.010159 0.022346 -0.004821 0.000000 0.000000 0.000000
# 3 -0.002018 -0.004821 0.013788 0.000000 0.000000 0.000000
# 4 0.000000 0.000000 0.000000 0.033934 0.000000 0.000000
# 5 0.000000 0.000000 0.000000 0.000000 0.034354 0.000000
# 6 0.000000 0.000000 0.000000 0.000000 0.000000 0.037532
#
#
# Mechanical properties :
#
#
# Convention : Reuss Voigt Hill
#
# Bulk Modulus (GPa) = 60.29804 63.22309 61.76056
# Shear Modulus (GPa) = 25.52036 27.18441 26.35238
#
# Velocity S-wave (km/s) = 3.64894 3.76603 3.70795
# Velocity P-wave (km/s) = 7.01516 7.20390 7.11016
#
# Compressibility (1/GPa) = 0.01658429
#
# Stress axis : x y z
#
# Youngs Moduli (GPa) = 69.22715 44.75043 72.52831
#
# Poissons Ratio (x) = 0.45461 0.14635
# Poissons Ratio (y) = 0.70326 0.34965
# Poissons Ratio (z) = 0.13969 0.21574
#
# Static dielectric constant tensor:
#      x y z
#    x 3.536440 0.000000 0.000000 
#    y 0.000000 3.567970 0.000000 
#    z 0.000000 0.000000 3.531590 
# 
# 
# High freq. dielectric constant tensor:
#      x y z
#    x 1.738000 0.000000 0.000000 
#    y 0.000000 1.751630 0.000000 
#    z 0.000000 0.000000 1.748070 
# 
# From -- ./inp_files/3865.got.cif
#   From: 2010.03.12/outbox.cif.g09.slc.cpg/sg57_2_cif.got.tgz:3865.got - 2010.04.16 15:48:40.
