data_PCOD8231571
_publ_section_title
;
Structure prediction by ZEFSAII (Michael W. Deem and Ramdas Pophale) SiO2 
 PCOD8231571
Probable space group: P B C M
;
_chemical_formula_sum "Si O2"
_cell_formula_units_Z 48
_cell_length_a 20.545382
_cell_length_b 13.512638
_cell_length_c 9.061346
_cell_angle_alpha 90.000000
_cell_angle_beta 90.000000
_cell_angle_gamma 90.000000
_cell_volume 2515.631804
_symmetry_space_group_name_H-M "P B C M"
_symmetry_group_IT_number 57
_symmetry_cell_setting 'orthorhombic'
loop_
_space_group_symop_operation_xyz
x,y,z
-x,-y,1/2+z
x,1/2-y,-z
-x,1/2+y,1/2-z
-x,-y,-z
x,y,1/2-z
-x,1/2+y,z
x,1/2-y,1/2+z
loop_
_atom_site_type_symbol
_atom_site_label
_atom_site_fract_x
_atom_site_fract_y
_atom_site_fract_z
Si Si1 0.775409 0.147141 0.422385
Si Si2 0.973989 0.651207 0.922178
Si Si3 0.649090 0.061798 0.574117
Si Si4 0.387492 0.157285 0.084872
Si Si5 0.911617 0.052447 0.081259
Si Si6 0.473691 0.905188 0.581866
O O1 0.792412 0.250000 0.500000
O O2 0.759243 0.164176 0.250000
O O3 0.715957 0.096816 0.505467
O O4 0.835987 0.073867 0.443930
O O5 0.978805 0.672151 0.750000
O O6 0.924487 0.562070 0.960491
O O7 0.947348 0.750000 0.000000
O O8 0.046025 0.624739 0.979599
O O9 0.649246 0.073797 0.750000
O O10 0.590822 0.130303 0.506877
O O11 0.636495 0.948480 0.522024
O O12 0.361512 0.164958 0.250000
O O13 0.466130 0.171091 0.078637
O O14 0.355663 0.250000 0.000000
O O15 0.932471 0.072462 0.250000
O O16 0.454088 0.930177 0.750000
O O17 0.500000 0.000000 0.500000
#
# Coordination Sequence:
#
# PCOD8231571 Si02
#       6
#     8   8   8   8   8   8
#     4  11  23  39  58  79 105 140 179 220 268 322
#     4  10  19  33  56  85 115 146 181 221 266 315
#     4  10  21  37  54  77 107 139 179 224 268 320
#     4   9  19  33  52  77 104 135 173 216 264 317
#     4   9  20  37  56  81 112 145 183 223 264 314
#     4   9  17  31  50  74 102 134 173 219 269 317
#
# _framework density 19.080694000000001
#
# number of rings (size 3 to 8) (size 9 to 14) (size 15 to 20)
#    0.000    2.333    0.000    3.500    0.000    8.000 
#    0.000    2.500    0.000    4.000    0.000    0.000 
#    0.000    0.000    0.000    0.000    0.000    0.000 
#
# Total GULP energy -595018.360688 kJ/mol
# GULP energy per Si atom -12396.215848 kJ/mol
# Density = 1.903727 g / cm^3
# Si number density = 19.080694 Si / 1000 Ang^3
#
#
#
# Elastic Constant Matrix: (Units=GPa)
#
#
# Indices 1 2 3 4 5 6 
#
# 1 97.6206 32.0562 42.2346 0.0000 0.0000 0.0000
# 2 32.0562 94.0221 45.7510 0.0000 0.0000 0.0000
# 3 42.2346 45.7510 112.8287 0.0000 0.0000 0.0000
# 4 0.0000 0.0000 0.0000 32.7162 0.0000 0.0000
# 5 0.0000 0.0000 0.0000 0.0000 28.9127 0.0000
# 6 0.0000 0.0000 0.0000 0.0000 0.0000 18.6446
#
#
#
# Elastic Compliance Matrix: (Units=1/GPa)
#
#
# Indices 1 2 3 4 5 6 
#
# 1 0.012681 -0.002509 -0.003730 0.000000 0.000000 0.000000
# 2 -0.002509 0.013747 -0.004635 0.000000 0.000000 0.000000
# 3 -0.003730 -0.004635 0.012139 0.000000 0.000000 0.000000
# 4 0.000000 0.000000 0.000000 0.030566 0.000000 0.000000
# 5 0.000000 0.000000 0.000000 0.000000 0.034587 0.000000
# 6 0.000000 0.000000 0.000000 0.000000 0.000000 0.053635
#
#
# Mechanical properties :
#
#
# Convention : Reuss Voigt Hill
#
# Bulk Modulus (GPa) = 59.45476 60.50609 59.98043
# Shear Modulus (GPa) = 27.06993 28.35002 27.70997
#
# Velocity S-wave (km/s) = 3.77066 3.85878 3.81498
# Velocity P-wave (km/s) = 7.08410 7.18562 7.13504
#
# Compressibility (1/GPa) = 0.01681951
#
# Stress axis : x y z
#
# Youngs Moduli (GPa) = 78.85741 72.74575 82.38238
#
# Poissons Ratio (x) = 0.18250 0.30725
# Poissons Ratio (y) = 0.19783 0.38184
# Poissons Ratio (z) = 0.29411 0.33718
#
# Static dielectric constant tensor:
#      x y z
#    x 3.403950 0.000000 0.000000 
#    y 0.000000 3.506660 0.000000 
#    z 0.000000 0.000000 3.816980 
# 
# 
# High freq. dielectric constant tensor:
#      x y z
#    x 1.723310 0.000000 0.000000 
#    y 0.000000 1.737580 0.000000 
#    z 0.000000 0.000000 1.754580 
# 
# From -- ./inp_files/6556.got.cif
#   From: 2010.03.12/outbox.cif.g09.slc.cpg/sg57_4_cif.got.tgz:6556.got - 2010.04.16 15:48:40.
