data_PCOD8231188
_publ_section_title
;
Structure prediction by ZEFSAII (Michael W. Deem and Ramdas Pophale) SiO2 
 PCOD8231188
Probable space group: P B C M
;
_chemical_formula_sum "Si O2"
_cell_formula_units_Z 64
_cell_length_a 16.641863
_cell_length_b 21.660499
_cell_length_c 9.181067
_cell_angle_alpha 90.000000
_cell_angle_beta 90.000000
_cell_angle_gamma 90.000000
_cell_volume 3309.508925
_symmetry_space_group_name_H-M "P B C M"
_symmetry_group_IT_number 57
_symmetry_cell_setting 'orthorhombic'
loop_
_space_group_symop_operation_xyz
x,y,z
-x,-y,1/2+z
x,1/2-y,-z
-x,1/2+y,1/2-z
-x,-y,-z
x,y,1/2-z
-x,1/2+y,z
x,1/2-y,1/2+z
loop_
_atom_site_type_symbol
_atom_site_label
_atom_site_fract_x
_atom_site_fract_y
_atom_site_fract_z
Si Si1 0.593924 0.556310 0.583359
Si Si2 0.723210 0.877846 0.577776
Si Si3 0.152104 0.021174 0.085932
Si Si4 0.593809 0.432111 0.416291
Si Si5 0.026291 0.086197 0.584841
Si Si6 0.299850 0.814630 0.076271
Si Si7 0.145747 0.616640 0.915413
Si Si8 0.153464 0.194314 0.585769
O O1 0.623151 0.556105 0.750000
O O2 0.636554 0.610619 0.492334
O O3 0.617790 0.489733 0.517054
O O4 0.501453 0.574978 0.571021
O O5 0.715816 0.868304 0.750000
O O6 0.776518 0.936483 0.528037
O O7 0.764429 0.819029 0.502832
O O8 0.131993 0.040409 0.250000
O O9 0.184228 0.951512 0.073272
O O10 0.067223 0.028994 0.000485
O O11 0.619482 0.447485 0.250000
O O12 0.636285 0.368232 0.467228
O O13 0.006649 0.064212 0.750000
O O14 0.091566 0.139170 0.581861
O O15 0.943522 0.112741 0.511976
O O16 0.299986 0.805342 0.250000
O O17 0.210997 0.835910 0.016904
O O18 0.323257 0.750000 0.000000
O O19 0.133388 0.637681 0.750000
O O20 0.110730 0.250000 0.500000
O O21 0.175553 0.212841 0.750000
#
# Coordination Sequence:
#
# PCOD8231188 Si02
#       8
#     8   8   8   8   8   8   8   8
#     4  10  19  32  55  85 110 132 167 213 257 309
#     4  10  19  32  51  76 105 136 167 202 251 307
#     4   9  17  30  50  74 101 134 168 202 250 310
#     4   9  19  36  56  78 107 141 171 208 261 312
#     4   9  18  31  48  72 101 131 165 210 260 303
#     4  10  21  38  56  74 102 140 180 218 257 305
#     4   9  17  31  51  73  99 133 169 207 253 302
#     4  10  20  34  50  69  96 131 170 211 254 301
#
# _framework density 19.338215000000002
#
# number of rings (size 3 to 8) (size 9 to 14) (size 15 to 20)
#    0.000    2.500    0.000    2.250    0.000    4.500 
#    0.000    1.875    0.000    1.500    0.000    0.000 
#    0.000    0.000    0.000    0.000    0.000    0.000 
#
# Total GULP energy -793153.476947 kJ/mol
# GULP energy per Si atom -12393.023077 kJ/mol
# Density = 1.929420 g / cm^3
# Si number density = 19.338215 Si / 1000 Ang^3
#
#
#
# Elastic Constant Matrix: (Units=GPa)
#
#
# Indices 1 2 3 4 5 6 
#
# 1 67.1481 21.4868 27.7564 0.0000 0.0000 0.0000
# 2 21.4868 58.5458 17.7344 0.0000 0.0000 0.0000
# 3 27.7564 17.7344 73.5932 0.0000 0.0000 0.0000
# 4 0.0000 0.0000 0.0000 31.6104 0.0000 0.0000
# 5 0.0000 0.0000 0.0000 0.0000 20.1618 0.0000
# 6 0.0000 0.0000 0.0000 0.0000 0.0000 19.5806
#
#
#
# Elastic Compliance Matrix: (Units=1/GPa)
#
#
# Indices 1 2 3 4 5 6 
#
# 1 0.018995 -0.005179 -0.005916 0.000000 0.000000 0.000000
# 2 -0.005179 0.019838 -0.002827 0.000000 0.000000 0.000000
# 3 -0.005916 -0.002827 0.016501 0.000000 0.000000 0.000000
# 4 0.000000 0.000000 0.000000 0.031635 0.000000 0.000000
# 5 0.000000 0.000000 0.000000 0.000000 0.049599 0.000000
# 6 0.000000 0.000000 0.000000 0.000000 0.000000 0.051071
#
#
# Mechanical properties :
#
#
# Convention : Reuss Voigt Hill
#
# Bulk Modulus (GPa) = 36.37839 37.02693 36.70266
# Shear Modulus (GPa) = 22.25716 23.09120 22.67418
#
# Velocity S-wave (km/s) = 3.39623 3.45928 3.42790
# Velocity P-wave (km/s) = 5.85079 5.92825 5.88964
#
# Compressibility (1/GPa) = 0.02748885
#
# Stress axis : x y z
#
# Youngs Moduli (GPa) = 52.64458 50.40868 60.60300
#
# Poissons Ratio (x) = 0.26108 0.35854
# Poissons Ratio (y) = 0.27266 0.17133
# Poissons Ratio (z) = 0.31145 0.14251
#
# Static dielectric constant tensor:
#      x y z
#    x 3.662720 0.000000 0.000000 
#    y 0.000000 3.462640 0.000000 
#    z 0.000000 0.000000 3.539520 
# 
# 
# High freq. dielectric constant tensor:
#      x y z
#    x 1.758600 0.000000 0.000000 
#    y 0.000000 1.740410 0.000000 
#    z 0.000000 0.000000 1.736720 
# 
# From -- ./inp_files/7281.got.cif
#   From: 2010.03.12/outbox.cif.g09.slc.cpg/sg57_4_cif.got.tgz:7281.got - 2010.04.16 15:48:40.
