data_PCOD8231625
_publ_section_title
;
Structure prediction by ZEFSAII (Michael W. Deem and Ramdas Pophale) SiO2 
 PCOD8231625
Probable space group: P B C M
;
_chemical_formula_sum "Si O2"
_cell_formula_units_Z 64
_cell_length_a 15.928960
_cell_length_b 23.880960
_cell_length_c 9.001628
_cell_angle_alpha 90.000000
_cell_angle_beta 90.000000
_cell_angle_gamma 90.000000
_cell_volume 3424.208999
_symmetry_space_group_name_H-M "P B C M"
_symmetry_group_IT_number 57
_symmetry_cell_setting 'orthorhombic'
loop_
_space_group_symop_operation_xyz
x,y,z
-x,-y,1/2+z
x,1/2-y,-z
-x,1/2+y,1/2-z
-x,-y,-z
x,y,1/2-z
-x,1/2+y,z
x,1/2-y,1/2+z
loop_
_atom_site_type_symbol
_atom_site_label
_atom_site_fract_x
_atom_site_fract_y
_atom_site_fract_z
Si Si1 0.208951 0.193338 0.577272
Si Si2 0.893661 0.110792 0.416657
Si Si3 0.779294 0.029986 0.922569
Si Si4 0.258743 0.804570 0.916959
Si Si5 0.290142 0.088897 0.077391
Si Si6 0.370397 0.887047 0.075415
Si Si7 0.520120 0.941714 0.575220
Si Si8 0.013790 0.307401 0.423611
O O1 0.241196 0.250000 0.500000
O O2 0.226318 0.200016 0.750000
O O3 0.260632 0.140967 0.518384
O O4 0.111362 0.183522 0.542401
O O5 0.926001 0.098345 0.250000
O O6 0.860240 0.052982 0.488597
O O7 0.817188 0.153002 0.414574
O O8 0.968534 0.137858 0.511074
O O9 0.798977 0.038454 0.750000
O O10 0.693734 0.062706 0.963400
O O11 0.766051 0.965180 0.964203
O O12 0.288948 0.790996 0.750000
O O13 0.225262 0.750000 0.000000
O O14 0.335438 0.828850 0.012491
O O15 0.279773 0.103497 0.250000
O O16 0.386064 0.076753 0.036761
O O17 0.386318 0.882263 0.250000
O O18 0.457893 0.895803 0.991937
O O19 0.506437 0.947991 0.750000
O O20 0.500000 0.000000 0.500000
O O21 0.981779 0.250000 0.500000
O O22 0.993604 0.302386 0.250000
#
# Coordination Sequence:
#
# PCOD8231625 Si02
#       8
#     8   8   8   8   8   8   8   8
#     4  10  22  40  62  86 110 142 183 229 279 330
#     4  10  20  32  51  81 112 144 185 227 272 322
#     4   9  18  34  53  77 112 149 181 219 272 325
#     4  10  20  33  49  74 107 146 184 223 270 324
#     4  10  21  38  59  84 113 146 182 225 277 329
#     4  10  19  34  53  77 108 143 181 224 272 320
#     4  11  21  35  56  84 113 142 181 225 270 323
#     4  10  20  35  56  81 109 142 184 231 278 327
#
# _framework density 18.690449000000001
#
# number of rings (size 3 to 8) (size 9 to 14) (size 15 to 20)
#    0.000    2.000    1.250    2.625    0.000    6.000 
#    0.000    1.250    0.000    3.000    0.000    0.000 
#    0.000    0.000    0.000    0.000    0.000    0.000 
#
# Total GULP energy -793767.215470 kJ/mol
# GULP energy per Si atom -12402.612742 kJ/mol
# Density = 1.864791 g / cm^3
# Si number density = 18.690449 Si / 1000 Ang^3
#
#
#
# Elastic Constant Matrix: (Units=GPa)
#
#
# Indices 1 2 3 4 5 6 
#
# 1 67.8340 40.0454 55.8215 0.0000 0.0000 0.0000
# 2 40.0454 98.5505 57.1705 0.0000 0.0000 0.0000
# 3 55.8215 57.1705 116.1047 0.0000 0.0000 0.0000
# 4 0.0000 0.0000 0.0000 36.8114 0.0000 0.0000
# 5 0.0000 0.0000 0.0000 0.0000 31.7692 0.0000
# 6 0.0000 0.0000 0.0000 0.0000 0.0000 19.7303
#
#
#
# Elastic Compliance Matrix: (Units=1/GPa)
#
#
# Indices 1 2 3 4 5 6 
#
# 1 0.025803 -0.004603 -0.010139 0.000000 0.000000 0.000000
# 2 -0.004603 0.015026 -0.005186 0.000000 0.000000 0.000000
# 3 -0.010139 -0.005186 0.016041 0.000000 0.000000 0.000000
# 4 0.000000 0.000000 0.000000 0.027166 0.000000 0.000000
# 5 0.000000 0.000000 0.000000 0.000000 0.031477 0.000000
# 6 0.000000 0.000000 0.000000 0.000000 0.000000 0.050684
#
#
# Mechanical properties :
#
#
# Convention : Reuss Voigt Hill
#
# Bulk Modulus (GPa) = 58.77473 65.39600 62.08537
# Shear Modulus (GPa) = 23.61579 26.29229 24.95404
#
# Velocity S-wave (km/s) = 3.55846 3.75470 3.65790
# Velocity P-wave (km/s) = 6.95688 7.33907 7.15053
#
# Compressibility (1/GPa) = 0.01701411
#
# Stress axis : x y z
#
# Youngs Moduli (GPa) = 38.75548 66.55221 62.33979
#
# Poissons Ratio (x) = 0.30634 0.63207
# Poissons Ratio (y) = 0.17839 0.32328
# Poissons Ratio (z) = 0.39294 0.34512
#
# Static dielectric constant tensor:
#      x y z
#    x 3.435930 0.000000 0.000000 
#    y 0.000000 3.490830 0.000000 
#    z 0.000000 0.000000 3.623170 
# 
# 
# High freq. dielectric constant tensor:
#      x y z
#    x 1.713100 0.000000 0.000000 
#    y 0.000000 1.719020 0.000000 
#    z 0.000000 0.000000 1.738420 
# 
# From -- ./inp_files/5740.got.cif
#   From: 2010.03.12/outbox.cif.g09.slc.cpg/sg57_3_cif.got.tgz:5740.got - 2010.04.16 15:48:40.
