data_PCOD8231021
_publ_section_title
;
Structure prediction by ZEFSAII (Michael W. Deem and Ramdas Pophale) SiO2 
 PCOD8231021
Probable space group: P B C M
;
_chemical_formula_sum "Si O2"
_cell_formula_units_Z 48
_cell_length_a 26.493643
_cell_length_b 5.259907
_cell_length_c 14.624716
_cell_angle_alpha 90.000000
_cell_angle_beta 90.000000
_cell_angle_gamma 90.000000
_cell_volume 2038.014111
_symmetry_space_group_name_H-M "P B C M"
_symmetry_group_IT_number 57
_symmetry_cell_setting 'orthorhombic'
loop_
_space_group_symop_operation_xyz
x,y,z
-x,-y,1/2+z
x,1/2-y,-z
-x,1/2+y,1/2-z
-x,-y,-z
x,y,1/2-z
-x,1/2+y,z
x,1/2-y,1/2+z
loop_
_atom_site_type_symbol
_atom_site_label
_atom_site_fract_x
_atom_site_fract_y
_atom_site_fract_z
Si Si1 0.807325 0.603780 0.858848
Si Si2 0.978860 0.465505 0.101426
Si Si3 0.864829 0.103027 0.641027
Si Si4 0.477710 0.798799 0.102938
Si Si5 0.636960 0.377549 0.141256
Si Si6 0.306533 0.378854 0.359112
O O1 0.806640 0.596734 0.750000
O O2 0.836874 0.355820 0.895607
O O3 0.750412 0.608471 0.896910
O O4 0.834227 0.858529 0.894625
O O5 0.919878 0.408641 0.097577
O O6 0.992322 0.731073 0.152411
O O7 0.000000 0.500000 0.000000
O O8 0.869297 0.103380 0.750000
O O9 0.490519 0.528072 0.151665
O O10 0.419495 0.873522 0.104418
O O11 0.497033 0.750000 0.000000
O O12 0.636511 0.380085 0.250000
O O13 0.665814 0.626233 0.102955
O O14 0.664712 0.126898 0.103587
O O15 0.306471 0.374290 0.250000
#
# Coordination Sequence:
#
# PCOD8231021 Si02
#       6
#     8   8   8   8   8   8
#     4   9  17  30  49  77 109 135 162 207 258 308
#     4  10  21  36  52  73  98 135 175 203 252 310
#     4  10  19  31  51  79 105 131 169 213 256 298
#     4  10  21  36  52  73 101 139 182 218 264 310
#     4  10  19  31  51  79 105 138 174 212 259 309
#     4   9  17  30  49  77 109 134 166 205 255 316
#
# _framework density 23.552339
#
# number of rings (size 3 to 8) (size 9 to 14) (size 15 to 20)
#    0.000    2.333    0.000    3.000    0.000    5.333 
#    0.000    0.000    0.000    0.000   43.333    0.000 
#    0.000    0.000    0.000    0.000    0.000    0.000 
#
# Total GULP energy -595101.514638 kJ/mol
# GULP energy per Si atom -12397.948222 kJ/mol
# Density = 2.349873 g / cm^3
# Si number density = 23.552339 Si / 1000 Ang^3
#
#
#
# Elastic Constant Matrix: (Units=GPa)
#
#
# Indices 1 2 3 4 5 6 
#
# 1 223.5438 120.9431 1.7924 0.0000 0.0000 0.0000
# 2 120.9431 279.1529 10.4039 0.0000 0.0000 0.0000
# 3 1.7924 10.4039 9.8088 0.0000 0.0000 0.0000
# 4 0.0000 0.0000 0.0000 10.5011 0.0000 0.0000
# 5 0.0000 0.0000 0.0000 0.0000 36.5019 0.0000
# 6 0.0000 0.0000 0.0000 0.0000 0.0000 58.1595
#
#
#
# Elastic Compliance Matrix: (Units=1/GPa)
#
#
# Indices 1 2 3 4 5 6 
#
# 1 0.005870 -0.002606 0.001692 0.000000 0.000000 0.000000
# 2 -0.002606 0.004887 -0.004707 0.000000 0.000000 0.000000
# 3 0.001692 -0.004707 0.106633 0.000000 0.000000 0.000000
# 4 0.000000 0.000000 0.000000 0.095228 0.000000 0.000000
# 5 0.000000 0.000000 0.000000 0.000000 0.027396 0.000000
# 6 0.000000 0.000000 0.000000 0.000000 0.000000 0.017194
#
#
# Mechanical properties :
#
#
# Convention : Reuss Voigt Hill
#
# Bulk Modulus (GPa) = 9.42091 86.53160 47.97626
# Shear Modulus (GPa) = 16.45637 46.32357 31.38997
#
# Velocity S-wave (km/s) = 2.64619 4.43971 3.65468
# Velocity P-wave (km/s) = 3.65309 7.94363 6.18249
#
# Compressibility (1/GPa) = 0.10614680
#
# Stress axis : x y z
#
# Youngs Moduli (GPa) = 170.36267 204.63223 9.37793
#
# Poissons Ratio (x) = 0.53330 -0.01586
# Poissons Ratio (y) = 0.44399 0.04414
# Poissons Ratio (z) = -0.28820 0.96323
#
# Static dielectric constant tensor:
#      x y z
#    x 4.168360 0.000000 0.000000 
#    y 0.000000 -45.942140 0.000000 
#    z 0.000000 0.000000 3.546580 
# 
# 
# High freq. dielectric constant tensor:
#      x y z
#    x 1.937080 0.000000 0.000000 
#    y 0.000000 1.962440 0.000000 
#    z 0.000000 0.000000 1.894430 
# 
# From -- ./inp_files/23119.got.cif
#   From: 2010.03.12/outbox.cif.g09.slc.cpg/sg57_12_cif.got.tgz:23119.got - 2010.04.16 15:48:40.
