data_PCOD8231664
_publ_section_title
;
Structure prediction by ZEFSAII (Michael W. Deem and Ramdas Pophale) SiO2 
 PCOD8231664
Probable space group: P B C M
;
_chemical_formula_sum "Si O2"
_cell_formula_units_Z 64
_cell_length_a 14.315302
_cell_length_b 25.809623
_cell_length_c 9.315590
_cell_angle_alpha 90.000000
_cell_angle_beta 90.000000
_cell_angle_gamma 90.000000
_cell_volume 3441.854771
_symmetry_space_group_name_H-M "P B C M"
_symmetry_group_IT_number 57
_symmetry_cell_setting 'orthorhombic'
loop_
_space_group_symop_operation_xyz
x,y,z
-x,-y,1/2+z
x,1/2-y,-z
-x,1/2+y,1/2-z
-x,-y,-z
x,y,1/2-z
-x,1/2+y,z
x,1/2-y,1/2+z
loop_
_atom_site_type_symbol
_atom_site_label
_atom_site_fract_x
_atom_site_fract_y
_atom_site_fract_z
Si Si1 0.388434 0.598571 0.419810
Si Si2 0.708121 0.993812 0.417476
Si Si3 0.703824 0.698597 0.082581
Si Si4 0.915152 0.800500 0.916783
Si Si5 0.728638 0.303140 0.579039
Si Si6 0.908656 0.137946 0.418800
Si Si7 0.600022 0.595475 0.419962
Si Si8 0.912875 0.023026 0.417514
O O1 0.386716 0.599210 0.250000
O O2 0.329246 0.549272 0.474568
O O3 0.344125 0.652629 0.472974
O O4 0.494069 0.592955 0.476445
O O5 0.684210 0.986953 0.250000
O O6 0.659553 0.948765 0.505508
O O7 0.819297 0.989771 0.444356
O O8 0.693723 0.710535 0.250000
O O9 0.810131 0.683056 0.041959
O O10 0.639287 0.651342 0.033834
O O11 0.671379 0.750000 0.000000
O O12 0.923904 0.787686 0.750000
O O13 0.986738 0.845379 0.962804
O O14 0.947221 0.750000 0.000000
O O15 0.702065 0.250000 0.500000
O O16 0.724550 0.294284 0.750000
O O17 0.830825 0.321897 0.524080
O O18 0.894406 0.135531 0.250000
O O19 0.893165 0.080463 0.479711
O O20 0.607895 0.587452 0.250000
O O21 0.938759 0.024890 0.250000
O O22 0.000000 0.000000 0.500000
#
# Coordination Sequence:
#
# PCOD8231664 Si02
#       8
#     8   8   8   8   8   8   8   8
#     4   9  18  36  57  77 107 144 181 221 270 326
#     4  10  20  37  58  80 107 143 182 219 267 328
#     4   9  19  34  51  74 104 136 171 214 265 316
#     4   9  17  30  48  70  95 127 166 206 248 301
#     4  10  19  34  55  79 107 143 183 224 270 326
#     4   9  17  32  54  73  99 140 177 208 258 325
#     4  10  21  35  56  83 106 138 182 227 272 319
#     4  10  21  36  55  80 108 142 178 216 267 323
#
# _framework density 18.594624
#
# number of rings (size 3 to 8) (size 9 to 14) (size 15 to 20)
#    0.000    2.500    1.250    0.750    1.750    1.500 
#    0.000    2.500    0.000    0.000    0.000    0.000 
#    0.000    0.000    0.000    0.000    0.000    0.000 
#
# Total GULP energy -793496.177931 kJ/mol
# GULP energy per Si atom -12398.377780 kJ/mol
# Density = 1.855230 g / cm^3
# Si number density = 18.594624 Si / 1000 Ang^3
#
#
#
# Elastic Constant Matrix: (Units=GPa)
#
#
# Indices 1 2 3 4 5 6 
#
# 1 126.8175 69.6791 38.2446 0.0000 0.0000 0.0000
# 2 69.6791 139.7033 43.5286 0.0000 0.0000 0.0000
# 3 38.2446 43.5286 35.7312 0.0000 0.0000 0.0000
# 4 0.0000 0.0000 0.0000 33.2119 0.0000 0.0000
# 5 0.0000 0.0000 0.0000 0.0000 19.0753 0.0000
# 6 0.0000 0.0000 0.0000 0.0000 0.0000 30.8457
#
#
#
# Elastic Compliance Matrix: (Units=1/GPa)
#
#
# Indices 1 2 3 4 5 6 
#
# 1 0.012542 -0.003341 -0.009354 0.000000 0.000000 0.000000
# 2 -0.003341 0.012427 -0.011563 0.000000 0.000000 0.000000
# 3 -0.009354 -0.011563 0.052085 0.000000 0.000000 0.000000
# 4 0.000000 0.000000 0.000000 0.030110 0.000000 0.000000
# 5 0.000000 0.000000 0.000000 0.000000 0.052424 0.000000
# 6 0.000000 0.000000 0.000000 0.000000 0.000000 0.032419
#
#
# Mechanical properties :
#
#
# Convention : Reuss Voigt Hill
#
# Bulk Modulus (GPa) = 35.04096 67.23963 51.14030
# Shear Modulus (GPa) = 19.99706 26.67989 23.33847
#
# Velocity S-wave (km/s) = 3.28292 3.79201 3.54661
# Velocity P-wave (km/s) = 5.76677 7.44391 6.65836
#
# Compressibility (1/GPa) = 0.02853803
#
# Stress axis : x y z
#
# Youngs Moduli (GPa) = 79.73239 80.46871 19.19922
#
# Poissons Ratio (x) = 0.26884 0.17959
# Poissons Ratio (y) = 0.26638 0.22200
# Poissons Ratio (z) = 0.74583 0.93047
#
# Static dielectric constant tensor:
#      x y z
#    x 3.665860 0.000000 0.000000 
#    y 0.000000 3.715860 0.000000 
#    z 0.000000 0.000000 3.161910 
# 
# 
# High freq. dielectric constant tensor:
#      x y z
#    x 1.734440 0.000000 0.000000 
#    y 0.000000 1.727300 0.000000 
#    z 0.000000 0.000000 1.684840 
# 
# From -- ./inp_files/5703.got.cif
#   From: 2010.03.12/outbox.cif.g09.slc.cpg/sg57_3_cif.got.tgz:5703.got - 2010.04.16 15:48:40.
