data_PCOD8231431
_publ_section_title
;
Structure prediction by ZEFSAII (Michael W. Deem and Ramdas Pophale) SiO2 
 PCOD8231431
Probable space group: P B C M
;
_chemical_formula_sum "Si O2"
_cell_formula_units_Z 64
_cell_length_a 9.531380
_cell_length_b 18.359836
_cell_length_c 19.283558
_cell_angle_alpha 90.000000
_cell_angle_beta 90.000000
_cell_angle_gamma 90.000000
_cell_volume 3374.518011
_symmetry_space_group_name_H-M "P B C M"
_symmetry_group_IT_number 57
_symmetry_cell_setting 'orthorhombic'
loop_
_space_group_symop_operation_xyz
x,y,z
-x,-y,1/2+z
x,1/2-y,-z
-x,1/2+y,1/2-z
-x,-y,-z
x,y,1/2-z
-x,1/2+y,z
x,1/2-y,1/2+z
loop_
_atom_site_type_symbol
_atom_site_label
_atom_site_fract_x
_atom_site_fract_y
_atom_site_fract_z
Si Si1 0.487116 0.478797 0.171206
Si Si2 0.706084 0.650324 0.673160
Si Si3 0.238353 0.388664 0.027629
Si Si4 0.391790 0.312490 0.826719
Si Si5 0.989119 0.939261 0.942285
Si Si6 0.226063 0.457702 0.671549
Si Si7 0.484043 0.675052 0.030275
Si Si8 0.299437 0.548085 0.440707
O O1 0.478895 0.506881 0.250000
O O2 0.440902 0.394239 0.164091
O O3 0.647550 0.489222 0.145875
O O4 0.383893 0.532002 0.129601
O O5 0.770286 0.631988 0.750000
O O6 0.803892 0.624818 0.608716
O O7 0.683694 0.735363 0.666025
O O8 0.286237 0.472851 0.016018
O O9 0.103201 0.374358 0.978141
O O10 0.363656 0.335946 0.004563
O O11 0.461429 0.319224 0.750000
O O12 0.274235 0.374066 0.836653
O O13 0.508514 0.319371 0.886152
O O14 0.910880 0.970763 0.874764
O O15 0.147355 0.916837 0.921676
O O16 0.000000 0.000000 0.000000
O O17 0.182538 0.476003 0.750000
O O18 0.382433 0.607273 0.012511
O O19 0.420691 0.750000 0.000000
#
# Coordination Sequence:
#
# PCOD8231431 Si02
#       8
#     8   8   8   8   8   8   8   8
#     4   9  17  32  57  84 108 138 182 231 278 327
#     4   9  18  31  50  83 109 136 178 229 282 322
#     4  10  19  35  56  77 105 147 184 227 267 329
#     4  10  19  33  53  80 111 138 174 228 276 325
#     4  10  21  36  52  77 111 148 182 220 276 321
#     4  10  19  34  57  83 107 142 188 229 269 330
#     4  12  21  34  54  84 107 138 184 226 279 334
#     4  10  21  34  52  77 114 143 174 227 278 326
#
# _framework density 18.965671
#
# number of rings (size 3 to 8) (size 9 to 14) (size 15 to 20)
#    0.000    2.000    3.750    0.375    0.000    3.500 
#    0.000    3.750    0.000    0.000    0.000    1.750 
#    0.000    0.000    0.000    0.000    0.000    0.000 
#
# Total GULP energy -793075.937982 kJ/mol
# GULP energy per Si atom -12391.811531 kJ/mol
# Density = 1.892250 g / cm^3
# Si number density = 18.965671 Si / 1000 Ang^3
#
#
#
# Elastic Constant Matrix: (Units=GPa)
#
#
# Indices 1 2 3 4 5 6 
#
# 1 77.1780 -1.3888 23.6008 0.0000 0.0000 0.0000
# 2 -1.3888 71.9555 0.2124 0.0000 0.0000 0.0000
# 3 23.6008 0.2124 94.5892 0.0000 0.0000 0.0000
# 4 0.0000 0.0000 0.0000 23.6670 0.0000 0.0000
# 5 0.0000 0.0000 0.0000 0.0000 27.4879 0.0000
# 6 0.0000 0.0000 0.0000 0.0000 0.0000 11.0210
#
#
#
# Elastic Compliance Matrix: (Units=1/GPa)
#
#
# Indices 1 2 3 4 5 6 
#
# 1 0.014033 0.000281 -0.003502 0.000000 0.000000 0.000000
# 2 0.000281 0.013903 -0.000101 0.000000 0.000000 0.000000
# 3 -0.003502 -0.000101 0.011446 0.000000 0.000000 0.000000
# 4 0.000000 0.000000 0.000000 0.042253 0.000000 0.000000
# 5 0.000000 0.000000 0.000000 0.000000 0.036380 0.000000
# 6 0.000000 0.000000 0.000000 0.000000 0.000000 0.090736
#
#
# Mechanical properties :
#
#
# Convention : Reuss Voigt Hill
#
# Bulk Modulus (GPa) = 30.54563 32.06349 31.30456
# Shear Modulus (GPa) = 22.09379 27.18840 24.64109
#
# Velocity S-wave (km/s) = 3.41682 3.79034 3.60842
# Velocity P-wave (km/s) = 5.63089 6.00819 5.82260
#
# Compressibility (1/GPa) = 0.03273790
#
# Stress axis : x y z
#
# Youngs Moduli (GPa) = 71.26052 71.92588 87.36654
#
# Poissons Ratio (x) = -0.02022 0.30596
# Poissons Ratio (y) = -0.02004 0.00886
# Poissons Ratio (z) = 0.24955 0.00729
#
# Static dielectric constant tensor:
#      x y z
#    x 3.649050 0.000000 0.000000 
#    y 0.000000 3.467730 0.000000 
#    z 0.000000 0.000000 3.871450 
# 
# 
# High freq. dielectric constant tensor:
#      x y z
#    x 1.695380 0.000000 0.000000 
#    y 0.000000 1.726310 0.000000 
#    z 0.000000 0.000000 1.757860 
# 
# From -- ./inp_files/24634.got.cif
#   From: 2010.03.12/outbox.cif.g09.slc.cpg/sg57_13_cif.got.tgz:24634.got - 2010.04.16 15:48:40.
