data_PCOD8231709
_publ_section_title
;
Structure prediction by ZEFSAII (Michael W. Deem and Ramdas Pophale) SiO2 
 PCOD8231709
Probable space group: P B C M
;
_chemical_formula_sum "Si O2"
_cell_formula_units_Z 64
_cell_length_a 11.948063
_cell_length_b 31.071158
_cell_length_c 8.884734
_cell_angle_alpha 90.000000
_cell_angle_beta 90.000000
_cell_angle_gamma 90.000000
_cell_volume 3298.370012
_symmetry_space_group_name_H-M "P B C M"
_symmetry_group_IT_number 57
_symmetry_cell_setting 'orthorhombic'
loop_
_space_group_symop_operation_xyz
x,y,z
-x,-y,1/2+z
x,1/2-y,-z
-x,1/2+y,1/2-z
-x,-y,-z
x,y,1/2-z
-x,1/2+y,z
x,1/2-y,1/2+z
loop_
_atom_site_type_symbol
_atom_site_label
_atom_site_fract_x
_atom_site_fract_y
_atom_site_fract_z
Si Si1 0.014098 0.793399 0.927749
Si Si2 0.025466 0.954466 0.427869
Si Si3 0.483789 0.955036 0.921911
Si Si4 0.507145 0.293714 0.929073
Si Si5 0.115875 0.378780 0.928338
Si Si6 0.253437 0.822530 0.928318
Si Si7 0.627505 0.623710 0.071369
Si Si8 0.238408 0.580605 0.423260
O O1 0.007934 0.788895 0.750000
O O2 0.142137 0.798385 0.985571
O O3 0.942563 0.834498 0.981000
O O4 0.963577 0.750000 0.000000
O O5 0.011334 0.957341 0.250000
O O6 0.152201 0.943661 0.470272
O O7 0.941360 0.918756 0.490967
O O8 0.000000 0.000000 0.500000
O O9 0.518622 0.960821 0.750000
O O10 0.562956 0.918057 0.994497
O O11 0.355728 0.942553 0.939412
O O12 0.500000 0.000000 0.000000
O O13 0.502706 0.290649 0.750000
O O14 0.634378 0.299938 0.989682
O O15 0.431320 0.332971 0.989511
O O16 0.458710 0.250000 0.000000
O O17 0.104222 0.384987 0.750000
O O18 0.244312 0.377122 0.981227
O O19 0.257910 0.823476 0.750000
O O20 0.249742 0.871288 0.986316
O O21 0.616490 0.623585 0.250000
O O22 0.195854 0.580278 0.250000
#
# Coordination Sequence:
#
# PCOD8231709 Si02
#       8
#     8   8   8   8   8   8   8   8
#     4  10  20  34  55  81 112 151 192 239 289 342
#     4  12  26  42  62  89 119 152 193 243 295 355
#     4  10  21  37  60  88 118 151 190 240 288 343
#     4  10  19  34  56  83 114 152 194 237 286 343
#     4  10  21  40  62  84 115 156 200 243 291 347
#     4   9  16  32  57  81 112 151 190 233 287 343
#     4   9  19  37  60  83 112 154 196 232 283 347
#     4  10  19  38  64  87 116 155 196 239 292 348
#
# _framework density 19.403524000000001
#
# number of rings (size 3 to 8) (size 9 to 14) (size 15 to 20)
#    0.000    2.000    2.500    1.500    1.750    1.500 
#    0.000    1.875    0.000    0.000    0.000    0.000 
#    0.000    0.000    0.000    0.000    0.000    0.000 
#
# Total GULP energy -793628.534277 kJ/mol
# GULP energy per Si atom -12400.445848 kJ/mol
# Density = 1.935936 g / cm^3
# Si number density = 19.403524 Si / 1000 Ang^3
#
#
#
# Elastic Constant Matrix: (Units=GPa)
#
#
# Indices 1 2 3 4 5 6 
#
# 1 127.4193 73.0517 38.0933 0.0000 0.0000 0.0000
# 2 73.0517 196.6499 49.8806 0.0000 0.0000 0.0000
# 3 38.0933 49.8806 49.6488 0.0000 0.0000 0.0000
# 4 0.0000 0.0000 0.0000 34.3361 0.0000 0.0000
# 5 0.0000 0.0000 0.0000 0.0000 12.6628 0.0000
# 6 0.0000 0.0000 0.0000 0.0000 0.0000 619.5784
#
#
#
# Elastic Compliance Matrix: (Units=1/GPa)
#
#
# Indices 1 2 3 4 5 6 
#
# 1 0.011119 -0.002639 -0.005880 0.000000 0.000000 0.000000
# 2 -0.002639 0.007451 -0.005461 0.000000 0.000000 0.000000
# 3 -0.005880 -0.005461 0.030139 0.000000 0.000000 0.000000
# 4 0.000000 0.000000 0.000000 0.029124 0.000000 0.000000
# 5 0.000000 0.000000 0.000000 0.000000 0.078972 0.000000
# 6 0.000000 0.000000 0.000000 0.000000 0.000000 0.001614
#
#
# Mechanical properties :
#
#
# Convention : Reuss Voigt Hill
#
# Bulk Modulus (GPa) = 48.19353 77.30769 62.75061
# Shear Modulus (GPa) = 25.86747 147.49495 86.68121
#
# Velocity S-wave (km/s) = 3.65517 8.72809 6.69103
# Velocity P-wave (km/s) = 6.53492 11.89543 9.59704
#
# Compressibility (1/GPa) = 0.02074967
#
# Stress axis : x y z
#
# Youngs Moduli (GPa) = 89.93675 134.21687 33.17995
#
# Poissons Ratio (x) = 0.35421 0.19509
# Poissons Ratio (y) = 0.23735 0.18118
# Poissons Ratio (z) = 0.52880 0.73290
#
# Static dielectric constant tensor:
#      x y z
#    x 2.888940 0.000000 0.000000 
#    y 0.000000 3.754730 0.000000 
#    z 0.000000 0.000000 3.134910 
# 
# 
# High freq. dielectric constant tensor:
#      x y z
#    x 1.763630 0.000000 0.000000 
#    y 0.000000 1.773650 0.000000 
#    z 0.000000 0.000000 1.716200 
# 
# From -- ./inp_files/3822.got.cif
#   From: 2010.03.12/outbox.cif.g09.slc.cpg/sg57_2_cif.got.tgz:3822.got - 2010.04.16 15:48:40.
