data_PCOD8231763
_publ_section_title
;
Structure prediction by ZEFSAII (Michael W. Deem and Ramdas Pophale) SiO2 
 PCOD8231763
Probable space group: P B C M
;
_chemical_formula_sum "Si O2"
_cell_formula_units_Z 64
_cell_length_a 15.322925
_cell_length_b 23.627643
_cell_length_c 9.168316
_cell_angle_alpha 90.000000
_cell_angle_beta 90.000000
_cell_angle_gamma 90.000000
_cell_volume 3319.339314
_symmetry_space_group_name_H-M "P B C M"
_symmetry_group_IT_number 57
_symmetry_cell_setting 'orthorhombic'
loop_
_space_group_symop_operation_xyz
x,y,z
-x,-y,1/2+z
x,1/2-y,-z
-x,1/2+y,1/2-z
-x,-y,-z
x,y,1/2-z
-x,1/2+y,z
x,1/2-y,1/2+z
loop_
_atom_site_type_symbol
_atom_site_label
_atom_site_fract_x
_atom_site_fract_y
_atom_site_fract_z
Si Si1 0.495284 0.809025 0.577660
Si Si2 0.590159 0.498088 0.081069
Si Si3 0.348420 0.625213 0.583181
Si Si4 0.846069 0.392357 0.081360
Si Si5 0.833632 0.879071 0.420476
Si Si6 0.999710 0.191070 0.921588
Si Si7 0.907326 0.499504 0.922448
Si Si8 0.338907 0.116198 0.420132
O O1 0.512433 0.750000 0.500000
O O2 0.488414 0.800019 0.750000
O O3 0.404788 0.835803 0.522864
O O4 0.574744 0.849783 0.533210
O O5 0.567880 0.504146 0.250000
O O6 0.640317 0.440697 0.043434
O O7 0.649404 0.550931 0.031634
O O8 0.500000 0.500000 0.000000
O O9 0.376988 0.637068 0.750000
O O10 0.246567 0.638965 0.559128
O O11 0.858720 0.410637 0.250000
O O12 0.920681 0.349387 0.030732
O O13 0.849553 0.447986 0.981804
O O14 0.818628 0.872961 0.250000
O O15 0.745143 0.859053 0.498294
O O16 0.910550 0.837703 0.473565
O O17 0.857400 0.943036 0.463459
O O18 0.998742 0.201310 0.750000
O O19 0.986859 0.250000 0.000000
O O20 0.921581 0.494118 0.750000
O O21 0.000000 0.500000 0.000000
O O22 0.321295 0.122755 0.250000
#
# Coordination Sequence:
#
# PCOD8231763 Si02
#       8
#     8   8   8   8   8   8   8   8
#     4  11  24  42  62  84 117 155 200 250 294 348
#     4  10  19  34  57  87 119 150 188 231 286 348
#     4  10  21  37  62  90 118 157 194 236 298 353
#     4  10  21  40  62  87 123 156 191 243 295 351
#     4  10  22  39  59  86 119 154 192 240 292 344
#     4  10  22  41  60  82 115 152 195 243 291 342
#     4  11  21  36  60  90 122 157 196 238 293 354
#     4  10  22  39  60  88 118 153 194 239 292 349
#
# _framework density 19.280944000000002
#
# number of rings (size 3 to 8) (size 9 to 14) (size 15 to 20)
#    0.000    1.750    2.500    1.500    0.000    6.000 
#    0.000    3.750    0.000    0.000    0.000    0.000 
#    0.000    0.000    0.000    0.000    0.000    0.000 
#
# Total GULP energy -793861.146817 kJ/mol
# GULP energy per Si atom -12404.080419 kJ/mol
# Density = 1.923706 g / cm^3
# Si number density = 19.280944 Si / 1000 Ang^3
#
#
#
# Elastic Constant Matrix: (Units=GPa)
#
#
# Indices 1 2 3 4 5 6 
#
# 1 106.4866 12.5024 29.3389 0.0000 0.0000 0.0000
# 2 12.5024 82.9591 30.0252 0.0000 0.0000 0.0000
# 3 29.3389 30.0252 52.8829 0.0000 0.0000 0.0000
# 4 0.0000 0.0000 0.0000 34.0348 0.0000 0.0000
# 5 0.0000 0.0000 0.0000 0.0000 33.4557 0.0000
# 6 0.0000 0.0000 0.0000 0.0000 0.0000 12.8537
#
#
#
# Elastic Compliance Matrix: (Units=1/GPa)
#
#
# Indices 1 2 3 4 5 6 
#
# 1 0.011118 0.000701 -0.006566 0.000000 0.000000 0.000000
# 2 0.000701 0.015216 -0.009028 0.000000 0.000000 0.000000
# 3 -0.006566 -0.009028 0.027678 0.000000 0.000000 0.000000
# 4 0.000000 0.000000 0.000000 0.029382 0.000000 0.000000
# 5 0.000000 0.000000 0.000000 0.000000 0.029890 0.000000
# 6 0.000000 0.000000 0.000000 0.000000 0.000000 0.077798
#
#
# Mechanical properties :
#
#
# Convention : Reuss Voigt Hill
#
# Bulk Modulus (GPa) = 41.27829 42.89574 42.08701
# Shear Modulus (GPa) = 21.83950 27.43300 24.63625
#
# Velocity S-wave (km/s) = 3.36921 3.77610 3.57844
# Velocity P-wave (km/s) = 6.04903 6.42713 6.24094
#
# Compressibility (1/GPa) = 0.02422581
#
# Stress axis : x y z
#
# Youngs Moduli (GPa) = 89.94776 65.72044 36.12962
#
# Poissons Ratio (x) = -0.04606 0.23722
# Poissons Ratio (y) = -0.06304 0.32618
# Poissons Ratio (z) = 0.59058 0.59332
#
# Static dielectric constant tensor:
#      x y z
#    x 3.342230 0.000000 0.000000 
#    y 0.000000 3.593190 0.000000 
#    z 0.000000 0.000000 3.465230 
# 
# 
# High freq. dielectric constant tensor:
#      x y z
#    x 1.762300 0.000000 0.000000 
#    y 0.000000 1.749200 0.000000 
#    z 0.000000 0.000000 1.744970 
# 
# From -- ./inp_files/5685.got.cif
#   From: 2010.03.12/outbox.cif.g09.slc.cpg/sg57_3_cif.got.tgz:5685.got - 2010.04.16 15:48:40.
