data_PCOD8231868
_publ_section_title
;
Structure prediction by ZEFSAII (Michael W. Deem and Ramdas Pophale) SiO2 
 PCOD8231868
Probable space group: P B C M
;
_chemical_formula_sum "Si O2"
_cell_formula_units_Z 40
_cell_length_a 12.807371
_cell_length_b 10.172292
_cell_length_c 17.090635
_cell_angle_alpha 90.000000
_cell_angle_beta 90.000000
_cell_angle_gamma 90.000000
_cell_volume 2226.573355
_symmetry_space_group_name_H-M "P B C M"
_symmetry_group_IT_number 57
_symmetry_cell_setting 'orthorhombic'
loop_
_space_group_symop_operation_xyz
x,y,z
-x,-y,1/2+z
x,1/2-y,-z
-x,1/2+y,1/2-z
-x,-y,-z
x,y,1/2-z
-x,1/2+y,z
x,1/2-y,1/2+z
loop_
_atom_site_type_symbol
_atom_site_label
_atom_site_fract_x
_atom_site_fract_y
_atom_site_fract_z
Si Si1 0.575967 0.993675 0.842152
Si Si2 0.591557 0.801337 0.156880
Si Si3 0.016561 0.624639 0.553765
Si Si4 0.189906 0.514573 0.658724
Si Si5 0.807621 0.729978 0.908540
O O1 0.560587 0.987171 0.750000
O O2 0.563093 0.844946 0.875310
O O3 0.690412 0.050159 0.862642
O O4 0.489892 0.092497 0.878329
O O5 0.589985 0.801737 0.250000
O O6 0.707057 0.841896 0.128301
O O7 0.037855 0.750000 0.500000
O O8 0.114283 0.610948 0.611477
O O9 0.000000 0.500000 0.500000
O O10 0.910331 0.641079 0.604096
O O11 0.167740 0.533777 0.750000
O O12 0.168504 0.364970 0.635716
O O13 0.786445 0.750000 0.000000
#
# Coordination Sequence:
#
# PCOD8231868 Si02
#       5
#     8   8   8   8   8
#     4   8  16  32  53  76 107 139 177 227 279 317
#     4   9  17  33  54  76 104 143 182 225 272 325
#     4  11  21  40  59  78 112 151 181 228 289 333
#     4  10  20  37  60  84 109 148 191 231 274 333
#     4  10  19  35  58  77 114 147 184 218 285 331
#
# _framework density 17.964824
#
# number of rings (size 3 to 8) (size 9 to 14) (size 15 to 20)
#    0.000    2.400    4.000    1.800    0.000    1.600 
#    3.600    5.000    0.000    0.000    0.000    0.000 
#    0.000    0.000    0.000    0.000    0.000    0.000 
#
# Total GULP energy -495854.631296 kJ/mol
# GULP energy per Si atom -12396.365782 kJ/mol
# Density = 1.792394 g / cm^3
# Si number density = 17.964824 Si / 1000 Ang^3
#
#
#
# Elastic Constant Matrix: (Units=GPa)
#
#
# Indices 1 2 3 4 5 6 
#
# 1 159.4565 73.5367 31.9127 0.0000 0.0000 0.0000
# 2 73.5367 90.2784 22.7756 0.0000 0.0000 0.0000
# 3 31.9127 22.7756 39.4040 0.0000 0.0000 0.0000
# 4 0.0000 0.0000 0.0000 25.1516 0.0000 0.0000
# 5 0.0000 0.0000 0.0000 0.0000 30.5990 0.0000
# 6 0.0000 0.0000 0.0000 0.0000 0.0000 39.8309
#
#
#
# Elastic Compliance Matrix: (Units=1/GPa)
#
#
# Indices 1 2 3 4 5 6 
#
# 1 0.010610 -0.007580 -0.004212 0.000000 0.000000 0.000000
# 2 -0.007580 0.018383 -0.004487 0.000000 0.000000 0.000000
# 3 -0.004212 -0.004487 0.031382 0.000000 0.000000 0.000000
# 4 0.000000 0.000000 0.000000 0.039759 0.000000 0.000000
# 5 0.000000 0.000000 0.000000 0.000000 0.032681 0.000000
# 6 0.000000 0.000000 0.000000 0.000000 0.000000 0.025106
#
#
# Mechanical properties :
#
#
# Convention : Reuss Voigt Hill
#
# Bulk Modulus (GPa) = 35.94660 60.62099 48.28379
# Shear Modulus (GPa) = 25.03136 29.84391 27.43763
#
# Velocity S-wave (km/s) = 3.73682 4.08025 3.91231
# Velocity P-wave (km/s) = 6.21862 7.48435 6.88065
#
# Compressibility (1/GPa) = 0.02781904
#
# Stress axis : x y z
#
# Youngs Moduli (GPa) = 94.25334 54.39861 31.86509
#
# Poissons Ratio (x) = 0.41232 0.13420
# Poissons Ratio (y) = 0.71441 0.14297
# Poissons Ratio (z) = 0.39695 0.24407
#
# Static dielectric constant tensor:
#      x y z
#    x 3.673940 0.000000 0.000000 
#    y 0.000000 3.404710 0.000000 
#    z 0.000000 0.000000 3.267120 
# 
# 
# High freq. dielectric constant tensor:
#      x y z
#    x 1.708130 0.000000 0.000000 
#    y 0.000000 1.683930 0.000000 
#    z 0.000000 0.000000 1.676940 
# 
# From -- ./inp_files/18210.got.cif
#   From: 2010.03.12/outbox.cif.g09.slc.cpg/sg57_10_cif.got.tgz:18210.got - 2010.04.16 15:48:40.
