data_PCOD8231895
_publ_section_title
;
Structure prediction by ZEFSAII (Michael W. Deem and Ramdas Pophale) SiO2 
 PCOD8231895
Probable space group: P B C M
;
_chemical_formula_sum "Si O2"
_cell_formula_units_Z 64
_cell_length_a 21.142350
_cell_length_b 18.502139
_cell_length_c 8.587329
_cell_angle_alpha 90.000000
_cell_angle_beta 90.000000
_cell_angle_gamma 90.000000
_cell_volume 3359.180182
_symmetry_space_group_name_H-M "P B C M"
_symmetry_group_IT_number 57
_symmetry_cell_setting 'orthorhombic'
loop_
_space_group_symop_operation_xyz
x,y,z
-x,-y,1/2+z
x,1/2-y,-z
-x,1/2+y,1/2-z
-x,-y,-z
x,y,1/2-z
-x,1/2+y,z
x,1/2-y,1/2+z
loop_
_atom_site_type_symbol
_atom_site_label
_atom_site_fract_x
_atom_site_fract_y
_atom_site_fract_z
Si Si1 0.119667 0.826908 0.065406
Si Si2 0.936340 0.467491 0.933747
Si Si3 0.508982 0.077969 0.429613
Si Si4 0.611066 0.675457 0.429715
Si Si5 0.750213 0.107436 0.933586
Si Si6 0.186121 0.036966 0.433877
Si Si7 0.255581 0.328573 0.066230
Si Si8 0.620109 0.171040 0.566171
O O1 0.116245 0.827122 0.250000
O O2 0.190914 0.844519 0.006110
O O3 0.097991 0.750000 0.000000
O O4 0.072030 0.887167 0.001901
O O5 0.940087 0.462488 0.750000
O O6 0.879582 0.519878 0.983140
O O7 0.000000 0.500000 0.000000
O O8 0.528960 0.074019 0.250000
O O9 0.442006 0.116074 0.451358
O O10 0.562658 0.119423 0.523121
O O11 0.500000 0.000000 0.500000
O O12 0.584660 0.750000 0.500000
O O13 0.629720 0.687280 0.250000
O O14 0.672971 0.649705 0.522069
O O15 0.745413 0.113494 0.750000
O O16 0.684924 0.137684 0.006268
O O17 0.761801 0.023840 0.981643
O O18 0.174750 0.035870 0.250000
O O19 0.208275 0.114963 0.488781
O O20 0.246808 0.329615 0.250000
O O21 0.238537 0.250000 0.000000
O O22 0.607272 0.250000 0.500000
O O23 0.624562 0.176871 0.750000
#
# Coordination Sequence:
#
# PCOD8231895 Si02
#       8
#     8   8   8   8   8   8   8   8
#     4  10  19  35  58  87 120 157 197 242 289 340
#     4  11  22  39  61  88 120 159 201 240 286 342
#     4  11  25  41  57  80 109 147 190 240 292 348
#     4  10  21  38  59  80 106 143 187 236 292 347
#     4   8  18  34  56  84 116 152 188 230 284 338
#     4  10  20  38  61  87 120 155 191 237 288 339
#     4  11  22  37  59  88 116 149 191 239 292 348
#     4  11  22  38  58  83 114 151 189 234 286 345
#
# _framework density 19.052267000000001
#
# number of rings (size 3 to 8) (size 9 to 14) (size 15 to 20)
#    0.000    1.750    0.000    6.375    1.750    3.000 
#    0.000    6.875    0.000    0.000    0.000    0.000 
#    0.000    0.000    0.000    0.000    0.000    0.000 
#
# Total GULP energy -793766.704070 kJ/mol
# GULP energy per Si atom -12402.604751 kJ/mol
# Density = 1.900890 g / cm^3
# Si number density = 19.052267 Si / 1000 Ang^3
#
#
#
# Elastic Constant Matrix: (Units=GPa)
#
#
# Indices 1 2 3 4 5 6 
#
# 1 91.9731 72.7106 25.9689 0.0000 0.0000 0.0000
# 2 72.7106 147.2409 41.8556 0.0000 0.0000 0.0000
# 3 25.9689 41.8556 89.9838 0.0000 0.0000 0.0000
# 4 0.0000 0.0000 0.0000 32.4117 0.0000 0.0000
# 5 0.0000 0.0000 0.0000 0.0000 29.7507 0.0000
# 6 0.0000 0.0000 0.0000 0.0000 0.0000 24.3802
#
#
#
# Elastic Compliance Matrix: (Units=1/GPa)
#
#
# Indices 1 2 3 4 5 6 
#
# 1 0.017951 -0.008518 -0.001218 0.000000 0.000000 0.000000
# 2 -0.008518 0.011869 -0.003062 0.000000 0.000000 0.000000
# 3 -0.001218 -0.003062 0.012889 0.000000 0.000000 0.000000
# 4 0.000000 0.000000 0.000000 0.030853 0.000000 0.000000
# 5 0.000000 0.000000 0.000000 0.000000 0.033613 0.000000
# 6 0.000000 0.000000 0.000000 0.000000 0.000000 0.041017
#
#
# Mechanical properties :
#
#
# Convention : Reuss Voigt Hill
#
# Bulk Modulus (GPa) = 58.44214 67.80754 63.12484
# Shear Modulus (GPa) = 27.85630 29.88604 28.87117
#
# Velocity S-wave (km/s) = 3.82789 3.96490 3.89699
# Velocity P-wave (km/s) = 7.09071 7.52516 7.31116
#
# Compressibility (1/GPa) = 0.01711094
#
# Stress axis : x y z
#
# Youngs Moduli (GPa) = 55.70738 84.25609 77.58465
#
# Poissons Ratio (x) = 0.71771 0.09452
# Poissons Ratio (y) = 0.47453 0.23759
# Poissons Ratio (z) = 0.06787 0.25802
#
# Static dielectric constant tensor:
#      x y z
#    x 3.546540 0.000000 0.000000 
#    y 0.000000 3.610120 0.000000 
#    z 0.000000 0.000000 3.559500 
# 
# 
# High freq. dielectric constant tensor:
#      x y z
#    x 1.735830 0.000000 0.000000 
#    y 0.000000 1.750660 0.000000 
#    z 0.000000 0.000000 1.747880 
# 
# From -- ./inp_files/8537.got.cif
#   From: 2010.03.12/outbox.cif.g09.slc.cpg/sg57_5_cif.got.tgz:8537.got - 2010.04.16 15:48:40.
