data_PCOD8231547
_publ_section_title
;
Structure prediction by ZEFSAII (Michael W. Deem and Ramdas Pophale) SiO2 
 PCOD8231547
Probable space group: P B C M
;
_chemical_formula_sum "Si O2"
_cell_formula_units_Z 64
_cell_length_a 23.489872
_cell_length_b 9.381895
_cell_length_c 15.317996
_cell_angle_alpha 90.000000
_cell_angle_beta 90.000000
_cell_angle_gamma 90.000000
_cell_volume 3375.772494
_symmetry_space_group_name_H-M "P B C M"
_symmetry_group_IT_number 57
_symmetry_cell_setting 'orthorhombic'
loop_
_space_group_symop_operation_xyz
x,y,z
-x,-y,1/2+z
x,1/2-y,-z
-x,1/2+y,1/2-z
-x,-y,-z
x,y,1/2-z
-x,1/2+y,z
x,1/2-y,1/2+z
loop_
_atom_site_type_symbol
_atom_site_label
_atom_site_fract_x
_atom_site_fract_y
_atom_site_fract_z
Si Si1 0.669232 0.945016 0.649627
Si Si2 0.035348 0.545482 0.916361
Si Si3 0.454193 0.560142 0.146580
Si Si4 0.047095 0.651386 0.346683
Si Si5 0.559129 0.379652 0.353303
Si Si6 0.251780 0.414139 0.007464
Si Si7 0.655735 0.883317 0.350221
Si Si8 0.139135 0.588043 0.017657
O O1 0.689161 0.970044 0.750000
O O2 0.721999 0.969726 0.584244
O O3 0.644904 0.785253 0.638085
O O4 0.620376 0.055981 0.621977
O O5 0.025688 0.711338 0.898611
O O6 0.008651 0.451317 0.838729
O O7 0.102799 0.524007 0.935577
O O8 0.000000 0.500000 0.000000
O O9 0.459031 0.570252 0.250000
O O10 0.447303 0.719844 0.107486
O O11 0.510357 0.483375 0.107695
O O12 0.400729 0.464223 0.119173
O O13 0.067788 0.691482 0.250000
O O14 0.100167 0.577504 0.395657
O O15 0.552080 0.373302 0.250000
O O16 0.294455 0.439220 0.087655
O O17 0.195386 0.498393 0.031219
O O18 0.235066 0.250000 0.000000
O O19 0.671674 0.919642 0.250000
O O20 0.157289 0.750000 0.000000
#
# Coordination Sequence:
#
# PCOD8231547 Si02
#       8
#     8   8   8   8   8   8   8   8
#     4   9  18  34  52  71  97 130 167 213 261 306
#     4   9  18  34  54  77 108 144 175 209 261 317
#     4   9  16  27  46  74 101 129 164 205 257 316
#     4  10  19  33  55  84 112 139 177 223 264 309
#     4   9  16  27  47  73 101 130 164 206 256 313
#     4  10  21  36  54  75 100 135 178 218 258 309
#     4   9  18  33  52  72  98 129 165 211 261 309
#     4   9  20  36  52  72 104 142 173 207 258 311
#
# _framework density 18.958622999999999
#
# number of rings (size 3 to 8) (size 9 to 14) (size 15 to 20)
#    0.000    2.750    0.000    2.250    0.000    6.500 
#    0.000    3.750    0.000    1.500    0.000    0.000 
#    0.000    0.000    0.000    0.000    0.000    0.000 
#
# Total GULP energy -793291.897622 kJ/mol
# GULP energy per Si atom -12395.185900 kJ/mol
# Density = 1.891547 g / cm^3
# Si number density = 18.958623 Si / 1000 Ang^3
#
#
#
# Elastic Constant Matrix: (Units=GPa)
#
#
# Indices 1 2 3 4 5 6 
#
# 1 104.6427 59.4631 36.3208 0.0000 0.0000 0.0000
# 2 59.4631 94.9228 26.6887 0.0000 0.0000 0.0000
# 3 36.3208 26.6887 74.7429 0.0000 0.0000 0.0000
# 4 0.0000 0.0000 0.0000 11.1796 0.0000 0.0000
# 5 0.0000 0.0000 0.0000 0.0000 17.2589 0.0000
# 6 0.0000 0.0000 0.0000 0.0000 0.0000 39.6432
#
#
#
# Elastic Compliance Matrix: (Units=1/GPa)
#
#
# Indices 1 2 3 4 5 6 
#
# 1 0.016213 -0.008828 -0.004727 0.000000 0.000000 0.000000
# 2 -0.008828 0.016517 -0.001608 0.000000 0.000000 0.000000
# 3 -0.004727 -0.001608 0.016250 0.000000 0.000000 0.000000
# 4 0.000000 0.000000 0.000000 0.089449 0.000000 0.000000
# 5 0.000000 0.000000 0.000000 0.000000 0.057941 0.000000
# 6 0.000000 0.000000 0.000000 0.000000 0.000000 0.025225
#
#
# Mechanical properties :
#
#
# Convention : Reuss Voigt Hill
#
# Bulk Modulus (GPa) = 53.60235 57.69485 55.64860
# Shear Modulus (GPa) = 19.36947 23.73873 21.55410
#
# Velocity S-wave (km/s) = 3.19983 3.54239 3.37546
# Velocity P-wave (km/s) = 6.47970 6.87237 6.67892
#
# Compressibility (1/GPa) = 0.01865590
#
# Stress axis : x y z
#
# Youngs Moduli (GPa) = 61.67824 60.54398 61.53757
#
# Poissons Ratio (x) = 0.53446 0.29086
# Poissons Ratio (y) = 0.54447 0.09895
# Poissons Ratio (z) = 0.29153 0.09736
#
# Static dielectric constant tensor:
#      x y z
#    x 3.371580 0.000000 0.000000 
#    y 0.000000 3.697260 0.000000 
#    z 0.000000 0.000000 3.480480 
# 
# 
# High freq. dielectric constant tensor:
#      x y z
#    x 1.723110 0.000000 0.000000 
#    y 0.000000 1.740460 0.000000 
#    z 0.000000 0.000000 1.725230 
# 
# From -- ./inp_files/19486.got.cif
#   From: 2010.03.12/outbox.cif.g09.slc.cpg/sg57_10_cif.got.tgz:19486.got - 2010.04.16 15:48:40.
