data_PCOD8231749
_publ_section_title
;
Structure prediction by ZEFSAII (Michael W. Deem and Ramdas Pophale) SiO2 
 PCOD8231749
Probable space group: P B C M
;
_chemical_formula_sum "Si O2"
_cell_formula_units_Z 40
_cell_length_a 26.244532
_cell_length_b 9.216313
_cell_length_c 8.637552
_cell_angle_alpha 90.000000
_cell_angle_beta 90.000000
_cell_angle_gamma 90.000000
_cell_volume 2089.232260
_symmetry_space_group_name_H-M "P B C M"
_symmetry_group_IT_number 57
_symmetry_cell_setting 'orthorhombic'
loop_
_space_group_symop_operation_xyz
x,y,z
-x,-y,1/2+z
x,1/2-y,-z
-x,1/2+y,1/2-z
-x,-y,-z
x,y,1/2-z
-x,1/2+y,z
x,1/2-y,1/2+z
loop_
_atom_site_type_symbol
_atom_site_label
_atom_site_fract_x
_atom_site_fract_y
_atom_site_fract_z
Si Si1 0.953592 0.409766 0.066814
Si Si2 0.862417 0.911741 0.066633
Si Si3 0.546366 0.409559 0.933936
Si Si4 0.751803 0.905900 0.430053
Si Si5 0.358011 0.090278 0.566999
O O1 0.957800 0.403834 0.250000
O O2 0.956478 0.250000 0.000000
O O3 0.900869 0.482164 0.017859
O O4 0.000000 0.500000 0.000000
O O5 0.873199 0.907180 0.250000
O O6 0.805966 0.981668 0.029420
O O7 0.868511 0.750000 0.000000
O O8 0.543244 0.405499 0.750000
O O9 0.598743 0.482126 0.994871
O O10 0.543406 0.250000 0.000000
O O11 0.500000 0.500000 0.000000
O O12 0.755494 0.750000 0.500000
O O13 0.748140 0.883368 0.250000
O O14 0.697800 0.976567 0.484921
O O15 0.366815 0.250000 0.500000
O O16 0.362238 0.104026 0.750000
#
# Coordination Sequence:
#
# PCOD8231749 Si02
#       5
#     8   8   8   8   8
#     4  12  25  42  61  83 111 144 183 226 273 325
#     4  10  19  34  57  85 115 148 184 224 268 318
#     4  11  23  38  56  78 107 141 181 225 274 327
#     4   8  15  29  51  78 109 142 179 219 262 313
#     4   9  18  33  54  80 108 141 179 222 267 317
#
# _framework density 19.145788
#
# number of rings (size 3 to 8) (size 9 to 14) (size 15 to 20)
#    0.000    2.000    0.000    4.200    0.000    4.000 
#    0.000    1.000    0.000    2.400    0.000    0.000 
#    0.000    0.000    0.000    0.000    0.000    0.000 
#
# Total GULP energy -495577.872730 kJ/mol
# GULP energy per Si atom -12389.446818 kJ/mol
# Density = 1.910221 g / cm^3
# Si number density = 19.145788 Si / 1000 Ang^3
#
#
#
# Elastic Constant Matrix: (Units=GPa)
#
#
# Indices 1 2 3 4 5 6 
#
# 1 200.1992 90.7627 64.4539 0.0000 0.0000 0.0000
# 2 90.7627 128.0312 46.4566 0.0000 0.0000 0.0000
# 3 64.4539 46.4566 90.5508 0.0000 0.0000 0.0000
# 4 0.0000 0.0000 0.0000 31.2519 0.0000 0.0000
# 5 0.0000 0.0000 0.0000 0.0000 17.4063 0.0000
# 6 0.0000 0.0000 0.0000 0.0000 0.0000 31.5631
#
#
#
# Elastic Compliance Matrix: (Units=1/GPa)
#
#
# Indices 1 2 3 4 5 6 
#
# 1 0.008172 -0.004525 -0.003495 0.000000 0.000000 0.000000
# 2 -0.004525 0.012103 -0.002988 0.000000 0.000000 0.000000
# 3 -0.003495 -0.002988 0.015065 0.000000 0.000000 0.000000
# 4 0.000000 0.000000 0.000000 0.031998 0.000000 0.000000
# 5 0.000000 0.000000 0.000000 0.000000 0.057450 0.000000
# 6 0.000000 0.000000 0.000000 0.000000 0.000000 0.031683
#
#
# Mechanical properties :
#
#
# Convention : Reuss Voigt Hill
#
# Bulk Modulus (GPa) = 75.06332 91.34750 83.20541
# Shear Modulus (GPa) = 27.33326 30.51812 28.92569
#
# Velocity S-wave (km/s) = 3.78251 3.99681 3.89113
# Velocity P-wave (km/s) = 7.63988 8.31351 7.98380
#
# Compressibility (1/GPa) = 0.01332209
#
# Stress axis : x y z
#
# Youngs Moduli (GPa) = 122.37474 82.62686 66.38077
#
# Poissons Ratio (x) = 0.37386 0.23201
# Poissons Ratio (y) = 0.55371 0.19838
# Poissons Ratio (z) = 0.42772 0.24693
#
# Static dielectric constant tensor:
#      x y z
#    x 4.533500 0.000000 0.000000 
#    y 0.000000 3.247370 0.000000 
#    z 0.000000 0.000000 3.629020 
# 
# 
# High freq. dielectric constant tensor:
#      x y z
#    x 1.780750 0.000000 0.000000 
#    y 0.000000 1.713800 0.000000 
#    z 0.000000 0.000000 1.752830 
# 
# From -- ./inp_files/8910.got.cif
#   From: 2010.03.12/outbox.cif.g09.slc.cpg/sg57_5_cif.got.tgz:8910.got - 2010.04.16 15:48:40.
