data_PCOD8231811
_publ_section_title
;
Structure prediction by ZEFSAII (Michael W. Deem and Ramdas Pophale) SiO2 
 PCOD8231811
Probable space group: P B C M
;
_chemical_formula_sum "Si O2"
_cell_formula_units_Z 48
_cell_length_a 10.208720
_cell_length_b 14.047280
_cell_length_c 17.182888
_cell_angle_alpha 90.000000
_cell_angle_beta 90.000000
_cell_angle_gamma 90.000000
_cell_volume 2464.107728
_symmetry_space_group_name_H-M "P B C M"
_symmetry_group_IT_number 57
_symmetry_cell_setting 'orthorhombic'
loop_
_space_group_symop_operation_xyz
x,y,z
-x,-y,1/2+z
x,1/2-y,-z
-x,1/2+y,1/2-z
-x,-y,-z
x,y,1/2-z
-x,1/2+y,z
x,1/2-y,1/2+z
loop_
_atom_site_type_symbol
_atom_site_label
_atom_site_fract_x
_atom_site_fract_y
_atom_site_fract_z
Si Si1 0.895734 0.651977 0.660983
Si Si2 0.977632 0.058032 0.339057
Si Si3 0.724270 0.544225 0.157347
Si Si4 0.632688 0.747111 0.157688
Si Si5 0.868708 0.258946 0.589232
Si Si6 0.627680 0.343441 0.341550
O O1 0.923076 0.684337 0.750000
O O2 0.896423 0.538828 0.654015
O O3 0.756241 0.689888 0.631481
O O4 0.005149 0.694976 0.605549
O O5 0.982335 0.094282 0.250000
O O6 0.899278 0.132104 0.391389
O O7 0.125139 0.045626 0.371446
O O8 0.724461 0.540038 0.250000
O O9 0.649508 0.638663 0.126646
O O10 0.653056 0.449584 0.123701
O O11 0.622056 0.744386 0.250000
O O12 0.503132 0.796253 0.121500
O O13 0.827708 0.250000 0.500000
O O14 0.748935 0.224954 0.641840
O O15 0.609539 0.352239 0.250000
#
# Coordination Sequence:
#
# PCOD8231811 Si02
#       6
#     8   8   8   8   8   8
#     4  10  19  36  60  86 109 141 190 241 284 330
#     4  10  19  34  61  86 109 143 188 238 283 331
#     4   9  16  30  56  85 109 140 179 232 289 328
#     4   9  18  32  57  87 113 138 183 240 286 334
#     4  12  24  36  54  83 117 154 188 230 277 336
#     4  10  20  36  57  81 111 148 187 232 284 337
#
# _framework density 19.479666999999999
#
# number of rings (size 3 to 8) (size 9 to 14) (size 15 to 20)
#    0.000    2.000    3.333    1.500    0.000    2.000 
#    0.000    5.833    0.000    2.000    0.000    0.000 
#    0.000    0.000    0.000    0.000    0.000    0.000 
#
# Total GULP energy -595214.978424 kJ/mol
# GULP energy per Si atom -12400.312051 kJ/mol
# Density = 1.943533 g / cm^3
# Si number density = 19.479667 Si / 1000 Ang^3
#
#
#
# Elastic Constant Matrix: (Units=GPa)
#
#
# Indices 1 2 3 4 5 6 
#
# 1 145.8029 72.6867 -0.2173 0.0000 0.0000 0.0000
# 2 72.6867 133.2629 13.0576 0.0000 0.0000 0.0000
# 3 -0.2173 13.0576 13.9278 0.0000 0.0000 0.0000
# 4 0.0000 0.0000 0.0000 11.1313 0.0000 0.0000
# 5 0.0000 0.0000 0.0000 0.0000 4.8972 0.0000
# 6 0.0000 0.0000 0.0000 0.0000 0.0000 32.3691
#
#
#
# Elastic Compliance Matrix: (Units=1/GPa)
#
#
# Indices 1 2 3 4 5 6 
#
# 1 0.009814 -0.005911 0.005695 0.000000 0.000000 0.000000
# 2 -0.005911 0.011823 -0.011177 0.000000 0.000000 0.000000
# 3 0.005695 -0.011177 0.082366 0.000000 0.000000 0.000000
# 4 0.000000 0.000000 0.000000 0.089837 0.000000 0.000000
# 5 0.000000 0.000000 0.000000 0.000000 0.204199 0.000000
# 6 0.000000 0.000000 0.000000 0.000000 0.000000 0.030894
#
#
# Mechanical properties :
#
#
# Convention : Reuss Voigt Hill
#
# Bulk Modulus (GPa) = 12.31267 51.56085 31.93676
# Shear Modulus (GPa) = 10.44298 23.51061 16.97680
#
# Velocity S-wave (km/s) = 2.31789 3.47786 2.95534
# Velocity P-wave (km/s) = 3.67396 6.53099 5.29867
#
# Compressibility (1/GPa) = 0.08121716
#
# Stress axis : x y z
#
# Youngs Moduli (GPa) = 101.89798 84.58062 12.14095
#
# Poissons Ratio (x) = 0.49994 -0.06914
# Poissons Ratio (y) = 0.60229 0.13569
# Poissons Ratio (z) = -0.58026 0.94532
#
# Static dielectric constant tensor:
#      x y z
#    x 3.703010 0.000000 0.000000 
#    y 0.000000 3.858630 0.000000 
#    z 0.000000 0.000000 2.994350 
# 
# 
# High freq. dielectric constant tensor:
#      x y z
#    x 1.758090 0.000000 0.000000 
#    y 0.000000 1.777370 0.000000 
#    z 0.000000 0.000000 1.701530 
# 
# From -- ./inp_files/20901.got.cif
#   From: 2010.03.12/outbox.cif.g09.slc.cpg/sg57_11_cif.got.tgz:20901.got - 2010.04.16 15:48:40.
