data_PCOD8231336
_publ_section_title
;
Structure prediction by ZEFSAII (Michael W. Deem and Ramdas Pophale) SiO2 
 PCOD8231336
Probable space group: P B C M
;
_chemical_formula_sum "Si O2"
_cell_formula_units_Z 64
_cell_length_a 18.717549
_cell_length_b 18.909520
_cell_length_c 9.734681
_cell_angle_alpha 90.000000
_cell_angle_beta 90.000000
_cell_angle_gamma 90.000000
_cell_volume 3445.491700
_symmetry_space_group_name_H-M "P B C M"
_symmetry_group_IT_number 57
_symmetry_cell_setting 'orthorhombic'
loop_
_space_group_symop_operation_xyz
x,y,z
-x,-y,1/2+z
x,1/2-y,-z
-x,1/2+y,1/2-z
-x,-y,-z
x,y,1/2-z
-x,1/2+y,z
x,1/2-y,1/2+z
loop_
_atom_site_type_symbol
_atom_site_label
_atom_site_fract_x
_atom_site_fract_y
_atom_site_fract_z
Si Si1 0.947655 0.954827 0.594445
Si Si2 0.792395 0.498713 0.090136
Si Si3 0.025077 0.813039 0.905951
Si Si4 0.544690 0.821237 0.590553
Si Si5 0.638375 0.551040 0.090821
Si Si6 0.319676 0.691985 0.100460
Si Si7 0.580978 0.429803 0.908314
Si Si8 0.824422 0.369830 0.904567
O O1 0.959227 0.982003 0.750000
O O2 0.864785 0.959561 0.550802
O O3 0.965700 0.872837 0.581480
O O4 0.000000 0.000000 0.500000
O O5 0.790699 0.478809 0.250000
O O6 0.721963 0.543876 0.050188
O O7 0.792432 0.427565 0.004833
O O8 0.034014 0.786250 0.750000
O O9 0.100893 0.841226 0.962758
O O10 0.997472 0.750000 0.000000
O O11 0.544539 0.750000 0.500000
O O12 0.538284 0.798583 0.750000
O O13 0.616809 0.867100 0.563936
O O14 0.481126 0.874967 0.549094
O O15 0.625342 0.531322 0.250000
O O16 0.586118 0.499132 0.003943
O O17 0.348756 0.713941 0.250000
O O18 0.345451 0.612795 0.066841
O O19 0.233544 0.693129 0.097278
O O20 0.352794 0.750000 0.000000
O O21 0.571832 0.454282 0.750000
O O22 0.835702 0.400495 0.750000
#
# Coordination Sequence:
#
# PCOD8231336 Si02
#       8
#     8   8   8   8   8   8   8   8
#     4  10  20  35  56  80 106 139 179 223 269 319
#     4  10  20  34  55  82 108 140 181 224 272 325
#     4  10  21  35  52  76 107 140 175 218 267 319
#     4  10  22  39  58  82 112 146 186 230 276 325
#     4  10  21  37  57  83 113 144 182 228 274 325
#     4  10  20  31  46  72 107 143 178 215 258 315
#     4  10  20  35  56  82 110 142 181 226 272 322
#     4  10  19  33  51  74 107 142 177 219 265 320
#
# _framework density 18.574997
#
# number of rings (size 3 to 8) (size 9 to 14) (size 15 to 20)
#    0.000    2.000    2.500    1.125    0.000    3.000 
#    0.000    0.625    0.000    0.000    0.000    0.000 
#    0.000    0.000    0.000    0.000    0.000    0.000 
#
# Total GULP energy -793380.768035 kJ/mol
# GULP energy per Si atom -12396.574501 kJ/mol
# Density = 1.853272 g / cm^3
# Si number density = 18.574997 Si / 1000 Ang^3
#
#
#
# Elastic Constant Matrix: (Units=GPa)
#
#
# Indices 1 2 3 4 5 6 
#
# 1 94.9282 44.8742 39.0781 0.0000 0.0000 0.0000
# 2 44.8742 99.6537 61.0357 0.0000 0.0000 0.0000
# 3 39.0781 61.0357 77.0725 0.0000 0.0000 0.0000
# 4 0.0000 0.0000 0.0000 34.8531 0.0000 0.0000
# 5 0.0000 0.0000 0.0000 0.0000 21.1983 0.0000
# 6 0.0000 0.0000 0.0000 0.0000 0.0000 22.6273
#
#
#
# Elastic Compliance Matrix: (Units=1/GPa)
#
#
# Indices 1 2 3 4 5 6 
#
# 1 0.014018 -0.003804 -0.004095 0.000000 0.000000 0.000000
# 2 -0.003804 0.020519 -0.014320 0.000000 0.000000 0.000000
# 3 -0.004095 -0.014320 0.026392 0.000000 0.000000 0.000000
# 4 0.000000 0.000000 0.000000 0.028692 0.000000 0.000000
# 5 0.000000 0.000000 0.000000 0.000000 0.047174 0.000000
# 6 0.000000 0.000000 0.000000 0.000000 0.000000 0.044194
#
#
# Mechanical properties :
#
#
# Convention : Reuss Voigt Hill
#
# Bulk Modulus (GPa) = 60.64493 62.40336 61.52415
# Shear Modulus (GPa) = 21.65204 24.18017 22.91611
#
# Velocity S-wave (km/s) = 3.41787 3.61190 3.51623
# Velocity P-wave (km/s) = 6.94949 7.14582 7.04834
#
# Compressibility (1/GPa) = 0.01648942
#
# Stress axis : x y z
#
# Youngs Moduli (GPa) = 71.33472 48.73556 37.89055
#
# Poissons Ratio (x) = 0.18541 0.15516
# Poissons Ratio (y) = 0.27139 0.54261
# Poissons Ratio (z) = 0.29211 0.69792
#
# Static dielectric constant tensor:
#      x y z
#    x 3.622290 0.000000 0.000000 
#    y 0.000000 3.201160 0.000000 
#    z 0.000000 0.000000 2.976280 
# 
# 
# High freq. dielectric constant tensor:
#      x y z
#    x 1.729730 0.000000 0.000000 
#    y 0.000000 1.699190 0.000000 
#    z 0.000000 0.000000 1.720170 
# 
# From -- ./inp_files/8397.got.cif
#   From: 2010.03.12/outbox.cif.g09.slc.cpg/sg57_5_cif.got.tgz:8397.got - 2010.04.16 15:48:40.
