data_PCOD8231532
_publ_section_title
;
Structure prediction by ZEFSAII (Michael W. Deem and Ramdas Pophale) SiO2 
 PCOD8231532
Probable space group: P B C M
;
_chemical_formula_sum "Si O2"
_cell_formula_units_Z 40
_cell_length_a 18.326956
_cell_length_b 13.327372
_cell_length_c 8.883082
_cell_angle_alpha 90.000000
_cell_angle_beta 90.000000
_cell_angle_gamma 90.000000
_cell_volume 2169.694202
_symmetry_space_group_name_H-M "P B C M"
_symmetry_group_IT_number 57
_symmetry_cell_setting 'orthorhombic'
loop_
_space_group_symop_operation_xyz
x,y,z
-x,-y,1/2+z
x,1/2-y,-z
-x,1/2+y,1/2-z
-x,-y,-z
x,y,1/2-z
-x,1/2+y,z
x,1/2-y,1/2+z
loop_
_atom_site_type_symbol
_atom_site_label
_atom_site_fract_x
_atom_site_fract_y
_atom_site_fract_z
Si Si1 0.390907 0.949146 0.425372
Si Si2 0.046037 0.355372 0.573266
Si Si3 0.744120 0.142678 0.072150
Si Si4 0.525872 0.649983 0.425265
Si Si5 0.895629 0.044753 0.073823
O O1 0.382734 0.924485 0.250000
O O2 0.314214 0.936105 0.508657
O O3 0.449460 0.873327 0.494831
O O4 0.415477 0.063075 0.454027
O O5 0.066610 0.250000 0.500000
O O6 0.055303 0.345365 0.750000
O O7 0.101867 0.439387 0.513544
O O8 0.963858 0.385892 0.526772
O O9 0.736224 0.151342 0.250000
O O10 0.823604 0.103770 0.024004
O O11 0.729233 0.250000 0.000000
O O12 0.558920 0.750000 0.500000
O O13 0.510659 0.666150 0.250000
O O14 0.896710 0.020581 0.250000
#
# Coordination Sequence:
#
# PCOD8231532 Si02
#       5
#     8   8   8   8   8
#     4  10  21  36  54  78 107 138 175 214 255 307
#     4  10  19  33  55  79 105 137 174 217 261 308
#     4  11  22  36  55  78 107 139 171 212 260 309
#     4  10  20  35  56  79 104 136 173 215 260 306
#     4   9  20  36  53  77 106 138 176 215 258 308
#
# _framework density 18.435777999999999
#
# number of rings (size 3 to 8) (size 9 to 14) (size 15 to 20)
#    0.000    2.000    0.000    3.600    0.000    4.800 
#    0.000    1.000    0.000    2.400    0.000    0.000 
#    0.000    0.000    0.000    0.000    0.000    0.000 
#
# Total GULP energy -496221.192631 kJ/mol
# GULP energy per Si atom -12405.529816 kJ/mol
# Density = 1.839382 g / cm^3
# Si number density = 18.435778 Si / 1000 Ang^3
#
#
#
# Elastic Constant Matrix: (Units=GPa)
#
#
# Indices 1 2 3 4 5 6 
#
# 1 86.4080 29.9258 39.3823 0.0000 0.0000 0.0000
# 2 29.9258 116.9516 52.1611 0.0000 0.0000 0.0000
# 3 39.3823 52.1611 89.0312 0.0000 0.0000 0.0000
# 4 0.0000 0.0000 0.0000 36.7207 0.0000 0.0000
# 5 0.0000 0.0000 0.0000 0.0000 29.9827 0.0000
# 6 0.0000 0.0000 0.0000 0.0000 0.0000 20.6684
#
#
#
# Elastic Compliance Matrix: (Units=1/GPa)
#
#
# Indices 1 2 3 4 5 6 
#
# 1 0.014610 -0.001159 -0.005784 0.000000 0.000000 0.000000
# 2 -0.001159 0.011667 -0.006323 0.000000 0.000000 0.000000
# 3 -0.005784 -0.006323 0.017495 0.000000 0.000000 0.000000
# 4 0.000000 0.000000 0.000000 0.027233 0.000000 0.000000
# 5 0.000000 0.000000 0.000000 0.000000 0.033353 0.000000
# 6 0.000000 0.000000 0.000000 0.000000 0.000000 0.048383
#
#
# Mechanical properties :
#
#
# Convention : Reuss Voigt Hill
#
# Bulk Modulus (GPa) = 58.00047 59.48101 58.74074
# Shear Modulus (GPa) = 27.02427 28.86914 27.94671
#
# Velocity S-wave (km/s) = 3.83281 3.96148 3.89767
# Velocity P-wave (km/s) = 7.14957 7.29783 7.22408
#
# Compressibility (1/GPa) = 0.01724124
#
# Stress axis : x y z
#
# Youngs Moduli (GPa) = 68.44402 85.71111 57.15971
#
# Poissons Ratio (x) = 0.09933 0.33060
# Poissons Ratio (y) = 0.07932 0.36141
# Poissons Ratio (z) = 0.39587 0.54194
#
# Static dielectric constant tensor:
#      x y z
#    x 3.315120 0.000000 0.000000 
#    y 0.000000 3.398260 0.000000 
#    z 0.000000 0.000000 3.470730 
# 
# 
# High freq. dielectric constant tensor:
#      x y z
#    x 1.700830 0.000000 0.000000 
#    y 0.000000 1.721660 0.000000 
#    z 0.000000 0.000000 1.729380 
# 
# From -- ./inp_files/6215.got.cif
#   From: 2010.03.12/outbox.cif.g09.slc.cpg/sg57_4_cif.got.tgz:6215.got - 2010.04.16 15:48:40.
