data_PCOD8231173
_publ_section_title
;
Structure prediction by ZEFSAII (Michael W. Deem and Ramdas Pophale) SiO2 
 PCOD8231173
Probable space group: P B C M
;
_chemical_formula_sum "Si O2"
_cell_formula_units_Z 48
_cell_length_a 9.708163
_cell_length_b 30.722488
_cell_length_c 9.008549
_cell_angle_alpha 90.000000
_cell_angle_beta 90.000000
_cell_angle_gamma 90.000000
_cell_volume 2686.880107
_symmetry_space_group_name_H-M "P B C M"
_symmetry_group_IT_number 57
_symmetry_cell_setting 'orthorhombic'
loop_
_space_group_symop_operation_xyz
x,y,z
-x,-y,1/2+z
x,1/2-y,-z
-x,1/2+y,1/2-z
-x,-y,-z
x,y,1/2-z
-x,1/2+y,z
x,1/2-y,1/2+z
loop_
_atom_site_type_symbol
_atom_site_label
_atom_site_fract_x
_atom_site_fract_y
_atom_site_fract_z
Si Si1 0.838390 0.291815 0.083941
Si Si2 0.663991 0.954805 0.921402
Si Si3 0.164850 0.290661 0.087511
Si Si4 0.142154 0.620245 0.075905
Si Si5 0.145068 0.385823 0.072764
Si Si6 0.654290 0.042344 0.080350
O O1 0.775994 0.294780 0.250000
O O2 0.001308 0.286223 0.094018
O O3 0.774057 0.250000 0.000000
O O4 0.800619 0.335142 0.993436
O O5 0.706488 0.949508 0.750000
O O6 0.503808 0.945146 0.948425
O O7 0.746080 0.921184 0.022087
O O8 0.701695 0.003414 0.973362
O O9 0.230283 0.287592 0.250000
O O10 0.199136 0.338136 0.018425
O O11 0.230512 0.250000 0.000000
O O12 0.116651 0.627188 0.250000
O O13 0.256121 0.584193 0.041889
O O14 0.001701 0.604013 0.000614
O O15 0.126386 0.386081 0.250000
O O16 0.675642 0.027141 0.250000
#
# Coordination Sequence:
#
# PCOD8231173 Si02
#       6
#     8   8   8   8   8   8
#     4   9  16  27  44  69 100 132 165 201 242 289
#     4  10  20  35  55  75  95 127 168 205 247 299
#     4   8  15  26  42  65  94 126 157 192 234 280
#     4  10  19  32  51  75 102 131 164 205 250 292
#     4  10  20  33  49  74 105 132 163 204 248 294
#     4   9  20  37  54  73  98 128 164 205 249 300
#
# _framework density 17.864585000000002
#
# number of rings (size 3 to 8) (size 9 to 14) (size 15 to 20)
#    0.000    2.667    0.000    3.000    0.000    7.333 
#    0.000    0.000    0.000    1.000    0.000    2.333 
#    0.000    0.000    0.000    0.000    0.000    0.000 
#
# Total GULP energy -595102.046243 kJ/mol
# GULP energy per Si atom -12397.959297 kJ/mol
# Density = 1.782392 g / cm^3
# Si number density = 17.864585 Si / 1000 Ang^3
#
#
#
# Elastic Constant Matrix: (Units=GPa)
#
#
# Indices 1 2 3 4 5 6 
#
# 1 49.2340 57.7024 37.1450 0.0000 0.0000 0.0000
# 2 57.7024 142.8972 69.0448 0.0000 0.0000 0.0000
# 3 37.1450 69.0448 108.4920 0.0000 0.0000 0.0000
# 4 0.0000 0.0000 0.0000 37.4716 0.0000 0.0000
# 5 0.0000 0.0000 0.0000 0.0000 14.2304 0.0000
# 6 0.0000 0.0000 0.0000 0.0000 0.0000 -8.9035
#
#
#
# Elastic Compliance Matrix: (Units=1/GPa)
#
#
# Indices 1 2 3 4 5 6 
#
# 1 0.040337 -0.013885 -0.004974 0.000000 0.000000 0.000000
# 2 -0.013885 0.014885 -0.004719 0.000000 0.000000 0.000000
# 3 -0.004974 -0.004719 0.013923 0.000000 0.000000 0.000000
# 4 0.000000 0.000000 0.000000 0.026687 0.000000 0.000000
# 5 0.000000 0.000000 0.000000 0.000000 0.070272 0.000000
# 6 0.000000 0.000000 0.000000 0.000000 0.000000 -0.112315
#
#
# Mechanical properties :
#
#
# Convention : Reuss Voigt Hill
#
# Bulk Modulus (GPa) = 45.47609 69.82308 57.64959
# Shear Modulus (GPa) = 46.17889 17.67510 31.92699
#
# Velocity S-wave (km/s) = 5.08975 3.14887 4.23208
# Velocity P-wave (km/s) = 7.74932 7.23810 7.49807
#
# Compressibility (1/GPa) = 0.02198958
#
# Stress axis : x y z
#
# Youngs Moduli (GPa) = 24.79120 67.18215 71.82139
#
# Poissons Ratio (x) = 0.93282 0.35724
# Poissons Ratio (y) = 0.34422 0.33892
# Poissons Ratio (z) = 0.12331 0.31703
#
# Static dielectric constant tensor:
#      x y z
#    x 2.897050 0.000000 0.000000 
#    y 0.000000 3.508390 0.000000 
#    z 0.000000 0.000000 3.524090 
# 
# 
# High freq. dielectric constant tensor:
#      x y z
#    x 1.643890 0.000000 0.000000 
#    y 0.000000 1.705340 0.000000 
#    z 0.000000 0.000000 1.704450 
# 
# From -- ./inp_files/3288.got.cif
#   From: 2010.03.12/outbox.cif.g09.slc.cpg/sg57_2_cif.got.tgz:3288.got - 2010.04.16 15:48:40.
