data_PCOD8231765
_publ_section_title
;
Structure prediction by ZEFSAII (Michael W. Deem and Ramdas Pophale) SiO2 
 PCOD8231765
Probable space group: P B C M
;
_chemical_formula_sum "Si O2"
_cell_formula_units_Z 48
_cell_length_a 14.693609
_cell_length_b 18.653329
_cell_length_c 8.528003
_cell_angle_alpha 90.000000
_cell_angle_beta 90.000000
_cell_angle_gamma 90.000000
_cell_volume 2337.395339
_symmetry_space_group_name_H-M "P B C M"
_symmetry_group_IT_number 57
_symmetry_cell_setting 'orthorhombic'
loop_
_space_group_symop_operation_xyz
x,y,z
-x,-y,1/2+z
x,1/2-y,-z
-x,1/2+y,1/2-z
-x,-y,-z
x,y,1/2-z
-x,1/2+y,z
x,1/2-y,1/2+z
loop_
_atom_site_type_symbol
_atom_site_label
_atom_site_fract_x
_atom_site_fract_y
_atom_site_fract_z
Si Si1 0.626604 0.579260 0.067268
Si Si2 0.935399 0.602212 0.428551
Si Si3 0.122830 0.543741 0.068907
Si Si4 0.533186 0.172161 0.933720
Si Si5 0.222559 0.325628 0.431767
Si Si6 0.672923 0.069768 0.432689
O O1 0.606571 0.590084 0.250000
O O2 0.549517 0.618845 0.968450
O O3 0.724210 0.611411 0.020635
O O4 0.627203 0.495308 0.027537
O O5 0.915554 0.623861 0.250000
O O6 0.894439 0.523615 0.458069
O O7 0.884795 0.660552 0.537754
O O8 0.043760 0.602589 0.463539
O O9 0.118561 0.517795 0.250000
O O10 0.220103 0.578308 0.028764
O O11 0.549177 0.177618 0.750000
O O12 0.508987 0.250000 0.000000
O O13 0.625082 0.143098 0.014552
O O14 0.254321 0.250000 0.500000
O O15 0.246177 0.328068 0.250000
O O16 0.656545 0.055383 0.250000
#
# Coordination Sequence:
#
# PCOD8231765 Si02
#       6
#     8   8   8   8   8   8
#     4  12  24  41  64  93 123 159 203 253 307 368
#     4  10  19  34  57  87 120 157 200 246 298 358
#     4   9  19  35  59  88 121 157 198 247 297 351
#     4  12  26  45  65  89 122 162 204 253 309 369
#     4  12  24  39  58  86 123 164 205 255 312 371
#     4  11  22  40  65  95 126 161 205 254 302 360
#
# _framework density 20.535681
#
# number of rings (size 3 to 8) (size 9 to 14) (size 15 to 20)
#    0.000    1.000    1.667    6.500    0.000    1.333 
#    0.000    0.833    0.000    0.000    0.000    0.000 
#    0.000    0.000    0.000    0.000    0.000    0.000 
#
# Total GULP energy -595454.968563 kJ/mol
# GULP energy per Si atom -12405.311845 kJ/mol
# Density = 2.048894 g / cm^3
# Si number density = 20.535681 Si / 1000 Ang^3
#
#
#
# Elastic Constant Matrix: (Units=GPa)
#
#
# Indices 1 2 3 4 5 6 
#
# 1 118.9197 21.6570 22.1036 0.0000 0.0000 0.0000
# 2 21.6570 52.6798 13.3687 0.0000 0.0000 0.0000
# 3 22.1036 13.3687 81.0343 0.0000 0.0000 0.0000
# 4 0.0000 0.0000 0.0000 34.5455 0.0000 0.0000
# 5 0.0000 0.0000 0.0000 0.0000 29.0580 0.0000
# 6 0.0000 0.0000 0.0000 0.0000 0.0000 23.6854
#
#
#
# Elastic Compliance Matrix: (Units=1/GPa)
#
#
# Indices 1 2 3 4 5 6 
#
# 1 0.009393 -0.003352 -0.002009 0.000000 0.000000 0.000000
# 2 -0.003352 0.021008 -0.002552 0.000000 0.000000 0.000000
# 3 -0.002009 -0.002552 0.013309 0.000000 0.000000 0.000000
# 4 0.000000 0.000000 0.000000 0.028947 0.000000 0.000000
# 5 0.000000 0.000000 0.000000 0.000000 0.034414 0.000000
# 6 0.000000 0.000000 0.000000 0.000000 0.000000 0.042220
#
#
# Mechanical properties :
#
#
# Convention : Reuss Voigt Hill
#
# Bulk Modulus (GPa) = 35.86077 40.76580 38.31329
# Shear Modulus (GPa) = 28.66782 30.49140 29.57961
#
# Velocity S-wave (km/s) = 3.74036 3.85749 3.79938
# Velocity P-wave (km/s) = 6.01285 6.30354 6.15991
#
# Compressibility (1/GPa) = 0.02788562
#
# Stress axis : x y z
#
# Youngs Moduli (GPa) = 106.46394 47.60095 75.13466
#
# Poissons Ratio (x) = 0.15954 0.15096
# Poissons Ratio (y) = 0.35682 0.19171
# Poissons Ratio (z) = 0.21390 0.12146
#
# Static dielectric constant tensor:
#      x y z
#    x 3.985490 0.000000 0.000000 
#    y 0.000000 3.516790 0.000000 
#    z 0.000000 0.000000 3.739410 
# 
# 
# High freq. dielectric constant tensor:
#      x y z
#    x 1.816190 0.000000 0.000000 
#    y 0.000000 1.779620 0.000000 
#    z 0.000000 0.000000 1.813060 
# 
# From -- ./inp_files/4535.got.cif
#   From: 2010.03.12/outbox.cif.g09.slc.cpg/sg57_3_cif.got.tgz:4535.got - 2010.04.16 15:48:40.
