data_PCOD8231681
_publ_section_title
;
Structure prediction by ZEFSAII (Michael W. Deem and Ramdas Pophale) SiO2 
 PCOD8231681
Probable space group: P B C M
;
_chemical_formula_sum "Si O2"
_cell_formula_units_Z 64
_cell_length_a 20.114383
_cell_length_b 19.302407
_cell_length_c 8.551370
_cell_angle_alpha 90.000000
_cell_angle_beta 90.000000
_cell_angle_gamma 90.000000
_cell_volume 3320.120772
_symmetry_space_group_name_H-M "P B C M"
_symmetry_group_IT_number 57
_symmetry_cell_setting 'orthorhombic'
loop_
_space_group_symop_operation_xyz
x,y,z
-x,-y,1/2+z
x,1/2-y,-z
-x,1/2+y,1/2-z
-x,-y,-z
x,y,1/2-z
-x,1/2+y,z
x,1/2-y,1/2+z
loop_
_atom_site_type_symbol
_atom_site_label
_atom_site_fract_x
_atom_site_fract_y
_atom_site_fract_z
Si Si1 0.383770 0.672329 0.935394
Si Si2 0.264554 0.586954 0.067881
Si Si3 0.671995 0.672431 0.564551
Si Si4 0.150796 0.822325 0.066908
Si Si5 0.965282 0.098085 0.067981
Si Si6 0.904980 0.549909 0.568687
Si Si7 0.471947 0.175227 0.931358
Si Si8 0.236309 0.442854 0.931653
O O1 0.369996 0.672909 0.750000
O O2 0.457330 0.640177 0.977670
O O3 0.375015 0.750000 0.000000
O O4 0.333624 0.621470 0.021201
O O5 0.250209 0.598632 0.250000
O O6 0.204393 0.619057 0.970032
O O7 0.267272 0.505580 0.031496
O O8 0.678030 0.750000 0.500000
O O9 0.684670 0.672052 0.750000
O O10 0.598369 0.639525 0.521830
O O11 0.726279 0.627006 0.477526
O O12 0.140070 0.817155 0.250000
O O13 0.178112 0.750000 0.000000
O O14 0.080158 0.838338 0.986659
O O15 0.981069 0.103505 0.250000
O O16 0.926109 0.028012 0.025982
O O17 0.034919 0.101368 0.975773
O O18 0.887111 0.557825 0.750000
O O19 0.841112 0.569082 0.467238
O O20 0.472034 0.186939 0.750000
O O21 0.472411 0.250000 0.000000
O O22 0.246171 0.459014 0.750000
#
# Coordination Sequence:
#
# PCOD8231681 Si02
#       8
#     8   8   8   8   8   8   8   8
#     4  10  19  34  55  83 115 152 195 240 287 340
#     4  12  24  39  56  81 115 154 197 242 290 343
#     4  10  20  38  62  89 117 148 187 235 290 349
#     4  12  24  39  59  84 118 158 198 242 291 343
#     4  10  20  36  59  86 115 147 190 235 280 334
#     4  10  20  36  60  86 115 149 187 232 282 337
#     4   8  16  31  55  82 111 146 188 234 283 341
#     4  12  24  39  60  87 117 153 193 238 290 346
#
# _framework density 19.276406000000001
#
# number of rings (size 3 to 8) (size 9 to 14) (size 15 to 20)
#    0.000    1.500    1.250    5.250    0.000    2.000 
#    0.000    1.250    0.000    0.000    0.000    0.000 
#    0.000    0.000    0.000    0.000    0.000    0.000 
#
# Total GULP energy -793458.616214 kJ/mol
# GULP energy per Si atom -12397.790878 kJ/mol
# Density = 1.923253 g / cm^3
# Si number density = 19.276406 Si / 1000 Ang^3
#
#
#
# Elastic Constant Matrix: (Units=GPa)
#
#
# Indices 1 2 3 4 5 6 
#
# 1 129.4235 40.6084 35.8884 0.0000 0.0000 0.0000
# 2 40.6084 68.8587 17.6792 0.0000 0.0000 0.0000
# 3 35.8884 17.6792 67.3848 0.0000 0.0000 0.0000
# 4 0.0000 0.0000 0.0000 29.1180 0.0000 0.0000
# 5 0.0000 0.0000 0.0000 0.0000 29.8967 0.0000
# 6 0.0000 0.0000 0.0000 0.0000 0.0000 23.0643
#
#
#
# Elastic Compliance Matrix: (Units=1/GPa)
#
#
# Indices 1 2 3 4 5 6 
#
# 1 0.010509 -0.005104 -0.004258 0.000000 0.000000 0.000000
# 2 -0.005104 0.018051 -0.002017 0.000000 0.000000 0.000000
# 3 -0.004258 -0.002017 0.017637 0.000000 0.000000 0.000000
# 4 0.000000 0.000000 0.000000 0.034343 0.000000 0.000000
# 5 0.000000 0.000000 0.000000 0.000000 0.033448 0.000000
# 6 0.000000 0.000000 0.000000 0.000000 0.000000 0.043357
#
#
# Mechanical properties :
#
#
# Convention : Reuss Voigt Hill
#
# Bulk Modulus (GPa) = 42.66603 50.44654 46.55628
# Shear Modulus (GPa) = 26.60766 27.84855 27.22811
#
# Velocity S-wave (km/s) = 3.71930 3.80504 3.76241
# Velocity P-wave (km/s) = 6.37386 6.74769 6.56344
#
# Compressibility (1/GPa) = 0.02343785
#
# Stress axis : x y z
#
# Youngs Moduli (GPa) = 95.15903 55.39995 56.69897
#
# Poissons Ratio (x) = 0.28277 0.24141
# Poissons Ratio (y) = 0.48571 0.11438
# Poissons Ratio (z) = 0.40516 0.11176
#
# Static dielectric constant tensor:
#      x y z
#    x 3.952510 0.000000 0.000000 
#    y 0.000000 3.369150 0.000000 
#    z 0.000000 0.000000 3.553960 
# 
# 
# High freq. dielectric constant tensor:
#      x y z
#    x 1.768380 0.000000 0.000000 
#    y 0.000000 1.716400 0.000000 
#    z 0.000000 0.000000 1.765300 
# 
# From -- ./inp_files/7144.got.cif
#   From: 2010.03.12/outbox.cif.g09.slc.cpg/sg57_4_cif.got.tgz:7144.got - 2010.04.16 15:48:40.
