data_PCOD8231958
_publ_section_title
;
Structure prediction by ZEFSAII (Michael W. Deem and Ramdas Pophale) SiO2 
 PCOD8231958
Probable space group: P B C M
;
_chemical_formula_sum "Si O2"
_cell_formula_units_Z 56
_cell_length_a 14.747239
_cell_length_b 8.868853
_cell_length_c 21.678962
_cell_angle_alpha 90.000000
_cell_angle_beta 90.000000
_cell_angle_gamma 90.000000
_cell_volume 2835.415175
_symmetry_space_group_name_H-M "P B C M"
_symmetry_group_IT_number 57
_symmetry_cell_setting 'orthorhombic'
loop_
_space_group_symop_operation_xyz
x,y,z
-x,-y,1/2+z
x,1/2-y,-z
-x,1/2+y,1/2-z
-x,-y,-z
x,y,1/2-z
-x,1/2+y,z
x,1/2-y,1/2+z
loop_
_atom_site_type_symbol
_atom_site_label
_atom_site_fract_x
_atom_site_fract_y
_atom_site_fract_z
Si Si1 0.599439 0.929483 0.000294
Si Si2 0.120358 0.571514 0.321263
Si Si3 0.697101 0.972055 0.126387
Si Si4 0.236036 0.330939 0.678891
Si Si5 0.382932 0.515963 0.868403
Si Si6 0.044733 0.254773 0.679800
Si Si7 0.451363 0.830778 0.820990
O O1 0.659497 0.989502 0.057149
O O2 0.592677 0.750000 0.000000
O O3 0.500000 0.000000 0.000000
O O4 0.647145 0.992929 0.938974
O O5 0.150940 0.598375 0.250000
O O6 0.208866 0.563288 0.364556
O O7 0.060690 0.421186 0.327137
O O8 0.052470 0.698612 0.349661
O O9 0.624138 0.040392 0.173591
O O10 0.709643 0.797018 0.141775
O O11 0.230093 0.279686 0.750000
O O12 0.291200 0.487143 0.671403
O O13 0.133160 0.343613 0.652718
O O14 0.420894 0.681989 0.857492
O O15 0.456183 0.389357 0.850588
O O16 0.033432 0.307676 0.750000
O O17 0.467859 0.788704 0.750000
#
# Coordination Sequence:
#
# PCOD8231958 Si02
#       7
#     8   8   8   8   8   8   8
#     4  12  24  43  62  83 113 159 214 251 289 347
#     4   9  17  33  56  88 119 154 193 241 303 359
#     4  11  22  37  60  85 119 157 200 245 293 354
#     4  10  19  36  57  85 117 153 194 244 301 356
#     4  12  24  39  57  83 116 156 202 245 294 354
#     4   8  16  29  52  80 115 150 186 232 293 361
#     4  12  24  38  57  87 120 153 188 245 310 364
#
# _framework density 19.750194
#
# number of rings (size 3 to 8) (size 9 to 14) (size 15 to 20)
#    0.000    1.429    2.857    5.143    0.000    1.143 
#    0.000    2.857    0.000    0.857    0.000    0.000 
#    0.000    0.000    0.000    0.000    0.000    0.000 
#
# Total GULP energy -694212.670124 kJ/mol
# GULP energy per Si atom -12396.654824 kJ/mol
# Density = 1.970524 g / cm^3
# Si number density = 19.750194 Si / 1000 Ang^3
#
#
#
# Elastic Constant Matrix: (Units=GPa)
#
#
# Indices 1 2 3 4 5 6 
#
# 1 100.5806 13.1789 49.3699 0.0000 0.0000 0.0000
# 2 13.1789 34.9011 25.6127 0.0000 0.0000 0.0000
# 3 49.3699 25.6127 100.2923 0.0000 0.0000 0.0000
# 4 0.0000 0.0000 0.0000 25.0356 0.0000 0.0000
# 5 0.0000 0.0000 0.0000 0.0000 24.6027 0.0000
# 6 0.0000 0.0000 0.0000 0.0000 0.0000 39.5329
#
#
#
# Elastic Compliance Matrix: (Units=1/GPa)
#
#
# Indices 1 2 3 4 5 6 
#
# 1 0.013112 -0.000264 -0.006387 0.000000 0.000000 0.000000
# 2 -0.000264 0.035266 -0.008876 0.000000 0.000000 0.000000
# 3 -0.006387 -0.008876 0.015382 0.000000 0.000000 0.000000
# 4 0.000000 0.000000 0.000000 0.039943 0.000000 0.000000
# 5 0.000000 0.000000 0.000000 0.000000 0.040646 0.000000
# 6 0.000000 0.000000 0.000000 0.000000 0.000000 0.025295
#
#
# Mechanical properties :
#
#
# Convention : Reuss Voigt Hill
#
# Bulk Modulus (GPa) = 30.57622 45.78856 38.18239
# Shear Modulus (GPa) = 23.62941 27.67509 25.65225
#
# Velocity S-wave (km/s) = 3.46267 3.74740 3.60785
# Velocity P-wave (km/s) = 5.61266 6.47751 6.06053
#
# Compressibility (1/GPa) = 0.03270515
#
# Stress axis : x y z
#
# Youngs Moduli (GPa) = 76.26637 28.35581 65.01186
#
# Poissons Ratio (x) = 0.00748 0.41524
# Poissons Ratio (y) = 0.02013 0.57707
# Poissons Ratio (z) = 0.48712 0.25170
#
# Static dielectric constant tensor:
#      x y z
#    x 3.826520 0.000000 0.000000 
#    y 0.000000 3.542450 0.000000 
#    z 0.000000 0.000000 3.583490 
# 
# 
# High freq. dielectric constant tensor:
#      x y z
#    x 1.780070 0.000000 0.000000 
#    y 0.000000 1.768380 0.000000 
#    z 0.000000 0.000000 1.738060 
# 
# From -- ./inp_files/25377.got.cif
#   From: 2010.03.12/outbox.cif.g09.slc.cpg/sg57_13_cif.got.tgz:25377.got - 2010.04.16 15:48:40.
