data_PCOD8231644
_publ_section_title
;
Structure prediction by ZEFSAII (Michael W. Deem and Ramdas Pophale) SiO2 
 PCOD8231644
Probable space group: P B C M
;
_chemical_formula_sum "Si O2"
_cell_formula_units_Z 48
_cell_length_a 15.497814
_cell_length_b 8.894096
_cell_length_c 16.570435
_cell_angle_alpha 90.000000
_cell_angle_beta 90.000000
_cell_angle_gamma 90.000000
_cell_volume 2284.052944
_symmetry_space_group_name_H-M "P B C M"
_symmetry_group_IT_number 57
_symmetry_cell_setting 'orthorhombic'
loop_
_space_group_symop_operation_xyz
x,y,z
-x,-y,1/2+z
x,1/2-y,-z
-x,1/2+y,1/2-z
-x,-y,-z
x,y,1/2-z
-x,1/2+y,z
x,1/2-y,1/2+z
loop_
_atom_site_type_symbol
_atom_site_label
_atom_site_fract_x
_atom_site_fract_y
_atom_site_fract_z
Si Si1 0.434710 0.979246 0.343029
Si Si2 0.748371 0.524280 0.845478
Si Si3 0.263126 0.816965 0.345898
Si Si4 0.923209 0.681891 0.654488
Si Si5 0.906777 0.018618 0.846555
Si Si6 0.589046 0.799377 0.091528
O O1 0.449233 0.937010 0.250000
O O2 0.348790 0.899718 0.377851
O O3 0.516259 0.924031 0.393702
O O4 0.426699 0.157918 0.350505
O O5 0.732910 0.537198 0.750000
O O6 0.736398 0.354271 0.876462
O O7 0.843653 0.576753 0.870613
O O8 0.681691 0.631003 0.890387
O O9 0.259794 0.822035 0.250000
O O10 0.179538 0.902895 0.380739
O O11 0.930139 0.692368 0.750000
O O12 0.010792 0.609510 0.619785
O O13 0.910637 0.849141 0.619059
O O14 0.906409 0.018125 0.750000
O O15 0.585327 0.750000 0.000000
#
# Coordination Sequence:
#
# PCOD8231644 Si02
#       6
#     8   8   8   8   8   8
#     4  11  22  39  61  84 110 147 190 234 282 342
#     4  10  19  34  54  79 109 147 190 232 278 337
#     4   9  18  31  52  80 110 141 182 232 283 335
#     4   9  16  25  44  73 110 148 184 228 281 335
#     4   9  15  25  41  72 111 143 176 226 286 337
#     4  12  25  40  58  84 115 148 185 234 288 340
#
# _framework density 21.015274000000002
#
# number of rings (size 3 to 8) (size 9 to 14) (size 15 to 20)
#    0.000    2.000    0.000    5.000    0.000    8.000 
#    0.000    0.000    0.000    0.000    0.000   11.667 
#    0.000    0.000    0.000    0.000    0.000    0.000 
#
# Total GULP energy -595380.059474 kJ/mol
# GULP energy per Si atom -12403.751239 kJ/mol
# Density = 2.096744 g / cm^3
# Si number density = 21.015274 Si / 1000 Ang^3
#
#
#
# Elastic Constant Matrix: (Units=GPa)
#
#
# Indices 1 2 3 4 5 6 
#
# 1 104.3485 10.3626 12.4894 0.0000 0.0000 0.0000
# 2 10.3626 109.4448 0.0724 0.0000 0.0000 0.0000
# 3 12.4894 0.0724 25.4488 0.0000 0.0000 0.0000
# 4 0.0000 0.0000 0.0000 9.0896 0.0000 0.0000
# 5 0.0000 0.0000 0.0000 0.0000 -5.6894 0.0000
# 6 0.0000 0.0000 0.0000 0.0000 0.0000 46.0695
#
#
#
# Elastic Compliance Matrix: (Units=1/GPa)
#
#
# Indices 1 2 3 4 5 6 
#
# 1 0.010283 -0.000970 -0.005044 0.000000 0.000000 0.000000
# 2 -0.000970 0.009229 0.000450 0.000000 0.000000 0.000000
# 3 -0.005044 0.000450 0.041769 0.000000 0.000000 0.000000
# 4 0.000000 0.000000 0.000000 0.110016 0.000000 0.000000
# 5 0.000000 0.000000 0.000000 0.000000 -0.175765 0.000000
# 6 0.000000 0.000000 0.000000 0.000000 0.000000 0.021706
#
#
# Mechanical properties :
#
#
# Convention : Reuss Voigt Hill
#
# Bulk Modulus (GPa) = 19.93940 31.67679 25.80809
# Shear Modulus (GPa) = 110.90485 24.31512 67.60998
#
# Velocity S-wave (km/s) = 7.27241 3.40519 5.67818
# Velocity P-wave (km/s) = 8.94573 5.52869 7.43614
#
# Compressibility (1/GPa) = 0.05015196
#
# Stress axis : x y z
#
# Youngs Moduli (GPa) = 97.24461 108.35881 23.94137
#
# Poissons Ratio (x) = 0.10514 0.12076
# Poissons Ratio (y) = 0.09436 -0.01077
# Poissons Ratio (z) = 0.49050 -0.04876
#
# Static dielectric constant tensor:
#      x y z
#    x 4.005560 0.000000 0.000000 
#    y 0.000000 4.036460 0.000000 
#    z 0.000000 0.000000 3.158450 
# 
# 
# High freq. dielectric constant tensor:
#      x y z
#    x 1.841590 0.000000 0.000000 
#    y 0.000000 1.841620 0.000000 
#    z 0.000000 0.000000 1.763320 
# 
# From -- ./inp_files/22390.got.cif
#   From: 2010.03.12/outbox.cif.g09.slc.cpg/sg57_12_cif.got.tgz:22390.got - 2010.04.16 15:48:40.
