data_PCOD8231747
_publ_section_title
;
Structure prediction by ZEFSAII (Michael W. Deem and Ramdas Pophale) SiO2 
 PCOD8231747
Probable space group: P B C M
;
_chemical_formula_sum "Si O2"
_cell_formula_units_Z 64
_cell_length_a 19.944037
_cell_length_b 19.798234
_cell_length_c 8.800906
_cell_angle_alpha 90.000000
_cell_angle_beta 90.000000
_cell_angle_gamma 90.000000
_cell_volume 3475.096801
_symmetry_space_group_name_H-M "P B C M"
_symmetry_group_IT_number 57
_symmetry_cell_setting 'orthorhombic'
loop_
_space_group_symop_operation_xyz
x,y,z
-x,-y,1/2+z
x,1/2-y,-z
-x,1/2+y,1/2-z
-x,-y,-z
x,y,1/2-z
-x,1/2+y,z
x,1/2-y,1/2+z
loop_
_atom_site_type_symbol
_atom_site_label
_atom_site_fract_x
_atom_site_fract_y
_atom_site_fract_z
Si Si1 0.766390 0.930686 0.425424
Si Si2 0.582430 0.059638 0.927455
Si Si3 0.944200 0.406229 0.073984
Si Si4 0.267038 0.927342 0.071130
Si Si5 0.548678 0.589281 0.071285
Si Si6 0.914823 0.542917 0.577313
Si Si7 0.327890 0.176926 0.430376
Si Si8 0.834626 0.322154 0.929269
O O1 0.744658 0.938511 0.250000
O O2 0.845913 0.916412 0.439145
O O3 0.731747 0.867275 0.502265
O O4 0.747527 0.997532 0.516219
O O5 0.569457 0.060334 0.750000
O O6 0.655370 0.089571 0.966640
O O7 0.576315 0.982768 0.989382
O O8 0.524787 0.105486 0.003773
O O9 0.930552 0.391816 0.250000
O O10 0.023514 0.407439 0.034222
O O11 0.912162 0.478421 0.032376
O O12 0.908409 0.347021 0.979631
O O13 0.252439 0.922687 0.250000
O O14 0.221447 0.874592 0.982949
O O15 0.542413 0.588468 0.250000
O O16 0.600678 0.646356 0.017957
O O17 0.924915 0.516332 0.750000
O O18 0.321162 0.250000 0.500000
O O19 0.320801 0.179055 0.250000
O O20 0.832234 0.316190 0.750000
O O21 0.818136 0.250000 0.000000
#
# Coordination Sequence:
#
# PCOD8231747 Si02
#       8
#     8   8   8   8   8   8   8   8
#     4  11  21  35  58  88 118 153 194 240 288 344
#     4   9  18  33  55  84 114 142 182 233 283 336
#     4  10  19  34  57  84 115 150 186 234 288 339
#     4  11  21  37  59  87 119 153 192 240 291 343
#     4   9  18  34  54  80 112 146 185 233 283 337
#     4   9  19  34  55  86 118 146 188 237 283 338
#     4  11  23  40  58  82 116 154 196 240 291 352
#     4  12  25  41  59  84 116 154 198 241 293 355
#
# _framework density 18.416753
#
# number of rings (size 3 to 8) (size 9 to 14) (size 15 to 20)
#    0.000    1.750    2.500    2.625    0.000    3.000 
#    0.000    1.250    0.000    1.500    0.000    0.000 
#    0.000    0.000    0.000    0.000    0.000    0.000 
#
# Total GULP energy -793684.357647 kJ/mol
# GULP energy per Si atom -12401.318088 kJ/mol
# Density = 1.837484 g / cm^3
# Si number density = 18.416753 Si / 1000 Ang^3
#
#
#
# Elastic Constant Matrix: (Units=GPa)
#
#
# Indices 1 2 3 4 5 6 
#
# 1 124.3988 52.7536 47.0206 0.0000 0.0000 0.0000
# 2 52.7536 92.6784 34.2627 0.0000 0.0000 0.0000
# 3 47.0206 34.2627 89.3756 0.0000 0.0000 0.0000
# 4 0.0000 0.0000 0.0000 31.1725 0.0000 0.0000
# 5 0.0000 0.0000 0.0000 0.0000 30.7593 0.0000
# 6 0.0000 0.0000 0.0000 0.0000 0.0000 25.5499
#
#
#
# Elastic Compliance Matrix: (Units=1/GPa)
#
#
# Indices 1 2 3 4 5 6 
#
# 1 0.011834 -0.005167 -0.004245 0.000000 0.000000 0.000000
# 2 -0.005167 0.014827 -0.002966 0.000000 0.000000 0.000000
# 3 -0.004245 -0.002966 0.014559 0.000000 0.000000 0.000000
# 4 0.000000 0.000000 0.000000 0.032080 0.000000 0.000000
# 5 0.000000 0.000000 0.000000 0.000000 0.032510 0.000000
# 6 0.000000 0.000000 0.000000 0.000000 0.000000 0.039139
#
#
# Mechanical properties :
#
#
# Convention : Reuss Voigt Hill
#
# Bulk Modulus (GPa) = 60.73523 63.83630 62.28576
# Shear Modulus (GPa) = 28.53964 28.99073 28.76519
#
# Velocity S-wave (km/s) = 3.94084 3.97186 3.95638
# Velocity P-wave (km/s) = 7.33190 7.46804 7.40028
#
# Compressibility (1/GPa) = 0.01646491
#
# Stress axis : x y z
#
# Youngs Moduli (GPa) = 84.49936 67.44226 68.68483
#
# Poissons Ratio (x) = 0.34846 0.29159
# Poissons Ratio (y) = 0.43659 0.20372
# Poissons Ratio (z) = 0.35873 0.20003
#
# Static dielectric constant tensor:
#      x y z
#    x 3.785240 0.000000 0.000000 
#    y 0.000000 3.226290 0.000000 
#    z 0.000000 0.000000 3.603200 
# 
# 
# High freq. dielectric constant tensor:
#      x y z
#    x 1.731050 0.000000 0.000000 
#    y 0.000000 1.682400 0.000000 
#    z 0.000000 0.000000 1.724050 
# 
# From -- ./inp_files/8570.got.cif
#   From: 2010.03.12/outbox.cif.g09.slc.cpg/sg57_5_cif.got.tgz:8570.got - 2010.04.16 15:48:40.
