data_PCOD8231682
_publ_section_title
;
Structure prediction by ZEFSAII (Michael W. Deem and Ramdas Pophale) SiO2 
 PCOD8231682
Probable space group: P B C M
;
_chemical_formula_sum "Si O2"
_cell_formula_units_Z 64
_cell_length_a 20.403461
_cell_length_b 19.590584
_cell_length_c 8.985515
_cell_angle_alpha 90.000000
_cell_angle_beta 90.000000
_cell_angle_gamma 90.000000
_cell_volume 3591.651567
_symmetry_space_group_name_H-M "P B C M"
_symmetry_group_IT_number 57
_symmetry_cell_setting 'orthorhombic'
loop_
_space_group_symop_operation_xyz
x,y,z
-x,-y,1/2+z
x,1/2-y,-z
-x,1/2+y,1/2-z
-x,-y,-z
x,y,1/2-z
-x,1/2+y,z
x,1/2-y,1/2+z
loop_
_atom_site_type_symbol
_atom_site_label
_atom_site_fract_x
_atom_site_fract_y
_atom_site_fract_z
Si Si1 0.868713 0.817315 0.924242
Si Si2 0.818352 0.962851 0.574415
Si Si3 0.686130 0.540679 0.923024
Si Si4 0.556392 0.455772 0.575555
Si Si5 0.372052 0.182323 0.576571
Si Si6 0.061642 0.963986 0.925594
Si Si7 0.523837 0.180561 0.574136
Si Si8 0.017622 0.683343 0.422931
O O1 0.865467 0.805865 0.750000
O O2 0.828130 0.883921 0.972207
O O3 0.943261 0.828349 0.979738
O O4 0.837760 0.750000 0.000000
O O5 0.826233 0.973381 0.750000
O O6 0.746881 0.986105 0.519960
O O7 0.871123 0.009251 0.492466
O O8 0.705588 0.541402 0.750000
O O9 0.625773 0.490986 0.952472
O O10 0.667572 0.616544 0.979009
O O11 0.500000 0.500000 0.500000
O O12 0.540458 0.449454 0.750000
O O13 0.562215 0.381917 0.500165
O O14 0.343234 0.250000 0.500000
O O15 0.364090 0.192949 0.750000
O O16 0.447676 0.170964 0.534231
O O17 0.058324 0.977660 0.750000
O O18 0.059627 0.883404 0.962078
O O19 0.000000 0.000000 0.000000
O O20 0.550607 0.250000 0.500000
O O21 0.536656 0.181946 0.750000
O O22 0.049132 0.750000 0.500000
O O23 0.017528 0.698342 0.250000
#
# Coordination Sequence:
#
# PCOD8231682 Si02
#       8
#     8   8   8   8   8   8   8   8
#     4   9  18  33  50  74 108 142 181 221 260 316
#     4  11  23  38  54  79 111 145 188 230 272 327
#     4  10  22  39  54  76 111 149 187 227 277 330
#     4  11  21  36  58  83 112 146 187 235 282 333
#     4   9  18  33  51  75 109 146 184 224 266 324
#     4  11  21  36  58  83 111 144 182 227 274 323
#     4  10  19  34  55  84 114 144 183 228 280 335
#     4   9  18  33  53  80 110 138 175 220 268 319
#
# _framework density 17.819101
#
# number of rings (size 3 to 8) (size 9 to 14) (size 15 to 20)
#    0.000    2.000    2.500    1.500    0.000    4.500 
#    0.000    2.500    0.000    0.750    0.000    3.500 
#    0.000    0.000    0.000    0.000    0.000    0.000 
#
# Total GULP energy -793729.646639 kJ/mol
# GULP energy per Si atom -12402.025729 kJ/mol
# Density = 1.777854 g / cm^3
# Si number density = 17.819101 Si / 1000 Ang^3
#
#
#
# Elastic Constant Matrix: (Units=GPa)
#
#
# Indices 1 2 3 4 5 6 
#
# 1 86.1974 57.0644 47.9702 0.0000 0.0000 0.0000
# 2 57.0644 135.1123 65.8286 0.0000 0.0000 0.0000
# 3 47.9702 65.8286 83.3448 0.0000 0.0000 0.0000
# 4 0.0000 0.0000 0.0000 36.6048 0.0000 0.0000
# 5 0.0000 0.0000 0.0000 0.0000 26.2229 0.0000
# 6 0.0000 0.0000 0.0000 0.0000 0.0000 21.4224
#
#
#
# Elastic Compliance Matrix: (Units=1/GPa)
#
#
# Indices 1 2 3 4 5 6 
#
# 1 0.018463 -0.004259 -0.007262 0.000000 0.000000 0.000000
# 2 -0.004259 0.013014 -0.007827 0.000000 0.000000 0.000000
# 3 -0.007262 -0.007827 0.022360 0.000000 0.000000 0.000000
# 4 0.000000 0.000000 0.000000 0.027319 0.000000 0.000000
# 5 0.000000 0.000000 0.000000 0.000000 0.038135 0.000000
# 6 0.000000 0.000000 0.000000 0.000000 0.000000 0.046680
#
#
# Mechanical properties :
#
#
# Convention : Reuss Voigt Hill
#
# Bulk Modulus (GPa) = 66.05352 71.82009 68.93681
# Shear Modulus (GPa) = 23.84200 25.76943 24.80571
#
# Velocity S-wave (km/s) = 3.66184 3.80698 3.73511
# Velocity P-wave (km/s) = 7.41810 7.72766 7.57446
#
# Compressibility (1/GPa) = 0.01513924
#
# Stress axis : x y z
#
# Youngs Moduli (GPa) = 54.16357 76.84223 44.72214
#
# Poissons Ratio (x) = 0.32730 0.32478
# Poissons Ratio (y) = 0.23071 0.35004
# Poissons Ratio (z) = 0.39334 0.60145
#
# Static dielectric constant tensor:
#      x y z
#    x 3.104300 0.000000 0.000000 
#    y 0.000000 3.564430 0.000000 
#    z 0.000000 0.000000 3.339490 
# 
# 
# High freq. dielectric constant tensor:
#      x y z
#    x 1.663030 0.000000 0.000000 
#    y 0.000000 1.696460 0.000000 
#    z 0.000000 0.000000 1.695780 
# 
# From -- ./inp_files/7183.got.cif
#   From: 2010.03.12/outbox.cif.g09.slc.cpg/sg57_4_cif.got.tgz:7183.got - 2010.04.16 15:48:40.
