data_PCOD8231933
_publ_section_title
;
Structure prediction by ZEFSAII (Michael W. Deem and Ramdas Pophale) SiO2 
 PCOD8231933
Probable space group: P B C M
;
_chemical_formula_sum "Si O2"
_cell_formula_units_Z 48
_cell_length_a 10.130825
_cell_length_b 28.278496
_cell_length_c 8.598243
_cell_angle_alpha 90.000000
_cell_angle_beta 90.000000
_cell_angle_gamma 90.000000
_cell_volume 2463.263297
_symmetry_space_group_name_H-M "P B C M"
_symmetry_group_IT_number 57
_symmetry_cell_setting 'orthorhombic'
loop_
_space_group_symop_operation_xyz
x,y,z
-x,-y,1/2+z
x,1/2-y,-z
-x,1/2+y,1/2-z
-x,-y,-z
x,y,1/2-z
-x,1/2+y,z
x,1/2-y,1/2+z
loop_
_atom_site_type_symbol
_atom_site_label
_atom_site_fract_x
_atom_site_fract_y
_atom_site_fract_z
Si Si1 0.228478 0.606509 0.432526
Si Si2 0.730557 0.894991 0.432959
Si Si3 0.353718 0.798929 0.934055
Si Si4 0.022829 0.051811 0.065589
Si Si5 0.511732 0.448265 0.932989
Si Si6 0.343162 0.200495 0.065917
O O1 0.215143 0.613048 0.250000
O O2 0.266482 0.657909 0.503138
O O3 0.341374 0.568733 0.471699
O O4 0.091218 0.586768 0.501129
O O5 0.750754 0.897528 0.250000
O O6 0.837151 0.928455 0.513493
O O7 0.587227 0.913426 0.480240
O O8 0.744682 0.841149 0.491651
O O9 0.347152 0.797485 0.750000
O O10 0.505047 0.806082 0.987464
O O11 0.295761 0.750000 0.000000
O O12 0.015890 0.048884 0.250000
O O13 0.000000 0.000000 0.000000
O O14 0.481270 0.447072 0.750000
O O15 0.500000 0.500000 0.000000
O O16 0.327240 0.199066 0.250000
O O17 0.288192 0.250000 0.000000
#
# Coordination Sequence:
#
# PCOD8231933 Si02
#       6
#     8   8   8   8   8   8
#     4   9  19  37  59  82 113 151 190 236 297 359
#     4  12  24  39  58  86 121 161 206 246 292 355
#     4   9  17  33  56  85 116 147 183 231 290 352
#     4  11  23  41  63  85 116 159 201 248 307 364
#     4  11  21  37  59  87 117 149 193 250 306 357
#     4  10  19  35  60  89 121 154 193 245 302 357
#
# _framework density 19.486346000000001
#
# number of rings (size 3 to 8) (size 9 to 14) (size 15 to 20)
#    0.000    1.667    1.667    4.000    0.000    2.000 
#    0.000    5.000    0.000    2.000    0.000    0.000 
#    0.000    0.000    0.000    0.000    0.000    0.000 
#
# Total GULP energy -595284.376472 kJ/mol
# GULP energy per Si atom -12401.757843 kJ/mol
# Density = 1.944199 g / cm^3
# Si number density = 19.486346 Si / 1000 Ang^3
#
#
#
# Elastic Constant Matrix: (Units=GPa)
#
#
# Indices 1 2 3 4 5 6 
#
# 1 54.8377 20.7847 19.0535 0.0000 0.0000 0.0000
# 2 20.7847 145.7269 36.7607 0.0000 0.0000 0.0000
# 3 19.0535 36.7607 64.2528 0.0000 0.0000 0.0000
# 4 0.0000 0.0000 0.0000 37.7360 0.0000 0.0000
# 5 0.0000 0.0000 0.0000 0.0000 19.6417 0.0000
# 6 0.0000 0.0000 0.0000 0.0000 0.0000 33.4567
#
#
#
# Elastic Compliance Matrix: (Units=1/GPa)
#
#
# Indices 1 2 3 4 5 6 
#
# 1 0.020659 -0.001638 -0.005189 0.000000 0.000000 0.000000
# 2 -0.001638 0.008149 -0.004177 0.000000 0.000000 0.000000
# 3 -0.005189 -0.004177 0.019492 0.000000 0.000000 0.000000
# 4 0.000000 0.000000 0.000000 0.026500 0.000000 0.000000
# 5 0.000000 0.000000 0.000000 0.000000 0.050912 0.000000
# 6 0.000000 0.000000 0.000000 0.000000 0.000000 0.029889
#
#
# Mechanical properties :
#
#
# Convention : Reuss Voigt Hill
#
# Bulk Modulus (GPa) = 38.03277 46.44616 42.23946
# Shear Modulus (GPa) = 26.82773 30.71477 28.77125
#
# Velocity S-wave (km/s) = 3.71448 3.97447 3.84667
# Velocity P-wave (km/s) = 6.16088 6.70439 6.43837
#
# Compressibility (1/GPa) = 0.02629312
#
# Stress axis : x y z
#
# Youngs Moduli (GPa) = 48.40419 122.70917 51.30286
#
# Poissons Ratio (x) = 0.20094 0.26623
# Poissons Ratio (y) = 0.07926 0.21429
# Poissons Ratio (z) = 0.25119 0.51254
#
# Static dielectric constant tensor:
#      x y z
#    x 3.641250 0.000000 0.000000 
#    y 0.000000 4.166100 0.000000 
#    z 0.000000 0.000000 3.403200 
# 
# 
# High freq. dielectric constant tensor:
#      x y z
#    x 1.741080 0.000000 0.000000 
#    y 0.000000 1.780640 0.000000 
#    z 0.000000 0.000000 1.750040 
# 
# From -- ./inp_files/2119.got.cif
#   From: 2010.03.12/outbox.cif.g09.slc.cpg/sg57_2_cif.got.tgz:2119.got - 2010.04.16 15:48:40.
