data_PCOD8231757
_publ_section_title
;
Structure prediction by ZEFSAII (Michael W. Deem and Ramdas Pophale) SiO2 
 PCOD8231757
Probable space group: P B C M
;
_chemical_formula_sum "Si O2"
_cell_formula_units_Z 64
_cell_length_a 11.745639
_cell_length_b 30.625243
_cell_length_c 9.201853
_cell_angle_alpha 90.000000
_cell_angle_beta 90.000000
_cell_angle_gamma 90.000000
_cell_volume 3310.026595
_symmetry_space_group_name_H-M "P B C M"
_symmetry_group_IT_number 57
_symmetry_cell_setting 'orthorhombic'
loop_
_space_group_symop_operation_xyz
x,y,z
-x,-y,1/2+z
x,1/2-y,-z
-x,1/2+y,1/2-z
-x,-y,-z
x,y,1/2-z
-x,1/2+y,z
x,1/2-y,1/2+z
loop_
_atom_site_type_symbol
_atom_site_label
_atom_site_fract_x
_atom_site_fract_y
_atom_site_fract_z
Si Si1 0.243996 0.448604 0.080927
Si Si2 0.995817 0.079273 0.920062
Si Si3 0.009354 0.179080 0.915675
Si Si4 0.377409 0.375998 0.580017
Si Si5 0.218582 0.953560 0.582380
Si Si6 0.771065 0.706936 0.422301
Si Si7 0.638797 0.129817 0.080514
Si Si8 0.241874 0.792484 0.416730
O O1 0.253707 0.437111 0.250000
O O2 0.117256 0.438014 0.024301
O O3 0.272205 0.499118 0.048070
O O4 0.335072 0.419453 0.997855
O O5 0.981186 0.072078 0.750000
O O6 0.983935 0.129727 0.964126
O O7 0.897744 0.051730 0.995561
O O8 0.056204 0.180388 0.750000
O O9 0.894179 0.206382 0.929923
O O10 0.100306 0.199959 0.024008
O O11 0.363770 0.383879 0.750000
O O12 0.305475 0.333997 0.529262
O O13 0.507414 0.368204 0.535833
O O14 0.184544 0.949937 0.750000
O O15 0.312665 0.917781 0.539520
O O16 0.720278 0.750000 0.500000
O O17 0.770823 0.713854 0.250000
O O18 0.656349 0.140465 0.250000
O O19 0.705721 0.164662 0.986508
O O20 0.288423 0.750000 0.500000
O O21 0.281000 0.789785 0.250000
#
# Coordination Sequence:
#
# PCOD8231757 Si02
#       8
#     8   8   8   8   8   8   8   8
#     4  10  21  37  58  86 118 152 190 235 288 341
#     4  10  19  34  57  85 119 151 184 232 285 341
#     4  10  20  36  59  87 118 150 185 230 283 339
#     4  10  23  41  59  82 112 151 195 239 285 334
#     4  10  21  36  58  87 117 152 192 235 286 342
#     4  11  23  38  59  85 113 146 187 230 282 341
#     4  10  22  41  60  81 115 152 193 242 285 332
#     4  11  23  39  60  87 116 148 188 230 283 342
#
# _framework density 19.335190999999998
#
# number of rings (size 3 to 8) (size 9 to 14) (size 15 to 20)
#    0.000    1.750    2.500    1.500    0.000    5.500 
#    0.000    1.250    0.000    0.000    0.000    0.000 
#    0.000    0.000    0.000    0.000    0.000    0.000 
#
# Total GULP energy -793909.558536 kJ/mol
# GULP energy per Si atom -12404.836852 kJ/mol
# Density = 1.929118 g / cm^3
# Si number density = 19.335191 Si / 1000 Ang^3
#
#
#
# Elastic Constant Matrix: (Units=GPa)
#
#
# Indices 1 2 3 4 5 6 
#
# 1 87.7745 34.1161 40.6346 0.0000 0.0000 0.0000
# 2 34.1161 125.8970 52.2162 0.0000 0.0000 0.0000
# 3 40.6346 52.2162 70.1261 0.0000 0.0000 0.0000
# 4 0.0000 0.0000 0.0000 35.2002 0.0000 0.0000
# 5 0.0000 0.0000 0.0000 0.0000 20.2980 0.0000
# 6 0.0000 0.0000 0.0000 0.0000 0.0000 11.8946
#
#
#
# Elastic Compliance Matrix: (Units=1/GPa)
#
#
# Indices 1 2 3 4 5 6 
#
# 1 0.015611 -0.000692 -0.008530 0.000000 0.000000 0.000000
# 2 -0.000692 0.011523 -0.008179 0.000000 0.000000 0.000000
# 3 -0.008530 -0.008179 0.025293 0.000000 0.000000 0.000000
# 4 0.000000 0.000000 0.000000 0.028409 0.000000 0.000000
# 5 0.000000 0.000000 0.000000 0.000000 0.049266 0.000000
# 6 0.000000 0.000000 0.000000 0.000000 0.000000 0.084072
#
#
# Mechanical properties :
#
#
# Convention : Reuss Voigt Hill
#
# Bulk Modulus (GPa) = 56.74125 59.74797 58.24461
# Shear Modulus (GPa) = 19.61935 23.93393 21.77664
#
# Velocity S-wave (km/s) = 3.18889 3.52212 3.35964
# Velocity P-wave (km/s) = 6.55503 6.89265 6.72596
#
# Compressibility (1/GPa) = 0.01762386
#
# Stress axis : x y z
#
# Youngs Moduli (GPa) = 64.05759 86.78466 39.53701
#
# Poissons Ratio (x) = 0.06009 0.33726
# Poissons Ratio (y) = 0.04435 0.32336
# Poissons Ratio (z) = 0.54643 0.70979
#
# Static dielectric constant tensor:
#      x y z
#    x 3.433820 0.000000 0.000000 
#    y 0.000000 3.718350 0.000000 
#    z 0.000000 0.000000 3.476760 
# 
# 
# High freq. dielectric constant tensor:
#      x y z
#    x 1.744210 0.000000 0.000000 
#    y 0.000000 1.768580 0.000000 
#    z 0.000000 0.000000 1.748350 
# 
# From -- ./inp_files/3846.got.cif
#   From: 2010.03.12/outbox.cif.g09.slc.cpg/sg57_2_cif.got.tgz:3846.got - 2010.04.16 15:48:40.
