data_PCOD8231250
_publ_section_title
;
Structure prediction by ZEFSAII (Michael W. Deem and Ramdas Pophale) SiO2 
 PCOD8231250
Probable space group: P B C M
;
_chemical_formula_sum "Si O2"
_cell_formula_units_Z 48
_cell_length_a 12.635321
_cell_length_b 22.665230
_cell_length_c 8.793446
_cell_angle_alpha 90.000000
_cell_angle_beta 90.000000
_cell_angle_gamma 90.000000
_cell_volume 2518.288667
_symmetry_space_group_name_H-M "P B C M"
_symmetry_group_IT_number 57
_symmetry_cell_setting 'orthorhombic'
loop_
_space_group_symop_operation_xyz
x,y,z
-x,-y,1/2+z
x,1/2-y,-z
-x,1/2+y,1/2-z
-x,-y,-z
x,y,1/2-z
-x,1/2+y,z
x,1/2-y,1/2+z
loop_
_atom_site_type_symbol
_atom_site_label
_atom_site_fract_x
_atom_site_fract_y
_atom_site_fract_z
Si Si1 0.401575 0.931909 0.572762
Si Si2 0.814349 0.886323 0.918027
Si Si3 0.894052 0.485811 0.081941
Si Si4 0.000254 0.187182 0.570490
Si Si5 0.810308 0.376591 0.924885
Si Si6 0.620453 0.934019 0.428152
O O1 0.431333 0.935295 0.750000
O O2 0.316203 0.878722 0.543727
O O3 0.503873 0.913341 0.477551
O O4 0.361609 0.997426 0.520051
O O5 0.808818 0.856481 0.750000
O O6 0.829153 0.955395 0.897583
O O7 0.911178 0.858418 0.012227
O O8 0.701281 0.885163 0.002039
O O9 0.911108 0.456464 0.250000
O O10 0.838202 0.443179 0.964189
O O11 0.000000 0.500000 0.000000
O O12 0.027318 0.250000 0.500000
O O13 0.006816 0.191378 0.750000
O O14 0.880426 0.168280 0.524600
O O15 0.836538 0.362524 0.750000
O O16 0.633586 0.928327 0.250000
#
# Coordination Sequence:
#
# PCOD8231250 Si02
#       6
#     8   8   8   8   8   8
#     4   9  19  33  51  79 117 156 189 227 275 334
#     4  11  22  36  56  82 116 152 189 231 281 337
#     4  11  21  31  50  80 115 150 185 227 279 342
#     4  12  26  43  62  83 110 145 191 238 289 340
#     4  11  21  36  57  82 116 151 189 232 282 338
#     4  10  19  32  52  81 117 155 192 229 275 333
#
# _framework density 19.060562000000001
#
# number of rings (size 3 to 8) (size 9 to 14) (size 15 to 20)
#    0.000    1.333    3.333    3.500    0.000    3.333 
#    0.000    0.000    0.000    1.000    0.000    2.333 
#    0.000    0.000    0.000    0.000    0.000    0.000 
#
# Total GULP energy -594759.487340 kJ/mol
# GULP energy per Si atom -12390.822653 kJ/mol
# Density = 1.901718 g / cm^3
# Si number density = 19.060562 Si / 1000 Ang^3
#
#
#
# Elastic Constant Matrix: (Units=GPa)
#
#
# Indices 1 2 3 4 5 6 
#
# 1 103.1931 16.8273 48.4830 0.0000 0.0000 0.0000
# 2 16.8273 44.6766 16.7853 0.0000 0.0000 0.0000
# 3 48.4830 16.7853 102.1416 0.0000 0.0000 0.0000
# 4 0.0000 0.0000 0.0000 25.8797 0.0000 0.0000
# 5 0.0000 0.0000 0.0000 0.0000 29.5238 0.0000
# 6 0.0000 0.0000 0.0000 0.0000 0.0000 10.3980
#
#
#
# Elastic Compliance Matrix: (Units=1/GPa)
#
#
# Indices 1 2 3 4 5 6 
#
# 1 0.012770 -0.002699 -0.005618 0.000000 0.000000 0.000000
# 2 -0.002699 0.024426 -0.002733 0.000000 0.000000 0.000000
# 3 -0.005618 -0.002733 0.012906 0.000000 0.000000 0.000000
# 4 0.000000 0.000000 0.000000 0.038640 0.000000 0.000000
# 5 0.000000 0.000000 0.000000 0.000000 0.033871 0.000000
# 6 0.000000 0.000000 0.000000 0.000000 0.000000 0.096172
#
#
# Mechanical properties :
#
#
# Convention : Reuss Voigt Hill
#
# Bulk Modulus (GPa) = 35.71082 46.02247 40.86664
# Shear Modulus (GPa) = 19.98238 24.35469 22.16854
#
# Velocity S-wave (km/s) = 3.24136 3.57845 3.41406
# Velocity P-wave (km/s) = 5.72579 6.42429 6.08507
#
# Compressibility (1/GPa) = 0.02800272
#
# Stress axis : x y z
#
# Youngs Moduli (GPa) = 78.30730 40.93915 77.48269
#
# Poissons Ratio (x) = 0.11050 0.43530
# Poissons Ratio (y) = 0.21136 0.21175
# Poissons Ratio (z) = 0.43993 0.11188
#
# Static dielectric constant tensor:
#      x y z
#    x 3.594420 0.000000 0.000000 
#    y 0.000000 3.162670 0.000000 
#    z 0.000000 0.000000 6.478350 
# 
# 
# High freq. dielectric constant tensor:
#      x y z
#    x 1.750380 0.000000 0.000000 
#    y 0.000000 1.690890 0.000000 
#    z 0.000000 0.000000 1.757010 
# 
# From -- ./inp_files/3096.got.cif
#   From: 2010.03.12/outbox.cif.g09.slc.cpg/sg57_2_cif.got.tgz:3096.got - 2010.04.16 15:48:40.
