data_PCOD8231841
_publ_section_title
;
Structure prediction by ZEFSAII (Michael W. Deem and Ramdas Pophale) SiO2 
 PCOD8231841
Probable space group: P B C M
;
_chemical_formula_sum "Si O2"
_cell_formula_units_Z 64
_cell_length_a 8.545944
_cell_length_b 21.922391
_cell_length_c 18.266556
_cell_angle_alpha 90.000000
_cell_angle_beta 90.000000
_cell_angle_gamma 90.000000
_cell_volume 3422.194072
_symmetry_space_group_name_H-M "P B C M"
_symmetry_group_IT_number 57
_symmetry_cell_setting 'orthorhombic'
loop_
_space_group_symop_operation_xyz
x,y,z
-x,-y,1/2+z
x,1/2-y,-z
-x,1/2+y,1/2-z
-x,-y,-z
x,y,1/2-z
-x,1/2+y,z
x,1/2-y,1/2+z
loop_
_atom_site_type_symbol
_atom_site_label
_atom_site_fract_x
_atom_site_fract_y
_atom_site_fract_z
Si Si1 0.062955 0.934228 0.982090
Si Si2 0.777607 0.414042 0.834357
Si Si3 0.326566 0.594777 0.591761
Si Si4 0.108514 0.817921 0.334032
Si Si5 0.829750 0.636587 0.579952
Si Si6 0.532130 0.708881 0.564730
Si Si7 0.615169 0.540879 0.665296
Si Si8 0.341510 0.718000 0.335204
O O1 0.084461 0.923232 0.894509
O O2 0.230770 0.931266 0.022774
O O3 0.934305 0.886527 0.011861
O O4 0.000000 0.000000 0.000000
O O5 0.844220 0.410065 0.750000
O O6 0.658765 0.470158 0.840532
O O7 0.682475 0.352818 0.855404
O O8 0.205904 0.619863 0.652304
O O9 0.430251 0.648819 0.561637
O O10 0.442420 0.545772 0.629402
O O11 0.084222 0.806918 0.250000
O O12 0.197360 0.758590 0.367523
O O13 0.937660 0.825072 0.366237
O O14 0.709883 0.688133 0.553401
O O15 0.743268 0.581380 0.622384
O O16 0.470892 0.750000 0.500000
O O17 0.503013 0.751901 0.635586
O O18 0.610489 0.562605 0.750000
O O19 0.352340 0.727359 0.250000
#
# Coordination Sequence:
#
# PCOD8231841 Si02
#       8
#     8   8   8   8   8   8   8   8
#     4  11  21  39  56  83 115 150 189 235 288 347
#     4  10  21  37  59  82 113 157 198 234 285 354
#     4   9  20  34  56  83 107 144 188 228 289 337
#     4   9  17  32  55  81 109 141 180 226 276 333
#     4  10  21  34  55  85 112 146 187 234 296 330
#     4  10  20  36  54  82 108 140 182 236 281 330
#     4  10  19  35  56  85 116 146 189 239 285 340
#     4   9  19  36  57  79 108 148 189 227 279 345
#
# _framework density 18.701453000000001
#
# number of rings (size 3 to 8) (size 9 to 14) (size 15 to 20)
#    0.000    2.250    1.250    1.500    0.000    5.000 
#    2.250    1.875    0.000    0.750    0.000    0.000 
#    0.000    0.000    0.000    0.000    0.000    0.000 
#
# Total GULP energy -793156.100553 kJ/mol
# GULP energy per Si atom -12393.064071 kJ/mol
# Density = 1.865889 g / cm^3
# Si number density = 18.701453 Si / 1000 Ang^3
#
#
#
# Elastic Constant Matrix: (Units=GPa)
#
#
# Indices 1 2 3 4 5 6 
#
# 1 98.7238 36.5383 48.4453 0.0000 0.0000 0.0000
# 2 36.5383 103.7234 41.0751 0.0000 0.0000 0.0000
# 3 48.4453 41.0751 95.8939 0.0000 0.0000 0.0000
# 4 0.0000 0.0000 0.0000 27.7682 0.0000 0.0000
# 5 0.0000 0.0000 0.0000 0.0000 5.1867 0.0000
# 6 0.0000 0.0000 0.0000 0.0000 0.0000 9.6843
#
#
#
# Elastic Compliance Matrix: (Units=1/GPa)
#
#
# Indices 1 2 3 4 5 6 
#
# 1 0.014014 -0.002569 -0.005980 0.000000 0.000000 0.000000
# 2 -0.002569 0.012081 -0.003877 0.000000 0.000000 0.000000
# 3 -0.005980 -0.003877 0.015110 0.000000 0.000000 0.000000
# 4 0.000000 0.000000 0.000000 0.036012 0.000000 0.000000
# 5 0.000000 0.000000 0.000000 0.000000 0.192802 0.000000
# 6 0.000000 0.000000 0.000000 0.000000 0.000000 0.103259
#
#
# Mechanical properties :
#
#
# Convention : Reuss Voigt Hill
#
# Bulk Modulus (GPa) = 61.14628 61.16207 61.15417
# Shear Modulus (GPa) = 12.38904 20.01332 16.20118
#
# Velocity S-wave (km/s) = 2.57663 3.27486 2.94650
# Velocity P-wave (km/s) = 6.45128 6.86113 6.65936
#
# Compressibility (1/GPa) = 0.01635423
#
# Stress axis : x y z
#
# Youngs Moduli (GPa) = 71.35560 82.77254 66.18207
#
# Poissons Ratio (x) = 0.21263 0.39575
# Poissons Ratio (y) = 0.18330 0.25660
# Poissons Ratio (z) = 0.42668 0.32092
#
# Static dielectric constant tensor:
#      x y z
#    x 3.690910 0.000000 0.000000 
#    y 0.000000 4.071900 0.000000 
#    z 0.000000 0.000000 4.358620 
# 
# 
# High freq. dielectric constant tensor:
#      x y z
#    x 1.715740 0.000000 0.000000 
#    y 0.000000 1.731650 0.000000 
#    z 0.000000 0.000000 1.727950 
# 
# From -- ./inp_files/21402.got.cif
#   From: 2010.03.12/outbox.cif.g09.slc.cpg/sg57_11_cif.got.tgz:21402.got - 2010.04.16 15:48:40.
