data_PCOD8231090
_publ_section_title
;
Structure prediction by ZEFSAII (Michael W. Deem and Ramdas Pophale) SiO2 
 PCOD8231090
Probable space group: P B C M
;
_chemical_formula_sum "Si O2"
_cell_formula_units_Z 64
_cell_length_a 14.387741
_cell_length_b 28.497459
_cell_length_c 8.676627
_cell_angle_alpha 90.000000
_cell_angle_beta 90.000000
_cell_angle_gamma 90.000000
_cell_volume 3557.539057
_symmetry_space_group_name_H-M "P B C M"
_symmetry_group_IT_number 57
_symmetry_cell_setting 'orthorhombic'
loop_
_space_group_symop_operation_xyz
x,y,z
-x,-y,1/2+z
x,1/2-y,-z
-x,1/2+y,1/2-z
-x,-y,-z
x,y,1/2-z
-x,1/2+y,z
x,1/2-y,1/2+z
loop_
_atom_site_type_symbol
_atom_site_label
_atom_site_fract_x
_atom_site_fract_y
_atom_site_fract_z
Si Si1 0.360929 0.300018 0.932598
Si Si2 0.465910 0.112386 0.931580
Si Si3 0.360590 0.475153 0.571654
Si Si4 0.145774 0.474178 0.927962
Si Si5 0.847790 0.071734 0.430977
Si Si6 0.640363 0.073966 0.432077
Si Si7 0.033861 0.386005 0.932944
Si Si8 0.852096 0.798972 0.931442
O O1 0.375524 0.300730 0.750000
O O2 0.253990 0.310265 0.978270
O O3 0.392155 0.250000 0.000000
O O4 0.424578 0.338831 0.011080
O O5 0.452864 0.107843 0.750000
O O6 0.417617 0.069380 0.016999
O O7 0.574493 0.110594 0.978810
O O8 0.382740 0.485539 0.750000
O O9 0.253445 0.462616 0.545439
O O10 0.389190 0.520708 0.472941
O O11 0.122158 0.481290 0.750000
O O12 0.087998 0.431103 0.999790
O O13 0.115820 0.521556 0.012475
O O14 0.839556 0.068281 0.250000
O O15 0.745202 0.083944 0.495510
O O16 0.924656 0.110667 0.479882
O O17 0.631396 0.081724 0.250000
O O18 0.046240 0.385633 0.750000
O O19 0.080353 0.339017 0.001415
O O20 0.861655 0.795712 0.750000
O O21 0.886235 0.750000 0.000000
#
# Coordination Sequence:
#
# PCOD8231090 Si02
#       8
#     8   8   8   8   8   8   8   8
#     4  10  20  36  56  79 105 132 159 195 243 296
#     4  12  23  34  51  74  98 130 169 209 249 295
#     4  10  19  32  49  72 102 135 167 203 247 298
#     4   9  17  29  47  70  99 131 161 195 241 292
#     4   9  18  31  48  69  96 130 167 203 240 281
#     4  10  20  34  49  69  98 133 171 212 252 293
#     4   9  16  29  49  72  97 129 164 196 236 289
#     4   9  18  33  53  75 102 130 157 191 236 288
#
# _framework density 17.989965000000002
#
# number of rings (size 3 to 8) (size 9 to 14) (size 15 to 20)
#    0.000    2.250    0.000    3.750    0.000    3.500 
#    0.000    1.250    0.000    0.750    0.000    1.750 
#    0.000    0.000    0.000    0.000    0.000    0.000 
#
# Total GULP energy -793576.440463 kJ/mol
# GULP energy per Si atom -12399.631882 kJ/mol
# Density = 1.794902 g / cm^3
# Si number density = 17.989965 Si / 1000 Ang^3
#
#
#
# Elastic Constant Matrix: (Units=GPa)
#
#
# Indices 1 2 3 4 5 6 
#
# 1 99.8892 75.1658 21.9431 0.0000 0.0000 0.0000
# 2 75.1658 111.3608 14.3077 0.0000 0.0000 0.0000
# 3 21.9431 14.3077 33.7028 0.0000 0.0000 0.0000
# 4 0.0000 0.0000 0.0000 28.6211 0.0000 0.0000
# 5 0.0000 0.0000 0.0000 0.0000 19.0136 0.0000
# 6 0.0000 0.0000 0.0000 0.0000 0.0000 29.3752
#
#
#
# Elastic Compliance Matrix: (Units=1/GPa)
#
#
# Indices 1 2 3 4 5 6 
#
# 1 0.022514 -0.014081 -0.008681 0.000000 0.000000 0.000000
# 2 -0.014081 0.018305 0.001397 0.000000 0.000000 0.000000
# 3 -0.008681 0.001397 0.034730 0.000000 0.000000 0.000000
# 4 0.000000 0.000000 0.000000 0.034939 0.000000 0.000000
# 5 0.000000 0.000000 0.000000 0.000000 0.052594 0.000000
# 6 0.000000 0.000000 0.000000 0.000000 0.000000 0.034042
#
#
# Mechanical properties :
#
#
# Convention : Reuss Voigt Hill
#
# Bulk Modulus (GPa) = 30.46987 51.97622 41.22304
# Shear Modulus (GPa) = 19.93678 24.30438 22.12058
#
# Velocity S-wave (km/s) = 3.33260 3.67958 3.51038
# Velocity P-wave (km/s) = 5.63757 6.85616 6.27651
#
# Compressibility (1/GPa) = 0.03281931
#
# Stress axis : x y z
#
# Youngs Moduli (GPa) = 44.41706 54.63079 28.79373
#
# Poissons Ratio (x) = 0.76926 0.24995
# Poissons Ratio (y) = 0.62544 -0.04023
# Poissons Ratio (z) = 0.38556 -0.07632
#
# Static dielectric constant tensor:
#      x y z
#    x 3.661210 0.000000 0.000000 
#    y 0.000000 3.345800 0.000000 
#    z 0.000000 0.000000 3.223380 
# 
# 
# High freq. dielectric constant tensor:
#      x y z
#    x 1.702130 0.000000 0.000000 
#    y 0.000000 1.677900 0.000000 
#    z 0.000000 0.000000 1.688320 
# 
# From -- ./inp_files/5732.got.cif
#   From: 2010.03.12/outbox.cif.g09.slc.cpg/sg57_3_cif.got.tgz:5732.got - 2010.04.16 15:48:40.
