data_PCOD8231539
_publ_section_title
;
Structure prediction by ZEFSAII (Michael W. Deem and Ramdas Pophale) SiO2 
 PCOD8231539
Probable space group: P B C M
;
_chemical_formula_sum "Si O2"
_cell_formula_units_Z 64
_cell_length_a 22.247523
_cell_length_b 16.146978
_cell_length_c 9.121679
_cell_angle_alpha 90.000000
_cell_angle_beta 90.000000
_cell_angle_gamma 90.000000
_cell_volume 3276.783159
_symmetry_space_group_name_H-M "P B C M"
_symmetry_group_IT_number 57
_symmetry_cell_setting 'orthorhombic'
loop_
_space_group_symop_operation_xyz
x,y,z
-x,-y,1/2+z
x,1/2-y,-z
-x,1/2+y,1/2-z
-x,-y,-z
x,y,1/2-z
-x,1/2+y,z
x,1/2-y,1/2+z
loop_
_atom_site_type_symbol
_atom_site_label
_atom_site_fract_x
_atom_site_fract_y
_atom_site_fract_z
Si Si1 0.863512 0.835898 0.077466
Si Si2 0.383070 0.179915 0.088219
Si Si3 0.437505 0.001186 0.417548
Si Si4 0.889836 0.332617 0.082592
Si Si5 0.727462 0.635852 0.912110
Si Si6 0.252190 0.827635 0.413218
Si Si7 0.935639 0.002817 0.074187
Si Si8 0.675796 0.454042 0.587023
O O1 0.869469 0.821506 0.250000
O O2 0.795467 0.857149 0.029070
O O3 0.902594 0.916496 0.030787
O O4 0.885139 0.750000 0.000000
O O5 0.378027 0.213488 0.250000
O O6 0.417075 0.095009 0.077510
O O7 0.420421 0.250000 0.000000
O O8 0.315301 0.180431 0.026976
O O9 0.443998 0.969542 0.250000
O O10 0.500000 0.000000 0.500000
O O11 0.387976 0.947243 0.502784
O O12 0.916125 0.336838 0.250000
O O13 0.818945 0.324747 0.091401
O O14 0.915649 0.250000 0.000000
O O15 0.903389 0.416101 0.992196
O O16 0.723385 0.675853 0.750000
O O17 0.703747 0.543475 0.901210
O O18 0.279202 0.750000 0.500000
O O19 0.279095 0.827454 0.250000
O O20 0.273258 0.908049 0.497344
O O21 0.939251 0.012350 0.250000
O O22 0.000000 0.000000 0.000000
O O23 0.666109 0.417013 0.750000
#
# Coordination Sequence:
#
# PCOD8231539 Si02
#       8
#     8   8   8   8   8   8   8   8
#     4  10  22  38  57  83 115 150 186 227 277 333
#     4  10  20  33  52  79 108 137 171 213 260 312
#     4  10  21  37  55  76 103 138 183 228 270 319
#     4  10  21  38  62  90 117 149 189 235 290 346
#     4   9  18  33  54  81 111 142 175 214 265 324
#     4  10  20  34  54  82 114 144 179 225 277 335
#     4  11  24  42  61  83 114 151 195 243 288 339
#     4  10  19  33  55  80 109 145 182 223 276 332
#
# _framework density 19.53135
#
# number of rings (size 3 to 8) (size 9 to 14) (size 15 to 20)
#    0.000    2.000    0.000    3.375    0.000    7.500 
#    0.000    1.875    0.000    1.500    0.000    0.000 
#    0.000    0.000    0.000    0.000    0.000    0.000 
#
# Total GULP energy -793172.810464 kJ/mol
# GULP energy per Si atom -12393.325163 kJ/mol
# Density = 1.948690 g / cm^3
# Si number density = 19.531350 Si / 1000 Ang^3
#
#
#
# Elastic Constant Matrix: (Units=GPa)
#
#
# Indices 1 2 3 4 5 6 
#
# 1 65.9702 27.8578 37.3091 0.0000 0.0000 0.0000
# 2 27.8578 90.4223 54.6992 0.0000 0.0000 0.0000
# 3 37.3091 54.6992 158.7472 0.0000 0.0000 0.0000
# 4 0.0000 0.0000 0.0000 37.7563 0.0000 0.0000
# 5 0.0000 0.0000 0.0000 0.0000 -19.0738 0.0000
# 6 0.0000 0.0000 0.0000 0.0000 0.0000 -0.3752
#
#
#
# Elastic Compliance Matrix: (Units=1/GPa)
#
#
# Indices 1 2 3 4 5 6 
#
# 1 0.018499 -0.003877 -0.003012 0.000000 0.000000 0.000000
# 2 -0.003877 0.014784 -0.004183 0.000000 0.000000 0.000000
# 3 -0.003012 -0.004183 0.008448 0.000000 0.000000 0.000000
# 4 0.000000 0.000000 0.000000 0.026486 0.000000 0.000000
# 5 0.000000 0.000000 0.000000 0.000000 -0.052428 0.000000
# 6 0.000000 0.000000 0.000000 0.000000 0.000000 -2.665040
#
#
# Mechanical properties :
#
#
# Convention : Reuss Voigt Hill
#
# Bulk Modulus (GPa) = 51.05257 61.65241 56.35249
# Shear Modulus (GPa) = -1.90798 16.67969 7.38586
#
# Velocity S-wave (km/s) = -0.98944 2.92549 1.94673
# Velocity P-wave (km/s) = 4.98901 6.56092 5.82820
#
# Compressibility (1/GPa) = 0.01958765
#
# Stress axis : x y z
#
# Youngs Moduli (GPa) = 54.05726 67.64005 118.36559
#
# Poissons Ratio (x) = 0.26227 0.35647
# Poissons Ratio (y) = 0.20960 0.49511
# Poissons Ratio (z) = 0.16280 0.28293
#
# Static dielectric constant tensor:
#      x y z
#    x 16.755240 0.000000 0.000000 
#    y 0.000000 3.949710 0.000000 
#    z 0.000000 0.000000 4.028490 
# 
# 
# High freq. dielectric constant tensor:
#      x y z
#    x 1.743350 0.000000 0.000000 
#    y 0.000000 1.767930 0.000000 
#    z 0.000000 0.000000 1.778200 
# 
# From -- ./inp_files/9449.got.cif
#   From: 2010.03.12/outbox.cif.g09.slc.cpg/sg57_5_cif.got.tgz:9449.got - 2010.04.16 15:48:40.
