data_PCOD8231983
_publ_section_title
;
Structure prediction by ZEFSAII (Michael W. Deem and Ramdas Pophale) SiO2 
 PCOD8231983
Probable space group: P B C M
;
_chemical_formula_sum "Si O2"
_cell_formula_units_Z 48
_cell_length_a 19.699275
_cell_length_b 8.944283
_cell_length_c 14.120485
_cell_angle_alpha 90.000000
_cell_angle_beta 90.000000
_cell_angle_gamma 90.000000
_cell_volume 2487.971429
_symmetry_space_group_name_H-M "P B C M"
_symmetry_group_IT_number 57
_symmetry_cell_setting 'orthorhombic'
loop_
_space_group_symop_operation_xyz
x,y,z
-x,-y,1/2+z
x,1/2-y,-z
-x,1/2+y,1/2-z
-x,-y,-z
x,y,1/2-z
-x,1/2+y,z
x,1/2-y,1/2+z
loop_
_atom_site_type_symbol
_atom_site_label
_atom_site_fract_x
_atom_site_fract_y
_atom_site_fract_z
Si Si1 0.321995 0.117145 0.929247
Si Si2 0.908547 0.551371 0.750000
Si Si3 0.063570 0.591473 0.543153
Si Si4 0.046195 0.698926 0.750000
Si Si5 0.512597 0.445118 0.750000
Si Si6 0.830213 0.595607 0.557337
Si Si7 0.403395 0.224122 0.750000
Si Si8 0.439978 0.592645 0.046974
O O1 0.246898 0.050399 0.915689
O O2 0.355834 0.189171 0.837459
O O3 0.369003 0.988454 0.971911
O O4 0.314554 0.250000 0.000000
O O5 0.932950 0.375924 0.750000
O O6 0.867240 0.593953 0.657331
O O7 0.965875 0.678312 0.750000
O O8 0.050181 0.750000 0.500000
O O9 0.070786 0.608493 0.656714
O O10 0.135742 0.527333 0.510012
O O11 0.000000 0.500000 0.500000
O O12 0.432618 0.395099 0.750000
O O13 0.526933 0.623877 0.750000
O O14 0.548456 0.378196 0.657629
O O15 0.836271 0.750000 0.500000
O O16 0.435424 0.750000 0.000000
O O17 0.500000 0.500000 0.000000
#
# Coordination Sequence:
#
# PCOD8231983 Si02
#       8
#     8   4   8   4   4   8   4   8
#     4  10  22  40  60  86 121 168 208 256 312 377
#     4  12  25  42  66  95 127 166 215 262 329 392
#     4  12  23  41  65  96 129 165 213 273 322 383
#     4  12  24  40  67  99 126 165 211 264 334 382
#     4  10  20  32  56  88 117 149 192 252 306 360
#     4  11  25  42  64  90 129 173 217 266 325 383
#     4  10  19  36  59  88 122 156 204 254 315 372
#     4  11  21  36  60  89 120 158 205 259 310 368
#
# _framework density 19.292825000000001
#
# number of rings (size 3 to 8) (size 9 to 14) (size 15 to 20)
#    0.000    1.000    3.333    4.500    2.333    0.667 
#    0.000    0.833    0.000    0.000    0.000    0.000 
#    0.000    0.000    0.000    0.000    0.000    0.000 
#
# Total GULP energy -594796.331504 kJ/mol
# GULP energy per Si atom -12391.590240 kJ/mol
# Density = 1.924891 g / cm^3
# Si number density = 19.292825 Si / 1000 Ang^3
#
#
#
# Elastic Constant Matrix: (Units=GPa)
#
#
# Indices 1 2 3 4 5 6 
#
# 1 168.5944 60.7873 53.3573 0.0000 0.0000 0.0000
# 2 60.7873 87.2662 35.1260 0.0000 0.0000 0.0000
# 3 53.3573 35.1260 136.8075 0.0000 0.0000 0.0000
# 4 0.0000 0.0000 0.0000 27.0980 0.0000 0.0000
# 5 0.0000 0.0000 0.0000 0.0000 67.1940 0.0000
# 6 0.0000 0.0000 0.0000 0.0000 0.0000 36.5002
#
#
#
# Elastic Compliance Matrix: (Units=1/GPa)
#
#
# Indices 1 2 3 4 5 6 
#
# 1 0.008372 -0.005038 -0.001972 0.000000 0.000000 0.000000
# 2 -0.005038 0.015812 -0.002095 0.000000 0.000000 0.000000
# 3 -0.001972 -0.002095 0.008616 0.000000 0.000000 0.000000
# 4 0.000000 0.000000 0.000000 0.036903 0.000000 0.000000
# 5 0.000000 0.000000 0.000000 0.000000 0.014882 0.000000
# 6 0.000000 0.000000 0.000000 0.000000 0.000000 0.027397
#
#
# Mechanical properties :
#
#
# Convention : Reuss Voigt Hill
#
# Bulk Modulus (GPa) = 68.53530 76.80103 72.66817
# Shear Modulus (GPa) = 37.02194 42.38493 39.70344
#
# Velocity S-wave (km/s) = 4.38533 4.69222 4.54137
# Velocity P-wave (km/s) = 7.82575 8.32169 8.07753
#
# Compressibility (1/GPa) = 0.01459102
#
# Stress axis : x y z
#
# Youngs Moduli (GPa) = 119.44786 63.24415 116.05813
#
# Poissons Ratio (x) = 0.31862 0.22882
# Poissons Ratio (y) = 0.60178 0.24312
# Poissons Ratio (z) = 0.23551 0.13249
#
# Static dielectric constant tensor:
#      x y z
#    x 3.403460 0.000000 0.000000 
#    y 0.000000 3.518410 0.000000 
#    z 0.000000 0.000000 3.326660 
# 
# 
# High freq. dielectric constant tensor:
#      x y z
#    x 1.747670 0.000000 0.000000 
#    y 0.000000 1.751690 0.000000 
#    z 0.000000 0.000000 1.776620 
# 
# From -- ./inp_files/19046.got.cif
#   From: 2010.03.12/outbox.cif.g09.slc.cpg/sg57_10_cif.got.tgz:19046.got - 2010.04.16 15:48:40.
