data_PCOD8231726
_publ_section_title
;
Structure prediction by ZEFSAII (Michael W. Deem and Ramdas Pophale) SiO2 
 PCOD8231726
Probable space group: P B C M
;
_chemical_formula_sum "Si O2"
_cell_formula_units_Z 64
_cell_length_a 11.821891
_cell_length_b 31.545903
_cell_length_c 8.783816
_cell_angle_alpha 90.000000
_cell_angle_beta 90.000000
_cell_angle_gamma 90.000000
_cell_volume 3275.768060
_symmetry_space_group_name_H-M "P B C M"
_symmetry_group_IT_number 57
_symmetry_cell_setting 'orthorhombic'
loop_
_space_group_symop_operation_xyz
x,y,z
-x,-y,1/2+z
x,1/2-y,-z
-x,1/2+y,1/2-z
-x,-y,-z
x,y,1/2-z
-x,1/2+y,z
x,1/2-y,1/2+z
loop_
_atom_site_type_symbol
_atom_site_label
_atom_site_fract_x
_atom_site_fract_y
_atom_site_fract_z
Si Si1 0.880666 0.003991 0.577903
Si Si2 0.510591 0.952576 0.430616
Si Si3 0.070518 0.373810 0.070859
Si Si4 0.735605 0.920617 0.576779
Si Si5 0.323426 0.705723 0.930375
Si Si6 0.063696 0.707231 0.929064
Si Si7 0.633900 0.120744 0.424222
Si Si8 0.132530 0.583272 0.078597
O O1 0.894971 0.019245 0.750000
O O2 0.814098 0.960983 0.567610
O O3 0.812269 0.039640 0.483440
O O4 0.000000 0.000000 0.500000
O O5 0.499553 0.957316 0.250000
O O6 0.627352 0.929765 0.473921
O O7 0.415281 0.920225 0.489900
O O8 0.500000 0.000000 0.500000
O O9 0.090717 0.374971 0.250000
O O10 0.019450 0.329436 0.011728
O O11 0.191117 0.381545 0.989478
O O12 0.975898 0.408117 0.026697
O O13 0.698374 0.910537 0.750000
O O14 0.338809 0.706802 0.750000
O O15 0.192958 0.699711 0.980964
O O16 0.369872 0.750000 0.000000
O O17 0.395685 0.665852 0.996442
O O18 0.058745 0.710439 0.750000
O O19 0.014870 0.750000 0.000000
O O20 0.590282 0.120804 0.250000
O O21 0.770208 0.118353 0.430588
O O22 0.087238 0.577780 0.250000
#
# Coordination Sequence:
#
# PCOD8231726 Si02
#       8
#     8   8   8   8   8   8   8   8
#     4  11  22  34  52  77 110 147 187 233 284 340
#     4  12  26  45  67  89 117 158 206 258 310 367
#     4  11  21  35  56  84 118 154 193 239 292 351
#     4  11  24  41  60  85 115 153 198 243 294 351
#     4  10  19  34  56  88 125 162 201 248 304 363
#     4   9  19  33  53  83 120 160 197 237 290 352
#     4  11  23  39  61  88 120 159 202 251 304 362
#     4  11  22  34  52  81 115 152 193 235 289 347
#
# _framework density 19.537400999999999
#
# number of rings (size 3 to 8) (size 9 to 14) (size 15 to 20)
#    0.000    1.250    2.500    4.125    0.000    6.500 
#    0.000    0.000    0.000    0.750    0.000    3.500 
#    0.000    0.000    0.000    0.000    0.000    0.000 
#
# Total GULP energy -793456.027657 kJ/mol
# GULP energy per Si atom -12397.750432 kJ/mol
# Density = 1.949293 g / cm^3
# Si number density = 19.537401 Si / 1000 Ang^3
#
#
#
# Elastic Constant Matrix: (Units=GPa)
#
#
# Indices 1 2 3 4 5 6 
#
# 1 65.7021 25.4592 26.8032 0.0000 0.0000 0.0000
# 2 25.4592 133.7645 50.7964 0.0000 0.0000 0.0000
# 3 26.8032 50.7964 103.5268 0.0000 0.0000 0.0000
# 4 0.0000 0.0000 0.0000 36.8770 0.0000 0.0000
# 5 0.0000 0.0000 0.0000 0.0000 27.7355 0.0000
# 6 0.0000 0.0000 0.0000 0.0000 0.0000 32.4216
#
#
#
# Elastic Compliance Matrix: (Units=1/GPa)
#
#
# Indices 1 2 3 4 5 6 
#
# 1 0.017430 -0.001971 -0.003546 0.000000 0.000000 0.000000
# 2 -0.001971 0.009411 -0.004107 0.000000 0.000000 0.000000
# 3 -0.003546 -0.004107 0.012592 0.000000 0.000000 0.000000
# 4 0.000000 0.000000 0.000000 0.027117 0.000000 0.000000
# 5 0.000000 0.000000 0.000000 0.000000 0.036055 0.000000
# 6 0.000000 0.000000 0.000000 0.000000 0.000000 0.030844
#
#
# Mechanical properties :
#
#
# Convention : Reuss Voigt Hill
#
# Bulk Modulus (GPa) = 49.53944 56.56789 53.05366
# Shear Modulus (GPa) = 31.36263 32.73581 32.04922
#
# Velocity S-wave (km/s) = 4.01092 4.09778 4.05458
# Velocity P-wave (km/s) = 6.84552 7.16977 7.00952
#
# Compressibility (1/GPa) = 0.02018594
#
# Stress axis : x y z
#
# Youngs Moduli (GPa) = 57.37097 106.26287 79.41247
#
# Poissons Ratio (x) = 0.20945 0.28157
# Poissons Ratio (y) = 0.11308 0.32615
# Poissons Ratio (z) = 0.20342 0.43643
#
# Static dielectric constant tensor:
#      x y z
#    x 3.827860 0.000000 0.000000 
#    y 0.000000 4.473910 0.000000 
#    z 0.000000 0.000000 3.834370 
# 
# 
# High freq. dielectric constant tensor:
#      x y z
#    x 1.731320 0.000000 0.000000 
#    y 0.000000 1.766430 0.000000 
#    z 0.000000 0.000000 1.774280 
# 
# From -- ./inp_files/3780.got.cif
#   From: 2010.03.12/outbox.cif.g09.slc.cpg/sg57_2_cif.got.tgz:3780.got - 2010.04.16 15:48:40.
