data_PCOD8231334
_publ_section_title
;
Structure prediction by ZEFSAII (Michael W. Deem and Ramdas Pophale) SiO2 
 PCOD8231334
Probable space group: P B C M
;
_chemical_formula_sum "Si O2"
_cell_formula_units_Z 64
_cell_length_a 14.810145
_cell_length_b 29.618526
_cell_length_c 8.628421
_cell_angle_alpha 90.000000
_cell_angle_beta 90.000000
_cell_angle_gamma 90.000000
_cell_volume 3784.897121
_symmetry_space_group_name_H-M "P B C M"
_symmetry_group_IT_number 57
_symmetry_cell_setting 'orthorhombic'
loop_
_space_group_symop_operation_xyz
x,y,z
-x,-y,1/2+z
x,1/2-y,-z
-x,1/2+y,1/2-z
-x,-y,-z
x,y,1/2-z
-x,1/2+y,z
x,1/2-y,1/2+z
loop_
_atom_site_type_symbol
_atom_site_label
_atom_site_fract_x
_atom_site_fract_y
_atom_site_fract_z
Si Si1 0.178266 0.042366 0.069411
Si Si2 0.782062 0.203429 0.933374
Si Si3 0.439379 0.557712 0.571502
Si Si4 0.701278 0.115866 0.431430
Si Si5 0.867535 0.052940 0.432085
Si Si6 0.633271 0.968771 0.427385
Si Si7 0.964017 0.894656 0.432397
Si Si8 0.010954 0.703789 0.569107
O O1 0.160503 0.049093 0.250000
O O2 0.284664 0.046193 0.035691
O O3 0.130628 0.082788 0.976280
O O4 0.136387 0.994655 0.019080
O O5 0.769939 0.200099 0.750000
O O6 0.885837 0.198012 0.985186
O O7 0.743350 0.250000 0.000000
O O8 0.724674 0.165847 0.018536
O O9 0.421230 0.544955 0.750000
O O10 0.390145 0.603744 0.523770
O O11 0.546803 0.563439 0.542432
O O12 0.396937 0.519597 0.462318
O O13 0.683127 0.113712 0.250000
O O14 0.780943 0.081975 0.482342
O O15 0.868797 0.043461 0.250000
O O16 0.956909 0.079560 0.478378
O O17 0.666352 0.966916 0.250000
O O18 0.983334 0.898171 0.250000
O O19 0.959546 0.841866 0.484280
O O20 0.968333 0.750000 0.500000
O O21 0.004679 0.710003 0.750000
#
# Coordination Sequence:
#
# PCOD8231334 Si02
#       8
#     8   8   8   8   8   8   8   8
#     4  12  24  36  52  73 101 139 178 218 259 303
#     4  10  19  33  51  74 103 134 172 212 258 307
#     4  10  20  33  53  76 101 132 168 209 254 304
#     4  11  21  32  51  76 105 139 174 210 255 305
#     4  11  22  35  50  72 103 140 178 215 251 299
#     4  10  20  35  52  74 101 132 169 212 256 300
#     4  11  22  37  53  73 102 138 176 213 257 307
#     4   9  19  33  52  74  98 130 165 209 256 300
#
# _framework density 16.909310999999999
#
# number of rings (size 3 to 8) (size 9 to 14) (size 15 to 20)
#    0.000    1.500    2.500    3.750    0.000    4.000 
#    0.000    0.000    0.000    0.000    0.000    0.875 
#    0.000    4.000    0.000    0.000    0.000    0.000 
#
# Total GULP energy -793754.950945 kJ/mol
# GULP energy per Si atom -12402.421109 kJ/mol
# Density = 1.687083 g / cm^3
# Si number density = 16.909311 Si / 1000 Ang^3
#
#
#
# Elastic Constant Matrix: (Units=GPa)
#
#
# Indices 1 2 3 4 5 6 
#
# 1 72.3069 43.9239 22.0338 0.0000 0.0000 0.0000
# 2 43.9239 118.8940 20.9004 0.0000 0.0000 0.0000
# 3 22.0338 20.9004 42.7688 0.0000 0.0000 0.0000
# 4 0.0000 0.0000 0.0000 28.7763 0.0000 0.0000
# 5 0.0000 0.0000 0.0000 0.0000 23.6207 0.0000
# 6 0.0000 0.0000 0.0000 0.0000 0.0000 24.9755
#
#
#
# Elastic Compliance Matrix: (Units=1/GPa)
#
#
# Indices 1 2 3 4 5 6 
#
# 1 0.019670 -0.006001 -0.007201 0.000000 0.000000 0.000000
# 2 -0.006001 0.011032 -0.002300 0.000000 0.000000 0.000000
# 3 -0.007201 -0.002300 0.028215 0.000000 0.000000 0.000000
# 4 0.000000 0.000000 0.000000 0.034751 0.000000 0.000000
# 5 0.000000 0.000000 0.000000 0.000000 0.042336 0.000000
# 6 0.000000 0.000000 0.000000 0.000000 0.000000 0.040039
#
#
# Mechanical properties :
#
#
# Convention : Reuss Voigt Hill
#
# Bulk Modulus (GPa) = 35.82443 45.29842 40.56142
# Shear Modulus (GPa) = 23.11072 25.28196 24.19634
#
# Velocity S-wave (km/s) = 3.70096 3.87091 3.78689
# Velocity P-wave (km/s) = 6.28451 6.84294 6.56966
#
# Compressibility (1/GPa) = 0.02791392
#
# Stress axis : x y z
#
# Youngs Moduli (GPa) = 50.84003 90.64509 35.44198
#
# Poissons Ratio (x) = 0.54394 0.25522
# Poissons Ratio (y) = 0.30508 0.08150
# Poissons Ratio (z) = 0.36610 0.20845
#
# Static dielectric constant tensor:
#      x y z
#    x 3.188060 0.000000 0.000000 
#    y 0.000000 3.213830 0.000000 
#    z 0.000000 0.000000 3.221960 
# 
# 
# High freq. dielectric constant tensor:
#      x y z
#    x 1.632120 0.000000 0.000000 
#    y 0.000000 1.639910 0.000000 
#    z 0.000000 0.000000 1.667370 
# 
# From -- ./inp_files/6006.got.cif
#   From: 2010.03.12/outbox.cif.g09.slc.cpg/sg57_4_cif.got.tgz:6006.got - 2010.04.16 15:48:40.
