data_PCOD8231490
_publ_section_title
;
Structure prediction by ZEFSAII (Michael W. Deem and Ramdas Pophale) SiO2 
 PCOD8231490
Probable space group: P B C M
;
_chemical_formula_sum "Si O2"
_cell_formula_units_Z 40
_cell_length_a 12.537056
_cell_length_b 20.010799
_cell_length_c 8.714056
_cell_angle_alpha 90.000000
_cell_angle_beta 90.000000
_cell_angle_gamma 90.000000
_cell_volume 2186.151937
_symmetry_space_group_name_H-M "P B C M"
_symmetry_group_IT_number 57
_symmetry_cell_setting 'orthorhombic'
loop_
_space_group_symop_operation_xyz
x,y,z
-x,-y,1/2+z
x,1/2-y,-z
-x,1/2+y,1/2-z
-x,-y,-z
x,y,1/2-z
-x,1/2+y,z
x,1/2-y,1/2+z
loop_
_atom_site_type_symbol
_atom_site_label
_atom_site_fract_x
_atom_site_fract_y
_atom_site_fract_z
Si Si1 0.460024 0.568815 0.929893
Si Si2 0.012392 0.928129 0.928241
Si Si3 0.387776 0.178236 0.431430
Si Si4 0.192742 0.393836 0.428574
Si Si5 0.755553 0.047784 0.074376
O O1 0.482571 0.569014 0.750000
O O2 0.500000 0.500000 0.000000
O O3 0.522730 0.628947 0.006070
O O4 0.334414 0.577497 0.963332
O O5 0.982890 0.931178 0.750000
O O6 0.136760 0.908227 0.951642
O O7 0.928527 0.879320 0.013382
O O8 0.000000 0.000000 0.000000
O O9 0.413615 0.250000 0.500000
O O10 0.394173 0.181011 0.250000
O O11 0.270313 0.155242 0.480950
O O12 0.200141 0.377223 0.250000
O O13 0.224710 0.470072 0.465083
O O14 0.717152 0.053889 0.250000
#
# Coordination Sequence:
#
# PCOD8231490 Si02
#       5
#     8   8   8   8   8
#     4  12  23  36  57  84 115 151 194 239 288 342
#     4   9  17  29  48  76 111 145 181 224 275 329
#     4  12  25  41  60  82 113 151 192 238 291 349
#     4  10  19  33  54  80 113 146 185 230 280 339
#     4   9  18  32  52  80 114 148 186 232 281 333
#
# _framework density 18.296990999999998
#
# number of rings (size 3 to 8) (size 9 to 14) (size 15 to 20)
#    0.000    1.600    2.000    6.000    0.000    4.000 
#    0.000    0.000    0.000    1.200    0.000    0.000 
#    0.000    0.000    0.000    0.000    0.000    0.000 
#
# Total GULP energy -495957.818178 kJ/mol
# GULP energy per Si atom -12398.945454 kJ/mol
# Density = 1.825535 g / cm^3
# Si number density = 18.296991 Si / 1000 Ang^3
#
#
#
# Elastic Constant Matrix: (Units=GPa)
#
#
# Indices 1 2 3 4 5 6 
#
# 1 134.0238 51.8796 64.5093 0.0000 0.0000 0.0000
# 2 51.8796 90.7765 52.7445 0.0000 0.0000 0.0000
# 3 64.5093 52.7445 152.9240 0.0000 0.0000 0.0000
# 4 0.0000 0.0000 0.0000 25.4494 0.0000 0.0000
# 5 0.0000 0.0000 0.0000 0.0000 37.0054 0.0000
# 6 0.0000 0.0000 0.0000 0.0000 0.0000 18.4041
#
#
#
# Elastic Compliance Matrix: (Units=1/GPa)
#
#
# Indices 1 2 3 4 5 6 
#
# 1 0.010558 -0.004310 -0.002967 0.000000 0.000000 0.000000
# 2 -0.004310 0.015536 -0.003541 0.000000 0.000000 0.000000
# 3 -0.002967 -0.003541 0.009012 0.000000 0.000000 0.000000
# 4 0.000000 0.000000 0.000000 0.039294 0.000000 0.000000
# 5 0.000000 0.000000 0.000000 0.000000 0.027023 0.000000
# 6 0.000000 0.000000 0.000000 0.000000 0.000000 0.054336
#
#
# Mechanical properties :
#
#
# Convention : Reuss Voigt Hill
#
# Bulk Modulus (GPa) = 74.23322 79.55458 76.89390
# Shear Modulus (GPa) = 27.48999 30.07784 28.78392
#
# Velocity S-wave (km/s) = 3.88033 4.05886 3.97060
# Velocity P-wave (km/s) = 7.79328 8.09567 7.94591
#
# Compressibility (1/GPa) = 0.01347106
#
# Stress axis : x y z
#
# Youngs Moduli (GPa) = 94.71592 64.36510 110.96258
#
# Poissons Ratio (x) = 0.27740 0.32925
# Poissons Ratio (y) = 0.40821 0.39287
# Poissons Ratio (z) = 0.28104 0.22789
#
# Static dielectric constant tensor:
#      x y z
#    x 4.183750 0.000000 0.000000 
#    y 0.000000 3.457140 0.000000 
#    z 0.000000 0.000000 3.558570 
# 
# 
# High freq. dielectric constant tensor:
#      x y z
#    x 1.730230 0.000000 0.000000 
#    y 0.000000 1.656670 0.000000 
#    z 0.000000 0.000000 1.726310 
# 
# From -- ./inp_files/2647.got.cif
#   From: 2010.03.12/outbox.cif.g09.slc.cpg/sg57_2_cif.got.tgz:2647.got - 2010.04.16 15:48:40.
