data_PCOD8231500
_publ_section_title
;
Structure prediction by ZEFSAII (Michael W. Deem and Ramdas Pophale) SiO2 
 PCOD8231500
Probable space group: P B C M
;
_chemical_formula_sum "Si O2"
_cell_formula_units_Z 64
_cell_length_a 11.397204
_cell_length_b 34.056726
_cell_length_c 8.379773
_cell_angle_alpha 90.000000
_cell_angle_beta 90.000000
_cell_angle_gamma 90.000000
_cell_volume 3252.621072
_symmetry_space_group_name_H-M "P B C M"
_symmetry_group_IT_number 57
_symmetry_cell_setting 'orthorhombic'
loop_
_space_group_symop_operation_xyz
x,y,z
-x,-y,1/2+z
x,1/2-y,-z
-x,1/2+y,1/2-z
-x,-y,-z
x,y,1/2-z
-x,1/2+y,z
x,1/2-y,1/2+z
loop_
_atom_site_type_symbol
_atom_site_label
_atom_site_fract_x
_atom_site_fract_y
_atom_site_fract_z
Si Si1 0.120677 0.869943 0.436440
Si Si2 0.361998 0.135651 0.065344
Si Si3 0.247813 0.474360 0.061190
Si Si4 0.241155 0.708009 0.938348
Si Si5 0.509604 0.791895 0.438723
Si Si6 0.735460 0.059940 0.066034
Si Si7 0.515879 0.936937 0.065256
Si Si8 0.869506 0.603891 0.559508
O O1 0.106547 0.864138 0.250000
O O2 0.164978 0.828371 0.509973
O O3 0.214419 0.904344 0.464348
O O4 0.995530 0.882769 0.509783
O O5 0.377064 0.124409 0.250000
O O6 0.405756 0.179184 0.033025
O O7 0.440132 0.107558 0.954626
O O8 0.225930 0.133010 0.015178
O O9 0.254670 0.472496 0.250000
O O10 0.208999 0.518124 0.006746
O O11 0.379943 0.465091 0.999863
O O12 0.156716 0.441033 0.000935
O O13 0.232324 0.708529 0.750000
O O14 0.375025 0.701068 0.992559
O O15 0.193129 0.750000 0.000000
O O16 0.551869 0.750000 0.500000
O O17 0.525170 0.796255 0.250000
O O18 0.765049 0.067733 0.250000
O O19 0.596481 0.056172 0.044280
O O20 0.483890 0.944146 0.250000
O O21 0.864688 0.606490 0.750000
#
# Coordination Sequence:
#
# PCOD8231500 Si02
#       8
#     8   8   8   8   8   8   8   8
#     4  10  21  37  56  78 105 142 185 221 262 320
#     4  11  21  34  54  80 107 136 175 221 273 326
#     4   8  17  33  52  75 104 140 180 223 269 316
#     4   9  19  35  56  81 107 135 168 209 257 311
#     4  10  19  33  54  81 113 143 173 213 265 325
#     4  11  21  32  50  79 111 139 175 225 274 318
#     4  10  19  34  54  75 104 141 179 218 267 327
#     4   9  19  38  58  73 100 145 189 224 261 312
#
# _framework density 19.676439999999999
#
# number of rings (size 3 to 8) (size 9 to 14) (size 15 to 20)
#    0.000    2.250    0.000    4.125    0.000    3.000 
#    0.000    6.250    0.000    1.500    0.000    0.000 
#    0.000    0.000    0.000    0.000    0.000    0.000 
#
# Total GULP energy -793487.120731 kJ/mol
# GULP energy per Si atom -12398.236261 kJ/mol
# Density = 1.963166 g / cm^3
# Si number density = 19.676440 Si / 1000 Ang^3
#
#
#
# Elastic Constant Matrix: (Units=GPa)
#
#
# Indices 1 2 3 4 5 6 
#
# 1 85.3778 69.1617 12.0482 0.0000 0.0000 0.0000
# 2 69.1617 158.1787 6.5386 0.0000 0.0000 0.0000
# 3 12.0482 6.5386 28.5868 0.0000 0.0000 0.0000
# 4 0.0000 0.0000 0.0000 24.0116 0.0000 0.0000
# 5 0.0000 0.0000 0.0000 0.0000 19.4262 0.0000
# 6 0.0000 0.0000 0.0000 0.0000 0.0000 23.0548
#
#
#
# Elastic Compliance Matrix: (Units=1/GPa)
#
#
# Indices 1 2 3 4 5 6 
#
# 1 0.019173 -0.008126 -0.006222 0.000000 0.000000 0.000000
# 2 -0.008126 0.009826 0.001177 0.000000 0.000000 0.000000
# 3 -0.006222 0.001177 0.037334 0.000000 0.000000 0.000000
# 4 0.000000 0.000000 0.000000 0.041647 0.000000 0.000000
# 5 0.000000 0.000000 0.000000 0.000000 0.051477 0.000000
# 6 0.000000 0.000000 0.000000 0.000000 0.000000 0.043375
#
#
# Mechanical properties :
#
#
# Convention : Reuss Voigt Hill
#
# Bulk Modulus (GPa) = 25.00497 49.73782 37.37139
# Shear Modulus (GPa) = 20.61813 25.59151 23.10482
#
# Velocity S-wave (km/s) = 3.24058 3.61032 3.43043
# Velocity P-wave (km/s) = 5.17083 6.53544 5.89277
#
# Compressibility (1/GPa) = 0.03999205
#
# Stress axis : x y z
#
# Youngs Moduli (GPa) = 52.15553 101.76715 26.78501
#
# Poissons Ratio (x) = 0.82697 0.16666
# Poissons Ratio (y) = 0.42382 -0.03153
# Poissons Ratio (z) = 0.32452 -0.11981
#
# Static dielectric constant tensor:
#      x y z
#    x 3.594600 0.000000 0.000000 
#    y 0.000000 3.882970 0.000000 
#    z 0.000000 0.000000 3.303200 
# 
# 
# High freq. dielectric constant tensor:
#      x y z
#    x 1.751360 0.000000 0.000000 
#    y 0.000000 1.775920 0.000000 
#    z 0.000000 0.000000 1.749990 
# 
# From -- ./inp_files/3904.got.cif
#   From: 2010.03.12/outbox.cif.g09.slc.cpg/sg57_2_cif.got.tgz:3904.got - 2010.04.16 15:48:40.
