data_PCOD8231048
_publ_section_title
;
Structure prediction by ZEFSAII (Michael W. Deem and Ramdas Pophale) SiO2 
 PCOD8231048
Probable space group: P B C M
;
_chemical_formula_sum "Si O2"
_cell_formula_units_Z 64
_cell_length_a 20.058432
_cell_length_b 19.979556
_cell_length_c 8.959903
_cell_angle_alpha 90.000000
_cell_angle_beta 90.000000
_cell_angle_gamma 90.000000
_cell_volume 3590.757873
_symmetry_space_group_name_H-M "P B C M"
_symmetry_group_IT_number 57
_symmetry_cell_setting 'orthorhombic'
loop_
_space_group_symop_operation_xyz
x,y,z
-x,-y,1/2+z
x,1/2-y,-z
-x,1/2+y,1/2-z
-x,-y,-z
x,y,1/2-z
-x,1/2+y,z
x,1/2-y,1/2+z
loop_
_atom_site_type_symbol
_atom_site_label
_atom_site_fract_x
_atom_site_fract_y
_atom_site_fract_z
Si Si1 0.165468 0.820476 0.923050
Si Si2 0.587277 0.448592 0.925071
Si Si3 0.906167 0.948042 0.577166
Si Si4 0.555903 0.915360 0.576440
Si Si5 0.268156 0.571510 0.426395
Si Si6 0.226389 0.075529 0.572938
Si Si7 0.946593 0.080388 0.079176
Si Si8 0.327052 0.321570 0.925742
O O1 0.179808 0.809481 0.750000
O O2 0.219979 0.871613 0.993494
O O3 0.091684 0.850203 0.951271
O O4 0.172590 0.750000 0.000000
O O5 0.588755 0.459857 0.750000
O O6 0.521811 0.405863 0.973330
O O7 0.655510 0.411865 0.975504
O O8 0.587569 0.522247 0.992778
O O9 0.885489 0.946473 0.750000
O O10 0.849552 0.912025 0.479274
O O11 0.975149 0.907990 0.548437
O O12 0.915962 0.024687 0.528523
O O13 0.559726 0.932458 0.750000
O O14 0.598606 0.849498 0.538330
O O15 0.259291 0.571100 0.250000
O O16 0.247764 0.498042 0.484813
O O17 0.232311 0.083683 0.750000
O O18 0.272330 0.129874 0.494460
O O19 0.934679 0.056431 0.250000
O O20 0.314794 0.315458 0.750000
O O21 0.320203 0.250000 0.000000
#
# Coordination Sequence:
#
# PCOD8231048 Si02
#       8
#     8   8   8   8   8   8   8   8
#     4  10  20  36  53  75 106 143 181 220 265 320
#     4   9  16  30  53  79 104 136 174 213 263 319
#     4  10  19  31  53  83 109 136 175 228 274 318
#     4   9  18  31  50  78 108 133 169 222 265 308
#     4   9  17  31  54  78 105 141 179 215 265 324
#     4  11  20  35  57  81 108 144 181 224 277 333
#     4   9  18  34  53  75 108 143 178 221 270 324
#     4  11  23  38  54  78 110 146 184 228 276 330
#
# _framework density 17.823535
#
# number of rings (size 3 to 8) (size 9 to 14) (size 15 to 20)
#    0.000    2.250    2.500    1.125    0.000    1.500 
#    0.000    1.875    0.000    1.500    0.000    0.000 
#    0.000    0.000    0.000    0.000    0.000    0.000 
#
# Total GULP energy -793408.247816 kJ/mol
# GULP energy per Si atom -12397.003872 kJ/mol
# Density = 1.778297 g / cm^3
# Si number density = 17.823535 Si / 1000 Ang^3
#
#
#
# Elastic Constant Matrix: (Units=GPa)
#
#
# Indices 1 2 3 4 5 6 
#
# 1 150.0921 78.3756 44.0456 0.0000 0.0000 0.0000
# 2 78.3756 129.9358 42.7823 0.0000 0.0000 0.0000
# 3 44.0456 42.7823 55.9979 0.0000 0.0000 0.0000
# 4 0.0000 0.0000 0.0000 27.9357 0.0000 0.0000
# 5 0.0000 0.0000 0.0000 0.0000 23.6653 0.0000
# 6 0.0000 0.0000 0.0000 0.0000 0.0000 24.8457
#
#
#
# Elastic Compliance Matrix: (Units=1/GPa)
#
#
# Indices 1 2 3 4 5 6 
#
# 1 0.010540 -0.004847 -0.004587 0.000000 0.000000 0.000000
# 2 -0.004847 0.012512 -0.005747 0.000000 0.000000 0.000000
# 3 -0.004587 -0.005747 0.025856 0.000000 0.000000 0.000000
# 4 0.000000 0.000000 0.000000 0.035797 0.000000 0.000000
# 5 0.000000 0.000000 0.000000 0.000000 0.042256 0.000000
# 6 0.000000 0.000000 0.000000 0.000000 0.000000 0.040248
#
#
# Mechanical properties :
#
#
# Convention : Reuss Voigt Hill
#
# Bulk Modulus (GPa) = 53.91846 74.04810 63.98328
# Shear Modulus (GPa) = 24.53964 26.67748 25.60856
#
# Velocity S-wave (km/s) = 3.71457 3.87299 3.79460
# Velocity P-wave (km/s) = 6.97956 7.85082 7.42798
#
# Compressibility (1/GPa) = 0.01854652
#
# Stress axis : x y z
#
# Youngs Moduli (GPa) = 94.87894 79.92363 38.67571
#
# Poissons Ratio (x) = 0.38740 0.17740
# Poissons Ratio (y) = 0.45989 0.22225
# Poissons Ratio (z) = 0.43520 0.45928
#
# Static dielectric constant tensor:
#      x y z
#    x 3.940010 0.000000 0.000000 
#    y 0.000000 3.163410 0.000000 
#    z 0.000000 0.000000 3.244870 
# 
# 
# High freq. dielectric constant tensor:
#      x y z
#    x 1.710790 0.000000 0.000000 
#    y 0.000000 1.656350 0.000000 
#    z 0.000000 0.000000 1.682020 
# 
# From -- ./inp_files/8681.got.cif
#   From: 2010.03.12/outbox.cif.g09.slc.cpg/sg57_5_cif.got.tgz:8681.got - 2010.04.16 15:48:40.
