data_PCOD8231468
_publ_section_title
;
Structure prediction by ZEFSAII (Michael W. Deem and Ramdas Pophale) SiO2 
 PCOD8231468
Probable space group: P B C M
;
_chemical_formula_sum "Si O2"
_cell_formula_units_Z 40
_cell_length_a 13.790191
_cell_length_b 17.722941
_cell_length_c 8.932494
_cell_angle_alpha 90.000000
_cell_angle_beta 90.000000
_cell_angle_gamma 90.000000
_cell_volume 2183.126022
_symmetry_space_group_name_H-M "P B C M"
_symmetry_group_IT_number 57
_symmetry_cell_setting 'orthorhombic'
loop_
_space_group_symop_operation_xyz
x,y,z
-x,-y,1/2+z
x,1/2-y,-z
-x,1/2+y,1/2-z
-x,-y,-z
x,y,1/2-z
-x,1/2+y,z
x,1/2-y,1/2+z
loop_
_atom_site_type_symbol
_atom_site_label
_atom_site_fract_x
_atom_site_fract_y
_atom_site_fract_z
Si Si1 0.697519 0.675246 0.926611
Si Si2 0.221016 0.543156 0.920916
Si Si3 0.928683 0.169771 0.574955
Si Si4 0.600300 0.980401 0.075316
Si Si5 0.881111 0.889677 0.925404
O O1 0.708231 0.684881 0.750000
O O2 0.629303 0.604857 0.968739
O O3 0.650183 0.750000 0.000000
O O4 0.803290 0.665253 0.998540
O O5 0.255449 0.536209 0.750000
O O6 0.169142 0.622388 0.952329
O O7 0.145909 0.476259 0.958901
O O8 0.316530 0.538124 0.022368
O O9 0.912181 0.250000 0.500000
O O10 0.951303 0.179371 0.750000
O O11 0.015707 0.125021 0.498705
O O12 0.587685 0.990320 0.250000
O O13 0.500000 0.000000 0.000000
O O14 0.885457 0.871431 0.750000
#
# Coordination Sequence:
#
# PCOD8231468 Si02
#       5
#     8   8   8   8   8
#     4  10  20  34  53  80 109 137 170 213 261 309
#     4   9  20  37  56  77 103 136 176 218 261 309
#     4  11  22  35  51  75 108 144 179 216 255 304
#     4  10  21  37  59  82 105 134 172 216 263 314
#     4  10  19  33  54  78 105 139 175 215 260 308
#
# _framework density 18.32235
#
# number of rings (size 3 to 8) (size 9 to 14) (size 15 to 20)
#    0.000    2.000    0.000    3.600    0.000    4.800 
#    0.000    1.000    0.000    0.000    0.000    0.000 
#    0.000    0.000    0.000    0.000    0.000    0.000 
#
# Total GULP energy -496152.460730 kJ/mol
# GULP energy per Si atom -12403.811518 kJ/mol
# Density = 1.828065 g / cm^3
# Si number density = 18.322350 Si / 1000 Ang^3
#
#
#
# Elastic Constant Matrix: (Units=GPa)
#
#
# Indices 1 2 3 4 5 6 
#
# 1 118.9519 49.9272 63.2372 0.0000 0.0000 0.0000
# 2 49.9272 79.3947 45.0204 0.0000 0.0000 0.0000
# 3 63.2372 45.0204 102.6929 0.0000 0.0000 0.0000
# 4 0.0000 0.0000 0.0000 30.9426 0.0000 0.0000
# 5 0.0000 0.0000 0.0000 0.0000 35.8940 0.0000
# 6 0.0000 0.0000 0.0000 0.0000 0.0000 17.4624
#
#
#
# Elastic Compliance Matrix: (Units=1/GPa)
#
#
# Indices 1 2 3 4 5 6 
#
# 1 0.013938 -0.005188 -0.006309 0.000000 0.000000 0.000000
# 2 -0.005188 0.018693 -0.005001 0.000000 0.000000 0.000000
# 3 -0.006309 -0.005001 0.015815 0.000000 0.000000 0.000000
# 4 0.000000 0.000000 0.000000 0.032318 0.000000 0.000000
# 5 0.000000 0.000000 0.000000 0.000000 0.027860 0.000000
# 6 0.000000 0.000000 0.000000 0.000000 0.000000 0.057266
#
#
# Mechanical properties :
#
#
# Convention : Reuss Voigt Hill
#
# Bulk Modulus (GPa) = 64.71531 68.60100 66.65816
# Shear Modulus (GPa) = 24.50578 26.38343 25.44460
#
# Velocity S-wave (km/s) = 3.66113 3.79880 3.73060
# Velocity P-wave (km/s) = 7.29855 7.53416 7.41729
#
# Compressibility (1/GPa) = 0.01545229
#
# Stress axis : x y z
#
# Youngs Moduli (GPa) = 71.74691 53.49593 63.23199
#
# Poissons Ratio (x) = 0.27751 0.39891
# Poissons Ratio (y) = 0.37219 0.31619
# Poissons Ratio (z) = 0.45262 0.26751
#
# Static dielectric constant tensor:
#      x y z
#    x 3.211300 0.000000 0.000000 
#    y 0.000000 3.487410 0.000000 
#    z 0.000000 0.000000 3.516740 
# 
# 
# High freq. dielectric constant tensor:
#      x y z
#    x 1.695780 0.000000 0.000000 
#    y 0.000000 1.713370 0.000000 
#    z 0.000000 0.000000 1.726300 
# 
# From -- ./inp_files/2610.got.cif
#   From: 2010.03.12/outbox.cif.g09.slc.cpg/sg57_2_cif.got.tgz:2610.got - 2010.04.16 15:48:40.
