data_PCOD8231560
_publ_section_title
;
Structure prediction by ZEFSAII (Michael W. Deem and Ramdas Pophale) SiO2 
 PCOD8231560
Probable space group: P B C M
;
_chemical_formula_sum "Si O2"
_cell_formula_units_Z 56
_cell_length_a 9.125981
_cell_length_b 19.282309
_cell_length_c 17.739300
_cell_angle_alpha 90.000000
_cell_angle_beta 90.000000
_cell_angle_gamma 90.000000
_cell_volume 3121.584365
_symmetry_space_group_name_H-M "P B C M"
_symmetry_group_IT_number 57
_symmetry_cell_setting 'orthorhombic'
loop_
_space_group_symop_operation_xyz
x,y,z
-x,-y,1/2+z
x,1/2-y,-z
-x,1/2+y,1/2-z
-x,-y,-z
x,y,1/2-z
-x,1/2+y,z
x,1/2-y,1/2+z
loop_
_atom_site_type_symbol
_atom_site_label
_atom_site_fract_x
_atom_site_fract_y
_atom_site_fract_z
Si Si1 0.365605 0.777667 0.833297
Si Si2 0.653990 0.861748 0.518454
Si Si3 0.333049 0.265282 0.118185
Si Si4 0.859579 0.528829 0.546084
Si Si5 0.821128 0.193151 0.941635
Si Si6 0.925760 0.640643 0.836243
Si Si7 0.664825 0.399353 0.558379
O O1 0.295854 0.772820 0.750000
O O2 0.537638 0.760171 0.826791
O O3 0.309655 0.721053 0.891231
O O4 0.322330 0.852736 0.866523
O O5 0.717721 0.806144 0.578110
O O6 0.609919 0.820749 0.442966
O O7 0.785553 0.915728 0.509467
O O8 0.508647 0.903909 0.542315
O O9 0.206173 0.303539 0.164927
O O10 0.895975 0.566432 0.625068
O O11 0.738400 0.473299 0.572492
O O12 0.000000 0.500000 0.500000
O O13 0.947707 0.174117 0.885007
O O14 0.882754 0.250000 0.000000
O O15 0.756344 0.129068 0.987477
O O16 0.973576 0.627034 0.750000
#
# Coordination Sequence:
#
# PCOD8231560 Si02
#       7
#     8   8   8   8   8   8   8
#     4  10  19  33  56  82 110 139 172 228 283 326
#     4   9  18  33  58  83 106 139 183 234 267 320
#     4   9  18  33  57  84 108 136 178 226 282 331
#     4  11  22  35  55  79 109 150 191 220 264 328
#     4  10  20  34  56  81 108 138 187 226 269 328
#     4  11  23  36  54  82 115 145 179 232 284 325
#     4  10  19  36  54  80 107 142 188 223 265 327
#
# _framework density 17.939608
#
# number of rings (size 3 to 8) (size 9 to 14) (size 15 to 20)
#    0.000    2.000    2.857    1.286    4.000    0.571 
#    0.000    0.000    0.000    4.286    0.000    0.000 
#    0.000    0.000    0.000    0.000    0.000    0.000 
#
# Total GULP energy -693929.532269 kJ/mol
# GULP energy per Si atom -12391.598791 kJ/mol
# Density = 1.789878 g / cm^3
# Si number density = 17.939608 Si / 1000 Ang^3
#
#
#
# Elastic Constant Matrix: (Units=GPa)
#
#
# Indices 1 2 3 4 5 6 
#
# 1 76.9065 44.9483 37.3099 0.0000 0.0000 0.0000
# 2 44.9483 101.4680 39.8735 0.0000 0.0000 0.0000
# 3 37.3099 39.8735 115.4763 0.0000 0.0000 0.0000
# 4 0.0000 0.0000 0.0000 -28.1971 0.0000 0.0000
# 5 0.0000 0.0000 0.0000 0.0000 -16.5015 0.0000
# 6 0.0000 0.0000 0.0000 0.0000 0.0000 4.4774
#
#
#
# Elastic Compliance Matrix: (Units=1/GPa)
#
#
# Indices 1 2 3 4 5 6 
#
# 1 0.018822 -0.006882 -0.003705 0.000000 0.000000 0.000000
# 2 -0.006882 0.013919 -0.002583 0.000000 0.000000 0.000000
# 3 -0.003705 -0.002583 0.010749 0.000000 0.000000 0.000000
# 4 0.000000 0.000000 0.000000 -0.035465 0.000000 0.000000
# 5 0.000000 0.000000 0.000000 0.000000 -0.060601 0.000000
# 6 0.000000 0.000000 0.000000 0.000000 0.000000 0.223343
#
#
# Mechanical properties :
#
#
# Convention : Reuss Voigt Hill
#
# Bulk Modulus (GPa) = 58.30723 59.79046 59.04884
# Shear Modulus (GPa) = 24.65197 3.40370 14.02784
#
# Velocity S-wave (km/s) = 3.71099 1.37892 2.79937
# Velocity P-wave (km/s) = 7.13684 5.99469 6.59055
#
# Compressibility (1/GPa) = 0.01715053
#
# Stress axis : x y z
#
# Youngs Moduli (GPa) = 53.12794 71.84544 93.03494
#
# Poissons Ratio (x) = 0.49444 0.34471
# Poissons Ratio (y) = 0.36563 0.24027
# Poissons Ratio (z) = 0.19685 0.18554
#
# Static dielectric constant tensor:
#      x y z
#    x 3.650890 0.000000 0.000000 
#    y 0.000000 3.181180 0.000000 
#    z 0.000000 0.000000 3.169810 
# 
# 
# High freq. dielectric constant tensor:
#      x y z
#    x 1.697430 0.000000 0.000000 
#    y 0.000000 1.692130 0.000000 
#    z 0.000000 0.000000 1.684010 
# 
# From -- ./inp_files/21350.got.cif
#   From: 2010.03.12/outbox.cif.g09.slc.cpg/sg57_11_cif.got.tgz:21350.got - 2010.04.16 15:48:40.
