data_PCOD8231645
_publ_section_title
;
Structure prediction by ZEFSAII (Michael W. Deem and Ramdas Pophale) SiO2 
 PCOD8231645
Probable space group: P B C M
;
_chemical_formula_sum "Si O2"
_cell_formula_units_Z 48
_cell_length_a 15.181274
_cell_length_b 8.923544
_cell_length_c 15.607938
_cell_angle_alpha 90.000000
_cell_angle_beta 90.000000
_cell_angle_gamma 90.000000
_cell_volume 2114.419325
_symmetry_space_group_name_H-M "P B C M"
_symmetry_group_IT_number 57
_symmetry_cell_setting 'orthorhombic'
loop_
_space_group_symop_operation_xyz
x,y,z
-x,-y,1/2+z
x,1/2-y,-z
-x,1/2+y,1/2-z
-x,-y,-z
x,y,1/2-z
-x,1/2+y,z
x,1/2-y,1/2+z
loop_
_atom_site_type_symbol
_atom_site_label
_atom_site_fract_x
_atom_site_fract_y
_atom_site_fract_z
Si Si1 0.904552 0.162244 0.154550
Si Si2 0.572447 0.361938 0.852285
Si Si3 0.400894 0.971802 0.351723
Si Si4 0.255972 0.028893 0.648025
Si Si5 0.949285 0.020770 0.588410
Si Si6 0.776943 0.633514 0.147908
O O1 0.881723 0.218754 0.250000
O O2 0.931379 0.303883 0.098338
O O3 0.819879 0.081459 0.112191
O O4 0.984708 0.043651 0.160403
O O5 0.572894 0.357825 0.750000
O O6 0.479812 0.424446 0.887498
O O7 0.649882 0.471148 0.885866
O O8 0.588018 0.195409 0.889147
O O9 0.406659 0.968769 0.250000
O O10 0.307553 0.037496 0.380740
O O11 0.252578 0.026544 0.750000
O O12 0.239084 0.197203 0.616459
O O13 0.858452 0.929839 0.594155
O O14 0.000000 0.000000 0.500000
O O15 0.794021 0.622206 0.250000
#
# Coordination Sequence:
#
# PCOD8231645 Si02
#       6
#     8   8   8   8   8   8
#     4  11  22  39  61  84 111 152 198 244 295 358
#     4   9  15  25  41  72 113 151 190 242 301 354
#     4   9  16  25  44  73 112 156 198 244 299 355
#     4   9  18  31  52  80 112 149 196 248 301 355
#     4  12  25  40  58  84 117 151 193 248 307 360
#     4  10  19  34  54  79 111 155 204 250 298 360
#
# _framework density 22.701269
#
# number of rings (size 3 to 8) (size 9 to 14) (size 15 to 20)
#    0.000    2.000    0.000    5.000    0.000    8.000 
#    0.000    0.000    0.000    0.000    0.000    1.167 
#    0.000    2.667    0.000    0.833    0.000    2.000 
#
# Total GULP energy -595231.033354 kJ/mol
# GULP energy per Si atom -12400.646528 kJ/mol
# Density = 2.264960 g / cm^3
# Si number density = 22.701269 Si / 1000 Ang^3
#
#
#
# Elastic Constant Matrix: (Units=GPa)
#
#
# Indices 1 2 3 4 5 6 
#
# 1 208.3428 83.8058 32.4361 0.0000 0.0000 0.0000
# 2 83.8058 163.1694 35.9459 0.0000 0.0000 0.0000
# 3 32.4361 35.9459 38.3912 0.0000 0.0000 0.0000
# 4 0.0000 0.0000 0.0000 18.2534 0.0000 0.0000
# 5 0.0000 0.0000 0.0000 0.0000 15.6466 0.0000
# 6 0.0000 0.0000 0.0000 0.0000 0.0000 56.0590
#
#
#
# Elastic Compliance Matrix: (Units=1/GPa)
#
#
# Indices 1 2 3 4 5 6 
#
# 1 0.006294 -0.002597 -0.002886 0.000000 0.000000 0.000000
# 2 -0.002597 0.008793 -0.006039 0.000000 0.000000 0.000000
# 3 -0.002886 -0.006039 0.034140 0.000000 0.000000 0.000000
# 4 0.000000 0.000000 0.000000 0.054784 0.000000 0.000000
# 5 0.000000 0.000000 0.000000 0.000000 0.063912 0.000000
# 6 0.000000 0.000000 0.000000 0.000000 0.000000 0.017838
#
#
# Mechanical properties :
#
#
# Convention : Reuss Voigt Hill
#
# Bulk Modulus (GPa) = 38.19212 79.36432 58.77822
# Shear Modulus (GPa) = 22.98522 35.17286 29.07904
#
# Velocity S-wave (km/s) = 3.18545 3.94048 3.58291
# Velocity P-wave (km/s) = 5.51269 7.46588 6.56236
#
# Compressibility (1/GPa) = 0.02618341
#
# Stress axis : x y z
#
# Youngs Moduli (GPa) = 158.89102 113.73217 29.29111
#
# Poissons Ratio (x) = 0.29533 0.08454
# Poissons Ratio (y) = 0.41259 0.17688
# Poissons Ratio (z) = 0.45858 0.68679
#
# Static dielectric constant tensor:
#      x y z
#    x 4.373780 0.000000 0.000000 
#    y 0.000000 4.316010 0.000000 
#    z 0.000000 0.000000 3.433330 
# 
# 
# High freq. dielectric constant tensor:
#      x y z
#    x 1.912780 0.000000 0.000000 
#    y 0.000000 1.910480 0.000000 
#    z 0.000000 0.000000 1.844660 
# 
# From -- ./inp_files/22494.got.cif
#   From: 2010.03.12/outbox.cif.g09.slc.cpg/sg57_12_cif.got.tgz:22494.got - 2010.04.16 15:48:40.
