data_PCOD8231613
_publ_section_title
;
Structure prediction by ZEFSAII (Michael W. Deem and Ramdas Pophale) SiO2 
 PCOD8231613
Probable space group: P B C M
;
_chemical_formula_sum "Si O2"
_cell_formula_units_Z 56
_cell_length_a 12.480421
_cell_length_b 10.301445
_cell_length_c 26.093603
_cell_angle_alpha 90.000000
_cell_angle_beta 90.000000
_cell_angle_gamma 90.000000
_cell_volume 3354.759831
_symmetry_space_group_name_H-M "P B C M"
_symmetry_group_IT_number 57
_symmetry_cell_setting 'orthorhombic'
loop_
_space_group_symop_operation_xyz
x,y,z
-x,-y,1/2+z
x,1/2-y,-z
-x,1/2+y,1/2-z
-x,-y,-z
x,y,1/2-z
-x,1/2+y,z
x,1/2-y,1/2+z
loop_
_atom_site_type_symbol
_atom_site_label
_atom_site_fract_x
_atom_site_fract_y
_atom_site_fract_z
Si Si1 0.438243 0.734035 0.807137
Si Si2 0.293940 0.475936 0.911995
Si Si3 0.911253 0.232934 0.438606
Si Si4 0.490057 0.126160 0.033513
Si Si5 0.318713 0.730158 0.094948
Si Si6 0.614146 0.553338 0.192054
Si Si7 0.939992 0.986367 0.554572
O O1 0.398096 0.765798 0.750000
O O2 0.342819 0.777762 0.844667
O O3 0.544666 0.817381 0.819121
O O4 0.458974 0.578270 0.813697
O O5 0.387906 0.381356 0.929660
O O6 0.327880 0.622869 0.925882
O O7 0.288769 0.455179 0.849773
O O8 0.184954 0.443096 0.943309
O O9 0.902531 0.250000 0.500000
O O10 0.800429 0.179836 0.415875
O O11 0.944771 0.374703 0.416302
O O12 0.997392 0.129829 0.417715
O O13 0.598789 0.138822 0.065494
O O14 0.467770 0.250000 0.000000
O O15 0.500000 0.000000 0.000000
O O16 0.661981 0.559614 0.250000
O O17 0.000000 0.000000 0.500000
#
# Coordination Sequence:
#
# PCOD8231613 Si02
#       7
#     8   8   8   8   8   8   8
#     4   9  17  30  50  73  97 128 165 200 243 297
#     4  10  20  35  51  74 103 133 171 207 250 302
#     4   9  18  33  51  66  92 127 167 204 244 286
#     4  12  23  32  46  71 106 137 167 196 243 302
#     4  10  19  34  51  70 101 136 161 201 253 298
#     4   9  17  31  51  73 100 131 165 205 249 300
#     4   9  19  33  51  68  92 126 169 209 241 288
#
# _framework density 16.692699999999999
#
# number of rings (size 3 to 8) (size 9 to 14) (size 15 to 20)
#    0.000    2.286    2.857    0.429    4.000    1.714 
#    0.000    0.000    0.000    0.857    0.000    0.000 
#    0.000    0.000    0.000    0.000    0.000    0.000 
#
# Total GULP energy -693757.467474 kJ/mol
# GULP energy per Si atom -12388.526205 kJ/mol
# Density = 1.665471 g / cm^3
# Si number density = 16.692700 Si / 1000 Ang^3
#
#
#
# Elastic Constant Matrix: (Units=GPa)
#
#
# Indices 1 2 3 4 5 6 
#
# 1 123.8005 50.9236 45.2184 0.0000 0.0000 0.0000
# 2 50.9236 83.1246 23.9673 0.0000 0.0000 0.0000
# 3 45.2184 23.9673 75.0924 0.0000 0.0000 0.0000
# 4 0.0000 0.0000 0.0000 19.0545 0.0000 0.0000
# 5 0.0000 0.0000 0.0000 0.0000 19.7160 0.0000
# 6 0.0000 0.0000 0.0000 0.0000 0.0000 30.8670
#
#
#
# Elastic Compliance Matrix: (Units=1/GPa)
#
#
# Indices 1 2 3 4 5 6 
#
# 1 0.012670 -0.006126 -0.005674 0.000000 0.000000 0.000000
# 2 -0.006126 0.016211 -0.001485 0.000000 0.000000 0.000000
# 3 -0.005674 -0.001485 0.017208 0.000000 0.000000 0.000000
# 4 0.000000 0.000000 0.000000 0.052481 0.000000 0.000000
# 5 0.000000 0.000000 0.000000 0.000000 0.050720 0.000000
# 6 0.000000 0.000000 0.000000 0.000000 0.000000 0.032397
#
#
# Mechanical properties :
#
#
# Convention : Reuss Voigt Hill
#
# Bulk Modulus (GPa) = 51.23441 58.02622 54.63032
# Shear Modulus (GPa) = 23.28141 24.72139 24.00140
#
# Velocity S-wave (km/s) = 3.73863 3.85251 3.79600
# Velocity P-wave (km/s) = 7.02821 7.39094 7.21186
#
# Compressibility (1/GPa) = 0.01951813
#
# Stress axis : x y z
#
# Youngs Moduli (GPa) = 78.92836 61.68607 58.11297
#
# Poissons Ratio (x) = 0.37787 0.32974
# Poissons Ratio (y) = 0.48349 0.08632
# Poissons Ratio (z) = 0.44785 0.09163
#
# Static dielectric constant tensor:
#      x y z
#    x 3.041020 0.000000 0.000000 
#    y 0.000000 3.508280 0.000000 
#    z 0.000000 0.000000 3.169850 
# 
# 
# High freq. dielectric constant tensor:
#      x y z
#    x 1.617350 0.000000 0.000000 
#    y 0.000000 1.653530 0.000000 
#    z 0.000000 0.000000 1.628900 
# 
# From -- ./inp_files/27233.got.cif
#   From: 2010.03.12/outbox.cif.g09.slc.cpg/sg57_14_cif.got.tgz:27233.got - 2010.04.16 15:48:40.
