data_PCOD8231051
_publ_section_title
;
Structure prediction by ZEFSAII (Michael W. Deem and Ramdas Pophale) SiO2 
 PCOD8231051
Probable space group: P B C M
;
_chemical_formula_sum "Si O2"
_cell_formula_units_Z 56
_cell_length_a 16.408926
_cell_length_b 14.075043
_cell_length_c 13.997716
_cell_angle_alpha 90.000000
_cell_angle_beta 90.000000
_cell_angle_gamma 90.000000
_cell_volume 3232.861242
_symmetry_space_group_name_H-M "P B C M"
_symmetry_group_IT_number 57
_symmetry_cell_setting 'orthorhombic'
loop_
_space_group_symop_operation_xyz
x,y,z
-x,-y,1/2+z
x,1/2-y,-z
-x,1/2+y,1/2-z
-x,-y,-z
x,y,1/2-z
-x,1/2+y,z
x,1/2-y,1/2+z
loop_
_atom_site_type_symbol
_atom_site_label
_atom_site_fract_x
_atom_site_fract_y
_atom_site_fract_z
Si Si1 0.029174 0.146418 0.026706
Si Si2 0.813736 0.706676 0.361573
Si Si3 0.228870 0.413156 0.142520
Si Si4 0.938706 0.995367 0.359982
Si Si5 0.497918 0.148644 0.461114
Si Si6 0.649606 0.908495 0.856519
Si Si7 0.383999 0.007226 0.540755
O O1 0.117720 0.153136 0.076662
O O2 0.994873 0.250000 0.000000
O O3 0.027084 0.087765 0.927863
O O4 0.968788 0.097436 0.102918
O O5 0.840412 0.708152 0.250000
O O6 0.801422 0.813495 0.404901
O O7 0.729231 0.653087 0.376305
O O8 0.247840 0.383649 0.250000
O O9 0.159295 0.493042 0.133709
O O10 0.310861 0.458777 0.105250
O O11 0.967235 0.978163 0.250000
O O12 0.524584 0.250000 0.500000
O O13 0.430889 0.157260 0.375864
O O14 0.580497 0.094709 0.426514
O O15 0.457068 0.085606 0.546476
O O16 0.647927 0.949547 0.750000
O O17 0.648328 0.996903 0.930393
#
# Coordination Sequence:
#
# PCOD8231051 Si02
#       7
#     8   8   8   8   8   8   8
#     4  11  21  34  57  79 108 145 176 216 275 321
#     4  10  19  31  54  83 105 135 175 221 272 318
#     4  10  19  33  54  79 106 138 176 223 266 313
#     4  10  22  36  51  80 113 140 177 220 266 324
#     4   9  18  33  50  70 104 138 174 216 259 310
#     4   9  18  30  48  75 106 132 165 216 268 310
#     4   9  19  32  50  76 101 136 173 218 266 309
#
# _framework density 17.322116999999999
#
# number of rings (size 3 to 8) (size 9 to 14) (size 15 to 20)
#    0.857    1.429    1.429    2.143    0.000    1.143 
#    0.000    1.429    0.000    0.000    0.000    8.000 
#    0.000    0.000    0.000    0.000    0.000    0.000 
#
# Total GULP energy -693836.111440 kJ/mol
# GULP energy per Si atom -12389.930561 kJ/mol
# Density = 1.728269 g / cm^3
# Si number density = 17.322117 Si / 1000 Ang^3
#
#
#
# Elastic Constant Matrix: (Units=GPa)
#
#
# Indices 1 2 3 4 5 6 
#
# 1 83.2727 49.5483 37.0608 0.0000 0.0000 0.0000
# 2 49.5483 101.1450 35.6790 0.0000 0.0000 0.0000
# 3 37.0608 35.6790 69.2688 0.0000 0.0000 0.0000
# 4 0.0000 0.0000 0.0000 21.8239 0.0000 0.0000
# 5 0.0000 0.0000 0.0000 0.0000 26.0869 0.0000
# 6 0.0000 0.0000 0.0000 0.0000 0.0000 24.1494
#
#
#
# Elastic Compliance Matrix: (Units=1/GPa)
#
#
# Indices 1 2 3 4 5 6 
#
# 1 0.019144 -0.007045 -0.006614 0.000000 0.000000 0.000000
# 2 -0.007045 0.014675 -0.003789 0.000000 0.000000 0.000000
# 3 -0.006614 -0.003789 0.019927 0.000000 0.000000 0.000000
# 4 0.000000 0.000000 0.000000 0.045821 0.000000 0.000000
# 5 0.000000 0.000000 0.000000 0.000000 0.038333 0.000000
# 6 0.000000 0.000000 0.000000 0.000000 0.000000 0.041409
#
#
# Mechanical properties :
#
#
# Convention : Reuss Voigt Hill
#
# Bulk Modulus (GPa) = 53.05276 55.36253 54.20765
# Shear Modulus (GPa) = 22.67683 23.17194 22.92439
#
# Velocity S-wave (km/s) = 3.62211 3.66144 3.64183
# Velocity P-wave (km/s) = 6.94166 7.06433 7.00326
#
# Compressibility (1/GPa) = 0.01884916
#
# Stress axis : x y z
#
# Youngs Moduli (GPa) = 52.23488 68.14434 50.18340
#
# Poissons Ratio (x) = 0.48009 0.33191
# Poissons Ratio (y) = 0.36801 0.19016
# Poissons Ratio (z) = 0.34548 0.25822
#
# Static dielectric constant tensor:
#      x y z
#    x 3.179370 0.000000 0.000000 
#    y 0.000000 3.071170 0.000000 
#    z 0.000000 0.000000 3.308550 
# 
# 
# High freq. dielectric constant tensor:
#      x y z
#    x 1.661500 0.000000 0.000000 
#    y 0.000000 1.641380 0.000000 
#    z 0.000000 0.000000 1.673300 
# 
# From -- ./inp_files/19165.got.cif
#   From: 2010.03.12/outbox.cif.g09.slc.cpg/sg57_10_cif.got.tgz:19165.got - 2010.04.16 15:48:40.
