data_PCOD8231253
_publ_section_title
;
Structure prediction by ZEFSAII (Michael W. Deem and Ramdas Pophale) SiO2 
 PCOD8231253
Probable space group: P B C M
;
_chemical_formula_sum "Si O2"
_cell_formula_units_Z 64
_cell_length_a 12.083364
_cell_length_b 30.465217
_cell_length_c 9.389321
_cell_angle_alpha 90.000000
_cell_angle_beta 90.000000
_cell_angle_gamma 90.000000
_cell_volume 3456.418502
_symmetry_space_group_name_H-M "P B C M"
_symmetry_group_IT_number 57
_symmetry_cell_setting 'orthorhombic'
loop_
_space_group_symop_operation_xyz
x,y,z
-x,-y,1/2+z
x,1/2-y,-z
-x,1/2+y,1/2-z
-x,-y,-z
x,y,1/2-z
-x,1/2+y,z
x,1/2-y,1/2+z
loop_
_atom_site_type_symbol
_atom_site_label
_atom_site_fract_x
_atom_site_fract_y
_atom_site_fract_z
Si Si1 0.751308 0.106014 0.914533
Si Si2 0.045733 0.872289 0.584805
Si Si3 0.878966 0.569888 0.584106
Si Si4 0.724174 0.849543 0.090965
Si Si5 0.207688 0.505586 0.906543
Si Si6 0.558151 0.534729 0.404515
Si Si7 0.882156 0.706612 0.085520
Si Si8 0.501409 0.113163 0.590659
O O1 0.784717 0.112797 0.750000
O O2 0.758219 0.054440 0.957371
O O3 0.628389 0.125931 0.942452
O O4 0.832600 0.133206 0.016975
O O5 0.052776 0.885946 0.750000
O O6 0.984469 0.910272 0.496893
O O7 0.984565 0.826123 0.566532
O O8 0.907639 0.565383 0.750000
O O9 0.772203 0.601363 0.559535
O O10 0.865221 0.520482 0.522473
O O11 0.762802 0.835737 0.250000
O O12 0.589533 0.847732 0.083548
O O13 0.770900 0.814902 0.978095
O O14 0.149373 0.507743 0.750000
O O15 0.314565 0.475862 0.889751
O O16 0.500000 0.500000 0.500000
O O17 0.500851 0.534692 0.250000
O O18 0.543425 0.581754 0.470967
O O19 0.859618 0.717751 0.250000
O O20 0.913893 0.750000 0.000000
O O21 0.498526 0.091838 0.750000
#
# Coordination Sequence:
#
# PCOD8231253 Si02
#       8
#     8   8   8   8   8   8   8   8
#     4  10  21  36  52  72 105 149 192 229 266 312
#     4  10  22  39  56  78 108 138 176 225 270 320
#     4  10  19  32  53  76 101 139 184 229 277 324
#     4   9  18  32  54  83 113 139 169 211 264 322
#     4  10  20  32  47  70 103 142 187 238 279 313
#     4  11  20  30  46  69 101 141 187 235 275 314
#     4  10  21  38  63  90 113 133 162 208 262 321
#     4  10  19  34  52  76 108 143 181 222 266 314
#
# _framework density 18.516276000000001
#
# number of rings (size 3 to 8) (size 9 to 14) (size 15 to 20)
#    0.000    2.000    2.500    1.500    0.000    4.500 
#    0.000    0.000    0.000    0.750    0.000    1.750 
#    0.000    0.000    0.000    0.000    0.000    0.000 
#
# Total GULP energy -793259.944433 kJ/mol
# GULP energy per Si atom -12394.686632 kJ/mol
# Density = 1.847413 g / cm^3
# Si number density = 18.516276 Si / 1000 Ang^3
#
#
#
# Elastic Constant Matrix: (Units=GPa)
#
#
# Indices 1 2 3 4 5 6 
#
# 1 113.9709 27.8977 55.7047 0.0000 0.0000 0.0000
# 2 27.8977 52.0844 44.1586 0.0000 0.0000 0.0000
# 3 55.7047 44.1586 132.7989 0.0000 0.0000 0.0000
# 4 0.0000 0.0000 0.0000 29.4923 0.0000 0.0000
# 5 0.0000 0.0000 0.0000 0.0000 28.7521 0.0000
# 6 0.0000 0.0000 0.0000 0.0000 0.0000 13.2251
#
#
#
# Elastic Compliance Matrix: (Units=1/GPa)
#
#
# Indices 1 2 3 4 5 6 
#
# 1 0.011331 -0.002840 -0.003809 0.000000 0.000000 0.000000
# 2 -0.002840 0.027449 -0.007936 0.000000 0.000000 0.000000
# 3 -0.003809 -0.007936 0.011767 0.000000 0.000000 0.000000
# 4 0.000000 0.000000 0.000000 0.033907 0.000000 0.000000
# 5 0.000000 0.000000 0.000000 0.000000 0.034780 0.000000
# 6 0.000000 0.000000 0.000000 0.000000 0.000000 0.075614
#
#
# Mechanical properties :
#
#
# Convention : Reuss Voigt Hill
#
# Bulk Modulus (GPa) = 46.77866 61.59736 54.18801
# Shear Modulus (GPa) = 21.63158 25.70010 23.66584
#
# Velocity S-wave (km/s) = 3.42167 3.72959 3.57895
# Velocity P-wave (km/s) = 6.39756 7.20315 6.81227
#
# Compressibility (1/GPa) = 0.02137727
#
# Stress axis : x y z
#
# Youngs Moduli (GPa) = 88.25486 36.43065 84.98563
#
# Poissons Ratio (x) = 0.10347 0.32367
# Poissons Ratio (y) = 0.25065 0.67446
# Poissons Ratio (z) = 0.33612 0.28912
#
# Static dielectric constant tensor:
#      x y z
#    x 3.489610 0.000000 0.000000 
#    y 0.000000 3.395180 0.000000 
#    z 0.000000 0.000000 3.647700 
# 
# 
# High freq. dielectric constant tensor:
#      x y z
#    x 1.716440 0.000000 0.000000 
#    y 0.000000 1.674600 0.000000 
#    z 0.000000 0.000000 1.732840 
# 
# From -- ./inp_files/3800.got.cif
#   From: 2010.03.12/outbox.cif.g09.slc.cpg/sg57_2_cif.got.tgz:3800.got - 2010.04.16 15:48:40.
