data_PCOD8231649
_publ_section_title
;
Structure prediction by ZEFSAII (Michael W. Deem and Ramdas Pophale) SiO2 
 PCOD8231649
Probable space group: P B C M
;
_chemical_formula_sum "Si O2"
_cell_formula_units_Z 64
_cell_length_a 12.017252
_cell_length_b 31.463592
_cell_length_c 8.789988
_cell_angle_alpha 90.000000
_cell_angle_beta 90.000000
_cell_angle_gamma 90.000000
_cell_volume 3323.546446
_symmetry_space_group_name_H-M "P B C M"
_symmetry_group_IT_number 57
_symmetry_cell_setting 'orthorhombic'
loop_
_space_group_symop_operation_xyz
x,y,z
-x,-y,1/2+z
x,1/2-y,-z
-x,1/2+y,1/2-z
-x,-y,-z
x,y,1/2-z
-x,1/2+y,z
x,1/2-y,1/2+z
loop_
_atom_site_type_symbol
_atom_site_label
_atom_site_fract_x
_atom_site_fract_y
_atom_site_fract_z
Si Si1 0.151710 0.614851 0.425536
Si Si2 0.798915 0.293432 0.928295
Si Si3 0.991927 0.952449 0.069996
Si Si4 0.231878 0.077568 0.430923
Si Si5 0.454887 0.793625 0.569486
Si Si6 0.614486 0.504529 0.418078
Si Si7 0.414668 0.130106 0.572684
Si Si8 0.640207 0.410361 0.418311
O O1 0.123955 0.605689 0.250000
O O2 0.125509 0.664604 0.467723
O O3 0.284606 0.611852 0.453906
O O4 0.093373 0.579059 0.528033
O O5 0.797621 0.286140 0.750000
O O6 0.672348 0.301119 0.985675
O O7 0.849266 0.250000 0.000000
O O8 0.987988 0.958250 0.250000
O O9 0.886981 0.925936 0.009997
O O10 0.000000 0.000000 0.000000
O O11 0.214504 0.078133 0.250000
O O12 0.299901 0.118889 0.485807
O O13 0.300662 0.037231 0.495032
O O14 0.498782 0.750000 0.500000
O O15 0.465925 0.794407 0.750000
O O16 0.537254 0.827276 0.496390
O O17 0.500000 0.500000 0.500000
O O18 0.588483 0.521662 0.250000
O O19 0.675330 0.459441 0.415888
O O20 0.387526 0.135389 0.750000
O O21 0.508959 0.094005 0.542520
O O22 0.662109 0.390393 0.250000
#
# Coordination Sequence:
#
# PCOD8231649 Si02
#       8
#     8   8   8   8   8   8   8   8
#     4  11  22  38  60  87 118 156 198 246 299 355
#     4   9  19  33  54  85 121 156 195 241 296 355
#     4  12  26  45  66  88 115 156 205 255 306 363
#     4  11  23  39  60  85 115 154 197 244 293 347
#     4  10  19  34  54  83 120 159 198 240 294 357
#     4  10  20  33  50  75 108 144 183 227 278 331
#     4  11  21  34  55  84 119 157 195 239 291 350
#     4  10  20  33  51  80 116 153 193 236 285 344
#
# _framework density 19.256539
#
# number of rings (size 3 to 8) (size 9 to 14) (size 15 to 20)
#    0.000    1.500    2.500    3.375    0.000    4.000 
#    0.000    0.000    0.000    0.750    0.000    3.500 
#    0.000    0.000    0.000    0.000    0.000    0.000 
#
# Total GULP energy -793269.060122 kJ/mol
# GULP energy per Si atom -12394.829064 kJ/mol
# Density = 1.921271 g / cm^3
# Si number density = 19.256539 Si / 1000 Ang^3
#
#
#
# Elastic Constant Matrix: (Units=GPa)
#
#
# Indices 1 2 3 4 5 6 
#
# 1 69.0787 28.2137 30.6974 0.0000 0.0000 0.0000
# 2 28.2137 118.7349 42.4677 0.0000 0.0000 0.0000
# 3 30.6974 42.4677 91.6153 0.0000 0.0000 0.0000
# 4 0.0000 0.0000 0.0000 33.0452 0.0000 0.0000
# 5 0.0000 0.0000 0.0000 0.0000 31.4100 0.0000
# 6 0.0000 0.0000 0.0000 0.0000 0.0000 28.3773
#
#
#
# Elastic Compliance Matrix: (Units=1/GPa)
#
#
# Indices 1 2 3 4 5 6 
#
# 1 0.017600 -0.002485 -0.004745 0.000000 0.000000 0.000000
# 2 -0.002485 0.010447 -0.004010 0.000000 0.000000 0.000000
# 3 -0.004745 -0.004010 0.014364 0.000000 0.000000 0.000000
# 4 0.000000 0.000000 0.000000 0.030262 0.000000 0.000000
# 5 0.000000 0.000000 0.000000 0.000000 0.031837 0.000000
# 6 0.000000 0.000000 0.000000 0.000000 0.000000 0.035239
#
#
# Mechanical properties :
#
#
# Convention : Reuss Voigt Hill
#
# Bulk Modulus (GPa) = 50.17449 53.57628 51.87538
# Shear Modulus (GPa) = 29.60815 30.43650 30.02233
#
# Velocity S-wave (km/s) = 3.92543 3.97996 3.95279
# Velocity P-wave (km/s) = 6.83065 7.00021 6.91595
#
# Compressibility (1/GPa) = 0.01993045
#
# Stress axis : x y z
#
# Youngs Moduli (GPa) = 56.81860 95.72312 69.61838
#
# Poissons Ratio (x) = 0.23785 0.33036
# Poissons Ratio (y) = 0.14118 0.27917
# Poissons Ratio (z) = 0.26962 0.38385
#
# Static dielectric constant tensor:
#      x y z
#    x 3.346090 0.000000 0.000000 
#    y 0.000000 3.846470 0.000000 
#    z 0.000000 0.000000 3.512640 
# 
# 
# High freq. dielectric constant tensor:
#      x y z
#    x 1.719990 0.000000 0.000000 
#    y 0.000000 1.755400 0.000000 
#    z 0.000000 0.000000 1.754040 
# 
# From -- ./inp_files/3886.got.cif
#   From: 2010.03.12/outbox.cif.g09.slc.cpg/sg57_2_cif.got.tgz:3886.got - 2010.04.16 15:48:40.
