data_PCOD8231472
_publ_section_title
;
Structure prediction by ZEFSAII (Michael W. Deem and Ramdas Pophale) SiO2 
 PCOD8231472
Probable space group: P B C M
;
_chemical_formula_sum "Si O2"
_cell_formula_units_Z 40
_cell_length_a 12.749759
_cell_length_b 17.809649
_cell_length_c 9.040699
_cell_angle_alpha 90.000000
_cell_angle_beta 90.000000
_cell_angle_gamma 90.000000
_cell_volume 2052.860064
_symmetry_space_group_name_H-M "P B C M"
_symmetry_group_IT_number 57
_symmetry_cell_setting 'orthorhombic'
loop_
_space_group_symop_operation_xyz
x,y,z
-x,-y,1/2+z
x,1/2-y,-z
-x,1/2+y,1/2-z
-x,-y,-z
x,y,1/2-z
-x,1/2+y,z
x,1/2-y,1/2+z
loop_
_atom_site_type_symbol
_atom_site_label
_atom_site_fract_x
_atom_site_fract_y
_atom_site_fract_z
Si Si1 0.612302 0.582976 0.582813
Si Si2 0.013830 0.327411 0.076501
Si Si3 0.820937 0.929394 0.923525
Si Si4 0.205185 0.602193 0.580380
Si Si5 0.409517 0.904749 0.583795
O O1 0.624918 0.612678 0.750000
O O2 0.714016 0.606110 0.488286
O O3 0.510294 0.621755 0.510094
O O4 0.598511 0.494056 0.580207
O O5 0.038057 0.323286 0.250000
O O6 0.891830 0.343706 0.045595
O O7 0.045935 0.250000 0.000000
O O8 0.080447 0.393780 0.005246
O O9 0.826033 0.912185 0.750000
O O10 0.827269 0.017436 0.959335
O O11 0.240511 0.606264 0.750000
O O12 0.303574 0.630312 0.484033
O O13 0.422365 0.874649 0.750000
#
# Coordination Sequence:
#
# PCOD8231472 Si02
#       5
#     8   8   8   8   8
#     4   9  16  27  45  72 106 138 167 204 252 304
#     4  11  23  38  54  74 102 137 175 214 259 308
#     4  10  19  33  54  79 105 134 171 214 258 305
#     4   9  19  34  53  77 105 136 171 212 257 307
#     4   9  16  26  45  74 105 135 168 207 252 302
#
# _framework density 19.485009999999999
#
# number of rings (size 3 to 8) (size 9 to 14) (size 15 to 20)
#    0.000    2.400    0.000    3.000    0.000    7.200 
#    0.000    0.000    0.000    1.200    0.000    5.600 
#    0.000    0.000    0.000    0.000    0.000    0.000 
#
# Total GULP energy -496083.022434 kJ/mol
# GULP energy per Si atom -12402.075561 kJ/mol
# Density = 1.944066 g / cm^3
# Si number density = 19.485010 Si / 1000 Ang^3
#
#
#
# Elastic Constant Matrix: (Units=GPa)
#
#
# Indices 1 2 3 4 5 6 
#
# 1 73.7636 5.8929 47.3650 0.0000 0.0000 0.0000
# 2 5.8929 23.9067 18.1047 0.0000 0.0000 0.0000
# 3 47.3650 18.1047 130.0891 0.0000 0.0000 0.0000
# 4 0.0000 0.0000 0.0000 18.4924 0.0000 0.0000
# 5 0.0000 0.0000 0.0000 0.0000 44.1927 0.0000
# 6 0.0000 0.0000 0.0000 0.0000 0.0000 6.7977
#
#
#
# Elastic Compliance Matrix: (Units=1/GPa)
#
#
# Indices 1 2 3 4 5 6 
#
# 1 0.017701 0.000579 -0.006525 0.000000 0.000000 0.000000
# 2 0.000579 0.046776 -0.006721 0.000000 0.000000 0.000000
# 3 -0.006525 -0.006721 0.010998 0.000000 0.000000 0.000000
# 4 0.000000 0.000000 0.000000 0.054076 0.000000 0.000000
# 5 0.000000 0.000000 0.000000 0.000000 0.022628 0.000000
# 6 0.000000 0.000000 0.000000 0.000000 0.000000 0.147108
#
#
# Mechanical properties :
#
#
# Convention : Reuss Voigt Hill
#
# Bulk Modulus (GPa) = 19.94402 41.16493 30.55447
# Shear Modulus (GPa) = 14.64836 24.32303 19.48570
#
# Velocity S-wave (km/s) = 2.74483 3.53695 3.16576
# Velocity P-wave (km/s) = 4.50591 6.15243 5.39238
#
# Compressibility (1/GPa) = 0.05014035
#
# Stress axis : x y z
#
# Youngs Moduli (GPa) = 56.49536 21.37843 90.92437
#
# Poissons Ratio (x) = -0.01237 0.59330
# Poissons Ratio (y) = -0.03268 0.61106
# Poissons Ratio (z) = 0.36864 0.14367
#
# Static dielectric constant tensor:
#      x y z
#    x 3.687940 0.000000 0.000000 
#    y 0.000000 3.024740 0.000000 
#    z 0.000000 0.000000 3.700820 
# 
# 
# High freq. dielectric constant tensor:
#      x y z
#    x 1.772970 0.000000 0.000000 
#    y 0.000000 1.702660 0.000000 
#    z 0.000000 0.000000 1.773090 
# 
# From -- ./inp_files/2652.got.cif
#   From: 2010.03.12/outbox.cif.g09.slc.cpg/sg57_2_cif.got.tgz:2652.got - 2010.04.16 15:48:40.
