data_PCOD8231022
_publ_section_title
;
Structure prediction by ZEFSAII (Michael W. Deem and Ramdas Pophale) SiO2 
 PCOD8231022
Probable space group: P B C M
;
_chemical_formula_sum "Si O2"
_cell_formula_units_Z 64
_cell_length_a 18.944000
_cell_length_b 22.818458
_cell_length_c 8.885413
_cell_angle_alpha 90.000000
_cell_angle_beta 90.000000
_cell_angle_gamma 90.000000
_cell_volume 3840.922964
_symmetry_space_group_name_H-M "P B C M"
_symmetry_group_IT_number 57
_symmetry_cell_setting 'orthorhombic'
loop_
_space_group_symop_operation_xyz
x,y,z
-x,-y,1/2+z
x,1/2-y,-z
-x,1/2+y,1/2-z
-x,-y,-z
x,y,1/2-z
-x,1/2+y,z
x,1/2-y,1/2+z
loop_
_atom_site_type_symbol
_atom_site_label
_atom_site_fract_x
_atom_site_fract_y
_atom_site_fract_z
Si Si1 0.165328 0.413579 0.428453
Si Si2 0.574414 0.502848 0.920596
Si Si3 0.937858 0.811066 0.072271
Si Si4 0.908930 0.352865 0.075642
Si Si5 0.074617 0.988319 0.074308
Si Si6 0.704994 0.957542 0.927320
Si Si7 0.229740 0.809454 0.927194
Si Si8 0.699144 0.427420 0.578736
O O1 0.169205 0.417461 0.250000
O O2 0.119529 0.358302 0.482438
O O3 0.132043 0.472425 0.493210
O O4 0.244021 0.408733 0.498225
O O5 0.563193 0.523999 0.750000
O O6 0.613874 0.438983 0.926018
O O7 0.500000 0.500000 0.000000
O O8 0.625585 0.549690 0.005637
O O9 0.936741 0.805294 0.250000
O O10 0.015069 0.831033 0.016927
O O11 0.915968 0.750000 0.000000
O O12 0.898013 0.336781 0.250000
O O13 0.902403 0.421711 0.048142
O O14 0.850274 0.319841 0.978956
O O15 0.070025 0.003668 0.250000
O O16 0.000000 0.000000 0.000000
O O17 0.703974 0.949626 0.750000
O O18 0.734702 0.022521 0.973446
O O19 0.231523 0.802025 0.750000
O O20 0.280277 0.863007 0.980860
O O21 0.259830 0.750000 0.000000
O O22 0.726963 0.435650 0.750000
#
# Coordination Sequence:
#
# PCOD8231022 Si02
#       8
#     8   8   8   8   8   8   8   8
#     4  11  21  36  51  70 101 132 165 208 257 305
#     4   9  17  32  52  79 111 140 166 197 243 300
#     4  10  22  38  52  67  92 127 170 219 264 305
#     4  10  21  37  51  70  97 129 169 216 261 309
#     4  11  21  34  52  75  99 127 165 209 260 315
#     4  10  19  31  51  79 105 133 166 203 250 301
#     4  11  22  35  50  71  97 137 179 218 259 301
#     4   8  18  34  50  71 105 140 169 205 254 303
#
# _framework density 16.662662000000001
#
# number of rings (size 3 to 8) (size 9 to 14) (size 15 to 20)
#    0.750    1.250    1.250    3.375    0.000    6.500 
#    0.000    0.000    0.000    0.000    0.000    0.875 
#    0.000    4.000    0.000    0.000    0.000    0.000 
#
# Total GULP energy -793309.159275 kJ/mol
# GULP energy per Si atom -12395.455614 kJ/mol
# Density = 1.662474 g / cm^3
# Si number density = 16.662662 Si / 1000 Ang^3
#
#
#
# Elastic Constant Matrix: (Units=GPa)
#
#
# Indices 1 2 3 4 5 6 
#
# 1 105.5031 36.5373 35.9884 0.0000 0.0000 0.0000
# 2 36.5373 74.1149 29.9229 0.0000 0.0000 0.0000
# 3 35.9884 29.9229 83.5761 0.0000 0.0000 0.0000
# 4 0.0000 0.0000 0.0000 26.0156 0.0000 0.0000
# 5 0.0000 0.0000 0.0000 0.0000 30.5935 0.0000
# 6 0.0000 0.0000 0.0000 0.0000 0.0000 13.0373
#
#
#
# Elastic Compliance Matrix: (Units=1/GPa)
#
#
# Indices 1 2 3 4 5 6 
#
# 1 0.012318 -0.004595 -0.003659 0.000000 0.000000 0.000000
# 2 -0.004595 0.017487 -0.004282 0.000000 0.000000 0.000000
# 3 -0.003659 -0.004282 0.015074 0.000000 0.000000 0.000000
# 4 0.000000 0.000000 0.000000 0.038438 0.000000 0.000000
# 5 0.000000 0.000000 0.000000 0.000000 0.032687 0.000000
# 6 0.000000 0.000000 0.000000 0.000000 0.000000 0.076703
#
#
# Mechanical properties :
#
#
# Convention : Reuss Voigt Hill
#
# Bulk Modulus (GPa) = 50.48978 52.01015 51.24997
# Shear Modulus (GPa) = 22.28352 24.64564 23.46458
#
# Velocity S-wave (km/s) = 3.66092 3.85007 3.75669
# Velocity P-wave (km/s) = 6.94527 7.14461 7.04564
#
# Compressibility (1/GPa) = 0.01980599
#
# Stress axis : x y z
#
# Youngs Moduli (GPa) = 81.18255 57.18606 66.34019
#
# Poissons Ratio (x) = 0.26279 0.24273
# Poissons Ratio (y) = 0.37306 0.28407
# Poissons Ratio (z) = 0.29704 0.24487
#
# Static dielectric constant tensor:
#      x y z
#    x 3.078360 0.000000 0.000000 
#    y 0.000000 3.081960 0.000000 
#    z 0.000000 0.000000 3.126270 
# 
# 
# High freq. dielectric constant tensor:
#      x y z
#    x 1.628710 0.000000 0.000000 
#    y 0.000000 1.619250 0.000000 
#    z 0.000000 0.000000 1.652350 
# 
# From -- ./inp_files/8780.got.cif
#   From: 2010.03.12/outbox.cif.g09.slc.cpg/sg57_5_cif.got.tgz:8780.got - 2010.04.16 15:48:40.
