data_PCOD8231292
_publ_section_title
;
Structure prediction by ZEFSAII (Michael W. Deem and Ramdas Pophale) SiO2 
 PCOD8231292
Probable space group: P B C M
;
_chemical_formula_sum "Si O2"
_cell_formula_units_Z 56
_cell_length_a 13.875440
_cell_length_b 23.277163
_cell_length_c 9.155444
_cell_angle_alpha 90.000000
_cell_angle_beta 90.000000
_cell_angle_gamma 90.000000
_cell_volume 2957.033347
_symmetry_space_group_name_H-M "P B C M"
_symmetry_group_IT_number 57
_symmetry_cell_setting 'orthorhombic'
loop_
_space_group_symop_operation_xyz
x,y,z
-x,-y,1/2+z
x,1/2-y,-z
-x,1/2+y,1/2-z
-x,-y,-z
x,y,1/2-z
-x,1/2+y,z
x,1/2-y,1/2+z
loop_
_atom_site_type_symbol
_atom_site_label
_atom_site_fract_x
_atom_site_fract_y
_atom_site_fract_z
Si Si1 0.252073 0.084128 0.579657
Si Si2 0.375505 0.188982 0.581092
Si Si3 0.425725 0.631505 0.918813
Si Si4 0.270244 0.801744 0.589948
Si Si5 0.861801 0.091921 0.086443
Si Si6 0.032195 0.058561 0.577464
Si Si7 0.698228 0.024524 0.577700
O O1 0.271573 0.072053 0.750000
O O2 0.282810 0.149715 0.540430
O O3 0.140402 0.076846 0.537710
O O4 0.318084 0.038947 0.488817
O O5 0.375608 0.250000 0.500000
O O6 0.376974 0.205501 0.750000
O O7 0.464357 0.146329 0.542328
O O8 0.402630 0.642286 0.750000
O O9 0.393638 0.565870 0.958786
O O10 0.365029 0.676130 0.011214
O O11 0.224613 0.750000 0.500000
O O12 0.302179 0.780992 0.750000
O O13 0.186867 0.847392 0.601423
O O14 0.880807 0.066142 0.250000
O O15 0.794755 0.047814 0.998790
O O16 0.959847 0.104219 0.996641
O O17 0.016028 0.055471 0.750000
O O18 0.000000 0.000000 0.500000
O O19 0.716026 0.020471 0.750000
#
# Coordination Sequence:
#
# PCOD8231292 Si02
#       7
#     8   8   8   8   8   8   8
#     4  10  22  38  56  80 113 148 181 226 281 330
#     4  10  22  41  60  79 108 148 191 232 273 321
#     4   9  19  35  56  82 112 144 182 226 273 328
#     4  10  20  33  52  78 109 144 182 226 276 330
#     4  10  20  34  52  78 111 144 180 223 274 329
#     4  11  21  34  56  82 109 144 183 223 274 335
#     4  10  19  32  54  85 115 143 177 222 274 330
#
# _framework density 18.937901
#
# number of rings (size 3 to 8) (size 9 to 14) (size 15 to 20)
#    0.000    2.000    1.429    2.143    0.000    5.714 
#    0.000    0.714    0.000    3.429    0.000    0.000 
#    0.000    0.000    0.000    0.000    0.000    0.000 
#
# Total GULP energy -694116.344675 kJ/mol
# GULP energy per Si atom -12394.934726 kJ/mol
# Density = 1.889480 g / cm^3
# Si number density = 18.937901 Si / 1000 Ang^3
#
#
#
# Elastic Constant Matrix: (Units=GPa)
#
#
# Indices 1 2 3 4 5 6 
#
# 1 111.1634 56.0146 53.0954 0.0000 0.0000 0.0000
# 2 56.0146 109.8062 56.1827 0.0000 0.0000 0.0000
# 3 53.0954 56.1827 100.6266 0.0000 0.0000 0.0000
# 4 0.0000 0.0000 0.0000 34.3982 0.0000 0.0000
# 5 0.0000 0.0000 0.0000 0.0000 23.8046 0.0000
# 6 0.0000 0.0000 0.0000 0.0000 0.0000 13.3627
#
#
#
# Elastic Compliance Matrix: (Units=1/GPa)
#
#
# Indices 1 2 3 4 5 6 
#
# 1 0.013462 -0.004526 -0.004576 0.000000 0.000000 0.000000
# 2 -0.004526 0.014271 -0.005580 0.000000 0.000000 0.000000
# 3 -0.004576 -0.005580 0.015468 0.000000 0.000000 0.000000
# 4 0.000000 0.000000 0.000000 0.029071 0.000000 0.000000
# 5 0.000000 0.000000 0.000000 0.000000 0.042009 0.000000
# 6 0.000000 0.000000 0.000000 0.000000 0.000000 0.074835
#
#
# Mechanical properties :
#
#
# Convention : Reuss Voigt Hill
#
# Bulk Modulus (GPa) = 72.27127 72.46463 72.36795
# Shear Modulus (GPa) = 22.41234 24.73332 23.57283
#
# Velocity S-wave (km/s) = 3.44388 3.61781 3.53192
# Velocity P-wave (km/s) = 7.35247 7.46986 7.41140
#
# Compressibility (1/GPa) = 0.01383676
#
# Stress axis : x y z
#
# Youngs Moduli (GPa) = 74.28243 70.07461 64.65089
#
# Poissons Ratio (x) = 0.31715 0.29587
# Poissons Ratio (y) = 0.33619 0.36073
# Poissons Ratio (z) = 0.33994 0.39099
#
# Static dielectric constant tensor:
#      x y z
#    x 3.735630 0.000000 0.000000 
#    y 0.000000 3.670360 0.000000 
#    z 0.000000 0.000000 3.903000 
# 
# 
# High freq. dielectric constant tensor:
#      x y z
#    x 1.727040 0.000000 0.000000 
#    y 0.000000 1.729340 0.000000 
#    z 0.000000 0.000000 1.746150 
# 
# From -- ./inp_files/5145.got.cif
#   From: 2010.03.12/outbox.cif.g09.slc.cpg/sg57_3_cif.got.tgz:5145.got - 2010.04.16 15:48:40.
