data_PCOD8231074
_publ_section_title
;
Structure prediction by ZEFSAII (Michael W. Deem and Ramdas Pophale) SiO2 
 PCOD8231074
Probable space group: P B C M
;
_chemical_formula_sum "Si O2"
_cell_formula_units_Z 56
_cell_length_a 20.793106
_cell_length_b 16.329479
_cell_length_c 8.898829
_cell_angle_alpha 90.000000
_cell_angle_beta 90.000000
_cell_angle_gamma 90.000000
_cell_volume 3021.513629
_symmetry_space_group_name_H-M "P B C M"
_symmetry_group_IT_number 57
_symmetry_cell_setting 'orthorhombic'
loop_
_space_group_symop_operation_xyz
x,y,z
-x,-y,1/2+z
x,1/2-y,-z
-x,1/2+y,1/2-z
-x,-y,-z
x,y,1/2-z
-x,1/2+y,z
x,1/2-y,1/2+z
loop_
_atom_site_type_symbol
_atom_site_label
_atom_site_fract_x
_atom_site_fract_y
_atom_site_fract_z
Si Si1 0.090444 0.335179 0.427785
Si Si2 0.467249 0.115251 0.584069
Si Si3 0.343977 0.332377 0.572259
Si Si4 0.416341 0.567665 0.415367
Si Si5 0.287555 0.008477 0.571224
Si Si6 0.969467 0.424237 0.422231
Si Si7 0.155189 0.005263 0.427479
O O1 0.113511 0.250000 0.500000
O O2 0.104282 0.333735 0.250000
O O3 0.130113 0.409791 0.500927
O O4 0.013000 0.344874 0.463851
O O5 0.462893 0.155330 0.750000
O O6 0.419179 0.160980 0.471374
O O7 0.540762 0.123979 0.525106
O O8 0.448126 0.021128 0.594700
O O9 0.315326 0.250000 0.500000
O O10 0.336558 0.331316 0.750000
O O11 0.301911 0.404844 0.504296
O O12 0.416459 0.608068 0.250000
O O13 0.342988 0.557229 0.474018
O O14 0.285722 0.020108 0.750000
O O15 0.220473 0.976158 0.506820
O O16 0.979127 0.442809 0.250000
O O17 0.893192 0.427700 0.460140
O O18 0.000000 0.500000 0.500000
O O19 0.165383 0.018990 0.250000
#
# Coordination Sequence:
#
# PCOD8231074 Si02
#       7
#     8   8   8   8   8   8   8
#     4  10  19  32  49  71  97 125 157 195 235 278
#     4   9  16  27  44  65  87 112 146 186 226 265
#     4  11  21  33  47  64  90 123 157 191 229 274
#     4   8  15  27  43  63  87 113 143 182 224 263
#     4  10  20  33  47  67  94 123 155 189 227 273
#     4   8  16  30  48  68  92 120 153 193 235 277
#     4  10  19  32  49  70  95 126 160 194 236 284
#
# _framework density 18.533757000000001
#
# number of rings (size 3 to 8) (size 9 to 14) (size 15 to 20)
#    0.000    2.571    0.000    3.857    0.000    5.714 
#    0.000    2.857    0.000    0.000    0.000    1.000 
#    0.000    4.571    0.000    0.000    0.000    0.000 
#
# Total GULP energy -693767.029957 kJ/mol
# GULP energy per Si atom -12388.696964 kJ/mol
# Density = 1.849157 g / cm^3
# Si number density = 18.533757 Si / 1000 Ang^3
#
#
#
# Elastic Constant Matrix: (Units=GPa)
#
#
# Indices 1 2 3 4 5 6 
#
# 1 116.1200 -1.9927 33.8899 0.0000 0.0000 0.0000
# 2 -1.9927 5.8846 1.4491 0.0000 0.0000 0.0000
# 3 33.8899 1.4491 91.8934 0.0000 0.0000 0.0000
# 4 0.0000 0.0000 0.0000 17.4788 0.0000 0.0000
# 5 0.0000 0.0000 0.0000 0.0000 31.8517 0.0000
# 6 0.0000 0.0000 0.0000 0.0000 0.0000 12.2512
#
#
#
# Elastic Compliance Matrix: (Units=1/GPa)
#
#
# Indices 1 2 3 4 5 6 
#
# 1 0.009753 0.004205 -0.003663 0.000000 0.000000 0.000000
# 2 0.004205 0.172410 -0.004269 0.000000 0.000000 0.000000
# 3 -0.003663 -0.004269 0.012300 0.000000 0.000000 0.000000
# 4 0.000000 0.000000 0.000000 0.057212 0.000000 0.000000
# 5 0.000000 0.000000 0.000000 0.000000 0.031395 0.000000
# 6 0.000000 0.000000 0.000000 0.000000 0.000000 0.081625
#
#
# Mechanical properties :
#
#
# Convention : Reuss Voigt Hill
#
# Bulk Modulus (GPa) = 5.34737 31.17674 18.26206
# Shear Modulus (GPa) = 11.50780 24.35313 17.93046
#
# Velocity S-wave (km/s) = 2.49451 3.62883 3.11376
# Velocity P-wave (km/s) = 3.34488 5.86651 4.77516
#
# Compressibility (1/GPa) = 0.18700776
#
# Stress axis : x y z
#
# Youngs Moduli (GPa) = 102.53208 5.80012 81.29767
#
# Poissons Ratio (x) = -0.02439 0.29781
# Poissons Ratio (y) = -0.43112 0.34710
# Poissons Ratio (z) = 0.37559 0.02476
#
# Static dielectric constant tensor:
#      x y z
#    x 3.487420 0.000000 0.000000 
#    y 0.000000 2.952200 0.000000 
#    z 0.000000 0.000000 3.575570 
# 
# 
# High freq. dielectric constant tensor:
#      x y z
#    x 1.722550 0.000000 0.000000 
#    y 0.000000 1.664410 0.000000 
#    z 0.000000 0.000000 1.733710 
# 
# From -- ./inp_files/8081.got.cif
#   From: 2010.03.12/outbox.cif.g09.slc.cpg/sg57_5_cif.got.tgz:8081.got - 2010.04.16 15:48:40.
