data_PCOD8231621
_publ_section_title
;
Structure prediction by ZEFSAII (Michael W. Deem and Ramdas Pophale) SiO2 
 PCOD8231621
Probable space group: P B C M
;
_chemical_formula_sum "Si O2"
_cell_formula_units_Z 56
_cell_length_a 21.172513
_cell_length_b 14.717198
_cell_length_c 8.630942
_cell_angle_alpha 90.000000
_cell_angle_beta 90.000000
_cell_angle_gamma 90.000000
_cell_volume 2689.402097
_symmetry_space_group_name_H-M "P B C M"
_symmetry_group_IT_number 57
_symmetry_cell_setting 'orthorhombic'
loop_
_space_group_symop_operation_xyz
x,y,z
-x,-y,1/2+z
x,1/2-y,-z
-x,1/2+y,1/2-z
-x,-y,-z
x,y,1/2-z
-x,1/2+y,z
x,1/2-y,1/2+z
loop_
_atom_site_type_symbol
_atom_site_label
_atom_site_fract_x
_atom_site_fract_y
_atom_site_fract_z
Si Si1 0.724552 0.023415 0.935201
Si Si2 0.850122 0.402378 0.082492
Si Si3 0.518860 0.850648 0.432759
Si Si4 0.900364 0.601448 0.419527
Si Si5 0.777949 0.657551 0.931990
Si Si6 0.020097 0.656371 0.934665
Si Si7 0.410218 0.968744 0.932532
O O1 0.720601 0.028370 0.750000
O O2 0.780797 0.091976 0.998046
O O3 0.659977 0.054516 0.012443
O O4 0.739277 0.921434 0.985253
O O5 0.842053 0.354218 0.250000
O O6 0.871231 0.504415 0.109960
O O7 0.908759 0.355109 0.991970
O O8 0.534082 0.750000 0.500000
O O9 0.516862 0.839531 0.250000
O O10 0.452339 0.890163 0.490579
O O11 0.570553 0.927835 0.482537
O O12 0.907230 0.649245 0.250000
O O13 0.852721 0.656796 0.529530
O O14 0.968478 0.585827 0.500955
O O15 0.766955 0.650985 0.750000
O O16 0.748598 0.750000 0.000000
O O17 0.023715 0.649190 0.750000
O O18 0.992494 0.750000 0.000000
O O19 0.416415 0.958130 0.750000
#
# Coordination Sequence:
#
# PCOD8231621 Si02
#       7
#     8   8   8   8   8   8   8
#     4  10  20  37  58  80 108 145 185 227 275 325
#     4   8  18  35  54  73  98 132 173 217 262 315
#     4  10  21  38  62  91 123 157 194 237 282 330
#     4  10  19  34  53  74  97 128 170 218 273 330
#     4  11  21  34  51  75 106 141 180 225 277 334
#     4  11  21  34  50  72  99 129 167 215 268 320
#     4  10  21  38  60  89 123 158 196 235 280 336
#
# _framework density 20.822471
#
# number of rings (size 3 to 8) (size 9 to 14) (size 15 to 20)
#    0.000    2.000    0.000    5.143    0.000    2.286 
#    0.000   10.000    0.000    1.714    0.000    0.000 
#    0.000    0.000    0.000    0.000    0.000    0.000 
#
# Total GULP energy -693751.215807 kJ/mol
# GULP energy per Si atom -12388.414568 kJ/mol
# Density = 2.077508 g / cm^3
# Si number density = 20.822471 Si / 1000 Ang^3
#
#
#
# Elastic Constant Matrix: (Units=GPa)
#
#
# Indices 1 2 3 4 5 6 
#
# 1 125.0432 -1.2662 16.9522 0.0000 0.0000 0.0000
# 2 -1.2662 36.4479 16.1127 0.0000 0.0000 0.0000
# 3 16.9522 16.1127 60.6941 0.0000 0.0000 0.0000
# 4 0.0000 0.0000 0.0000 24.7031 0.0000 0.0000
# 5 0.0000 0.0000 0.0000 0.0000 40.9968 0.0000
# 6 0.0000 0.0000 0.0000 0.0000 0.0000 121.1460
#
#
#
# Elastic Compliance Matrix: (Units=1/GPa)
#
#
# Indices 1 2 3 4 5 6 
#
# 1 0.008384 0.001503 -0.002741 0.000000 0.000000 0.000000
# 2 0.001503 0.031354 -0.008743 0.000000 0.000000 0.000000
# 3 -0.002741 -0.008743 0.019563 0.000000 0.000000 0.000000
# 4 0.000000 0.000000 0.000000 0.040481 0.000000 0.000000
# 5 0.000000 0.000000 0.000000 0.000000 0.024392 0.000000
# 6 0.000000 0.000000 0.000000 0.000000 0.000000 0.008254
#
#
# Mechanical properties :
#
#
# Convention : Reuss Voigt Hill
#
# Bulk Modulus (GPa) = 25.42063 31.75363 28.58713
# Shear Modulus (GPa) = 30.21092 50.06162 40.13627
#
# Velocity S-wave (km/s) = 3.81317 4.90860 4.39515
# Velocity P-wave (km/s) = 5.62333 6.88539 6.28611
#
# Compressibility (1/GPa) = 0.03933813
#
# Stress axis : x y z
#
# Youngs Moduli (GPa) = 119.27474 31.89400 51.11770
#
# Poissons Ratio (x) = -0.04793 0.14010
# Poissons Ratio (y) = -0.17925 0.44694
# Poissons Ratio (z) = 0.32689 0.27886
#
# Static dielectric constant tensor:
#      x y z
#    x 4.054190 0.000000 0.000000 
#    y 0.000000 3.710340 0.000000 
#    z 0.000000 0.000000 3.690680 
# 
# 
# High freq. dielectric constant tensor:
#      x y z
#    x 1.819890 0.000000 0.000000 
#    y 0.000000 1.797630 0.000000 
#    z 0.000000 0.000000 1.808790 
# 
# From -- ./inp_files/8148.got.cif
#   From: 2010.03.12/outbox.cif.g09.slc.cpg/sg57_5_cif.got.tgz:8148.got - 2010.04.16 15:48:40.
