data_PCOD8231588
_publ_section_title
;
Structure prediction by ZEFSAII (Michael W. Deem and Ramdas Pophale) SiO2 
 PCOD8231588
Probable space group: P B C M
;
_chemical_formula_sum "Si O2"
_cell_formula_units_Z 64
_cell_length_a 14.573859
_cell_length_b 12.396643
_cell_length_c 18.120551
_cell_angle_alpha 90.000000
_cell_angle_beta 90.000000
_cell_angle_gamma 90.000000
_cell_volume 3273.784268
_symmetry_space_group_name_H-M "P B C M"
_symmetry_group_IT_number 57
_symmetry_cell_setting 'orthorhombic'
loop_
_space_group_symop_operation_xyz
x,y,z
-x,-y,1/2+z
x,1/2-y,-z
-x,1/2+y,1/2-z
-x,-y,-z
x,y,1/2-z
-x,1/2+y,z
x,1/2-y,1/2+z
loop_
_atom_site_type_symbol
_atom_site_label
_atom_site_fract_x
_atom_site_fract_y
_atom_site_fract_z
Si Si1 0.375601 0.669756 0.664037
Si Si2 0.326542 0.050443 0.409367
Si Si3 0.451053 0.256765 0.086414
Si Si4 0.678575 0.945895 0.417840
Si Si5 0.942224 0.052558 0.166667
Si Si6 0.862386 0.897780 0.834686
Si Si7 0.752713 0.358245 0.663780
Si Si8 0.165706 0.346977 0.168637
O O1 0.392816 0.651240 0.750000
O O2 0.374808 0.554168 0.625048
O O3 0.455223 0.747056 0.632149
O O4 0.280453 0.735709 0.650213
O O5 0.384562 0.158009 0.389073
O O6 0.321655 0.031261 0.495855
O O7 0.223594 0.057720 0.379445
O O8 0.408633 0.374051 0.104950
O O9 0.472907 0.250000 0.000000
O O10 0.765110 0.872436 0.397069
O O11 0.681543 0.059522 0.375355
O O12 0.956413 0.094376 0.250000
O O13 0.856578 0.122182 0.132555
O O14 0.041612 0.063811 0.127805
O O15 0.920540 0.926276 0.162786
O O16 0.850206 0.936742 0.750000
O O17 0.871880 0.770866 0.841733
O O18 0.751714 0.388537 0.750000
O O19 0.212560 0.360756 0.250000
#
# Coordination Sequence:
#
# PCOD8231588 Si02
#       8
#     8   8   8   8   8   8   8   8
#     4  11  26  41  60  89 122 156 191 249 302 347
#     4  11  24  40  59  89 122 152 195 244 305 358
#     4  10  24  41  62  86 114 156 200 242 297 359
#     4  10  20  38  63  84 113 156 197 244 292 347
#     4   8  16  32  55  84 115 152 201 242 289 350
#     4  10  19  33  57  85 118 157 195 248 300 348
#     4   9  20  39  60  87 120 157 202 246 292 349
#     4   9  17  32  56  85 113 152 202 246 290 345
#
# _framework density 19.549242
#
# number of rings (size 3 to 8) (size 9 to 14) (size 15 to 20)
#    0.000    2.250    1.250    1.500    3.500    4.000 
#    0.000    6.250    0.000    3.000    0.000    0.000 
#    0.000    0.000    0.000    0.000    0.000    0.000 
#
# Total GULP energy -793245.878095 kJ/mol
# GULP energy per Si atom -12394.466845 kJ/mol
# Density = 1.950475 g / cm^3
# Si number density = 19.549242 Si / 1000 Ang^3
#
#
#
# Elastic Constant Matrix: (Units=GPa)
#
#
# Indices 1 2 3 4 5 6 
#
# 1 111.8773 39.4692 36.3202 0.0000 0.0000 0.0000
# 2 39.4692 85.1709 36.8660 0.0000 0.0000 0.0000
# 3 36.3202 36.8660 56.9253 0.0000 0.0000 0.0000
# 4 0.0000 0.0000 0.0000 11.9999 0.0000 0.0000
# 5 0.0000 0.0000 0.0000 0.0000 17.6541 0.0000
# 6 0.0000 0.0000 0.0000 0.0000 0.0000 27.3666
#
#
#
# Elastic Compliance Matrix: (Units=1/GPa)
#
#
# Indices 1 2 3 4 5 6 
#
# 1 0.011827 -0.003077 -0.005553 0.000000 0.000000 0.000000
# 2 -0.003077 0.017115 -0.009121 0.000000 0.000000 0.000000
# 3 -0.005553 -0.009121 0.027017 0.000000 0.000000 0.000000
# 4 0.000000 0.000000 0.000000 0.083334 0.000000 0.000000
# 5 0.000000 0.000000 0.000000 0.000000 0.056644 0.000000
# 6 0.000000 0.000000 0.000000 0.000000 0.000000 0.036541
#
#
# Mechanical properties :
#
#
# Convention : Reuss Voigt Hill
#
# Bulk Modulus (GPa) = 48.88385 53.25381 51.06883
# Shear Modulus (GPa) = 18.19518 20.82532 19.51025
#
# Velocity S-wave (km/s) = 3.05411 3.26740 3.16255
# Velocity P-wave (km/s) = 6.12344 6.44473 6.28614
#
# Compressibility (1/GPa) = 0.02045665
#
# Stress axis : x y z
#
# Youngs Moduli (GPa) = 84.55473 58.42859 37.01417
#
# Poissons Ratio (x) = 0.17978 0.20554
# Poissons Ratio (y) = 0.26017 0.33760
# Poissons Ratio (z) = 0.46954 0.53291
#
# Static dielectric constant tensor:
#      x y z
#    x 3.646630 0.000000 0.000000 
#    y 0.000000 3.610640 0.000000 
#    z 0.000000 0.000000 3.423220 
# 
# 
# High freq. dielectric constant tensor:
#      x y z
#    x 1.761560 0.000000 0.000000 
#    y 0.000000 1.767630 0.000000 
#    z 0.000000 0.000000 1.740360 
# 
# From -- ./inp_files/22675.got.cif
#   From: 2010.03.12/outbox.cif.g09.slc.cpg/sg57_12_cif.got.tgz:22675.got - 2010.04.16 15:48:40.
