data_PCOD8231300
_publ_section_title
;
Structure prediction by ZEFSAII (Michael W. Deem and Ramdas Pophale) SiO2 
 PCOD8231300
Probable space group: P B C M
;
_chemical_formula_sum "Si O2"
_cell_formula_units_Z 48
_cell_length_a 10.322872
_cell_length_b 28.206054
_cell_length_c 8.635182
_cell_angle_alpha 90.000000
_cell_angle_beta 90.000000
_cell_angle_gamma 90.000000
_cell_volume 2514.284226
_symmetry_space_group_name_H-M "P B C M"
_symmetry_group_IT_number 57
_symmetry_cell_setting 'orthorhombic'
loop_
_space_group_symop_operation_xyz
x,y,z
-x,-y,1/2+z
x,1/2-y,-z
-x,1/2+y,1/2-z
-x,-y,-z
x,y,1/2-z
-x,1/2+y,z
x,1/2-y,1/2+z
loop_
_atom_site_type_symbol
_atom_site_label
_atom_site_fract_x
_atom_site_fract_y
_atom_site_fract_z
Si Si1 0.114594 0.701761 0.070312
Si Si2 0.605710 0.299607 0.067420
Si Si3 0.512688 0.392556 0.567181
Si Si4 0.993858 0.101993 0.069709
Si Si5 0.248773 0.948071 0.067990
Si Si6 0.742067 0.944288 0.933283
O O1 0.144595 0.709988 0.250000
O O2 0.015697 0.658578 0.043114
O O3 0.053659 0.750000 0.000000
O O4 0.249076 0.689152 0.987870
O O5 0.603587 0.297275 0.250000
O O6 0.554757 0.250000 0.000000
O O7 0.510993 0.340771 0.009081
O O8 0.505798 0.386381 0.750000
O O9 0.641613 0.420588 0.524590
O O10 0.388316 0.420512 0.500462
O O11 0.971796 0.089334 0.250000
O O12 0.134112 0.085587 0.009332
O O13 0.889582 0.074515 0.967692
O O14 0.277645 0.944546 0.250000
O O15 0.248212 0.001974 0.006743
O O16 0.737224 0.944035 0.750000
#
# Coordination Sequence:
#
# PCOD8231300 Si02
#       6
#     8   8   8   8   8   8
#     4  10  19  32  55  82 110 141 180 224 276 330
#     4  11  21  35  57  84 113 141 183 231 277 330
#     4  11  21  37  58  81 113 151 189 230 280 330
#     4  10  20  37  58  81 111 148 186 228 283 336
#     4  11  21  35  57  84 111 145 192 238 278 328
#     4   9  21  38  56  80 113 151 189 231 280 335
#
# _framework density 19.090920000000001
#
# number of rings (size 3 to 8) (size 9 to 14) (size 15 to 20)
#    0.000    1.667    1.667    5.000    0.000    0.667 
#    0.000    5.833    0.000    2.000    0.000    0.000 
#    0.000    0.000    0.000    0.000    0.000    0.000 
#
# Total GULP energy -595352.570783 kJ/mol
# GULP energy per Si atom -12403.178558 kJ/mol
# Density = 1.904747 g / cm^3
# Si number density = 19.090920 Si / 1000 Ang^3
#
#
#
# Elastic Constant Matrix: (Units=GPa)
#
#
# Indices 1 2 3 4 5 6 
#
# 1 91.5111 52.8075 18.0212 0.0000 0.0000 0.0000
# 2 52.8075 159.0253 40.9776 0.0000 0.0000 0.0000
# 3 18.0212 40.9776 89.3204 0.0000 0.0000 0.0000
# 4 0.0000 0.0000 0.0000 30.7192 0.0000 0.0000
# 5 0.0000 0.0000 0.0000 0.0000 11.3967 0.0000
# 6 0.0000 0.0000 0.0000 0.0000 0.0000 14.9329
#
#
#
# Elastic Compliance Matrix: (Units=1/GPa)
#
#
# Indices 1 2 3 4 5 6 
#
# 1 0.013563 -0.004308 -0.000760 0.000000 0.000000 0.000000
# 2 -0.004308 0.008500 -0.003030 0.000000 0.000000 0.000000
# 3 -0.000760 -0.003030 0.012739 0.000000 0.000000 0.000000
# 4 0.000000 0.000000 0.000000 0.032553 0.000000 0.000000
# 5 0.000000 0.000000 0.000000 0.000000 0.087744 0.000000
# 6 0.000000 0.000000 0.000000 0.000000 0.000000 0.066966
#
#
# Mechanical properties :
#
#
# Convention : Reuss Voigt Hill
#
# Bulk Modulus (GPa) = 53.74784 62.60772 58.17778
# Shear Modulus (GPa) = 20.45288 26.61315 23.53302
#
# Velocity S-wave (km/s) = 3.27669 3.73771 3.51476
# Velocity P-wave (km/s) = 6.52152 7.17586 6.85650
#
# Compressibility (1/GPa) = 0.01860540
#
# Stress axis : x y z
#
# Youngs Moduli (GPa) = 73.72798 117.65077 78.49796
#
# Poissons Ratio (x) = 0.50685 0.05967
# Poissons Ratio (y) = 0.31763 0.23787
# Poissons Ratio (z) = 0.05604 0.35651
#
# Static dielectric constant tensor:
#      x y z
#    x 3.468030 0.000000 0.000000 
#    y 0.000000 3.802530 0.000000 
#    z 0.000000 0.000000 3.397510 
# 
# 
# High freq. dielectric constant tensor:
#      x y z
#    x 1.722510 0.000000 0.000000 
#    y 0.000000 1.762750 0.000000 
#    z 0.000000 0.000000 1.737890 
# 
# From -- ./inp_files/2123.got.cif
#   From: 2010.03.12/outbox.cif.g09.slc.cpg/sg57_2_cif.got.tgz:2123.got - 2010.04.16 15:48:40.
