data_PCOD8231995
_publ_section_title
;
Structure prediction by ZEFSAII (Michael W. Deem and Ramdas Pophale) SiO2 
 PCOD8231995
Probable space group: P B C M
;
_chemical_formula_sum "Si O2"
_cell_formula_units_Z 64
_cell_length_a 10.040320
_cell_length_b 18.339815
_cell_length_c 17.895515
_cell_angle_alpha 90.000000
_cell_angle_beta 90.000000
_cell_angle_gamma 90.000000
_cell_volume 3295.237386
_symmetry_space_group_name_H-M "P B C M"
_symmetry_group_IT_number 57
_symmetry_cell_setting 'orthorhombic'
loop_
_space_group_symop_operation_xyz
x,y,z
-x,-y,1/2+z
x,1/2-y,-z
-x,1/2+y,1/2-z
-x,-y,-z
x,y,1/2-z
-x,1/2+y,z
x,1/2-y,1/2+z
loop_
_atom_site_type_symbol
_atom_site_label
_atom_site_fract_x
_atom_site_fract_y
_atom_site_fract_z
Si Si1 0.200716 0.662093 0.333262
Si Si2 0.890957 0.483810 0.897474
Si Si3 0.240724 0.796362 0.427519
Si Si4 0.555019 0.991533 0.583867
Si Si5 0.661498 0.580560 0.836865
Si Si6 0.451972 0.286378 0.079503
Si Si7 0.160236 0.954956 0.435145
Si Si8 0.510575 0.853583 0.833921
O O1 0.146148 0.662291 0.250000
O O2 0.114971 0.601453 0.376288
O O3 0.187597 0.745315 0.360924
O O4 0.352654 0.637535 0.339664
O O5 0.799468 0.537639 0.848777
O O6 0.042115 0.510997 0.885707
O O7 0.845889 0.490086 0.982956
O O8 0.215039 0.750000 0.500000
O O9 0.397301 0.818125 0.423418
O O10 0.148531 0.867442 0.432803
O O11 0.456874 0.024935 0.645281
O O12 0.697448 0.026456 0.598705
O O13 0.500000 0.000000 0.500000
O O14 0.572008 0.906640 0.603785
O O15 0.652017 0.604943 0.750000
O O16 0.647495 0.649117 0.894214
O O17 0.443364 0.227021 0.144726
O O18 0.410697 0.250000 0.000000
O O19 0.560611 0.870469 0.750000
#
# Coordination Sequence:
#
# PCOD8231995 Si02
#       8
#     8   8   8   8   8   8   8   8
#     4  10  19  36  60  86 119 162 205 243 300 375
#     4  11  23  40  62  90 126 169 207 250 311 380
#     4  10  19  36  60  91 120 154 201 263 307 358
#     4  12  21  37  63  92 122 155 207 265 307 367
#     4  12  23  39  62  93 130 165 204 259 326 382
#     4  10  21  35  61  93 123 157 206 264 314 368
#     4  11  23  40  62  94 124 157 213 264 304 363
#     4  10  20  35  56  87 122 159 200 251 313 366
#
# _framework density 19.421969000000001
#
# number of rings (size 3 to 8) (size 9 to 14) (size 15 to 20)
#    0.000    1.250    5.000    1.875    1.750    0.500 
#    0.000    5.625    0.000    0.000    0.000    0.000 
#    0.000    0.000    0.000    0.000    0.000    0.000 
#
# Total GULP energy -793536.491350 kJ/mol
# GULP energy per Si atom -12399.007677 kJ/mol
# Density = 1.937776 g / cm^3
# Si number density = 19.421969 Si / 1000 Ang^3
#
#
#
# Elastic Constant Matrix: (Units=GPa)
#
#
# Indices 1 2 3 4 5 6 
#
# 1 90.9265 38.1249 27.3780 0.0000 0.0000 0.0000
# 2 38.1249 95.3495 23.4568 0.0000 0.0000 0.0000
# 3 27.3780 23.4568 88.8174 0.0000 0.0000 0.0000
# 4 0.0000 0.0000 0.0000 32.8495 0.0000 0.0000
# 5 0.0000 0.0000 0.0000 0.0000 21.2251 0.0000
# 6 0.0000 0.0000 0.0000 0.0000 0.0000 32.2558
#
#
#
# Elastic Compliance Matrix: (Units=1/GPa)
#
#
# Indices 1 2 3 4 5 6 
#
# 1 0.013931 -0.004828 -0.003019 0.000000 0.000000 0.000000
# 2 -0.004828 0.012889 -0.001916 0.000000 0.000000 0.000000
# 3 -0.003019 -0.001916 0.012696 0.000000 0.000000 0.000000
# 4 0.000000 0.000000 0.000000 0.030442 0.000000 0.000000
# 5 0.000000 0.000000 0.000000 0.000000 0.047114 0.000000
# 6 0.000000 0.000000 0.000000 0.000000 0.000000 0.031002
#
#
# Mechanical properties :
#
#
# Convention : Reuss Voigt Hill
#
# Bulk Modulus (GPa) = 50.02355 50.33475 50.17915
# Shear Modulus (GPa) = 28.69217 29.67499 29.18358
#
# Velocity S-wave (km/s) = 3.84774 3.91309 3.88055
# Velocity P-wave (km/s) = 6.74924 6.81095 6.78016
#
# Compressibility (1/GPa) = 0.01999058
#
# Stress axis : x y z
#
# Youngs Moduli (GPa) = 71.78152 77.58352 78.76628
#
# Poissons Ratio (x) = 0.37453 0.23782
# Poissons Ratio (y) = 0.34653 0.15092
# Poissons Ratio (z) = 0.21673 0.14865
#
# Static dielectric constant tensor:
#      x y z
#    x 3.313840 0.000000 0.000000 
#    y 0.000000 4.709990 0.000000 
#    z 0.000000 0.000000 3.829350 
# 
# 
# High freq. dielectric constant tensor:
#      x y z
#    x 1.717190 0.000000 0.000000 
#    y 0.000000 1.771230 0.000000 
#    z 0.000000 0.000000 1.757460 
# 
# From -- ./inp_files/21434.got.cif
#   From: 2010.03.12/outbox.cif.g09.slc.cpg/sg57_11_cif.got.tgz:21434.got - 2010.04.16 15:48:40.
