data_PCOD8231164
_publ_section_title
;
Structure prediction by ZEFSAII (Michael W. Deem and Ramdas Pophale) SiO2 
 PCOD8231164
Probable space group: P B C M
;
_chemical_formula_sum "Si O2"
_cell_formula_units_Z 48
_cell_length_a 31.474860
_cell_length_b 9.082499
_cell_length_c 8.574930
_cell_angle_alpha 90.000000
_cell_angle_beta 90.000000
_cell_angle_gamma 90.000000
_cell_volume 2451.318536
_symmetry_space_group_name_H-M "P B C M"
_symmetry_group_IT_number 57
_symmetry_cell_setting 'orthorhombic'
loop_
_space_group_symop_operation_xyz
x,y,z
-x,-y,1/2+z
x,1/2-y,-z
-x,1/2+y,1/2-z
-x,-y,-z
x,y,1/2-z
-x,1/2+y,z
x,1/2-y,1/2+z
loop_
_atom_site_type_symbol
_atom_site_label
_atom_site_fract_x
_atom_site_fract_y
_atom_site_fract_z
Si Si1 0.778446 0.087580 0.434016
Si Si2 0.129875 0.910458 0.933034
Si Si3 0.038863 0.588154 0.433425
Si Si4 0.696938 0.587296 0.935395
Si Si5 0.381135 0.912895 0.064698
Si Si6 0.460222 0.412725 0.064733
O O1 0.769707 0.250000 0.500000
O O2 0.776441 0.104375 0.250000
O O3 0.824814 0.020968 0.489221
O O4 0.743083 0.971595 0.489729
O O5 0.131355 0.896665 0.750000
O O6 0.084865 0.988058 0.980580
O O7 0.127703 0.750000 0.000000
O O8 0.036465 0.750000 0.500000
O O9 0.033940 0.595703 0.250000
O O10 0.000000 0.500000 0.500000
O O11 0.691208 0.587687 0.750000
O O12 0.689866 0.750000 0.000000
O O13 0.663857 0.476189 0.012102
O O14 0.384667 0.911108 0.250000
O O15 0.387080 0.750000 0.000000
O O16 0.417090 0.015292 0.993420
O O17 0.461349 0.411245 0.250000
O O18 0.462795 0.250000 0.000000
O O19 0.500000 0.500000 0.000000
#
# Coordination Sequence:
#
# PCOD8231164 Si02
#       6
#     8   8   8   8   8   8
#     4   9  18  33  55  80 106 136 177 224 274 328
#     4   8  15  29  49  73 100 133 172 219 268 323
#     4  10  19  32  51  74 103 137 177 221 271 326
#     4  11  23  39  58  83 115 152 189 231 281 336
#     4  12  25  43  65  91 121 156 197 242 288 339
#     4  12  25  44  67  95 128 164 203 245 293 344
#
# _framework density 19.581299000000001
#
# number of rings (size 3 to 8) (size 9 to 14) (size 15 to 20)
#    0.000    1.667    0.000    5.500    0.000    3.333 
#    0.000    0.833    0.000    2.000    0.000    0.000 
#    0.000    0.000    0.000    0.000    0.000    0.000 
#
# Total GULP energy -594774.051966 kJ/mol
# GULP energy per Si atom -12391.126083 kJ/mol
# Density = 1.953673 g / cm^3
# Si number density = 19.581299 Si / 1000 Ang^3
#
#
#
# Elastic Constant Matrix: (Units=GPa)
#
#
# Indices 1 2 3 4 5 6 
#
# 1 172.5262 58.5625 58.5811 0.0000 0.0000 0.0000
# 2 58.5625 104.1575 44.2214 0.0000 0.0000 0.0000
# 3 58.5811 44.2214 111.9852 0.0000 0.0000 0.0000
# 4 0.0000 0.0000 0.0000 32.4841 0.0000 0.0000
# 5 0.0000 0.0000 0.0000 0.0000 27.4746 0.0000
# 6 0.0000 0.0000 0.0000 0.0000 0.0000 27.6968
#
#
#
# Elastic Compliance Matrix: (Units=1/GPa)
#
#
# Indices 1 2 3 4 5 6 
#
# 1 0.007849 -0.003208 -0.002839 0.000000 0.000000 0.000000
# 2 -0.003208 0.012846 -0.003395 0.000000 0.000000 0.000000
# 3 -0.002839 -0.003395 0.011756 0.000000 0.000000 0.000000
# 4 0.000000 0.000000 0.000000 0.030784 0.000000 0.000000
# 5 0.000000 0.000000 0.000000 0.000000 0.036397 0.000000
# 6 0.000000 0.000000 0.000000 0.000000 0.000000 0.036105
#
#
# Mechanical properties :
#
#
# Convention : Reuss Voigt Hill
#
# Bulk Modulus (GPa) = 73.70782 79.04430 76.37606
# Shear Modulus (GPa) = 31.41838 32.68469 32.05153
#
# Velocity S-wave (km/s) = 4.00998 4.08999 4.05018
# Velocity P-wave (km/s) = 7.69179 7.92205 7.80777
#
# Compressibility (1/GPa) = 0.01356708
#
# Stress axis : x y z
#
# Youngs Moduli (GPa) = 127.40256 77.84780 85.06654
#
# Poissons Ratio (x) = 0.24971 0.24153
# Poissons Ratio (y) = 0.40867 0.28876
# Poissons Ratio (z) = 0.36174 0.26426
#
# Static dielectric constant tensor:
#      x y z
#    x 2.053740 0.000000 0.000000 
#    y 0.000000 3.393340 0.000000 
#    z 0.000000 0.000000 3.724460 
# 
# 
# High freq. dielectric constant tensor:
#      x y z
#    x 1.799230 0.000000 0.000000 
#    y 0.000000 1.739460 0.000000 
#    z 0.000000 0.000000 1.773750 
# 
# From -- ./inp_files/9988.got.cif
#   From: 2010.03.12/outbox.cif.g09.slc.cpg/sg57_5_cif.got.tgz:9988.got - 2010.04.16 15:48:40.
