data_PCOD8231096
_publ_section_title
;
Structure prediction by ZEFSAII (Michael W. Deem and Ramdas Pophale) SiO2 
 PCOD8231096
Probable space group: P B C M
;
_chemical_formula_sum "Si O2"
_cell_formula_units_Z 64
_cell_length_a 20.283964
_cell_length_b 19.575740
_cell_length_c 8.790482
_cell_angle_alpha 90.000000
_cell_angle_beta 90.000000
_cell_angle_gamma 90.000000
_cell_volume 3490.468381
_symmetry_space_group_name_H-M "P B C M"
_symmetry_group_IT_number 57
_symmetry_cell_setting 'orthorhombic'
loop_
_space_group_symop_operation_xyz
x,y,z
-x,-y,1/2+z
x,1/2-y,-z
-x,1/2+y,1/2-z
-x,-y,-z
x,y,1/2-z
-x,1/2+y,z
x,1/2-y,1/2+z
loop_
_atom_site_type_symbol
_atom_site_label
_atom_site_fract_x
_atom_site_fract_y
_atom_site_fract_z
Si Si1 0.381223 0.674670 0.929367
Si Si2 0.265332 0.589906 0.069767
Si Si3 0.667149 0.675441 0.569472
Si Si4 0.151582 0.822132 0.070298
Si Si5 0.960535 0.099511 0.073725
Si Si6 0.912678 0.552029 0.572424
Si Si7 0.475788 0.178266 0.925317
Si Si8 0.235095 0.438693 0.069778
O O1 0.365688 0.679594 0.750000
O O2 0.454400 0.640675 0.959116
O O3 0.373801 0.750000 0.000000
O O4 0.331916 0.623688 0.011090
O O5 0.258780 0.599005 0.250000
O O6 0.266699 0.510677 0.020370
O O7 0.201988 0.622289 0.991794
O O8 0.679390 0.750000 0.500000
O O9 0.674578 0.681132 0.750000
O O10 0.594105 0.645255 0.522101
O O11 0.720554 0.622578 0.501734
O O12 0.156338 0.817458 0.250000
O O13 0.171763 0.750000 0.000000
O O14 0.077931 0.842697 0.020157
O O15 0.957422 0.118850 0.250000
O O16 0.926524 0.027194 0.039401
O O17 0.036268 0.099018 0.019649
O O18 0.920640 0.568252 0.750000
O O19 0.839760 0.569071 0.510035
O O20 0.469123 0.193396 0.750000
O O21 0.484191 0.250000 0.000000
O O22 0.233733 0.435009 0.250000
#
# Coordination Sequence:
#
# PCOD8231096 Si02
#       8
#     8   8   8   8   8   8   8   8
#     4  10  19  32  49  74 104 139 178 221 265 311
#     4  11  21  36  53  75 105 141 182 222 261 316
#     4   9  17  33  56  80 103 134 172 216 267 318
#     4  12  24  38  56  79 109 145 180 222 271 319
#     4  10  19  34  55  80 106 135 178 221 260 310
#     4   9  17  33  55  78 104 138 177 217 258 310
#     4   8  15  28  49  73 100 132 173 216 259 312
#     4   9  18  34  56  78 105 141 179 216 262 319
#
# _framework density 18.335649
#
# number of rings (size 3 to 8) (size 9 to 14) (size 15 to 20)
#    0.000    2.250    1.250    2.625    0.000    1.000 
#    0.000    3.125    0.000    1.500    0.000    0.000 
#    0.000    0.000    0.000    0.000    0.000    0.000 
#
# Total GULP energy -793179.373866 kJ/mol
# GULP energy per Si atom -12393.427717 kJ/mol
# Density = 1.829392 g / cm^3
# Si number density = 18.335649 Si / 1000 Ang^3
#
#
#
# Elastic Constant Matrix: (Units=GPa)
#
#
# Indices 1 2 3 4 5 6 
#
# 1 158.1181 67.3705 41.2877 0.0000 0.0000 0.0000
# 2 67.3705 92.0664 34.7886 0.0000 0.0000 0.0000
# 3 41.2877 34.7886 73.3844 0.0000 0.0000 0.0000
# 4 0.0000 0.0000 0.0000 21.1495 0.0000 0.0000
# 5 0.0000 0.0000 0.0000 0.0000 3.4666 0.0000
# 6 0.0000 0.0000 0.0000 0.0000 0.0000 29.3032
#
#
#
# Elastic Compliance Matrix: (Units=1/GPa)
#
#
# Indices 1 2 3 4 5 6 
#
# 1 0.009555 -0.006043 -0.002511 0.000000 0.000000 0.000000
# 2 -0.006043 0.017054 -0.004685 0.000000 0.000000 0.000000
# 3 -0.002511 -0.004685 0.017260 0.000000 0.000000 0.000000
# 4 0.000000 0.000000 0.000000 0.047282 0.000000 0.000000
# 5 0.000000 0.000000 0.000000 0.000000 0.288470 0.000000
# 6 0.000000 0.000000 0.000000 0.000000 0.000000 0.034126
#
#
# Mechanical properties :
#
#
# Convention : Reuss Voigt Hill
#
# Bulk Modulus (GPa) = 57.49821 67.82917 62.66369
# Shear Modulus (GPa) = 11.21019 22.79199 17.00109
#
# Velocity S-wave (km/s) = 2.47531 3.52951 3.04832
# Velocity P-wave (km/s) = 6.29256 7.32688 6.82933
#
# Compressibility (1/GPa) = 0.01739185
#
# Stress axis : x y z
#
# Youngs Moduli (GPa) = 104.65866 58.63742 57.93596
#
# Poissons Ratio (x) = 0.35435 0.14548
# Poissons Ratio (y) = 0.63246 0.27141
# Poissons Ratio (z) = 0.26280 0.27469
#
# Static dielectric constant tensor:
#      x y z
#    x 3.943030 0.000000 0.000000 
#    y 0.000000 3.216370 0.000000 
#    z 0.000000 0.000000 3.257160 
# 
# 
# High freq. dielectric constant tensor:
#      x y z
#    x 1.731670 0.000000 0.000000 
#    y 0.000000 1.679570 0.000000 
#    z 0.000000 0.000000 1.705140 
# 
# From -- ./inp_files/8556.got.cif
#   From: 2010.03.12/outbox.cif.g09.slc.cpg/sg57_5_cif.got.tgz:8556.got - 2010.04.16 15:48:40.
