data_PCOD8231330
_publ_section_title
;
Structure prediction by ZEFSAII (Michael W. Deem and Ramdas Pophale) SiO2 
 PCOD8231330
Probable space group: P B C M
;
_chemical_formula_sum "Si O2"
_cell_formula_units_Z 40
_cell_length_a 16.787166
_cell_length_b 14.637801
_cell_length_c 8.672139
_cell_angle_alpha 90.000000
_cell_angle_beta 90.000000
_cell_angle_gamma 90.000000
_cell_volume 2130.980393
_symmetry_space_group_name_H-M "P B C M"
_symmetry_group_IT_number 57
_symmetry_cell_setting 'orthorhombic'
loop_
_space_group_symop_operation_xyz
x,y,z
-x,-y,1/2+z
x,1/2-y,-z
-x,1/2+y,1/2-z
-x,-y,-z
x,y,1/2-z
-x,1/2+y,z
x,1/2-y,1/2+z
loop_
_atom_site_type_symbol
_atom_site_label
_atom_site_fract_x
_atom_site_fract_y
_atom_site_fract_z
Si Si1 0.417016 0.848124 0.932840
Si Si2 0.296828 0.499481 0.432445
Si Si3 0.998355 0.350999 0.431739
Si Si4 0.881640 0.491315 0.567404
Si Si5 0.583017 0.651617 0.566799
O O1 0.425621 0.843870 0.750000
O O2 0.344386 0.911300 0.987298
O O3 0.396999 0.750000 0.000000
O O4 0.499654 0.886570 0.001285
O O5 0.291820 0.496655 0.250000
O O6 0.207652 0.499798 0.500108
O O7 0.345024 0.411601 0.491889
O O8 0.009770 0.250000 0.500000
O O9 0.992038 0.341044 0.250000
O O10 0.072223 0.416028 0.480910
O O11 0.918878 0.400002 0.493720
O O12 0.883410 0.478175 0.750000
O O13 0.602217 0.750000 0.500000
O O14 0.576611 0.654928 0.750000
#
# Coordination Sequence:
#
# PCOD8231330 Si02
#       5
#     8   8   8   8   8
#     4  10  19  33  51  72  99 133 172 210 251 296
#     4   9  19  34  53  75 102 134 166 208 256 298
#     4  10  20  35  57  80 104 136 169 206 254 307
#     4   9  19  37  56  77 105 134 170 212 254 304
#     4  10  19  33  51  73 101 134 172 209 250 297
#
# _framework density 18.770702
#
# number of rings (size 3 to 8) (size 9 to 14) (size 15 to 20)
#    0.000    2.400    0.000    3.600    0.000    2.400 
#    0.000    9.000    0.000    0.000    0.000    0.000 
#    0.000    0.000    0.000    0.000    0.000    0.000 
#
# Total GULP energy -495938.439018 kJ/mol
# GULP energy per Si atom -12398.460975 kJ/mol
# Density = 1.872798 g / cm^3
# Si number density = 18.770702 Si / 1000 Ang^3
#
#
#
# Elastic Constant Matrix: (Units=GPa)
#
#
# Indices 1 2 3 4 5 6 
#
# 1 184.3347 88.9767 35.1496 0.0000 0.0000 0.0000
# 2 88.9767 135.1869 37.8481 0.0000 0.0000 0.0000
# 3 35.1496 37.8481 64.5992 0.0000 0.0000 0.0000
# 4 0.0000 0.0000 0.0000 17.5557 0.0000 0.0000
# 5 0.0000 0.0000 0.0000 0.0000 23.4549 0.0000
# 6 0.0000 0.0000 0.0000 0.0000 0.0000 13.8354
#
#
#
# Elastic Compliance Matrix: (Units=1/GPa)
#
#
# Indices 1 2 3 4 5 6 
#
# 1 0.008076 -0.004886 -0.001531 0.000000 0.000000 0.000000
# 2 -0.004886 0.011805 -0.004258 0.000000 0.000000 0.000000
# 3 -0.001531 -0.004258 0.018808 0.000000 0.000000 0.000000
# 4 0.000000 0.000000 0.000000 0.056962 0.000000 0.000000
# 5 0.000000 0.000000 0.000000 0.000000 0.042635 0.000000
# 6 0.000000 0.000000 0.000000 0.000000 0.000000 0.072279
#
#
# Mechanical properties :
#
#
# Convention : Reuss Voigt Hill
#
# Bulk Modulus (GPa) = 57.67720 78.67441 68.17581
# Shear Modulus (GPa) = 21.03545 25.77895 23.40720
#
# Velocity S-wave (km/s) = 3.35125 3.70991 3.53513
# Velocity P-wave (km/s) = 6.76524 7.76889 7.28437
#
# Compressibility (1/GPa) = 0.01733787
#
# Stress axis : x y z
#
# Youngs Moduli (GPa) = 123.83116 84.70721 53.16939
#
# Poissons Ratio (x) = 0.41392 0.08141
# Poissons Ratio (y) = 0.60509 0.22639
# Poissons Ratio (z) = 0.18960 0.36067
#
# Static dielectric constant tensor:
#      x y z
#    x 3.782950 0.000000 0.000000 
#    y 0.000000 3.677670 0.000000 
#    z 0.000000 0.000000 3.314510 
# 
# 
# High freq. dielectric constant tensor:
#      x y z
#    x 1.731920 0.000000 0.000000 
#    y 0.000000 1.736930 0.000000 
#    z 0.000000 0.000000 1.719390 
# 
# From -- ./inp_files/4275.got.cif
#   From: 2010.03.12/outbox.cif.g09.slc.cpg/sg57_3_cif.got.tgz:4275.got - 2010.04.16 15:48:40.
