data_PCOD8231892
_publ_section_title
;
Structure prediction by ZEFSAII (Michael W. Deem and Ramdas Pophale) SiO2 
 PCOD8231892
Probable space group: P B C M
;
_chemical_formula_sum "Si O2"
_cell_formula_units_Z 64
_cell_length_a 19.873881
_cell_length_b 19.893322
_cell_length_c 8.673373
_cell_angle_alpha 90.000000
_cell_angle_beta 90.000000
_cell_angle_gamma 90.000000
_cell_volume 3429.083188
_symmetry_space_group_name_H-M "P B C M"
_symmetry_group_IT_number 57
_symmetry_cell_setting 'orthorhombic'
loop_
_space_group_symop_operation_xyz
x,y,z
-x,-y,1/2+z
x,1/2-y,-z
-x,1/2+y,1/2-z
-x,-y,-z
x,y,1/2-z
-x,1/2+y,z
x,1/2-y,1/2+z
loop_
_atom_site_type_symbol
_atom_site_label
_atom_site_fract_x
_atom_site_fract_y
_atom_site_fract_z
Si Si1 0.909694 0.179345 0.568329
Si Si2 0.814080 0.069797 0.429869
Si Si3 0.325703 0.549565 0.572768
Si Si4 0.054128 0.179405 0.431415
Si Si5 0.700720 0.604809 0.426908
Si Si6 0.466685 0.566078 0.432810
Si Si7 0.161511 0.084129 0.928477
Si Si8 0.569808 0.678608 0.068043
O O1 0.883677 0.250000 0.500000
O O2 0.916299 0.186665 0.750000
O O3 0.858046 0.120930 0.527848
O O4 0.981967 0.160063 0.499836
O O5 0.822034 0.085430 0.250000
O O6 0.736824 0.079381 0.478153
O O7 0.838858 0.994670 0.470290
O O8 0.318845 0.571721 0.750000
O O9 0.329184 0.469533 0.556532
O O10 0.393153 0.579976 0.501169
O O11 0.080606 0.250000 0.500000
O O12 0.047374 0.187254 0.250000
O O13 0.104839 0.119598 0.470508
O O14 0.720465 0.619554 0.250000
O O15 0.766154 0.615835 0.531477
O O16 0.643269 0.654668 0.490116
O O17 0.500000 0.500000 0.500000
O O18 0.462581 0.559344 0.250000
O O19 0.512262 0.628028 0.487697
O O20 0.146228 0.096752 0.750000
O O21 0.571345 0.681960 0.250000
O O22 0.551415 0.750000 0.000000
#
# Coordination Sequence:
#
# PCOD8231892 Si02
#       8
#     8   8   8   8   8   8   8   8
#     4  11  22  39  62  86 114 150 191 238 289 345
#     4  10  21  38  59  87 119 151 190 236 283 340
#     4  10  19  35  58  85 113 144 186 234 283 336
#     4  11  22  38  59  82 112 151 193 238 285 342
#     4   9  18  35  54  76 110 147 183 227 277 334
#     4  11  21  36  58  84 111 145 189 236 284 340
#     4  10  21  36  56  85 117 150 190 235 282 335
#     4  10  22  38  54  79 113 148 186 233 281 335
#
# _framework density 18.663881
#
# number of rings (size 3 to 8) (size 9 to 14) (size 15 to 20)
#    0.000    1.750    1.250    4.500    0.000    4.500 
#    0.000    1.875    0.000    1.500    0.000    0.000 
#    0.000    0.000    0.000    0.000    0.000    0.000 
#
# Total GULP energy -793872.465974 kJ/mol
# GULP energy per Si atom -12404.257281 kJ/mol
# Density = 1.862140 g / cm^3
# Si number density = 18.663881 Si / 1000 Ang^3
#
#
#
# Elastic Constant Matrix: (Units=GPa)
#
#
# Indices 1 2 3 4 5 6 
#
# 1 119.8564 70.5059 45.5722 0.0000 0.0000 0.0000
# 2 70.5059 102.8778 42.7669 0.0000 0.0000 0.0000
# 3 45.5722 42.7669 103.9830 0.0000 0.0000 0.0000
# 4 0.0000 0.0000 0.0000 30.5759 0.0000 0.0000
# 5 0.0000 0.0000 0.0000 0.0000 36.1146 0.0000
# 6 0.0000 0.0000 0.0000 0.0000 0.0000 32.9562
#
#
#
# Elastic Compliance Matrix: (Units=1/GPa)
#
#
# Indices 1 2 3 4 5 6 
#
# 1 0.014605 -0.008864 -0.002755 0.000000 0.000000 0.000000
# 2 -0.008864 0.017105 -0.003150 0.000000 0.000000 0.000000
# 3 -0.002755 -0.003150 0.012120 0.000000 0.000000 0.000000
# 4 0.000000 0.000000 0.000000 0.032705 0.000000 0.000000
# 5 0.000000 0.000000 0.000000 0.000000 0.027690 0.000000
# 6 0.000000 0.000000 0.000000 0.000000 0.000000 0.030343
#
#
# Mechanical properties :
#
#
# Convention : Reuss Voigt Hill
#
# Bulk Modulus (GPa) = 69.97396 71.60081 70.78738
# Shear Modulus (GPa) = 29.60836 31.12083 30.36460
#
# Velocity S-wave (km/s) = 3.98728 4.08786 4.03788
# Velocity P-wave (km/s) = 7.66622 7.79277 7.72976
#
# Compressibility (1/GPa) = 0.01429103
#
# Stress axis : x y z
#
# Youngs Moduli (GPa) = 68.46828 58.46348 82.50750
#
# Poissons Ratio (x) = 0.51823 0.22733
# Poissons Ratio (y) = 0.60691 0.25991
# Poissons Ratio (z) = 0.18865 0.18417
#
# Static dielectric constant tensor:
#      x y z
#    x 3.549780 0.000000 0.000000 
#    y 0.000000 2.977960 0.000000 
#    z 0.000000 0.000000 3.486170 
# 
# 
# High freq. dielectric constant tensor:
#      x y z
#    x 1.732770 0.000000 0.000000 
#    y 0.000000 1.712330 0.000000 
#    z 0.000000 0.000000 1.736240 
# 
# From -- ./inp_files/7148.got.cif
#   From: 2010.03.12/outbox.cif.g09.slc.cpg/sg57_4_cif.got.tgz:7148.got - 2010.04.16 15:48:40.
