data_PCOD8231322
_publ_section_title
;
Structure prediction by ZEFSAII (Michael W. Deem and Ramdas Pophale) SiO2 
 PCOD8231322
Probable space group: P B C M
;
_chemical_formula_sum "Si O2"
_cell_formula_units_Z 64
_cell_length_a 14.785890
_cell_length_b 29.274123
_cell_length_c 9.105827
_cell_angle_alpha 90.000000
_cell_angle_beta 90.000000
_cell_angle_gamma 90.000000
_cell_volume 3941.402241
_symmetry_space_group_name_H-M "P B C M"
_symmetry_group_IT_number 57
_symmetry_cell_setting 'orthorhombic'
loop_
_space_group_symop_operation_xyz
x,y,z
-x,-y,1/2+z
x,1/2-y,-z
-x,1/2+y,1/2-z
-x,-y,-z
x,y,1/2-z
-x,1/2+y,z
x,1/2-y,1/2+z
loop_
_atom_site_type_symbol
_atom_site_label
_atom_site_fract_x
_atom_site_fract_y
_atom_site_fract_z
Si Si1 0.187296 0.454593 0.578996
Si Si2 0.223458 0.795173 0.077725
Si Si3 0.985303 0.205043 0.579621
Si Si4 0.042578 0.105356 0.922302
Si Si5 0.286490 0.617951 0.418643
Si Si6 0.374859 0.463777 0.078095
Si Si7 0.855596 0.057689 0.920023
Si Si8 0.456363 0.939833 0.916466
O O1 0.200827 0.445412 0.750000
O O2 0.123898 0.415566 0.513688
O O3 0.283602 0.449990 0.502379
O O4 0.141037 0.503638 0.550333
O O5 0.239280 0.791175 0.250000
O O6 0.118906 0.802834 0.036495
O O7 0.261110 0.750000 0.000000
O O8 0.279579 0.837132 0.015630
O O9 0.025342 0.250000 0.500000
O O10 0.995272 0.214929 0.750000
O O11 0.037700 0.158956 0.534565
O O12 0.061010 0.099055 0.750000
O O13 0.950459 0.079734 0.967056
O O14 0.259691 0.627506 0.250000
O O15 0.222455 0.578210 0.479307
O O16 0.390724 0.603261 0.431818
O O17 0.361271 0.456143 0.250000
O O18 0.399204 0.515666 0.036081
O O19 0.457174 0.432076 0.020749
O O20 0.834072 0.069045 0.750000
O O21 0.491075 0.946004 0.750000
#
# Coordination Sequence:
#
# PCOD8231322 Si02
#       8
#     8   8   8   8   8   8   8   8
#     4  11  22  33  49  72  99 134 173 213 253 292
#     4  10  19  33  50  72 101 132 168 206 251 298
#     4   9  18  32  50  70  95 127 162 206 251 292
#     4  10  20  35  50  68  98 135 171 207 250 296
#     4  11  20  31  50  75 102 133 168 205 250 299
#     4  10  19  33  51  71  96 130 166 205 250 292
#     4  10  20  34  48  67 100 138 173 208 244 290
#     4   9  19  33  49  72  99 127 164 206 246 292
#
# _framework density 16.237874999999999
#
# number of rings (size 3 to 8) (size 9 to 14) (size 15 to 20)
#    0.000    2.000    2.500    1.875    0.000    3.500 
#    0.000    0.000    0.000    0.000    0.000    0.875 
#    0.000    2.000    0.000    0.000    0.000    0.000 
#
# Total GULP energy -793760.208124 kJ/mol
# GULP energy per Si atom -12402.503252 kJ/mol
# Density = 1.620092 g / cm^3
# Si number density = 16.237875 Si / 1000 Ang^3
#
#
#
# Elastic Constant Matrix: (Units=GPa)
#
#
# Indices 1 2 3 4 5 6 
#
# 1 90.5971 47.2431 50.2872 0.0000 0.0000 0.0000
# 2 47.2431 103.7278 49.9342 0.0000 0.0000 0.0000
# 3 50.2872 49.9342 85.2471 0.0000 0.0000 0.0000
# 4 0.0000 0.0000 0.0000 29.4330 0.0000 0.0000
# 5 0.0000 0.0000 0.0000 0.0000 28.9725 0.0000
# 6 0.0000 0.0000 0.0000 0.0000 0.0000 16.1910
#
#
#
# Elastic Compliance Matrix: (Units=1/GPa)
#
#
# Indices 1 2 3 4 5 6 
#
# 1 0.017641 -0.004213 -0.007939 0.000000 0.000000 0.000000
# 2 -0.004213 0.014433 -0.005969 0.000000 0.000000 0.000000
# 3 -0.007939 -0.005969 0.019910 0.000000 0.000000 0.000000
# 4 0.000000 0.000000 0.000000 0.033976 0.000000 0.000000
# 5 0.000000 0.000000 0.000000 0.000000 0.034516 0.000000
# 6 0.000000 0.000000 0.000000 0.000000 0.000000 0.061763
#
#
# Mechanical properties :
#
#
# Convention : Reuss Voigt Hill
#
# Bulk Modulus (GPa) = 63.52132 63.83346 63.67739
# Shear Modulus (GPa) = 22.34866 23.72646 23.03756
#
# Velocity S-wave (km/s) = 3.71392 3.82669 3.77072
# Velocity P-wave (km/s) = 7.58914 7.67603 7.63271
#
# Compressibility (1/GPa) = 0.01574275
#
# Stress axis : x y z
#
# Youngs Moduli (GPa) = 56.68480 69.28619 50.22601
#
# Poissons Ratio (x) = 0.29191 0.39873
# Poissons Ratio (y) = 0.23882 0.29979
# Poissons Ratio (z) = 0.45001 0.41356
#
# Static dielectric constant tensor:
#      x y z
#    x 2.919030 0.000000 0.000000 
#    y 0.000000 3.094780 0.000000 
#    z 0.000000 0.000000 3.141120 
# 
# 
# High freq. dielectric constant tensor:
#      x y z
#    x 1.603700 0.000000 0.000000 
#    y 0.000000 1.612570 0.000000 
#    z 0.000000 0.000000 1.635700 
# 
# From -- ./inp_files/5973.got.cif
#   From: 2010.03.12/outbox.cif.g09.slc.cpg/sg57_3_cif.got.tgz:5973.got - 2010.04.16 15:48:40.
