data_PCOD8231903
_publ_section_title
;
Structure prediction by ZEFSAII (Michael W. Deem and Ramdas Pophale) SiO2 
 PCOD8231903
Probable space group: P B C M
;
_chemical_formula_sum "Si O2"
_cell_formula_units_Z 64
_cell_length_a 11.965776
_cell_length_b 30.965606
_cell_length_c 9.048750
_cell_angle_alpha 90.000000
_cell_angle_beta 90.000000
_cell_angle_gamma 90.000000
_cell_volume 3352.810762
_symmetry_space_group_name_H-M "P B C M"
_symmetry_group_IT_number 57
_symmetry_cell_setting 'orthorhombic'
loop_
_space_group_symop_operation_xyz
x,y,z
-x,-y,1/2+z
x,1/2-y,-z
-x,1/2+y,1/2-z
-x,-y,-z
x,y,1/2-z
-x,1/2+y,z
x,1/2-y,1/2+z
loop_
_atom_site_type_symbol
_atom_site_label
_atom_site_fract_x
_atom_site_fract_y
_atom_site_fract_z
Si Si1 0.407382 0.028508 0.422479
Si Si2 0.013615 0.704173 0.076812
Si Si3 0.502478 0.203579 0.075953
Si Si4 0.352274 0.376462 0.923943
Si Si5 0.119512 0.365792 0.424878
Si Si6 0.746184 0.294162 0.919061
Si Si7 0.015043 0.564481 0.084458
Si Si8 0.172117 0.991921 0.415469
O O1 0.419948 0.020712 0.250000
O O2 0.421273 0.079602 0.459106
O O3 0.500000 0.000000 0.500000
O O4 0.286285 0.012248 0.477647
O O5 0.985856 0.708588 0.250000
O O6 0.136382 0.680289 0.053082
O O7 0.017848 0.750000 0.000000
O O8 0.913670 0.679536 0.996767
O O9 0.488152 0.210743 0.250000
O O10 0.418848 0.166044 0.021172
O O11 0.626996 0.184696 0.034874
O O12 0.477529 0.250000 0.000000
O O13 0.324801 0.374163 0.750000
O O14 0.238284 0.380118 0.013289
O O15 0.124925 0.362074 0.250000
O O16 0.023662 0.398968 0.472002
O O17 0.737409 0.281550 0.750000
O O18 0.758326 0.250000 0.000000
O O19 0.033166 0.583323 0.250000
O O20 0.921532 0.528211 0.088284
O O21 0.132935 0.546041 0.025258
O O22 0.188736 0.973306 0.250000
#
# Coordination Sequence:
#
# PCOD8231903 Si02
#       8
#     8   8   8   8   8   8   8   8
#     4  10  21  39  60  83 116 154 194 239 291 347
#     4  10  20  36  57  82 115 151 192 234 285 344
#     4   9  18  34  59  86 115 148 189 235 282 335
#     4  10  21  40  60  80 113 156 196 239 288 344
#     4  12  24  37  56  82 115 151 192 238 290 346
#     4   8  15  30  53  79 105 139 179 223 274 332
#     4  10  19  35  59  84 110 142 183 229 283 340
#     4   9  18  35  58  83 112 143 183 231 281 334
#
# _framework density 19.088462
#
# number of rings (size 3 to 8) (size 9 to 14) (size 15 to 20)
#    0.000    2.250    1.250    1.875    0.000    3.000 
#    2.250    1.250    0.000    0.000    0.000    0.000 
#    0.000    0.000    0.000    0.000    0.000    0.000 
#
# Total GULP energy -793013.487335 kJ/mol
# GULP energy per Si atom -12390.835740 kJ/mol
# Density = 1.904502 g / cm^3
# Si number density = 19.088462 Si / 1000 Ang^3
#
#
#
# Elastic Constant Matrix: (Units=GPa)
#
#
# Indices 1 2 3 4 5 6 
#
# 1 86.1470 51.4383 41.5851 0.0000 0.0000 0.0000
# 2 51.4383 94.3380 45.2450 0.0000 0.0000 0.0000
# 3 41.5851 45.2450 86.5204 0.0000 0.0000 0.0000
# 4 0.0000 0.0000 0.0000 30.2815 0.0000 0.0000
# 5 0.0000 0.0000 0.0000 0.0000 29.1657 0.0000
# 6 0.0000 0.0000 0.0000 0.0000 0.0000 32.0896
#
#
#
# Elastic Compliance Matrix: (Units=1/GPa)
#
#
# Indices 1 2 3 4 5 6 
#
# 1 0.018627 -0.007825 -0.004861 0.000000 0.000000 0.000000
# 2 -0.007825 0.017436 -0.005357 0.000000 0.000000 0.000000
# 3 -0.004861 -0.005357 0.016696 0.000000 0.000000 0.000000
# 4 0.000000 0.000000 0.000000 0.033023 0.000000 0.000000
# 5 0.000000 0.000000 0.000000 0.000000 0.034287 0.000000
# 6 0.000000 0.000000 0.000000 0.000000 0.000000 0.031163
#
#
# Mechanical properties :
#
#
# Convention : Reuss Voigt Hill
#
# Bulk Modulus (GPa) = 59.97763 60.39358 60.18560
# Shear Modulus (GPa) = 25.92354 26.88983 26.40669
#
# Velocity S-wave (km/s) = 3.68920 3.75733 3.72342
# Velocity P-wave (km/s) = 7.04529 7.10851 7.07697
#
# Compressibility (1/GPa) = 0.01667288
#
# Stress axis : x y z
#
# Youngs Moduli (GPa) = 53.68596 57.35219 59.89615
#
# Poissons Ratio (x) = 0.44879 0.29114
# Poissons Ratio (y) = 0.42010 0.32086
# Poissons Ratio (z) = 0.26095 0.30723
#
# Static dielectric constant tensor:
#      x y z
#    x 3.934800 0.000000 0.000000 
#    y 0.000000 3.345160 0.000000 
#    z 0.000000 0.000000 3.528640 
# 
# 
# High freq. dielectric constant tensor:
#      x y z
#    x 1.747390 0.000000 0.000000 
#    y 0.000000 1.725450 0.000000 
#    z 0.000000 0.000000 1.740590 
# 
# From -- ./inp_files/3909.got.cif
#   From: 2010.03.12/outbox.cif.g09.slc.cpg/sg57_2_cif.got.tgz:3909.got - 2010.04.16 15:48:40.
