data_PCOD8231788
_publ_section_title
;
Structure prediction by ZEFSAII (Michael W. Deem and Ramdas Pophale) SiO2 
 PCOD8231788
Probable space group: P B C M
;
_chemical_formula_sum "Si O2"
_cell_formula_units_Z 48
_cell_length_a 10.017767
_cell_length_b 27.908358
_cell_length_c 8.911034
_cell_angle_alpha 90.000000
_cell_angle_beta 90.000000
_cell_angle_gamma 90.000000
_cell_volume 2491.341787
_symmetry_space_group_name_H-M "P B C M"
_symmetry_group_IT_number 57
_symmetry_cell_setting 'orthorhombic'
loop_
_space_group_symop_operation_xyz
x,y,z
-x,-y,1/2+z
x,1/2-y,-z
-x,1/2+y,1/2-z
-x,-y,-z
x,y,1/2-z
-x,1/2+y,z
x,1/2-y,1/2+z
loop_
_atom_site_type_symbol
_atom_site_label
_atom_site_fract_x
_atom_site_fract_y
_atom_site_fract_z
Si Si1 0.279705 0.608818 0.422363
Si Si2 0.779572 0.897172 0.428360
Si Si3 0.348485 0.798329 0.073781
Si Si4 0.981069 0.051588 0.073304
Si Si5 0.460690 0.450743 0.926144
Si Si6 0.346350 0.201999 0.925957
O O1 0.268479 0.624096 0.250000
O O2 0.260479 0.656691 0.520092
O O3 0.423253 0.586986 0.460072
O O4 0.168015 0.569573 0.462424
O O5 0.783383 0.903326 0.250000
O O6 0.921664 0.909430 0.499445
O O7 0.673471 0.933952 0.494621
O O8 0.742321 0.843131 0.476634
O O9 0.335723 0.793314 0.250000
O O10 0.501432 0.806280 0.020603
O O11 0.290838 0.750000 0.000000
O O12 0.008567 0.047671 0.250000
O O13 0.000000 0.000000 0.000000
O O14 0.435942 0.457609 0.750000
O O15 0.500000 0.500000 0.000000
O O16 0.340969 0.209230 0.750000
O O17 0.286480 0.250000 0.000000
#
# Coordination Sequence:
#
# PCOD8231788 Si02
#       6
#     8   8   8   8   8   8
#     4  10  22  39  58  84 117 152 196 244 291 348
#     4  11  22  39  59  86 120 155 198 244 291 352
#     4  10  19  34  58  88 119 153 191 238 294 349
#     4  11  24  42  62  86 117 159 201 244 298 353
#     4  11  22  36  58  86 115 150 193 248 302 350
#     4   9  19  34  56  86 118 151 189 238 292 346
#
# _framework density 19.266725999999998
#
# number of rings (size 3 to 8) (size 9 to 14) (size 15 to 20)
#    0.000    1.667    1.667    3.000    0.000    5.333 
#    0.000    0.833    0.000    2.000    0.000    0.000 
#    0.000    0.000    0.000    0.000    0.000    0.000 
#
# Total GULP energy -595403.259005 kJ/mol
# GULP energy per Si atom -12404.234563 kJ/mol
# Density = 1.922287 g / cm^3
# Si number density = 19.266726 Si / 1000 Ang^3
#
#
#
# Elastic Constant Matrix: (Units=GPa)
#
#
# Indices 1 2 3 4 5 6 
#
# 1 48.6642 8.9471 22.9320 0.0000 0.0000 0.0000
# 2 8.9471 125.7454 50.0917 0.0000 0.0000 0.0000
# 3 22.9320 50.0917 83.8191 0.0000 0.0000 0.0000
# 4 0.0000 0.0000 0.0000 42.0758 0.0000 0.0000
# 5 0.0000 0.0000 0.0000 0.0000 29.9314 0.0000
# 6 0.0000 0.0000 0.0000 0.0000 0.0000 30.1944
#
#
#
# Elastic Compliance Matrix: (Units=1/GPa)
#
#
# Indices 1 2 3 4 5 6 
#
# 1 0.023723 0.001178 -0.007194 0.000000 0.000000 0.000000
# 2 0.001178 0.010496 -0.006595 0.000000 0.000000 0.000000
# 3 -0.007194 -0.006595 0.017840 0.000000 0.000000 0.000000
# 4 0.000000 0.000000 0.000000 0.023767 0.000000 0.000000
# 5 0.000000 0.000000 0.000000 0.000000 0.033410 0.000000
# 6 0.000000 0.000000 0.000000 0.000000 0.000000 0.033119
#
#
# Mechanical properties :
#
#
# Convention : Reuss Voigt Hill
#
# Bulk Modulus (GPa) = 37.26309 46.90782 42.08546
# Shear Modulus (GPa) = 28.32529 32.19085 30.25807
#
# Velocity S-wave (km/s) = 3.83843 4.09198 3.96723
# Velocity P-wave (km/s) = 6.24719 6.83558 6.54800
#
# Compressibility (1/GPa) = 0.02683621
#
# Stress axis : x y z
#
# Youngs Moduli (GPa) = 42.15404 95.27583 56.05429
#
# Poissons Ratio (x) = -0.11223 0.40327
# Poissons Ratio (y) = -0.04966 0.36967
# Poissons Ratio (z) = 0.30326 0.62832
#
# Static dielectric constant tensor:
#      x y z
#    x 4.778100 0.000000 0.000000 
#    y 0.000000 3.608450 0.000000 
#    z 0.000000 0.000000 3.446770 
# 
# 
# High freq. dielectric constant tensor:
#      x y z
#    x 1.731780 0.000000 0.000000 
#    y 0.000000 1.764030 0.000000 
#    z 0.000000 0.000000 1.758200 
# 
# From -- ./inp_files/2086.got.cif
#   From: 2010.03.12/outbox.cif.g09.slc.cpg/sg57_2_cif.got.tgz:2086.got - 2010.04.16 15:48:40.
