data_PCOD8231386
_publ_section_title
;
Structure prediction by ZEFSAII (Michael W. Deem and Ramdas Pophale) SiO2 
 PCOD8231386
Probable space group: P B C M
;
_chemical_formula_sum "Si O2"
_cell_formula_units_Z 40
_cell_length_a 5.260418
_cell_length_b 19.356447
_cell_length_c 20.436087
_cell_angle_alpha 90.000000
_cell_angle_beta 90.000000
_cell_angle_gamma 90.000000
_cell_volume 2080.863732
_symmetry_space_group_name_H-M "P B C M"
_symmetry_group_IT_number 57
_symmetry_cell_setting 'orthorhombic'
loop_
_space_group_symop_operation_xyz
x,y,z
-x,-y,1/2+z
x,1/2-y,-z
-x,1/2+y,1/2-z
-x,-y,-z
x,y,1/2-z
-x,1/2+y,z
x,1/2-y,1/2+z
loop_
_atom_site_type_symbol
_atom_site_label
_atom_site_fract_x
_atom_site_fract_y
_atom_site_fract_z
Si Si1 0.792161 0.999625 0.172016
Si Si2 0.804746 0.350823 0.610577
Si Si3 0.688171 0.795071 0.935771
Si Si4 0.708817 0.423846 0.327203
Si Si5 0.422784 0.771184 0.175080
O O1 0.794098 0.000586 0.250000
O O2 0.801060 0.077082 0.146934
O O3 0.539264 0.962710 0.144520
O O4 0.035522 0.958094 0.143942
O O5 0.563701 0.343859 0.561000
O O6 0.785445 0.289587 0.664944
O O7 0.064391 0.343034 0.570164
O O8 0.663793 0.744779 0.872063
O O9 0.711963 0.750000 0.000000
O O10 0.710682 0.432582 0.250000
O O11 0.702065 0.343499 0.346699
O O12 0.518339 0.773863 0.250000
#
# Coordination Sequence:
#
# PCOD8231386 Si02
#       5
#     8   8   8   8   8
#     4  10  19  33  52  82 118 147 176 226 291 338
#     4  10  21  35  59  83 110 146 189 235 270 331
#     4  10  22  38  59  82 112 152 189 234 284 332
#     4   9  19  32  51  78 117 149 173 221 289 341
#     4   9  21  36  59  89 111 142 192 239 278 327
#
# _framework density 19.222788999999999
#
# number of rings (size 3 to 8) (size 9 to 14) (size 15 to 20)
#    1.200    1.200    0.000    2.400    2.800    1.600 
#    0.000    0.000    0.000    7.200    0.000    0.000 
#    0.000    0.000    0.000    0.000    0.000    0.000 
#
# Total GULP energy -495705.686972 kJ/mol
# GULP energy per Si atom -12392.642174 kJ/mol
# Density = 1.917904 g / cm^3
# Si number density = 19.222789 Si / 1000 Ang^3
#
#
#
# Elastic Constant Matrix: (Units=GPa)
#
#
# Indices 1 2 3 4 5 6 
#
# 1 133.4440 37.9365 4.5255 0.0000 0.0000 0.0000
# 2 37.9365 131.1968 4.6013 0.0000 0.0000 0.0000
# 3 4.5255 4.6013 42.5434 0.0000 0.0000 0.0000
# 4 0.0000 0.0000 0.0000 1.8800 0.0000 0.0000
# 5 0.0000 0.0000 0.0000 0.0000 23.2710 0.0000
# 6 0.0000 0.0000 0.0000 0.0000 0.0000 19.3903
#
#
#
# Elastic Compliance Matrix: (Units=1/GPa)
#
#
# Indices 1 2 3 4 5 6 
#
# 1 0.008181 -0.002344 -0.000617 0.000000 0.000000 0.000000
# 2 -0.002344 0.008323 -0.000651 0.000000 0.000000 0.000000
# 3 -0.000617 -0.000651 0.023641 0.000000 0.000000 0.000000
# 4 0.000000 0.000000 0.000000 0.531907 0.000000 0.000000
# 5 0.000000 0.000000 0.000000 0.000000 0.042972 0.000000
# 6 0.000000 0.000000 0.000000 0.000000 0.000000 0.051572
#
#
# Mechanical properties :
#
#
# Convention : Reuss Voigt Hill
#
# Bulk Modulus (GPa) = 30.37470 44.59010 37.48240
# Shear Modulus (GPa) = 7.30147 26.24965 16.77556
#
# Velocity S-wave (km/s) = 1.95105 3.69934 2.95734
# Velocity P-wave (km/s) = 4.57287 6.44156 5.58591
#
# Compressibility (1/GPa) = 0.03292213
#
# Stress axis : x y z
#
# Youngs Moduli (GPa) = 122.23353 120.15273 42.29869
#
# Poissons Ratio (x) = 0.28164 0.02609
# Poissons Ratio (y) = 0.28651 0.02753
# Poissons Ratio (z) = 0.07538 0.07820
#
# Static dielectric constant tensor:
#      x y z
#    x 3.788980 0.000000 0.000000 
#    y 0.000000 3.476980 0.000000 
#    z 0.000000 0.000000 3.143450 
# 
# 
# High freq. dielectric constant tensor:
#      x y z
#    x 1.755790 0.000000 0.000000 
#    y 0.000000 1.751230 0.000000 
#    z 0.000000 0.000000 1.703610 
# 
# From -- ./inp_files/23576.got.cif
#   From: 2010.03.12/outbox.cif.g09.slc.cpg/sg57_12_cif.got.tgz:23576.got - 2010.04.16 15:48:40.
