data_PCOD8231323
_publ_section_title
;
Structure prediction by ZEFSAII (Michael W. Deem and Ramdas Pophale) SiO2 
 PCOD8231323
Probable space group: P B C M
;
_chemical_formula_sum "Si O2"
_cell_formula_units_Z 64
_cell_length_a 23.110367
_cell_length_b 17.536563
_cell_length_c 8.684023
_cell_angle_alpha 90.000000
_cell_angle_beta 90.000000
_cell_angle_gamma 90.000000
_cell_volume 3519.429638
_symmetry_space_group_name_H-M "P B C M"
_symmetry_group_IT_number 57
_symmetry_cell_setting 'orthorhombic'
loop_
_space_group_symop_operation_xyz
x,y,z
-x,-y,1/2+z
x,1/2-y,-z
-x,1/2+y,1/2-z
-x,-y,-z
x,y,1/2-z
-x,1/2+y,z
x,1/2-y,1/2+z
loop_
_atom_site_type_symbol
_atom_site_label
_atom_site_fract_x
_atom_site_fract_y
_atom_site_fract_z
Si Si1 0.548889 0.333080 0.066853
Si Si2 0.432340 0.405517 0.070406
Si Si3 0.683935 0.829430 0.430425
Si Si4 0.937191 0.667850 0.570445
Si Si5 0.038739 0.934505 0.431382
Si Si6 0.136191 0.479405 0.067825
Si Si7 0.738848 0.523932 0.431407
Si Si8 0.632253 0.053068 0.066758
O O1 0.549172 0.330061 0.250000
O O2 0.493865 0.380649 0.999665
O O3 0.543238 0.250000 0.000000
O O4 0.608242 0.368978 0.004357
O O5 0.440527 0.416419 0.250000
O O6 0.384158 0.341249 0.035536
O O7 0.409544 0.485591 0.002178
O O8 0.704228 0.750000 0.500000
O O9 0.697512 0.833693 0.250000
O O10 0.721780 0.892208 0.514757
O O11 0.921807 0.750000 0.500000
O O12 0.927670 0.676348 0.750000
O O13 0.894336 0.599955 0.511999
O O14 0.004363 0.644740 0.533944
O O15 0.047122 0.945780 0.250000
O O16 0.099966 0.944855 0.517450
O O17 0.000000 0.000000 0.500000
O O18 0.144570 0.479610 0.250000
O O19 0.196359 0.490965 0.983293
O O20 0.732991 0.516667 0.250000
O O21 0.697319 0.460820 0.509054
O O22 0.632791 0.056676 0.250000
#
# Coordination Sequence:
#
# PCOD8231323 Si02
#       8
#     8   8   8   8   8   8   8   8
#     4  11  21  34  52  78 106 134 169 212 263 320
#     4   8  17  32  52  76 103 133 169 211 259 314
#     4  10  19  33  50  72 103 139 175 214 258 309
#     4   9  19  32  50  77 110 140 169 204 248 296
#     4   9  17  31  50  75 103 135 172 210 249 295
#     4  10  20  35  53  76 103 136 176 218 256 301
#     4  11  22  36  54  76 100 135 177 218 261 310
#     4  10  20  37  56  76 103 136 172 217 265 313
#
# _framework density 18.184766
#
# number of rings (size 3 to 8) (size 9 to 14) (size 15 to 20)
#    0.000    2.250    0.000    5.250    0.000    3.500 
#    0.000    7.500    0.000    0.750    0.000    3.500 
#    0.000    0.000    0.000    0.000    0.000    0.000 
#
# Total GULP energy -793298.777737 kJ/mol
# GULP energy per Si atom -12395.293402 kJ/mol
# Density = 1.814338 g / cm^3
# Si number density = 18.184766 Si / 1000 Ang^3
#
#
#
# Elastic Constant Matrix: (Units=GPa)
#
#
# Indices 1 2 3 4 5 6 
#
# 1 115.8023 34.7237 31.3384 0.0000 0.0000 0.0000
# 2 34.7237 38.8397 24.0622 0.0000 0.0000 0.0000
# 3 31.3384 24.0622 79.4012 0.0000 0.0000 0.0000
# 4 0.0000 0.0000 0.0000 28.6983 0.0000 0.0000
# 5 0.0000 0.0000 0.0000 0.0000 28.8230 0.0000
# 6 0.0000 0.0000 0.0000 0.0000 0.0000 21.4503
#
#
#
# Elastic Compliance Matrix: (Units=1/GPa)
#
#
# Indices 1 2 3 4 5 6 
#
# 1 0.012010 -0.009604 -0.001830 0.000000 0.000000 0.000000
# 2 -0.009604 0.039378 -0.008143 0.000000 0.000000 0.000000
# 3 -0.001830 -0.008143 0.015784 0.000000 0.000000 0.000000
# 4 0.000000 0.000000 0.000000 0.034845 0.000000 0.000000
# 5 0.000000 0.000000 0.000000 0.000000 0.034694 0.000000
# 6 0.000000 0.000000 0.000000 0.000000 0.000000 0.046619
#
#
# Mechanical properties :
#
#
# Convention : Reuss Voigt Hill
#
# Bulk Modulus (GPa) = 35.68997 46.03244 40.86121
# Shear Modulus (GPa) = 21.56809 25.38893 23.47851
#
# Velocity S-wave (km/s) = 3.44765 3.74058 3.59710
# Velocity P-wave (km/s) = 5.95964 6.63511 6.30642
#
# Compressibility (1/GPa) = 0.02801907
#
# Stress axis : x y z
#
# Youngs Moduli (GPa) = 83.26134 25.39511 63.35489
#
# Poissons Ratio (x) = 0.24389 0.11593
# Poissons Ratio (y) = 0.79964 0.51588
# Poissons Ratio (z) = 0.15236 0.20679
#
# Static dielectric constant tensor:
#      x y z
#    x 3.614240 0.000000 0.000000 
#    y 0.000000 3.416620 0.000000 
#    z 0.000000 0.000000 3.360680 
# 
# 
# High freq. dielectric constant tensor:
#      x y z
#    x 1.702050 0.000000 0.000000 
#    y 0.000000 1.684710 0.000000 
#    z 0.000000 0.000000 1.707370 
# 
# From -- ./inp_files/8612.got.cif
#   From: 2010.03.12/outbox.cif.g09.slc.cpg/sg57_5_cif.got.tgz:8612.got - 2010.04.16 15:48:40.
