data_PCOD8231267
_publ_section_title
;
Structure prediction by ZEFSAII (Michael W. Deem and Ramdas Pophale) SiO2 
 PCOD8231267
Probable space group: P B C M
;
_chemical_formula_sum "Si O2"
_cell_formula_units_Z 64
_cell_length_a 8.353667
_cell_length_b 33.389271
_cell_length_c 11.407188
_cell_angle_alpha 90.000000
_cell_angle_beta 90.000000
_cell_angle_gamma 90.000000
_cell_volume 3181.725402
_symmetry_space_group_name_H-M "P B C M"
_symmetry_group_IT_number 57
_symmetry_cell_setting 'orthorhombic'
loop_
_space_group_symop_operation_xyz
x,y,z
-x,-y,1/2+z
x,1/2-y,-z
-x,1/2+y,1/2-z
-x,-y,-z
x,y,1/2-z
-x,1/2+y,z
x,1/2-y,1/2+z
loop_
_atom_site_type_symbol
_atom_site_label
_atom_site_fract_x
_atom_site_fract_y
_atom_site_fract_z
Si Si1 0.991519 0.085219 0.959297
Si Si2 0.230157 0.735281 0.119126
Si Si3 0.879321 0.770163 0.117658
Si Si4 0.754414 0.856969 0.121973
Si Si5 0.316452 0.543774 0.881624
Si Si6 0.229244 0.457630 0.882010
Si Si7 0.482131 0.397754 0.538945
Si Si8 0.205191 0.858321 0.621186
O O1 0.126658 0.105019 0.878723
O O2 0.860065 0.063141 0.881587
O O3 0.071857 0.052730 0.044368
O O4 0.912139 0.121163 0.030983
O O5 0.312186 0.742203 0.250000
O O6 0.199329 0.688742 0.099479
O O7 0.066421 0.760239 0.118918
O O8 0.326804 0.750000 0.000000
O O9 0.810961 0.757929 0.250000
O O10 0.854451 0.817082 0.095458
O O11 0.799256 0.750000 0.000000
O O12 0.675372 0.854641 0.250000
O O13 0.609578 0.862944 0.031846
O O14 0.382672 0.543245 0.750000
O O15 0.307221 0.498569 0.932467
O O16 0.440580 0.569279 0.955170
O O17 0.171483 0.465742 0.750000
O O18 0.356472 0.421336 0.880386
O O19 0.614362 0.375118 0.614652
O O20 0.139242 0.868168 0.750000
#
# Coordination Sequence:
#
# PCOD8231267 Si02
#       8
#     8   8   8   8   8   8   8   8
#     4  10  19  32  53  80 106 134 174 222 271 312
#     4   9  17  31  52  78 105 134 170 214 265 319
#     4   9  17  31  52  78 105 134 170 214 265 319
#     4  10  20  35  55  79 108 140 177 220 265 317
#     4  10  20  34  52  75 104 138 176 218 264 314
#     4  10  20  34  52  75 104 138 176 218 264 314
#     4  10  21  36  53  74 104 142 180 214 259 314
#     4  10  20  35  55  79 108 140 177 220 265 317
#
# _framework density 20.114871000000001
#
# number of rings (size 3 to 8) (size 9 to 14) (size 15 to 20)
#    0.000    2.250    0.000    3.750    0.000    0.000 
#    0.000    6.875    0.000   15.000    0.000    0.000 
#    0.000    0.000    0.000    0.000    0.000    0.000 
#
# Total GULP energy -793043.279318 kJ/mol
# GULP energy per Si atom -12391.301239 kJ/mol
# Density = 2.006909 g / cm^3
# Si number density = 20.114871 Si / 1000 Ang^3
#
#
#
# Elastic Constant Matrix: (Units=GPa)
#
#
# Indices 1 2 3 4 5 6 
#
# 1 35.0336 3.4000 -3.7938 0.0000 0.0000 0.0000
# 2 3.4000 79.4183 25.9987 0.0000 0.0000 0.0000
# 3 -3.7938 25.9987 112.6096 0.0000 0.0000 0.0000
# 4 0.0000 0.0000 0.0000 24.8146 0.0000 0.0000
# 5 0.0000 0.0000 0.0000 0.0000 -32.2368 0.0000
# 6 0.0000 0.0000 0.0000 0.0000 0.0000 26.7774
#
#
#
# Elastic Compliance Matrix: (Units=1/GPa)
#
#
# Indices 1 2 3 4 5 6 
#
# 1 0.028854 -0.001681 0.001360 0.000000 0.000000 0.000000
# 2 -0.001681 0.013719 -0.003224 0.000000 0.000000 0.000000
# 3 0.001360 -0.003224 0.009670 0.000000 0.000000 0.000000
# 4 0.000000 0.000000 0.000000 0.040299 0.000000 0.000000
# 5 0.000000 0.000000 0.000000 0.000000 -0.031020 0.000000
# 6 0.000000 0.000000 0.000000 0.000000 0.000000 0.037345
#
#
# Mechanical properties :
#
#
# Convention : Reuss Voigt Hill
#
# Bulk Modulus (GPa) = 22.14599 30.91903 26.53251
# Shear Modulus (GPa) = 41.31974 17.30147 29.31060
#
# Velocity S-wave (km/s) = 4.53723 2.93598 3.82142
# Velocity P-wave (km/s) = 6.20341 5.18632 5.71753
#
# Compressibility (1/GPa) = 0.04515490
#
# Stress axis : x y z
#
# Youngs Moduli (GPa) = 34.65676 72.89210 103.40839
#
# Poissons Ratio (x) = 0.12250 -0.14065
# Poissons Ratio (y) = 0.05824 0.33339
# Poissons Ratio (z) = -0.04714 0.23500
#
# Static dielectric constant tensor:
#      x y z
#    x 3.336880 0.000000 0.000000 
#    y 0.000000 3.695380 0.000000 
#    z 0.000000 0.000000 4.061220 
# 
# 
# High freq. dielectric constant tensor:
#      x y z
#    x 1.752990 0.000000 0.000000 
#    y 0.000000 1.794140 0.000000 
#    z 0.000000 0.000000 1.797520 
# 
# From -- ./inp_files/12297.got.cif
#   From: 2010.03.12/outbox.cif.g09.slc.cpg/sg57_7_cif.got.tgz:12297.got - 2010.04.16 15:48:40.
