data_PCOD8231708
_publ_section_title
;
Structure prediction by ZEFSAII (Michael W. Deem and Ramdas Pophale) SiO2 
 PCOD8231708
Probable space group: P B C M
;
_chemical_formula_sum "Si O2"
_cell_formula_units_Z 56
_cell_length_a 15.085048
_cell_length_b 5.115750
_cell_length_c 34.058472
_cell_angle_alpha 90.000000
_cell_angle_beta 90.000000
_cell_angle_gamma 90.000000
_cell_volume 2628.337729
_symmetry_space_group_name_H-M "P B C M"
_symmetry_group_IT_number 57
_symmetry_cell_setting 'orthorhombic'
loop_
_space_group_symop_operation_xyz
x,y,z
-x,-y,1/2+z
x,1/2-y,-z
-x,1/2+y,1/2-z
-x,-y,-z
x,y,1/2-z
-x,1/2+y,z
x,1/2-y,1/2+z
loop_
_atom_site_type_symbol
_atom_site_label
_atom_site_fract_x
_atom_site_fract_y
_atom_site_fract_z
Si Si1 0.058043 0.572881 0.205347
Si Si2 0.273835 0.347424 0.892042
Si Si3 0.828231 0.165842 0.367188
Si Si4 0.590573 0.276644 0.205220
Si Si5 0.944190 0.226930 0.562897
Si Si6 0.398244 0.276402 0.171393
Si Si7 0.770122 0.014446 0.975902
O O1 0.093146 0.595122 0.250000
O O2 0.142406 0.607058 0.177124
O O3 0.015732 0.291507 0.196989
O O4 0.242008 0.598300 0.867176
O O5 0.370070 0.270616 0.873808
O O6 0.285504 0.430937 0.937350
O O7 0.208480 0.098857 0.887791
O O8 0.912838 0.272017 0.391859
O O9 0.563815 0.217642 0.250000
O O10 0.502785 0.322491 0.178143
O O11 0.641486 0.549120 0.199718
O O12 0.648850 0.042145 0.187046
O O13 0.978817 0.518024 0.553887
O O14 0.862055 0.152120 0.535645
O O15 0.785648 0.750000 0.000000
O O16 0.719986 0.250000 0.000000
#
# Coordination Sequence:
#
# PCOD8231708 Si02
#       7
#     8   8   8   8   8   8   8
#     4  10  20  35  54  72  95 135 185 230 269 308
#     4  11  23  38  56  79 108 142 180 214 266 331
#     4  11  21  37  54  76 109 140 180 227 269 325
#     4  10  19  35  59  89 120 148 183 218 259 308
#     4  11  21  34  55  80 103 135 176 226 285 333
#     4  10  19  34  56  83 114 149 181 214 251 309
#     4  11  23  39  56  77 108 142 178 226 279 339
#
# _framework density 21.306242000000001
#
# number of rings (size 3 to 8) (size 9 to 14) (size 15 to 20)
#    0.000    1.429    0.000    9.000    0.000    1.714 
#    0.000    5.714    0.000    0.000    0.000   12.000 
#    0.000    0.000    0.000    0.000    0.000    0.000 
#
# Total GULP energy -693906.233872 kJ/mol
# GULP energy per Si atom -12391.182748 kJ/mol
# Density = 2.125775 g / cm^3
# Si number density = 21.306242 Si / 1000 Ang^3
#
#
#
# Elastic Constant Matrix: (Units=GPa)
#
#
# Indices 1 2 3 4 5 6 
#
# 1 25.7028 4.2700 31.1138 0.0000 0.0000 0.0000
# 2 4.2700 156.1345 31.7162 0.0000 0.0000 0.0000
# 3 31.1138 31.7162 129.1936 0.0000 0.0000 0.0000
# 4 0.0000 0.0000 0.0000 35.7297 0.0000 0.0000
# 5 0.0000 0.0000 0.0000 0.0000 17.9514 0.0000
# 6 0.0000 0.0000 0.0000 0.0000 0.0000 16.9210
#
#
#
# Elastic Compliance Matrix: (Units=1/GPa)
#
#
# Indices 1 2 3 4 5 6 
#
# 1 0.055148 0.001252 -0.013589 0.000000 0.000000 0.000000
# 2 0.001252 0.006769 -0.001963 0.000000 0.000000 0.000000
# 3 -0.013589 -0.001963 0.011495 0.000000 0.000000 0.000000
# 4 0.000000 0.000000 0.000000 0.027988 0.000000 0.000000
# 5 0.000000 0.000000 0.000000 0.000000 0.055706 0.000000
# 6 0.000000 0.000000 0.000000 0.000000 0.000000 0.059098
#
#
# Mechanical properties :
#
#
# Convention : Reuss Voigt Hill
#
# Bulk Modulus (GPa) = 22.31538 49.47010 35.89274
# Shear Modulus (GPa) = 19.24992 30.38247 24.81620
#
# Velocity S-wave (km/s) = 3.00907 3.78032 3.41653
# Velocity P-wave (km/s) = 4.75069 6.50565 5.69616
#
# Compressibility (1/GPa) = 0.04481214
#
# Stress axis : x y z
#
# Youngs Moduli (GPa) = 18.13310 147.72531 86.99513
#
# Poissons Ratio (x) = -0.18497 1.18215
# Poissons Ratio (y) = -0.02271 0.17080
# Poissons Ratio (z) = 0.24641 0.29004
#
# Static dielectric constant tensor:
#      x y z
#    x 3.273540 0.000000 0.000000 
#    y 0.000000 4.890620 0.000000 
#    z 0.000000 0.000000 3.977560 
# 
# 
# High freq. dielectric constant tensor:
#      x y z
#    x 1.773690 0.000000 0.000000 
#    y 0.000000 1.880880 0.000000 
#    z 0.000000 0.000000 1.835360 
# 
# From -- ./inp_files/29852.got.cif
#   From: 2010.03.12/outbox.cif.g09.slc.cpg/sg57_15_cif.got.tgz:29852.got - 2010.04.16 15:48:40.
