data_PCOD8231219
_publ_section_title
;
Structure prediction by ZEFSAII (Michael W. Deem and Ramdas Pophale) SiO2 
 PCOD8231219
Probable space group: P B C M
;
_chemical_formula_sum "Si O2"
_cell_formula_units_Z 48
_cell_length_a 15.406183
_cell_length_b 17.674331
_cell_length_c 9.133557
_cell_angle_alpha 90.000000
_cell_angle_beta 90.000000
_cell_angle_gamma 90.000000
_cell_volume 2487.012567
_symmetry_space_group_name_H-M "P B C M"
_symmetry_group_IT_number 57
_symmetry_cell_setting 'orthorhombic'
loop_
_space_group_symop_operation_xyz
x,y,z
-x,-y,1/2+z
x,1/2-y,-z
-x,1/2+y,1/2-z
-x,-y,-z
x,y,1/2-z
-x,1/2+y,z
x,1/2-y,1/2+z
loop_
_atom_site_type_symbol
_atom_site_label
_atom_site_fract_x
_atom_site_fract_y
_atom_site_fract_z
Si Si1 0.002314 0.579768 0.921334
Si Si2 0.813537 0.922732 0.087312
Si Si3 0.332224 0.606246 0.918015
Si Si4 0.352190 0.068838 0.420022
Si Si5 0.484400 0.326906 0.078181
Si Si6 0.835141 0.397805 0.584929
O O1 0.022235 0.568160 0.750000
O O2 0.906745 0.617700 0.944315
O O3 0.079310 0.629386 0.994749
O O4 0.000000 0.500000 0.000000
O O5 0.780720 0.901162 0.250000
O O6 0.828902 0.012141 0.077772
O O7 0.740828 0.896975 0.971356
O O8 0.303974 0.612629 0.750000
O O9 0.356141 0.519851 0.955115
O O10 0.414739 0.657772 0.954635
O O11 0.252071 0.636827 0.014231
O O12 0.364890 0.087401 0.250000
O O13 0.429213 0.104842 0.512481
O O14 0.465835 0.320956 0.250000
O O15 0.455655 0.250000 0.000000
O O16 0.843254 0.367572 0.750000
#
# Coordination Sequence:
#
# PCOD8231219 Si02
#       6
#     8   8   8   8   8   8
#     4   9  15  23  37  60  94 131 164 199 241 287
#     4   8  15  26  40  63  95 130 163 197 239 286
#     4   9  19  34  52  74 100 131 166 205 248 295
#     4  10  19  32  52  76 100 129 165 205 249 296
#     4  11  23  38  54  73  99 130 165 206 251 299
#     4   9  16  25  41  66  96 129 163 200 243 291
#
# _framework density 19.300265
#
# number of rings (size 3 to 8) (size 9 to 14) (size 15 to 20)
#    0.000    2.667    0.000    3.500    0.000    6.667 
#    0.000    0.000    0.000    0.000    0.000    1.167 
#    0.000    5.333    0.000    0.000    0.000    0.000 
#
# Total GULP energy -595010.375724 kJ/mol
# GULP energy per Si atom -12396.049494 kJ/mol
# Density = 1.925634 g / cm^3
# Si number density = 19.300265 Si / 1000 Ang^3
#
#
#
# Elastic Constant Matrix: (Units=GPa)
#
#
# Indices 1 2 3 4 5 6 
#
# 1 77.4945 5.3485 49.8443 0.0000 0.0000 0.0000
# 2 5.3485 18.1588 15.8560 0.0000 0.0000 0.0000
# 3 49.8443 15.8560 121.4383 0.0000 0.0000 0.0000
# 4 0.0000 0.0000 0.0000 15.7727 0.0000 0.0000
# 5 0.0000 0.0000 0.0000 0.0000 41.9146 0.0000
# 6 0.0000 0.0000 0.0000 0.0000 0.0000 4.4567
#
#
#
# Elastic Compliance Matrix: (Units=1/GPa)
#
#
# Indices 1 2 3 4 5 6 
#
# 1 0.017559 0.001266 -0.007372 0.000000 0.000000 0.000000
# 2 0.001266 0.062247 -0.008647 0.000000 0.000000 0.000000
# 3 -0.007372 -0.008647 0.012390 0.000000 0.000000 0.000000
# 4 0.000000 0.000000 0.000000 0.063401 0.000000 0.000000
# 5 0.000000 0.000000 0.000000 0.000000 0.023858 0.000000
# 6 0.000000 0.000000 0.000000 0.000000 0.000000 0.224382
#
#
# Mechanical properties :
#
#
# Convention : Reuss Voigt Hill
#
# Bulk Modulus (GPa) = 15.95196 39.90994 27.93095
# Shear Modulus (GPa) = 11.00742 22.16499 16.58621
#
# Velocity S-wave (km/s) = 2.39074 3.39252 2.93469
# Velocity P-wave (km/s) = 3.98797 6.00574 5.09769
#
# Compressibility (1/GPa) = 0.06268821
#
# Stress axis : x y z
#
# Youngs Moduli (GPa) = 56.95234 16.06495 80.71320
#
# Poissons Ratio (x) = -0.02033 0.59503
# Poissons Ratio (y) = -0.07207 0.69793
# Poissons Ratio (z) = 0.41986 0.13891
#
# Static dielectric constant tensor:
#      x y z
#    x 4.128150 0.000000 0.000000 
#    y 0.000000 2.875210 0.000000 
#    z 0.000000 0.000000 3.651060 
# 
# 
# High freq. dielectric constant tensor:
#      x y z
#    x 1.772190 0.000000 0.000000 
#    y 0.000000 1.678490 0.000000 
#    z 0.000000 0.000000 1.762620 
# 
# From -- ./inp_files/4862.got.cif
#   From: 2010.03.12/outbox.cif.g09.slc.cpg/sg57_3_cif.got.tgz:4862.got - 2010.04.16 15:48:40.
