data_PCOD8231949
_publ_section_title
;
Structure prediction by ZEFSAII (Michael W. Deem and Ramdas Pophale) SiO2 
 PCOD8231949
Probable space group: P B C M
;
_chemical_formula_sum "Si O2"
_cell_formula_units_Z 56
_cell_length_a 12.630322
_cell_length_b 10.066378
_cell_length_c 27.070119
_cell_angle_alpha 90.000000
_cell_angle_beta 90.000000
_cell_angle_gamma 90.000000
_cell_volume 3441.738120
_symmetry_space_group_name_H-M "P B C M"
_symmetry_group_IT_number 57
_symmetry_cell_setting 'orthorhombic'
loop_
_space_group_symop_operation_xyz
x,y,z
-x,-y,1/2+z
x,1/2-y,-z
-x,1/2+y,1/2-z
-x,-y,-z
x,y,1/2-z
-x,1/2+y,z
x,1/2-y,1/2+z
loop_
_atom_site_type_symbol
_atom_site_label
_atom_site_fract_x
_atom_site_fract_y
_atom_site_fract_z
Si Si1 0.876173 0.623094 0.529974
Si Si2 0.506117 0.873258 0.465820
Si Si3 0.588186 0.226751 0.805185
Si Si4 0.398864 0.472530 0.195247
Si Si5 0.116485 0.632423 0.536059
Si Si6 0.697422 0.973183 0.095868
Si Si7 0.305423 0.782658 0.405129
O O1 0.835521 0.750000 0.500000
O O2 0.866699 0.505965 0.490763
O O3 0.804105 0.595951 0.577331
O O4 0.993879 0.645722 0.551668
O O5 0.537268 0.750000 0.500000
O O6 0.597002 0.895763 0.425700
O O7 0.395816 0.851888 0.437682
O O8 0.500000 0.000000 0.500000
O O9 0.634528 0.199415 0.750000
O O10 0.488324 0.134805 0.815661
O O11 0.550583 0.380023 0.809855
O O12 0.676353 0.195832 0.846582
O O13 0.350271 0.452046 0.250000
O O14 0.305339 0.456446 0.155278
O O15 0.150756 0.750000 0.500000
O O16 0.193144 0.646309 0.583408
O O17 0.696049 0.127466 0.080467
#
# Coordination Sequence:
#
# PCOD8231949 Si02
#       7
#     8   8   8   8   8   8   8
#     4  10  21  35  52  77  98 132 177 215 241 295
#     4  12  22  31  45  73 105 135 166 196 244 302
#     4   9  18  33  52  74  99 130 170 206 245 300
#     4   9  18  33  52  73  99 131 168 206 247 301
#     4  10  19  36  56  70  99 137 173 204 252 298
#     4  11  20  34  52  74 102 134 167 206 252 300
#     4  11  20  34  53  73 101 139 164 202 258 301
#
# _framework density 16.270848999999998
#
# number of rings (size 3 to 8) (size 9 to 14) (size 15 to 20)
#    0.000    1.714    4.286    1.714    0.000    0.000 
#    2.571    0.000    0.000    0.857    0.000    0.000 
#    0.000    0.000    0.000    0.000    0.000    0.000 
#
# Total GULP energy -694305.943828 kJ/mol
# GULP energy per Si atom -12398.320426 kJ/mol
# Density = 1.623382 g / cm^3
# Si number density = 16.270849 Si / 1000 Ang^3
#
#
#
# Elastic Constant Matrix: (Units=GPa)
#
#
# Indices 1 2 3 4 5 6 
#
# 1 94.2077 31.9636 62.3896 0.0000 0.0000 0.0000
# 2 31.9636 90.7985 46.3484 0.0000 0.0000 0.0000
# 3 62.3896 46.3484 116.9316 0.0000 0.0000 0.0000
# 4 0.0000 0.0000 0.0000 23.1952 0.0000 0.0000
# 5 0.0000 0.0000 0.0000 0.0000 20.8742 0.0000
# 6 0.0000 0.0000 0.0000 0.0000 0.0000 26.1943
#
#
#
# Elastic Compliance Matrix: (Units=1/GPa)
#
#
# Indices 1 2 3 4 5 6 
#
# 1 0.016612 -0.001659 -0.008206 0.000000 0.000000 0.000000
# 2 -0.001659 0.013973 -0.004653 0.000000 0.000000 0.000000
# 3 -0.008206 -0.004653 0.014775 0.000000 0.000000 0.000000
# 4 0.000000 0.000000 0.000000 0.043112 0.000000 0.000000
# 5 0.000000 0.000000 0.000000 0.000000 0.047906 0.000000
# 6 0.000000 0.000000 0.000000 0.000000 0.000000 0.038176
#
#
# Mechanical properties :
#
#
# Convention : Reuss Voigt Hill
#
# Bulk Modulus (GPa) = 61.26272 64.81567 63.03919
# Shear Modulus (GPa) = 23.91984 24.80182 24.36083
#
# Velocity S-wave (km/s) = 3.83835 3.90848 3.87357
# Velocity P-wave (km/s) = 7.57479 7.76468 7.67032
#
# Compressibility (1/GPa) = 0.01632314
#
# Stress axis : x y z
#
# Youngs Moduli (GPa) = 60.19686 71.56826 67.68360
#
# Poissons Ratio (x) = 0.11875 0.55540
# Poissons Ratio (y) = 0.09988 0.31494
# Poissons Ratio (z) = 0.49397 0.33301
#
# Static dielectric constant tensor:
#      x y z
#    x 2.978220 0.000000 0.000000 
#    y 0.000000 3.256590 0.000000 
#    z 0.000000 0.000000 3.192720 
# 
# 
# High freq. dielectric constant tensor:
#      x y z
#    x 1.602080 0.000000 0.000000 
#    y 0.000000 1.641620 0.000000 
#    z 0.000000 0.000000 1.622790 
# 
# From -- ./inp_files/27229.got.cif
#   From: 2010.03.12/outbox.cif.g09.slc.cpg/sg57_14_cif.got.tgz:27229.got - 2010.04.16 15:48:40.
