data_PCOD8231408
_publ_section_title
;
Structure prediction by ZEFSAII (Michael W. Deem and Ramdas Pophale) SiO2 
 PCOD8231408
Probable space group: P B C M
;
_chemical_formula_sum "Si O2"
_cell_formula_units_Z 56
_cell_length_a 17.643484
_cell_length_b 15.898945
_cell_length_c 9.548747
_cell_angle_alpha 90.000000
_cell_angle_beta 90.000000
_cell_angle_gamma 90.000000
_cell_volume 2678.545583
_symmetry_space_group_name_H-M "P B C M"
_symmetry_group_IT_number 57
_symmetry_cell_setting 'orthorhombic'
loop_
_space_group_symop_operation_xyz
x,y,z
-x,-y,1/2+z
x,1/2-y,-z
-x,1/2+y,1/2-z
-x,-y,-z
x,y,1/2-z
-x,1/2+y,z
x,1/2-y,1/2+z
loop_
_atom_site_type_symbol
_atom_site_label
_atom_site_fract_x
_atom_site_fract_y
_atom_site_fract_z
Si Si1 0.372971 0.177673 0.402578
Si Si2 0.843558 0.392303 0.406936
Si Si3 0.124227 0.453468 0.086153
Si Si4 0.676365 0.332787 0.414092
Si Si5 0.423097 0.995475 0.415093
Si Si6 0.998185 0.677100 0.902940
Si Si7 0.802280 0.822704 0.594192
O O1 0.411124 0.250000 0.500000
O O2 0.412254 0.185801 0.250000
O O3 0.285244 0.198022 0.387573
O O4 0.380804 0.082052 0.457613
O O5 0.835728 0.433336 0.250000
O O6 0.873796 0.453042 0.527971
O O7 0.764133 0.350961 0.450534
O O8 0.910615 0.324292 0.403872
O O9 0.145691 0.452963 0.250000
O O10 0.041896 0.411538 0.056018
O O11 0.188254 0.407798 0.993516
O O12 0.650077 0.250000 0.500000
O O13 0.665815 0.313832 0.250000
O O14 0.626805 0.414226 0.460100
O O15 0.439636 0.991123 0.250000
O O16 0.500000 0.000000 0.500000
O O17 0.968672 0.701549 0.750000
O O18 0.966987 0.750000 0.000000
O O19 0.841491 0.750000 0.500000
O O20 0.839200 0.828087 0.750000
#
# Coordination Sequence:
#
# PCOD8231408 Si02
#       7
#     8   8   8   8   8   8   8
#     4   9  19  36  58  83 113 148 188 232 281 338
#     4  10  21  39  60  81 109 148 192 242 295 346
#     4  11  22  34  51  80 113 147 190 238 289 348
#     4  10  22  41  65  91 120 156 201 247 296 352
#     4  10  22  40  60  86 119 153 188 231 285 347
#     4  10  22  37  54  78 109 146 190 239 295 352
#     4  10  19  33  53  77 107 144 183 227 278 335
#
# _framework density 20.906867999999999
#
# number of rings (size 3 to 8) (size 9 to 14) (size 15 to 20)
#    0.000    2.000    0.000    3.000    0.000    8.000 
#    0.000    4.286    0.000    0.000    0.000    0.000 
#    0.000    0.000    0.000    0.000    0.000    0.000 
#
# Total GULP energy -693995.635504 kJ/mol
# GULP energy per Si atom -12392.779205 kJ/mol
# Density = 2.085928 g / cm^3
# Si number density = 20.906868 Si / 1000 Ang^3
#
#
#
# Elastic Constant Matrix: (Units=GPa)
#
#
# Indices 1 2 3 4 5 6 
#
# 1 75.1221 34.6013 35.0231 0.0000 0.0000 0.0000
# 2 34.6013 143.2238 70.8343 0.0000 0.0000 0.0000
# 3 35.0231 70.8343 120.2197 0.0000 0.0000 0.0000
# 4 0.0000 0.0000 0.0000 41.0820 0.0000 0.0000
# 5 0.0000 0.0000 0.0000 0.0000 19.3048 0.0000
# 6 0.0000 0.0000 0.0000 0.0000 0.0000 15.4582
#
#
#
# Elastic Compliance Matrix: (Units=1/GPa)
#
#
# Indices 1 2 3 4 5 6 
#
# 1 0.015874 -0.002184 -0.003337 0.000000 0.000000 0.000000
# 2 -0.002184 0.010154 -0.005346 0.000000 0.000000 0.000000
# 3 -0.003337 -0.005346 0.012441 0.000000 0.000000 0.000000
# 4 0.000000 0.000000 0.000000 0.024342 0.000000 0.000000
# 5 0.000000 0.000000 0.000000 0.000000 0.051801 0.000000
# 6 0.000000 0.000000 0.000000 0.000000 0.000000 0.064691
#
#
# Mechanical properties :
#
#
# Convention : Reuss Voigt Hill
#
# Bulk Modulus (GPa) = 59.76614 68.83145 64.29880
# Shear Modulus (GPa) = 24.19966 28.37613 26.28790
#
# Velocity S-wave (km/s) = 3.40589 3.68810 3.54980
# Velocity P-wave (km/s) = 6.64197 7.15056 6.90095
#
# Compressibility (1/GPa) = 0.01673188
#
# Stress axis : x y z
#
# Youngs Moduli (GPa) = 62.99721 98.48350 80.38237
#
# Poissons Ratio (x) = 0.21512 0.26827
# Poissons Ratio (y) = 0.13761 0.42976
# Poissons Ratio (z) = 0.21025 0.52654
#
# Static dielectric constant tensor:
#      x y z
#    x 3.543780 0.000000 0.000000 
#    y 0.000000 3.810630 0.000000 
#    z 0.000000 0.000000 4.176130 
# 
# 
# High freq. dielectric constant tensor:
#      x y z
#    x 1.808010 0.000000 0.000000 
#    y 0.000000 1.813730 0.000000 
#    z 0.000000 0.000000 1.822590 
# 
# From -- ./inp_files/8090.got.cif
#   From: 2010.03.12/outbox.cif.g09.slc.cpg/sg57_5_cif.got.tgz:8090.got - 2010.04.16 15:48:40.
