data_PCOD8231535
_publ_section_title
;
Structure prediction by ZEFSAII (Michael W. Deem and Ramdas Pophale) SiO2 
 PCOD8231535
Probable space group: P B C M
;
_chemical_formula_sum "Si O2"
_cell_formula_units_Z 48
_cell_length_a 15.134753
_cell_length_b 19.365519
_cell_length_c 8.575165
_cell_angle_alpha 90.000000
_cell_angle_beta 90.000000
_cell_angle_gamma 90.000000
_cell_volume 2513.315234
_symmetry_space_group_name_H-M "P B C M"
_symmetry_group_IT_number 57
_symmetry_cell_setting 'orthorhombic'
loop_
_space_group_symop_operation_xyz
x,y,z
-x,-y,1/2+z
x,1/2-y,-z
-x,1/2+y,1/2-z
-x,-y,-z
x,y,1/2-z
-x,1/2+y,z
x,1/2-y,1/2+z
loop_
_atom_site_type_symbol
_atom_site_label
_atom_site_fract_x
_atom_site_fract_y
_atom_site_fract_z
Si Si1 0.062327 0.675413 0.064889
Si Si2 0.771523 0.411256 0.935237
Si Si3 0.874293 0.824893 0.435203
Si Si4 0.735911 0.563120 0.565083
Si Si5 0.464188 0.428566 0.065307
Si Si6 0.396647 0.673629 0.065080
O O1 0.055503 0.679701 0.250000
O O2 0.136698 0.621873 0.007636
O O3 0.088741 0.750000 0.000000
O O4 0.969392 0.650073 0.996012
O O5 0.767240 0.412359 0.750000
O O6 0.764526 0.488620 0.003451
O O7 0.689414 0.366540 0.998823
O O8 0.849320 0.750000 0.500000
O O9 0.876156 0.821693 0.250000
O O10 0.801885 0.878574 0.499872
O O11 0.741805 0.560442 0.750000
O O12 0.636977 0.580872 0.511403
O O13 0.473146 0.429692 0.250000
O O14 0.500000 0.500000 0.000000
O O15 0.516155 0.364135 0.995563
O O16 0.398543 0.675526 0.250000
O O17 0.394541 0.750000 0.000000
#
# Coordination Sequence:
#
# PCOD8231535 Si02
#       6
#     8   8   8   8   8   8
#     4  10  19  33  55  79 109 145 182 225 275 329
#     4   9  18  34  56  81 111 147 182 224 279 335
#     4  10  20  36  57  78 107 144 184 229 275 328
#     4   9  19  36  58  81 108 146 184 224 280 337
#     4  11  21  38  61  84 113 151 191 231 284 340
#     4  11  22  38  59  85 117 150 190 236 282 338
#
# _framework density 19.098281
#
# number of rings (size 3 to 8) (size 9 to 14) (size 15 to 20)
#    0.000    2.000    1.667    3.500    0.000    1.333 
#    0.000    7.500    0.000    0.000    0.000    0.000 
#    0.000    0.000    0.000    0.000    0.000    0.000 
#
# Total GULP energy -595275.022314 kJ/mol
# GULP energy per Si atom -12401.562965 kJ/mol
# Density = 1.905481 g / cm^3
# Si number density = 19.098281 Si / 1000 Ang^3
#
#
#
# Elastic Constant Matrix: (Units=GPa)
#
#
# Indices 1 2 3 4 5 6 
#
# 1 189.6134 122.4024 40.0048 0.0000 0.0000 0.0000
# 2 122.4024 171.3889 33.7073 0.0000 0.0000 0.0000
# 3 40.0048 33.7073 63.3233 0.0000 0.0000 0.0000
# 4 0.0000 0.0000 0.0000 28.0905 0.0000 0.0000
# 5 0.0000 0.0000 0.0000 0.0000 22.1635 0.0000
# 6 0.0000 0.0000 0.0000 0.0000 0.0000 47.6816
#
#
#
# Elastic Compliance Matrix: (Units=1/GPa)
#
#
# Indices 1 2 3 4 5 6 
#
# 1 0.010233 -0.006743 -0.002876 0.000000 0.000000 0.000000
# 2 -0.006743 0.010960 -0.001574 0.000000 0.000000 0.000000
# 3 -0.002876 -0.001574 0.018447 0.000000 0.000000 0.000000
# 4 0.000000 0.000000 0.000000 0.035599 0.000000 0.000000
# 5 0.000000 0.000000 0.000000 0.000000 0.045119 0.000000
# 6 0.000000 0.000000 0.000000 0.000000 0.000000 0.020972
#
#
# Mechanical properties :
#
#
# Convention : Reuss Voigt Hill
#
# Bulk Modulus (GPa) = 57.95620 90.72828 74.34224
# Shear Modulus (GPa) = 29.50412 34.80121 32.15266
#
# Velocity S-wave (km/s) = 3.93473 4.27337 4.10754
# Velocity P-wave (km/s) = 7.14528 8.48281 7.84261
#
# Compressibility (1/GPa) = 0.01725441
#
# Stress axis : x y z
#
# Youngs Moduli (GPa) = 97.71906 91.24140 54.21043
#
# Poissons Ratio (x) = 0.61523 0.15589
# Poissons Ratio (y) = 0.65891 0.08534
# Poissons Ratio (z) = 0.28101 0.14363
#
# Static dielectric constant tensor:
#      x y z
#    x 3.831040 0.000000 0.000000 
#    y 0.000000 3.688740 0.000000 
#    z 0.000000 0.000000 3.336740 
# 
# 
# High freq. dielectric constant tensor:
#      x y z
#    x 1.756210 0.000000 0.000000 
#    y 0.000000 1.749360 0.000000 
#    z 0.000000 0.000000 1.725260 
# 
# From -- ./inp_files/4632.got.cif
#   From: 2010.03.12/outbox.cif.g09.slc.cpg/sg57_3_cif.got.tgz:4632.got - 2010.04.16 15:48:40.
