data_PCOD8231274
_publ_section_title
;
Structure prediction by ZEFSAII (Michael W. Deem and Ramdas Pophale) SiO2 
 PCOD8231274
Probable space group: P B C M
;
_chemical_formula_sum "Si O2"
_cell_formula_units_Z 64
_cell_length_a 11.524364
_cell_length_b 30.429239
_cell_length_c 9.313424
_cell_angle_alpha 90.000000
_cell_angle_beta 90.000000
_cell_angle_gamma 90.000000
_cell_volume 3266.009423
_symmetry_space_group_name_H-M "P B C M"
_symmetry_group_IT_number 57
_symmetry_cell_setting 'orthorhombic'
loop_
_space_group_symop_operation_xyz
x,y,z
-x,-y,1/2+z
x,1/2-y,-z
-x,1/2+y,1/2-z
-x,-y,-z
x,y,1/2-z
-x,1/2+y,z
x,1/2-y,1/2+z
loop_
_atom_site_type_symbol
_atom_site_label
_atom_site_fract_x
_atom_site_fract_y
_atom_site_fract_z
Si Si1 0.918457 0.029181 0.093289
Si Si2 0.419311 0.293453 0.583582
Si Si3 0.950052 0.620176 0.408551
Si Si4 0.266732 0.941088 0.095831
Si Si5 0.479548 0.046065 0.581113
Si Si6 0.688425 0.292783 0.582524
Si Si7 0.314679 0.386530 0.919455
Si Si8 0.143922 0.649448 0.908356
O O1 0.906886 0.007909 0.250000
O O2 0.972305 0.077126 0.103311
O O3 0.788697 0.028148 0.026527
O O4 0.000000 0.000000 0.000000
O O5 0.374511 0.250000 0.500000
O O6 0.396372 0.284020 0.750000
O O7 0.554123 0.301921 0.551069
O O8 0.353861 0.337543 0.532550
O O9 0.943283 0.642433 0.250000
O O10 0.820474 0.609063 0.461144
O O11 0.015130 0.652475 0.520924
O O12 0.266224 0.966463 0.250000
O O13 0.398957 0.927741 0.060485
O O14 0.182380 0.900176 0.112637
O O15 0.449547 0.039039 0.750000
O O16 0.381136 0.075571 0.506674
O O17 0.500000 0.000000 0.500000
O O18 0.732006 0.250000 0.500000
O O19 0.714333 0.287734 0.750000
O O20 0.762532 0.331926 0.518314
O O21 0.337682 0.393608 0.750000
O O22 0.141165 0.672335 0.750000
#
# Coordination Sequence:
#
# PCOD8231274 Si02
#       8
#     8   8   8   8   8   8   8   8
#     4  10  20  33  53  78 103 136 180 230 279 327
#     4   9  19  35  58  87 116 148 187 231 280 337
#     4   9  20  37  55  76 106 147 186 226 278 336
#     4   9  20  37  54  74 103 138 176 221 272 325
#     4  11  24  39  56  81 113 149 189 235 287 344
#     4  10  19  32  53  82 113 142 175 220 272 328
#     4  10  21  39  60  82 113 153 193 235 287 343
#     4  10  19  34  56  80 106 137 178 226 274 326
#
# _framework density 19.595779
#
# number of rings (size 3 to 8) (size 9 to 14) (size 15 to 20)
#    0.000    2.250    0.000    2.250    1.750    3.500 
#    0.000    0.625    0.000    1.500    0.000    0.000 
#    0.000    0.000    0.000    0.000    0.000    0.000 
#
# Total GULP energy -793226.204124 kJ/mol
# GULP energy per Si atom -12394.159439 kJ/mol
# Density = 1.955118 g / cm^3
# Si number density = 19.595779 Si / 1000 Ang^3
#
#
#
# Elastic Constant Matrix: (Units=GPa)
#
#
# Indices 1 2 3 4 5 6 
#
# 1 104.5470 13.8139 49.3747 0.0000 0.0000 0.0000
# 2 13.8139 53.1398 29.1437 0.0000 0.0000 0.0000
# 3 49.3747 29.1437 121.8433 0.0000 0.0000 0.0000
# 4 0.0000 0.0000 0.0000 33.6615 0.0000 0.0000
# 5 0.0000 0.0000 0.0000 0.0000 30.0308 0.0000
# 6 0.0000 0.0000 0.0000 0.0000 0.0000 22.8685
#
#
#
# Elastic Compliance Matrix: (Units=1/GPa)
#
#
# Indices 1 2 3 4 5 6 
#
# 1 0.011841 -0.000514 -0.004675 0.000000 0.000000 0.000000
# 2 -0.000514 0.021682 -0.004978 0.000000 0.000000 0.000000
# 3 -0.004675 -0.004978 0.011293 0.000000 0.000000 0.000000
# 4 0.000000 0.000000 0.000000 0.029707 0.000000 0.000000
# 5 0.000000 0.000000 0.000000 0.000000 0.033299 0.000000
# 6 0.000000 0.000000 0.000000 0.000000 0.000000 0.043728
#
#
# Mechanical properties :
#
#
# Convention : Reuss Voigt Hill
#
# Bulk Modulus (GPa) = 40.84788 51.57720 46.21254
# Shear Modulus (GPa) = 27.77081 29.79202 28.78141
#
# Velocity S-wave (km/s) = 3.76863 3.90337 3.83659
# Velocity P-wave (km/s) = 6.31089 6.83321 6.57724
#
# Compressibility (1/GPa) = 0.02448107
#
# Stress axis : x y z
#
# Youngs Moduli (GPa) = 84.45183 46.12139 88.55402
#
# Poissons Ratio (x) = 0.02370 0.41403
# Poissons Ratio (y) = 0.04340 0.44081
# Poissons Ratio (z) = 0.39485 0.22958
#
# Static dielectric constant tensor:
#      x y z
#    x 3.622670 0.000000 0.000000 
#    y 0.000000 3.288810 0.000000 
#    z 0.000000 0.000000 3.954170 
# 
# 
# High freq. dielectric constant tensor:
#      x y z
#    x 1.765400 0.000000 0.000000 
#    y 0.000000 1.736940 0.000000 
#    z 0.000000 0.000000 1.776760 
# 
# From -- ./inp_files/3729.got.cif
#   From: 2010.03.12/outbox.cif.g09.slc.cpg/sg57_2_cif.got.tgz:3729.got - 2010.04.16 15:48:40.
