data_PCOD8231768
_publ_section_title
;
Structure prediction by ZEFSAII (Michael W. Deem and Ramdas Pophale) SiO2 
 PCOD8231768
Probable space group: P B C M
;
_chemical_formula_sum "Si O2"
_cell_formula_units_Z 32
_cell_length_a 5.256398
_cell_length_b 19.085543
_cell_length_c 14.391363
_cell_angle_alpha 90.000000
_cell_angle_beta 90.000000
_cell_angle_gamma 90.000000
_cell_volume 1443.758950
_symmetry_space_group_name_H-M "P B C M"
_symmetry_group_IT_number 57
_symmetry_cell_setting 'orthorhombic'
loop_
_space_group_symop_operation_xyz
x,y,z
-x,-y,1/2+z
x,1/2-y,-z
-x,1/2+y,1/2-z
-x,-y,-z
x,y,1/2-z
-x,1/2+y,z
x,1/2-y,1/2+z
loop_
_atom_site_type_symbol
_atom_site_label
_atom_site_fract_x
_atom_site_fract_y
_atom_site_fract_z
Si Si1 0.726944 0.838936 0.250000
Si Si2 0.226626 0.570324 0.750000
Si Si3 0.750014 0.033465 0.955613
Si Si4 0.287436 0.277651 0.601884
Si Si5 0.786813 0.322923 0.947597
O O1 0.447791 0.871998 0.250000
O O2 0.762401 0.790802 0.161139
O O3 0.945294 0.896945 0.250000
O O4 0.252579 0.523553 0.656351
O O5 0.747858 0.116051 0.977600
O O6 0.500000 0.000000 0.000000
O O7 0.000000 0.000000 0.000000
O O8 0.348791 0.250000 0.500000
O O9 0.550275 0.319203 0.625463
O O10 0.051533 0.332313 0.609860
O O11 0.839089 0.250000 0.000000
#
# Coordination Sequence:
#
# PCOD8231768 Si02
#       5
#     4   4   8   8   8
#     4  12  22  38  69 104 131 176 232 284 334 414
#     4  12  24  44  69  96 133 186 240 274 332 432
#     4  12  26  46  70  99 138 187 232 286 348 411
#     4  10  19  34  57  92 127 157 204 273 329 374
#     4  10  20  39  64  91 127 165 210 270 331 392
#
# _framework density 22.164366999999999
#
# number of rings (size 3 to 8) (size 9 to 14) (size 15 to 20)
#    0.000    1.000    0.000   10.500    0.000    0.000 
#    0.000    7.500    0.000    0.000    0.000    0.000 
#    0.000    0.000    0.000    0.000    0.000    0.000 
#
# Total GULP energy -396624.095942 kJ/mol
# GULP energy per Si atom -12394.502998 kJ/mol
# Density = 2.211392 g / cm^3
# Si number density = 22.164367 Si / 1000 Ang^3
#
#
#
# Elastic Constant Matrix: (Units=GPa)
#
#
# Indices 1 2 3 4 5 6 
#
# 1 192.6798 19.6549 32.0619 0.0000 0.0000 0.0000
# 2 19.6549 84.9677 39.7304 0.0000 0.0000 0.0000
# 3 32.0619 39.7304 145.6033 0.0000 0.0000 0.0000
# 4 0.0000 0.0000 0.0000 40.4528 0.0000 0.0000
# 5 0.0000 0.0000 0.0000 0.0000 24.1048 0.0000
# 6 0.0000 0.0000 0.0000 0.0000 0.0000 46.9075
#
#
#
# Elastic Compliance Matrix: (Units=1/GPa)
#
#
# Indices 1 2 3 4 5 6 
#
# 1 0.005434 -0.000800 -0.000978 0.000000 0.000000 0.000000
# 2 -0.000800 0.013608 -0.003537 0.000000 0.000000 0.000000
# 3 -0.000978 -0.003537 0.008049 0.000000 0.000000 0.000000
# 4 0.000000 0.000000 0.000000 0.024720 0.000000 0.000000
# 5 0.000000 0.000000 0.000000 0.000000 0.041486 0.000000
# 6 0.000000 0.000000 0.000000 0.000000 0.000000 0.021319
#
#
# Mechanical properties :
#
#
# Convention : Reuss Voigt Hill
#
# Bulk Modulus (GPa) = 60.75079 67.34947 64.05013
# Shear Modulus (GPa) = 38.24601 44.41324 41.32963
#
# Velocity S-wave (km/s) = 4.15850 4.48125 4.32289
# Velocity P-wave (km/s) = 7.10818 7.56491 7.34010
#
# Compressibility (1/GPa) = 0.01646069
#
# Stress axis : x y z
#
# Youngs Moduli (GPa) = 184.01514 73.48573 124.24510
#
# Poissons Ratio (x) = 0.05876 0.12157
# Poissons Ratio (y) = 0.14713 0.43947
# Poissons Ratio (z) = 0.18005 0.25993
#
# Static dielectric constant tensor:
#      x y z
#    x 5.164060 0.000000 0.000000 
#    y 0.000000 3.804370 0.000000 
#    z 0.000000 0.000000 3.916090 
# 
# 
# High freq. dielectric constant tensor:
#      x y z
#    x 1.919730 0.000000 0.000000 
#    y 0.000000 1.846100 0.000000 
#    z 0.000000 0.000000 1.852980 
# 
# From -- ./inp_files/14723.got.cif
#   From: 2010.03.12/outbox.cif.g09.slc.cpg/sg57_8_cif.got.tgz:14723.got - 2010.04.16 15:48:40.
