data_PCOD8231989
_publ_section_title
;
Structure prediction by ZEFSAII (Michael W. Deem and Ramdas Pophale) SiO2 
 PCOD8231989
Probable space group: P B C M
;
_chemical_formula_sum "Si O2"
_cell_formula_units_Z 48
_cell_length_a 14.845139
_cell_length_b 9.194174
_cell_length_c 17.930916
_cell_angle_alpha 90.000000
_cell_angle_beta 90.000000
_cell_angle_gamma 90.000000
_cell_volume 2447.369047
_symmetry_space_group_name_H-M "P B C M"
_symmetry_group_IT_number 57
_symmetry_cell_setting 'orthorhombic'
loop_
_space_group_symop_operation_xyz
x,y,z
-x,-y,1/2+z
x,1/2-y,-z
-x,1/2+y,1/2-z
-x,-y,-z
x,y,1/2-z
-x,1/2+y,z
x,1/2-y,1/2+z
loop_
_atom_site_type_symbol
_atom_site_label
_atom_site_fract_x
_atom_site_fract_y
_atom_site_fract_z
Si Si1 0.742546 0.337371 0.426623
Si Si2 0.271167 0.936768 0.666134
Si Si3 0.422974 0.113691 0.590135
Si Si4 0.932884 0.033044 0.165214
Si Si5 0.409879 0.435859 0.917857
Si Si6 0.946794 0.316699 0.422205
O O1 0.708613 0.250000 0.500000
O O2 0.729939 0.232527 0.356008
O O3 0.686398 0.484266 0.412594
O O4 0.846963 0.382654 0.436015
O O5 0.307274 0.947609 0.750000
O O6 0.172206 0.007246 0.658601
O O7 0.335357 0.024874 0.612233
O O8 0.411160 0.277750 0.622536
O O9 0.432861 0.105470 0.501928
O O10 0.514694 0.038868 0.620815
O O11 0.967619 0.008716 0.250000
O O12 0.946037 0.200803 0.144373
O O13 0.986917 0.942516 0.104017
O O14 0.982737 0.250000 0.500000
#
# Coordination Sequence:
#
# PCOD8231989 Si02
#       6
#     8   8   8   8   8   8
#     4  10  19  36  60  85 115 148 191 236 286 341
#     4  10  21  38  57  81 116 154 188 236 293 340
#     4  10  20  35  56  86 111 147 188 233 275 340
#     4  10  21  38  58  81 114 157 194 232 292 355
#     4  10  20  34  59  84 111 143 190 231 280 330
#     4  10  21  36  57  85 117 149 193 247 287 333
#
# _framework density 19.612898999999999
#
# number of rings (size 3 to 8) (size 9 to 14) (size 15 to 20)
#    0.000    2.000    1.667    2.000    2.333    2.000 
#    3.000    4.167    0.000    0.000    0.000    0.000 
#    0.000    0.000    0.000    0.000    0.000    0.000 
#
# Total GULP energy -595127.552450 kJ/mol
# GULP energy per Si atom -12398.490676 kJ/mol
# Density = 1.956826 g / cm^3
# Si number density = 19.612899 Si / 1000 Ang^3
#
#
#
# Elastic Constant Matrix: (Units=GPa)
#
#
# Indices 1 2 3 4 5 6 
#
# 1 90.4564 55.6904 22.1436 0.0000 0.0000 0.0000
# 2 55.6904 112.1663 18.9242 0.0000 0.0000 0.0000
# 3 22.1436 18.9242 46.7942 0.0000 0.0000 0.0000
# 4 0.0000 0.0000 0.0000 21.6564 0.0000 0.0000
# 5 0.0000 0.0000 0.0000 0.0000 17.4109 0.0000
# 6 0.0000 0.0000 0.0000 0.0000 0.0000 32.1379
#
#
#
# Elastic Compliance Matrix: (Units=1/GPa)
#
#
# Indices 1 2 3 4 5 6 
#
# 1 0.016926 -0.007569 -0.004949 0.000000 0.000000 0.000000
# 2 -0.007569 0.012953 -0.001657 0.000000 0.000000 0.000000
# 3 -0.004949 -0.001657 0.024382 0.000000 0.000000 0.000000
# 4 0.000000 0.000000 0.000000 0.046176 0.000000 0.000000
# 5 0.000000 0.000000 0.000000 0.000000 0.057435 0.000000
# 6 0.000000 0.000000 0.000000 0.000000 0.000000 0.031116
#
#
# Mechanical properties :
#
#
# Convention : Reuss Voigt Hill
#
# Bulk Modulus (GPa) = 38.59145 49.21483 43.90314
# Shear Modulus (GPa) = 22.12640 24.41828 23.27234
#
# Velocity S-wave (km/s) = 3.36245 3.53230 3.44842
# Velocity P-wave (km/s) = 5.89864 6.46404 6.18780
#
# Compressibility (1/GPa) = 0.02591247
#
# Stress axis : x y z
#
# Youngs Moduli (GPa) = 59.07909 77.20326 41.01402
#
# Poissons Ratio (x) = 0.58435 0.20297
# Poissons Ratio (y) = 0.44717 0.06794
# Poissons Ratio (z) = 0.29237 0.12789
#
# Static dielectric constant tensor:
#      x y z
#    x 3.542360 0.000000 0.000000 
#    y 0.000000 3.595950 0.000000 
#    z 0.000000 0.000000 3.436100 
# 
# 
# High freq. dielectric constant tensor:
#      x y z
#    x 1.765740 0.000000 0.000000 
#    y 0.000000 1.759720 0.000000 
#    z 0.000000 0.000000 1.745470 
# 
# From -- ./inp_files/22443.got.cif
#   From: 2010.03.12/outbox.cif.g09.slc.cpg/sg57_12_cif.got.tgz:22443.got - 2010.04.16 15:48:40.
