data_PCOD8232235
_publ_section_title
;
Structure prediction by ZEFSAII (Michael W. Deem and Ramdas Pophale) SiO2 
 PCOD8232235
Probable space group: P B C M
;
_chemical_formula_sum "Si O2"
_cell_formula_units_Z 40
_cell_length_a 15.656844
_cell_length_b 14.191451
_cell_length_c 8.994782
_cell_angle_alpha 90.000000
_cell_angle_beta 90.000000
_cell_angle_gamma 90.000000
_cell_volume 1998.580605
_symmetry_space_group_name_H-M "P B C M"
_symmetry_group_IT_number 57
_symmetry_cell_setting 'orthorhombic'
loop_
_space_group_symop_operation_xyz
x,y,z
-x,-y,1/2+z
x,1/2-y,-z
-x,1/2+y,1/2-z
-x,-y,-z
x,y,1/2-z
-x,1/2+y,z
x,1/2-y,1/2+z
loop_
_atom_site_type_symbol
_atom_site_label
_atom_site_fract_x
_atom_site_fract_y
_atom_site_fract_z
Si Si1 0.293237 0.461958 0.079502
Si Si2 0.371492 0.663501 0.423037
Si Si3 0.036314 0.852052 0.924821
Si Si4 0.526039 0.904280 0.424074
Si Si5 0.875969 0.978991 0.576757
O O1 0.262939 0.456163 0.250000
O O2 0.323528 0.567361 0.040006
O O3 0.371820 0.389376 0.050449
O O4 0.214603 0.435795 0.973576
O O5 0.319515 0.750000 0.500000
O O6 0.381047 0.680596 0.250000
O O7 0.466442 0.671850 0.496334
O O8 0.052013 0.840160 0.750000
O O9 0.944702 0.898294 0.961184
O O10 0.042808 0.750000 0.000000
O O11 0.107333 0.923537 0.988965
O O12 0.505791 0.909860 0.250000
O O13 0.500000 0.000000 0.500000
O O14 0.875750 0.002958 0.750000
#
# Coordination Sequence:
#
# PCOD8232235 Si02
#       5
#     8   8   8   8   8
#     4   9  19  34  52  75 104 137 173 215 262 313
#     4  10  20  33  50  74 103 137 176 218 265 313
#     4  10  21  38  59  82 109 142 179 220 269 325
#     4   9  17  31  50  71  97 132 169 206 251 300
#     4  10  21  36  57  84 111 142 179 221 271 325
#
# _framework density 20.014202999999998
#
# number of rings (size 3 to 8) (size 9 to 14) (size 15 to 20)
#    0.000    2.400    0.000    3.600    0.000    8.000 
#    0.000    3.000    0.000    2.400    0.000    0.000 
#    0.000    0.000    0.000    0.000    0.000    0.000 
#
# Total GULP energy -495743.319897 kJ/mol
# GULP energy per Si atom -12393.582997 kJ/mol
# Density = 1.996865 g / cm^3
# Si number density = 20.014203 Si / 1000 Ang^3
#
#
#
# Elastic Constant Matrix: (Units=GPa)
#
#
# Indices 1 2 3 4 5 6 
#
# 1 76.4263 -13.0727 24.0845 0.0000 0.0000 0.0000
# 2 -13.0727 43.8236 10.2417 0.0000 0.0000 0.0000
# 3 24.0845 10.2417 81.5334 0.0000 0.0000 0.0000
# 4 0.0000 0.0000 0.0000 31.2947 0.0000 0.0000
# 5 0.0000 0.0000 0.0000 0.0000 36.6928 0.0000
# 6 0.0000 0.0000 0.0000 0.0000 0.0000 10.6949
#
#
#
# Elastic Compliance Matrix: (Units=1/GPa)
#
#
# Indices 1 2 3 4 5 6 
#
# 1 0.015818 0.005986 -0.005424 0.000000 0.000000 0.000000
# 2 0.005986 0.025774 -0.005006 0.000000 0.000000 0.000000
# 3 -0.005424 -0.005006 0.014496 0.000000 0.000000 0.000000
# 4 0.000000 0.000000 0.000000 0.031954 0.000000 0.000000
# 5 0.000000 0.000000 0.000000 0.000000 0.027253 0.000000
# 6 0.000000 0.000000 0.000000 0.000000 0.000000 0.093503
#
#
# Mechanical properties :
#
#
# Convention : Reuss Voigt Hill
#
# Bulk Modulus (GPa) = 21.18642 27.14337 24.16489
# Shear Modulus (GPa) = 21.42060 27.77181 24.59620
#
# Velocity S-wave (km/s) = 3.27505 3.72910 3.50942
# Velocity P-wave (km/s) = 4.99098 5.66860 5.34055
#
# Compressibility (1/GPa) = 0.04720004
#
# Stress axis : x y z
#
# Youngs Moduli (GPa) = 63.21957 38.79828 68.98419
#
# Poissons Ratio (x) = -0.23226 0.37420
# Poissons Ratio (y) = -0.37845 0.34533
# Poissons Ratio (z) = 0.34293 0.19422
#
# Static dielectric constant tensor:
#      x y z
#    x 3.844000 0.000000 0.000000 
#    y 0.000000 3.648930 0.000000 
#    z 0.000000 0.000000 2.413870 
# 
# 
# High freq. dielectric constant tensor:
#      x y z
#    x 1.776410 0.000000 0.000000 
#    y 0.000000 1.767270 0.000000 
#    z 0.000000 0.000000 1.790950 
# 
# From -- ./inp_files/4295.got.cif
#   From: 2010.03.12/outbox.cif.g09.slc.cpg/sg57_3_cif.got.tgz:4295.got - 2010.04.16 15:48:40.
