data_PCOD8232218
_publ_section_title
;
Structure prediction by ZEFSAII (Michael W. Deem and Ramdas Pophale) SiO2 
 PCOD8232218
Probable space group: P B C M
;
_chemical_formula_sum "Si O2"
_cell_formula_units_Z 64
_cell_length_a 30.108357
_cell_length_b 13.614156
_cell_length_c 8.881528
_cell_angle_alpha 90.000000
_cell_angle_beta 90.000000
_cell_angle_gamma 90.000000
_cell_volume 3640.537165
_symmetry_space_group_name_H-M "P B C M"
_symmetry_group_IT_number 57
_symmetry_cell_setting 'orthorhombic'
loop_
_space_group_symop_operation_xyz
x,y,z
-x,-y,1/2+z
x,1/2-y,-z
-x,1/2+y,1/2-z
-x,-y,-z
x,y,1/2-z
-x,1/2+y,z
x,1/2-y,1/2+z
loop_
_atom_site_type_symbol
_atom_site_label
_atom_site_fract_x
_atom_site_fract_y
_atom_site_fract_z
Si Si1 0.318047 0.034321 0.927025
Si Si2 0.545434 0.025755 0.580328
Si Si3 0.244323 0.147137 0.074659
Si Si4 0.620628 0.354457 0.571494
Si Si5 0.931312 0.976026 0.426053
Si Si6 0.141464 0.351960 0.574444
Si Si7 0.981606 0.354858 0.073982
Si Si8 0.609228 0.655272 0.419091
O O1 0.311877 0.039792 0.750000
O O2 0.339805 0.929777 0.974418
O O3 0.270579 0.053683 0.005269
O O4 0.349123 0.122298 0.982086
O O5 0.536745 0.064204 0.750000
O O6 0.571495 0.924997 0.583197
O O7 0.500000 0.000000 0.500000
O O8 0.573294 0.108424 0.491596
O O9 0.254816 0.154966 0.250000
O O10 0.192862 0.125910 0.042603
O O11 0.259056 0.250000 0.000000
O O12 0.632992 0.250000 0.500000
O O13 0.616421 0.344891 0.750000
O O14 0.924105 0.991498 0.250000
O O15 0.885826 0.939775 0.499991
O O16 0.970010 0.898347 0.461547
O O17 0.943274 0.079510 0.500385
O O18 0.126639 0.250000 0.500000
O O19 0.130530 0.345225 0.750000
O O20 0.972451 0.347567 0.250000
O O21 0.978748 0.250000 0.000000
O O22 0.588419 0.750000 0.500000
O O23 0.625258 0.679192 0.250000
#
# Coordination Sequence:
#
# PCOD8232218 Si02
#       8
#     8   8   8   8   8   8   8   8
#     4  10  20  34  53  76 102 130 162 203 247 294
#     4  10  21  36  53  74 102 134 168 206 246 291
#     4  10  20  33  51  76 106 138 169 204 249 302
#     4  10  21  37  57  79 102 132 170 211 255 300
#     4  10  20  33  51  74 101 135 172 213 259 306
#     4  10  20  33  50  74 104 137 171 208 252 304
#     4  10  20  33  50  73 101 133 172 215 259 307
#     4  10  20  33  50  72  98 129 161 195 238 286
#
# _framework density 17.579822
#
# number of rings (size 3 to 8) (size 9 to 14) (size 15 to 20)
#    0.000    2.000    0.000    3.750    0.000    7.500 
#    0.000    1.250    0.000    0.750    0.000    1.750 
#    0.000    0.000    0.000    0.000    0.000    0.000 
#
# Total GULP energy -793759.394622 kJ/mol
# GULP energy per Si atom -12402.490541 kJ/mol
# Density = 1.753981 g / cm^3
# Si number density = 17.579822 Si / 1000 Ang^3
#
#
#
# Elastic Constant Matrix: (Units=GPa)
#
#
# Indices 1 2 3 4 5 6 
#
# 1 84.4439 45.8076 55.4331 0.0000 0.0000 0.0000
# 2 45.8076 114.8681 65.4965 0.0000 0.0000 0.0000
# 3 55.4331 65.4965 117.6856 0.0000 0.0000 0.0000
# 4 0.0000 0.0000 0.0000 34.9067 0.0000 0.0000
# 5 0.0000 0.0000 0.0000 0.0000 32.0008 0.0000
# 6 0.0000 0.0000 0.0000 0.0000 0.0000 20.8412
#
#
#
# Elastic Compliance Matrix: (Units=1/GPa)
#
#
# Indices 1 2 3 4 5 6 
#
# 1 0.018024 -0.003438 -0.006577 0.000000 0.000000 0.000000
# 2 -0.003438 0.013408 -0.005843 0.000000 0.000000 0.000000
# 3 -0.006577 -0.005843 0.014847 0.000000 0.000000 0.000000
# 4 0.000000 0.000000 0.000000 0.028648 0.000000 0.000000
# 5 0.000000 0.000000 0.000000 0.000000 0.031249 0.000000
# 6 0.000000 0.000000 0.000000 0.000000 0.000000 0.047982
#
#
# Mechanical properties :
#
#
# Convention : Reuss Voigt Hill
#
# Bulk Modulus (GPa) = 68.65991 72.27467 70.46729
# Shear Modulus (GPa) = 26.21543 27.56711 26.89127
#
# Velocity S-wave (km/s) = 3.86582 3.96423 3.91534
# Velocity P-wave (km/s) = 7.68551 7.88385 7.78531
#
# Compressibility (1/GPa) = 0.01456454
#
# Stress axis : x y z
#
# Youngs Moduli (GPa) = 55.48062 74.58175 67.35501
#
# Poissons Ratio (x) = 0.25640 0.44297
# Poissons Ratio (y) = 0.19074 0.39354
# Poissons Ratio (z) = 0.36487 0.43576
#
# Static dielectric constant tensor:
#      x y z
#    x 3.278730 0.000000 0.000000 
#    y 0.000000 3.326630 0.000000 
#    z 0.000000 0.000000 3.579150 
# 
# 
# High freq. dielectric constant tensor:
#      x y z
#    x 1.670210 0.000000 0.000000 
#    y 0.000000 1.669950 0.000000 
#    z 0.000000 0.000000 1.702030 
# 
# From -- ./inp_files/10293.got.cif
#   From: 2010.03.12/outbox.cif.g09.slc.cpg/sg57_6_cif.got.tgz:10293.got - 2010.04.16 15:48:40.
