data_PCOD8232109
_publ_section_title
;
Structure prediction by ZEFSAII (Michael W. Deem and Ramdas Pophale) SiO2 
 PCOD8232109
Probable space group: P B C M
;
_chemical_formula_sum "Si O2"
_cell_formula_units_Z 56
_cell_length_a 15.205258
_cell_length_b 18.684039
_cell_length_c 10.198162
_cell_angle_alpha 90.000000
_cell_angle_beta 90.000000
_cell_angle_gamma 90.000000
_cell_volume 2897.253294
_symmetry_space_group_name_H-M "P B C M"
_symmetry_group_IT_number 57
_symmetry_cell_setting 'orthorhombic'
loop_
_space_group_symop_operation_xyz
x,y,z
-x,-y,1/2+z
x,1/2-y,-z
-x,1/2+y,1/2-z
-x,-y,-z
x,y,1/2-z
-x,1/2+y,z
x,1/2-y,1/2+z
loop_
_atom_site_type_symbol
_atom_site_label
_atom_site_fract_x
_atom_site_fract_y
_atom_site_fract_z
Si Si1 0.115217 0.495994 0.608767
Si Si2 0.644792 0.684918 0.901568
Si Si3 0.002871 0.885712 0.009636
Si Si4 0.242892 0.535853 0.397341
Si Si5 0.156095 0.193614 0.893173
Si Si6 0.161484 0.810576 0.599344
Si Si7 0.428870 0.030439 0.599209
O O1 0.161760 0.487112 0.750000
O O2 0.036593 0.438705 0.599633
O O3 0.187390 0.485986 0.495426
O O4 0.072294 0.574379 0.602574
O O5 0.628331 0.708675 0.750000
O O6 0.746868 0.662521 0.922812
O O7 0.589847 0.613713 0.935440
O O8 0.618592 0.750000 0.000000
O O9 0.921484 0.863634 0.100990
O O10 0.058381 0.824716 0.934149
O O11 0.215687 0.513046 0.250000
O O12 0.222453 0.619512 0.420433
O O13 0.344770 0.520202 0.421247
O O14 0.156821 0.229898 0.750000
O O15 0.127985 0.250000 0.000000
O O16 0.197783 0.750000 0.500000
O O17 0.167399 0.783575 0.750000
O O18 0.461586 0.024948 0.750000
O O19 0.500000 0.000000 0.500000
#
# Coordination Sequence:
#
# PCOD8232109 Si02
#       7
#     8   8   8   8   8   8   8
#     4  10  20  32  50  75 101 136 185 232 270 318
#     4   9  19  36  57  82 113 147 180 215 264 326
#     4  10  20  31  47  71 105 142 180 227 278 319
#     4   9  20  39  58  77 108 145 178 221 283 341
#     4  10  20  33  50  72 101 139 178 215 259 311
#     4  10  21  36  53  73 103 146 190 232 276 321
#     4  10  21  39  63  89 114 142 177 219 272 333
#
# _framework density 19.328651000000001
#
# number of rings (size 3 to 8) (size 9 to 14) (size 15 to 20)
#    0.000    2.286    0.000    2.143    0.000   11.429 
#    0.000    3.571    0.000    3.429    0.000    0.000 
#    0.000    0.000    0.000    0.000    0.000    0.000 
#
# Total GULP energy -694043.640277 kJ/mol
# GULP energy per Si atom -12393.636434 kJ/mol
# Density = 1.928466 g / cm^3
# Si number density = 19.328651 Si / 1000 Ang^3
#
#
#
# Elastic Constant Matrix: (Units=GPa)
#
#
# Indices 1 2 3 4 5 6 
#
# 1 91.6464 46.0307 61.3278 0.0000 0.0000 0.0000
# 2 46.0307 83.2607 61.3380 0.0000 0.0000 0.0000
# 3 61.3278 61.3380 147.4467 0.0000 0.0000 0.0000
# 4 0.0000 0.0000 0.0000 21.2377 0.0000 0.0000
# 5 0.0000 0.0000 0.0000 0.0000 30.1523 0.0000
# 6 0.0000 0.0000 0.0000 0.0000 0.0000 21.5495
#
#
#
# Elastic Compliance Matrix: (Units=1/GPa)
#
#
# Indices 1 2 3 4 5 6 
#
# 1 0.016993 -0.006038 -0.004556 0.000000 0.000000 0.000000
# 2 -0.006038 0.019463 -0.005585 0.000000 0.000000 0.000000
# 3 -0.004556 -0.005585 0.011001 0.000000 0.000000 0.000000
# 4 0.000000 0.000000 0.000000 0.047086 0.000000 0.000000
# 5 0.000000 0.000000 0.000000 0.000000 0.033165 0.000000
# 6 0.000000 0.000000 0.000000 0.000000 0.000000 0.046405
#
#
# Mechanical properties :
#
#
# Convention : Reuss Voigt Hill
#
# Bulk Modulus (GPa) = 66.23418 73.30519 69.76968
# Shear Modulus (GPa) = 23.64013 24.83172 24.23593
#
# Velocity S-wave (km/s) = 3.50102 3.58817 3.54487
# Velocity P-wave (km/s) = 7.11931 7.42796 7.27528
#
# Compressibility (1/GPa) = 0.01509794
#
# Stress axis : x y z
#
# Youngs Moduli (GPa) = 58.84744 51.37859 90.90403
#
# Poissons Ratio (x) = 0.31023 0.41417
# Poissons Ratio (y) = 0.35533 0.50773
# Poissons Ratio (z) = 0.26811 0.28696
#
# Static dielectric constant tensor:
#      x y z
#    x 3.278190 0.000000 0.000000 
#    y 0.000000 3.499540 0.000000 
#    z 0.000000 0.000000 3.619380 
# 
# 
# High freq. dielectric constant tensor:
#      x y z
#    x 1.724100 0.000000 0.000000 
#    y 0.000000 1.747130 0.000000 
#    z 0.000000 0.000000 1.759320 
# 
# From -- ./inp_files/5104.got.cif
#   From: 2010.03.12/outbox.cif.g09.slc.cpg/sg57_3_cif.got.tgz:5104.got - 2010.04.16 15:48:40.
