data_PCOD8232359
_publ_section_title
;
Structure prediction by ZEFSAII (Michael W. Deem and Ramdas Pophale) SiO2 
 PCOD8232359
Probable space group: P B C M
;
_chemical_formula_sum "Si O2"
_cell_formula_units_Z 64
_cell_length_a 17.001771
_cell_length_b 20.043001
_cell_length_c 8.841121
_cell_angle_alpha 90.000000
_cell_angle_beta 90.000000
_cell_angle_gamma 90.000000
_cell_volume 3012.757976
_symmetry_space_group_name_H-M "P B C M"
_symmetry_group_IT_number 57
_symmetry_cell_setting 'orthorhombic'
loop_
_space_group_symop_operation_xyz
x,y,z
-x,-y,1/2+z
x,1/2-y,-z
-x,1/2+y,1/2-z
-x,-y,-z
x,y,1/2-z
-x,1/2+y,z
x,1/2-y,1/2+z
loop_
_atom_site_type_symbol
_atom_site_label
_atom_site_fract_x
_atom_site_fract_y
_atom_site_fract_z
Si Si1 0.420600 0.154538 0.579043
Si Si2 0.215189 0.036706 0.427180
Si Si3 0.370157 0.492177 0.082821
Si Si4 0.103602 0.821341 0.073161
Si Si5 0.260656 0.315791 0.927820
Si Si6 0.285428 0.818583 0.424496
Si Si7 0.928950 0.040802 0.430279
Si Si8 0.571591 0.372048 0.579109
O O1 0.414340 0.181408 0.750000
O O2 0.417212 0.075660 0.566534
O O3 0.351182 0.186354 0.481213
O O4 0.506371 0.171394 0.509928
O O5 0.196382 0.029473 0.250000
O O6 0.300081 0.004337 0.459562
O O7 0.217269 0.115387 0.477298
O O8 0.150648 0.996059 0.520178
O O9 0.330585 0.496596 0.250000
O O10 0.438402 0.548009 0.067210
O O11 0.081291 0.819139 0.250000
O O12 0.195190 0.836659 0.048087
O O13 0.079649 0.750000 0.000000
O O14 0.061476 0.883244 0.991177
O O15 0.258305 0.308694 0.750000
O O16 0.218469 0.250000 0.000000
O O17 0.308347 0.750000 0.500000
O O18 0.306867 0.815866 0.250000
O O19 0.341103 0.870036 0.508691
O O20 0.934388 0.042478 0.250000
O O21 0.000000 0.000000 0.500000
O O22 0.569916 0.345562 0.750000
#
# Coordination Sequence:
#
# PCOD8232359 Si02
#       8
#     8   8   8   8   8   8   8   8
#     4  10  20  34  51  73 104 142 187 237 292 351
#     4  10  21  38  61  89 119 152 194 244 298 358
#     4   9  19  34  53  77 105 141 184 231 285 348
#     4  10  21  40  66  95 127 164 205 246 293 352
#     4  10  21  38  60  84 112 149 196 249 303 361
#     4  10  21  36  54  77 106 142 185 231 278 333
#     4  12  25  42  66  96 131 166 202 245 295 352
#     4  11  21  32  48  73 106 142 184 235 292 349
#
# _framework density 21.242995000000001
#
# number of rings (size 3 to 8) (size 9 to 14) (size 15 to 20)
#    0.000    1.750    0.000    4.500    0.000    7.000 
#    0.000    3.125    0.000    1.500    0.000    0.000 
#    0.000    0.000    0.000    0.000    0.000    0.000 
#
# Total GULP energy -793301.310377 kJ/mol
# GULP energy per Si atom -12395.332975 kJ/mol
# Density = 2.119464 g / cm^3
# Si number density = 21.242995 Si / 1000 Ang^3
#
#
#
# Elastic Constant Matrix: (Units=GPa)
#
#
# Indices 1 2 3 4 5 6 
#
# 1 52.9675 29.7845 35.5444 0.0000 0.0000 0.0000
# 2 29.7845 114.2120 57.5603 0.0000 0.0000 0.0000
# 3 35.5444 57.5603 124.6975 0.0000 0.0000 0.0000
# 4 0.0000 0.0000 0.0000 36.1239 0.0000 0.0000
# 5 0.0000 0.0000 0.0000 0.0000 32.8646 0.0000
# 6 0.0000 0.0000 0.0000 0.0000 0.0000 17.5365
#
#
#
# Elastic Compliance Matrix: (Units=1/GPa)
#
#
# Indices 1 2 3 4 5 6 
#
# 1 0.024513 -0.003742 -0.005260 0.000000 0.000000 0.000000
# 2 -0.003742 0.011981 -0.004464 0.000000 0.000000 0.000000
# 3 -0.005260 -0.004464 0.011579 0.000000 0.000000 0.000000
# 4 0.000000 0.000000 0.000000 0.027682 0.000000 0.000000
# 5 0.000000 0.000000 0.000000 0.000000 0.030428 0.000000
# 6 0.000000 0.000000 0.000000 0.000000 0.000000 0.057024
#
#
# Mechanical properties :
#
#
# Convention : Reuss Voigt Hill
#
# Bulk Modulus (GPa) = 47.29870 59.73950 53.51910
# Shear Modulus (GPa) = 25.35658 28.57085 26.96371
#
# Velocity S-wave (km/s) = 3.45866 3.67134 3.56659
# Velocity P-wave (km/s) = 6.18577 6.79372 6.49686
#
# Compressibility (1/GPa) = 0.02114223
#
# Stress axis : x y z
#
# Youngs Moduli (GPa) = 40.79389 83.46456 86.36032
#
# Poissons Ratio (x) = 0.31229 0.45428
# Poissons Ratio (y) = 0.15263 0.38551
# Poissons Ratio (z) = 0.21459 0.37258
#
# Static dielectric constant tensor:
#      x y z
#    x 3.591390 0.000000 0.000000 
#    y 0.000000 4.145200 0.000000 
#    z 0.000000 0.000000 4.010010 
# 
# 
# High freq. dielectric constant tensor:
#      x y z
#    x 1.801840 0.000000 0.000000 
#    y 0.000000 1.851140 0.000000 
#    z 0.000000 0.000000 1.843160 
# 
# From -- ./inp_files/7222.got.cif
#   From: 2010.03.12/outbox.cif.g09.slc.cpg/sg57_4_cif.got.tgz:7222.got - 2010.04.16 15:48:40.
