data_PCOD8232333
_publ_section_title
;
Structure prediction by ZEFSAII (Michael W. Deem and Ramdas Pophale) SiO2 
 PCOD8232333
Probable space group: P B C M
;
_chemical_formula_sum "Si O2"
_cell_formula_units_Z 56
_cell_length_a 13.583940
_cell_length_b 9.935599
_cell_length_c 20.337848
_cell_angle_alpha 90.000000
_cell_angle_beta 90.000000
_cell_angle_gamma 90.000000
_cell_volume 2744.889127
_symmetry_space_group_name_H-M "P B C M"
_symmetry_group_IT_number 57
_symmetry_cell_setting 'orthorhombic'
loop_
_space_group_symop_operation_xyz
x,y,z
-x,-y,1/2+z
x,1/2-y,-z
-x,1/2+y,1/2-z
-x,-y,-z
x,y,1/2-z
-x,1/2+y,z
x,1/2-y,1/2+z
loop_
_atom_site_type_symbol
_atom_site_label
_atom_site_fract_x
_atom_site_fract_y
_atom_site_fract_z
Si Si1 0.262083 0.604081 0.325451
Si Si2 0.059573 0.731520 0.322483
Si Si3 0.546006 0.252901 0.673376
Si Si4 0.984611 0.484610 0.103804
Si Si5 0.783213 0.585180 0.071388
Si Si6 0.810514 0.607730 0.571875
Si Si7 0.386772 0.462350 0.827863
O O1 0.277145 0.555701 0.250000
O O2 0.177199 0.716346 0.329767
O O3 0.358438 0.673637 0.357063
O O4 0.235509 0.473376 0.367753
O O5 0.025017 0.691320 0.250000
O O6 0.005529 0.634517 0.372719
O O7 0.026033 0.883602 0.334889
O O8 0.555725 0.276732 0.750000
O O9 0.446629 0.328459 0.649995
O O10 0.544882 0.093645 0.657476
O O11 0.879342 0.489544 0.068456
O O12 0.074893 0.433284 0.058353
O O13 0.807790 0.736952 0.092757
O O14 0.706723 0.526250 0.124341
O O15 0.747452 0.582727 0.995091
O O16 0.356373 0.459176 0.750000
#
# Coordination Sequence:
#
# PCOD8232333 Si02
#       7
#     8   8   8   8   8   8   8
#     4   9  19  37  61  86 117 155 199 248 300 360
#     4  10  20  33  55  87 121 151 192 250 302 352
#     4   9  19  38  63  93 126 155 198 247 301 365
#     4  11  20  39  57  85 116 164 204 242 301 367
#     4  11  23  40  61  86 124 161 208 256 301 364
#     4  10  23  40  59  88 122 161 204 252 309 363
#     4  10  22  39  65  97 123 161 203 252 306 362
#
# _framework density 20.401553
#
# number of rings (size 3 to 8) (size 9 to 14) (size 15 to 20)
#    0.000    2.000    1.429    1.714    2.000    3.429 
#    0.000    4.286    0.000    0.000    0.000    0.000 
#    0.000    0.000    0.000    0.000    0.000    0.000 
#
# Total GULP energy -694036.690208 kJ/mol
# GULP energy per Si atom -12393.512325 kJ/mol
# Density = 2.035512 g / cm^3
# Si number density = 20.401553 Si / 1000 Ang^3
#
#
#
# Elastic Constant Matrix: (Units=GPa)
#
#
# Indices 1 2 3 4 5 6 
#
# 1 78.0477 23.2720 35.1367 0.0000 0.0000 0.0000
# 2 23.2720 90.4495 28.2598 0.0000 0.0000 0.0000
# 3 35.1367 28.2598 80.2094 0.0000 0.0000 0.0000
# 4 0.0000 0.0000 0.0000 22.3231 0.0000 0.0000
# 5 0.0000 0.0000 0.0000 0.0000 21.1936 0.0000
# 6 0.0000 0.0000 0.0000 0.0000 0.0000 30.4574
#
#
#
# Elastic Compliance Matrix: (Units=1/GPa)
#
#
# Indices 1 2 3 4 5 6 
#
# 1 0.016345 -0.002212 -0.006381 0.000000 0.000000 0.000000
# 2 -0.002212 0.012723 -0.003514 0.000000 0.000000 0.000000
# 3 -0.006381 -0.003514 0.016500 0.000000 0.000000 0.000000
# 4 0.000000 0.000000 0.000000 0.044797 0.000000 0.000000
# 5 0.000000 0.000000 0.000000 0.000000 0.047184 0.000000
# 6 0.000000 0.000000 0.000000 0.000000 0.000000 0.032833
#
#
# Mechanical properties :
#
#
# Convention : Reuss Voigt Hill
#
# Bulk Modulus (GPa) = 46.82610 46.89374 46.85992
# Shear Modulus (GPa) = 24.78777 25.59736 25.19256
#
# Velocity S-wave (km/s) = 3.48946 3.54598 3.51783
# Velocity P-wave (km/s) = 6.26396 6.30877 6.28640
#
# Compressibility (1/GPa) = 0.02135561
#
# Stress axis : x y z
#
# Youngs Moduli (GPa) = 61.18165 78.59923 60.60432
#
# Poissons Ratio (x) = 0.17385 0.38670
# Poissons Ratio (y) = 0.13532 0.21294
# Poissons Ratio (z) = 0.39038 0.27617
#
# Static dielectric constant tensor:
#      x y z
#    x 3.811430 0.000000 0.000000 
#    y 0.000000 3.701940 0.000000 
#    z 0.000000 0.000000 3.402010 
# 
# 
# High freq. dielectric constant tensor:
#      x y z
#    x 1.788790 0.000000 0.000000 
#    y 0.000000 1.804990 0.000000 
#    z 0.000000 0.000000 1.773920 
# 
# From -- ./inp_files/25424.got.cif
#   From: 2010.03.12/outbox.cif.g09.slc.cpg/sg57_13_cif.got.tgz:25424.got - 2010.04.16 15:48:40.
