data_PCOD8232902
_publ_section_title
;
Structure prediction by ZEFSAII (Michael W. Deem and Ramdas Pophale) SiO2 
 PCOD8232902
Probable space group: P B C M
;
_chemical_formula_sum "Si O2"
_cell_formula_units_Z 56
_cell_length_a 15.014769
_cell_length_b 9.062853
_cell_length_c 20.267510
_cell_angle_alpha 90.000000
_cell_angle_beta 90.000000
_cell_angle_gamma 90.000000
_cell_volume 2757.934749
_symmetry_space_group_name_H-M "P B C M"
_symmetry_group_IT_number 57
_symmetry_cell_setting 'orthorhombic'
loop_
_space_group_symop_operation_xyz
x,y,z
-x,-y,1/2+z
x,1/2-y,-z
-x,1/2+y,1/2-z
-x,-y,-z
x,y,1/2-z
-x,1/2+y,z
x,1/2-y,1/2+z
loop_
_atom_site_type_symbol
_atom_site_label
_atom_site_fract_x
_atom_site_fract_y
_atom_site_fract_z
Si Si1 0.497148 0.251345 0.590651
Si Si2 0.190898 0.593990 0.132086
Si Si3 0.376684 0.998139 0.615594
Si Si4 0.787336 0.063149 0.617860
Si Si5 0.093293 0.576302 0.001406
Si Si6 0.882629 0.017399 0.750000
Si Si7 0.066135 0.644339 0.250000
Si Si8 0.617908 0.497847 0.037069
O O1 0.430119 0.148235 0.634139
O O2 0.560695 0.357420 0.635127
O O3 0.439104 0.354427 0.543049
O O4 0.556546 0.144243 0.546321
O O5 0.281482 0.507038 0.153031
O O6 0.221666 0.761780 0.123203
O O7 0.149897 0.528298 0.065121
O O8 0.115039 0.575731 0.186801
O O9 0.348554 0.989540 0.538023
O O10 0.859189 0.017774 0.563744
O O11 0.818749 0.992835 0.686980
O O12 0.693849 0.997971 0.593106
O O13 0.079132 0.750000 0.000000
O O14 0.000000 0.500000 0.000000
O O15 0.927338 0.178836 0.750000
O O16 0.962255 0.898515 0.750000
#
# Coordination Sequence:
#
# PCOD8232902 Si02
#       8
#     8   8   8   8   8   4   4   8
#     4  10  21  30  54  83 118 153 182 229 270 331
#     4  10  20  35  59  80 112 145 183 226 274 335
#     4  11  18  33  52  84 117 148 187 223 277 322
#     4  10  20  35  59  80 112 145 183 226 274 335
#     4  10  20  36  54  81 109 140 172 229 289 324
#     4  10  22  42  62  81 105 150 192 223 277 340
#     4  10  22  42  62  81 105 150 192 223 277 340
#     4  11  18  33  52  84 117 148 187 223 277 322
#
# _framework density 20.305050000000001
#
# number of rings (size 3 to 8) (size 9 to 14) (size 15 to 20)
#    0.000    1.714    2.857    4.286    0.000    0.000 
#    5.143    0.000    0.000    5.143    0.000    0.000 
#    0.000    0.000    0.000    0.000    0.000    0.000 
#
# Total GULP energy -694211.889899 kJ/mol
# GULP energy per Si atom -12396.640891 kJ/mol
# Density = 2.025883 g / cm^3
# Si number density = 20.305050 Si / 1000 Ang^3
#
#
#
# Elastic Constant Matrix: (Units=GPa)
#
#
# Indices 1 2 3 4 5 6 
#
# 1 151.2301 42.0933 43.8907 0.0000 0.0000 0.0000
# 2 42.0933 77.5608 11.9315 0.0000 0.0000 0.0000
# 3 43.8907 11.9315 92.2188 0.0000 0.0000 0.0000
# 4 0.0000 0.0000 0.0000 10.4505 0.0000 0.0000
# 5 0.0000 0.0000 0.0000 0.0000 29.4124 0.0000
# 6 0.0000 0.0000 0.0000 0.0000 0.0000 63.7113
#
#
#
# Elastic Compliance Matrix: (Units=1/GPa)
#
#
# Indices 1 2 3 4 5 6 
#
# 1 0.008858 -0.004243 -0.003667 0.000000 0.000000 0.000000
# 2 -0.004243 0.015188 0.000054 0.000000 0.000000 0.000000
# 3 -0.003667 0.000054 0.012582 0.000000 0.000000 0.000000
# 4 0.000000 0.000000 0.000000 0.095689 0.000000 0.000000
# 5 0.000000 0.000000 0.000000 0.000000 0.033999 0.000000
# 6 0.000000 0.000000 0.000000 0.000000 0.000000 0.015696
#
#
# Mechanical properties :
#
#
# Convention : Reuss Voigt Hill
#
# Bulk Modulus (GPa) = 47.80957 57.42676 52.61816
# Shear Modulus (GPa) = 24.42672 35.58779 30.00725
#
# Velocity S-wave (km/s) = 3.47217 4.19102 3.84842
# Velocity P-wave (km/s) = 6.29853 7.19464 6.76145
#
# Compressibility (1/GPa) = 0.02091631
#
# Stress axis : x y z
#
# Youngs Moduli (GPa) = 112.89690 65.84356 79.47934
#
# Poissons Ratio (x) = 0.27938 0.29143
# Poissons Ratio (y) = 0.47903 -0.00433
# Poissons Ratio (z) = 0.41396 -0.00359
#
# Static dielectric constant tensor:
#      x y z
#    x 3.836130 0.000000 0.000000 
#    y 0.000000 3.746990 0.000000 
#    z 0.000000 0.000000 3.466170 
# 
# 
# High freq. dielectric constant tensor:
#      x y z
#    x 1.810520 0.000000 0.000000 
#    y 0.000000 1.781160 0.000000 
#    z 0.000000 0.000000 1.758000 
# 
# From -- ./inp_files/25429.got.cif
#   From: 2010.03.12/outbox.cif.g09.slc.cpg/sg57_13_cif.got.tgz:25429.got - 2010.04.16 15:48:40.
