data_PCOD8232882
_publ_section_title
;
Structure prediction by ZEFSAII (Michael W. Deem and Ramdas Pophale) SiO2 
 PCOD8232882
Probable space group: P B C M
;
_chemical_formula_sum "Si O2"
_cell_formula_units_Z 48
_cell_length_a 9.763045
_cell_length_b 13.860391
_cell_length_c 18.102631
_cell_angle_alpha 90.000000
_cell_angle_beta 90.000000
_cell_angle_gamma 90.000000
_cell_volume 2449.641167
_symmetry_space_group_name_H-M "P B C M"
_symmetry_group_IT_number 57
_symmetry_cell_setting 'orthorhombic'
loop_
_space_group_symop_operation_xyz
x,y,z
-x,-y,1/2+z
x,1/2-y,-z
-x,1/2+y,1/2-z
-x,-y,-z
x,y,1/2-z
-x,1/2+y,z
x,1/2-y,1/2+z
loop_
_atom_site_type_symbol
_atom_site_label
_atom_site_fract_x
_atom_site_fract_y
_atom_site_fract_z
Si Si1 0.284333 0.916881 0.334731
Si Si2 0.005270 0.598904 0.594280
Si Si3 0.822514 0.727495 0.415718
Si Si4 0.311561 0.702794 0.336857
Si Si5 0.599187 0.885131 0.663421
Si Si6 0.924225 0.107441 0.067810
O O1 0.319966 0.926909 0.250000
O O2 0.120284 0.920182 0.344512
O O3 0.342753 0.813320 0.362010
O O4 0.359574 0.010101 0.371753
O O5 0.087622 0.630199 0.519708
O O6 0.900770 0.681511 0.620696
O O7 0.909203 0.506180 0.581745
O O8 0.783849 0.750000 0.500000
O O9 0.684911 0.701902 0.372600
O O10 0.923072 0.636379 0.407672
O O11 0.271342 0.699030 0.250000
O O12 0.440654 0.635039 0.353926
O O13 0.186649 0.665644 0.385907
O O14 0.629544 0.880759 0.750000
#
# Coordination Sequence:
#
# PCOD8232882 Si02
#       6
#     8   8   8   8   8   8
#     4  10  20  36  59  84 112 149 192 238 291 346
#     4  10  20  35  58  86 118 150 192 236 285 340
#     4  10  20  36  57  85 117 151 190 237 285 344
#     4  10  22  39  59  85 116 153 197 239 287 352
#     4  10  22  40  59  83 121 155 188 242 297 348
#     4  10  20  36  59  82 117 150 188 240 286 332
#
# _framework density 19.594707
#
# number of rings (size 3 to 8) (size 9 to 14) (size 15 to 20)
#    0.000    2.000    3.333    0.000    0.000    3.333 
#    3.000    2.500    0.000    0.000    0.000    0.000 
#    0.000    0.000    0.000    0.000    0.000    0.000 
#
# Total GULP energy -595058.666935 kJ/mol
# GULP energy per Si atom -12397.055561 kJ/mol
# Density = 1.955011 g / cm^3
# Si number density = 19.594707 Si / 1000 Ang^3
#
#
#
# Elastic Constant Matrix: (Units=GPa)
#
#
# Indices 1 2 3 4 5 6 
#
# 1 73.2086 31.2881 36.7085 0.0000 0.0000 0.0000
# 2 31.2881 115.6337 34.2353 0.0000 0.0000 0.0000
# 3 36.7085 34.2353 40.8471 0.0000 0.0000 0.0000
# 4 0.0000 0.0000 0.0000 26.3629 0.0000 0.0000
# 5 0.0000 0.0000 0.0000 0.0000 29.2659 0.0000
# 6 0.0000 0.0000 0.0000 0.0000 0.0000 31.0603
#
#
#
# Elastic Compliance Matrix: (Units=1/GPa)
#
#
# Indices 1 2 3 4 5 6 
#
# 1 0.024866 -0.000149 -0.022221 0.000000 0.000000 0.000000
# 2 -0.000149 0.011503 -0.009507 0.000000 0.000000 0.000000
# 3 -0.022221 -0.009507 0.052420 0.000000 0.000000 0.000000
# 4 0.000000 0.000000 0.000000 0.037932 0.000000 0.000000
# 5 0.000000 0.000000 0.000000 0.000000 0.034169 0.000000
# 6 0.000000 0.000000 0.000000 0.000000 0.000000 0.032195
#
#
# Mechanical properties :
#
#
# Convention : Reuss Voigt Hill
#
# Bulk Modulus (GPa) = 39.94678 48.23924 44.09301
# Shear Modulus (GPa) = 18.85479 25.83498 22.34489
#
# Velocity S-wave (km/s) = 3.10536 3.63501 3.38058
# Velocity P-wave (km/s) = 5.76962 6.50305 6.14728
#
# Compressibility (1/GPa) = 0.02503331
#
# Stress axis : x y z
#
# Youngs Moduli (GPa) = 40.21621 86.93321 19.07685
#
# Poissons Ratio (x) = 0.01297 0.42391
# Poissons Ratio (y) = 0.00600 0.18137
# Poissons Ratio (z) = 0.89365 0.82648
#
# Static dielectric constant tensor:
#      x y z
#    x 3.281030 0.000000 0.000000 
#    y 0.000000 3.984450 0.000000 
#    z 0.000000 0.000000 3.399970 
# 
# 
# High freq. dielectric constant tensor:
#      x y z
#    x 1.743010 0.000000 0.000000 
#    y 0.000000 1.786430 0.000000 
#    z 0.000000 0.000000 1.742130 
# 
# From -- ./inp_files/24261.got.cif
#   From: 2010.03.12/outbox.cif.g09.slc.cpg/sg57_13_cif.got.tgz:24261.got - 2010.04.16 15:48:40.
