data_PCOD8232046
_publ_section_title
;
Structure prediction by ZEFSAII (Michael W. Deem and Ramdas Pophale) SiO2 
 PCOD8232046
Probable space group: P B C M
;
_chemical_formula_sum "Si O2"
_cell_formula_units_Z 40
_cell_length_a 5.166875
_cell_length_b 13.298368
_cell_length_c 28.095108
_cell_angle_alpha 90.000000
_cell_angle_beta 90.000000
_cell_angle_gamma 90.000000
_cell_volume 1930.443111
_symmetry_space_group_name_H-M "P B C M"
_symmetry_group_IT_number 57
_symmetry_cell_setting 'orthorhombic'
loop_
_space_group_symop_operation_xyz
x,y,z
-x,-y,1/2+z
x,1/2-y,-z
-x,1/2+y,1/2-z
-x,-y,-z
x,y,1/2-z
-x,1/2+y,z
x,1/2-y,1/2+z
loop_
_atom_site_type_symbol
_atom_site_label
_atom_site_fract_x
_atom_site_fract_y
_atom_site_fract_z
Si Si1 0.533919 0.670366 0.570422
Si Si2 0.962332 0.421043 0.458456
Si Si3 0.900105 0.209732 0.694610
Si Si4 0.268490 0.969666 0.135512
Si Si5 0.593461 0.692785 0.348661
O O1 0.289755 0.651438 0.534925
O O2 0.515548 0.591296 0.614634
O O3 0.533182 0.779858 0.595704
O O4 0.793081 0.653156 0.540764
O O5 0.937370 0.481197 0.408224
O O6 0.000000 0.500000 0.500000
O O7 0.962810 0.210939 0.750000
O O8 0.648600 0.278030 0.684316
O O9 0.144874 0.252017 0.666497
O O10 0.855656 0.094953 0.678196
O O11 0.363142 0.074412 0.156380
#
# Coordination Sequence:
#
# PCOD8232046 Si02
#       5
#     8   8   8   8   8
#     4   9  19  37  57  86 118 156 190 248 287 351
#     4  10  19  37  63  85 120 158 195 245 300 352
#     4  11  24  40  59  90 122 156 207 256 300 362
#     4   9  23  37  66  82 124 159 197 246 310 356
#     4  11  21  40  63  85 120 162 199 245 311 355
#
# _framework density 20.72063
#
# number of rings (size 3 to 8) (size 9 to 14) (size 15 to 20)
#    1.200    0.800    2.000    1.200    2.800    1.600 
#    0.000    1.000    0.000    0.000    0.000    0.000 
#    0.000    0.000    0.000    0.000    0.000    0.000 
#
# Total GULP energy -495688.228253 kJ/mol
# GULP energy per Si atom -12392.205706 kJ/mol
# Density = 2.067347 g / cm^3
# Si number density = 20.720630 Si / 1000 Ang^3
#
#
#
# Elastic Constant Matrix: (Units=GPa)
#
#
# Indices 1 2 3 4 5 6 
#
# 1 130.9400 17.8207 1.2853 0.0000 0.0000 0.0000
# 2 17.8207 84.0031 4.9784 0.0000 0.0000 0.0000
# 3 1.2853 4.9784 45.8504 0.0000 0.0000 0.0000
# 4 0.0000 0.0000 0.0000 13.0450 0.0000 0.0000
# 5 0.0000 0.0000 0.0000 0.0000 25.9457 0.0000
# 6 0.0000 0.0000 0.0000 0.0000 0.0000 15.4489
#
#
#
# Elastic Compliance Matrix: (Units=1/GPa)
#
#
# Indices 1 2 3 4 5 6 
#
# 1 0.007864 -0.001666 -0.000040 0.000000 0.000000 0.000000
# 2 -0.001666 0.012334 -0.001293 0.000000 0.000000 0.000000
# 3 -0.000040 -0.001293 0.021952 0.000000 0.000000 0.000000
# 4 0.000000 0.000000 0.000000 0.076657 0.000000 0.000000
# 5 0.000000 0.000000 0.000000 0.000000 0.038542 0.000000
# 6 0.000000 0.000000 0.000000 0.000000 0.000000 0.064730
#
#
# Mechanical properties :
#
#
# Convention : Reuss Voigt Hill
#
# Bulk Modulus (GPa) = 27.65955 34.32913 30.99434
# Shear Modulus (GPa) = 20.82234 26.66852 23.74543
#
# Velocity S-wave (km/s) = 3.17347 3.59144 3.38891
# Velocity P-wave (km/s) = 5.17742 5.81391 5.50487
#
# Compressibility (1/GPa) = 0.03615388
#
# Stress axis : x y z
#
# Youngs Moduli (GPa) = 127.15827 81.07433 45.55492
#
# Poissons Ratio (x) = 0.13507 0.00180
# Poissons Ratio (y) = 0.21184 0.05888
# Poissons Ratio (z) = 0.00503 0.10479
#
# Static dielectric constant tensor:
#      x y z
#    x 3.851090 0.000000 0.000000 
#    y 0.000000 3.491820 0.000000 
#    z 0.000000 0.000000 3.516080 
# 
# 
# High freq. dielectric constant tensor:
#      x y z
#    x 1.822970 0.000000 0.000000 
#    y 0.000000 1.793730 0.000000 
#    z 0.000000 0.000000 1.792980 
# 
# From -- ./inp_files/29047.got.cif
#   From: 2010.03.12/outbox.cif.g09.slc.cpg/sg57_15_cif.got.tgz:29047.got - 2010.04.16 15:48:40.
