data_PCOD8232054
_publ_section_title
;
Structure prediction by ZEFSAII (Michael W. Deem and Ramdas Pophale) SiO2 
 PCOD8232054
Probable space group: P B C M
;
_chemical_formula_sum "Si O2"
_cell_formula_units_Z 64
_cell_length_a 23.770935
_cell_length_b 15.480331
_cell_length_c 8.619649
_cell_angle_alpha 90.000000
_cell_angle_beta 90.000000
_cell_angle_gamma 90.000000
_cell_volume 3171.875178
_symmetry_space_group_name_H-M "P B C M"
_symmetry_group_IT_number 57
_symmetry_cell_setting 'orthorhombic'
loop_
_space_group_symop_operation_xyz
x,y,z
-x,-y,1/2+z
x,1/2-y,-z
-x,1/2+y,1/2-z
-x,-y,-z
x,y,1/2-z
-x,1/2+y,z
x,1/2-y,1/2+z
loop_
_atom_site_type_symbol
_atom_site_label
_atom_site_fract_x
_atom_site_fract_y
_atom_site_fract_z
Si Si1 0.937999 0.497917 0.434104
Si Si2 0.246663 0.101970 0.931428
Si Si3 0.368583 0.658882 0.434321
Si Si4 0.131125 0.841028 0.934051
Si Si5 0.562004 0.001395 0.566368
Si Si6 0.749804 0.092607 0.066276
Si Si7 0.628714 0.658748 0.567900
Si Si8 0.133102 0.338918 0.932236
O O1 0.939475 0.496143 0.250000
O O2 0.909034 0.412599 0.496627
O O3 0.903520 0.581000 0.496497
O O4 0.000000 0.500000 0.500000
O O5 0.232286 0.102272 0.750000
O O6 0.305321 0.148363 0.967348
O O7 0.249453 0.004799 0.998551
O O8 0.198054 0.152781 0.019981
O O9 0.389816 0.750000 0.500000
O O10 0.371483 0.659070 0.250000
O O11 0.408444 0.585050 0.497456
O O12 0.305205 0.641805 0.496553
O O13 0.126641 0.842416 0.750000
O O14 0.194872 0.857654 0.992138
O O15 0.110446 0.750000 0.000000
O O16 0.560445 0.007936 0.750000
O O17 0.500000 0.000000 0.500000
O O18 0.594587 0.915663 0.517189
O O19 0.747369 0.088163 0.250000
O O20 0.608180 0.750000 0.500000
O O21 0.615975 0.653437 0.750000
O O22 0.128588 0.334313 0.750000
O O23 0.108043 0.250000 0.000000
#
# Coordination Sequence:
#
# PCOD8232054 Si02
#       8
#     8   8   8   8   8   8   8   8
#     4  11  25  44  64  89 120 160 210 261 311 366
#     4  10  19  37  64  93 127 166 203 247 305 367
#     4  11  22  41  65  96 131 166 208 255 307 369
#     4  11  22  39  64  93 127 165 205 251 307 367
#     4  12  26  45  67  92 122 164 212 262 315 368
#     4   9  18  35  62  93 127 166 202 245 305 366
#     4  11  23  41  65  95 130 166 207 255 308 370
#     4  11  24  40  62  93 125 160 204 253 307 369
#
# _framework density 20.177337999999999
#
# number of rings (size 3 to 8) (size 9 to 14) (size 15 to 20)
#    0.000    1.250    2.500    3.750    0.000    4.500 
#    0.000    5.625    0.000    0.000    0.000    0.000 
#    0.000    0.000    0.000    0.000    0.000    0.000 
#
# Total GULP energy -793909.171179 kJ/mol
# GULP energy per Si atom -12404.830800 kJ/mol
# Density = 2.013141 g / cm^3
# Si number density = 20.177338 Si / 1000 Ang^3
#
#
#
# Elastic Constant Matrix: (Units=GPa)
#
#
# Indices 1 2 3 4 5 6 
#
# 1 138.1288 68.8782 47.6620 0.0000 0.0000 0.0000
# 2 68.8782 187.9217 49.2827 0.0000 0.0000 0.0000
# 3 47.6620 49.2827 88.1604 0.0000 0.0000 0.0000
# 4 0.0000 0.0000 0.0000 35.6310 0.0000 0.0000
# 5 0.0000 0.0000 0.0000 0.0000 31.2931 0.0000
# 6 0.0000 0.0000 0.0000 0.0000 0.0000 -12.5459
#
#
#
# Elastic Compliance Matrix: (Units=1/GPa)
#
#
# Indices 1 2 3 4 5 6 
#
# 1 0.009878 -0.002601 -0.003886 0.000000 0.000000 0.000000
# 2 -0.002601 0.006921 -0.002462 0.000000 0.000000 0.000000
# 3 -0.003886 -0.002462 0.014820 0.000000 0.000000 0.000000
# 4 0.000000 0.000000 0.000000 0.028065 0.000000 0.000000
# 5 0.000000 0.000000 0.000000 0.000000 0.031956 0.000000
# 6 0.000000 0.000000 0.000000 0.000000 0.000000 -0.079707
#
#
# Mechanical properties :
#
#
# Convention : Reuss Voigt Hill
#
# Bulk Modulus (GPa) = 72.89015 82.87296 77.88156
# Shear Modulus (GPa) = 145.32892 27.43485 86.38188
#
# Velocity S-wave (km/s) = 8.49601 3.69139 6.55014
# Velocity P-wave (km/s) = 11.50852 7.70260 9.79224
#
# Compressibility (1/GPa) = 0.01371928
#
# Stress axis : x y z
#
# Youngs Moduli (GPa) = 101.23876 144.49693 67.47506
#
# Poissons Ratio (x) = 0.37588 0.26221
# Poissons Ratio (y) = 0.26335 0.16615
# Poissons Ratio (z) = 0.39341 0.35580
#
# Static dielectric constant tensor:
#      x y z
#    x 3.768710 0.000000 0.000000 
#    y 0.000000 3.906140 0.000000 
#    z 0.000000 0.000000 3.633310 
# 
# 
# High freq. dielectric constant tensor:
#      x y z
#    x 1.788740 0.000000 0.000000 
#    y 0.000000 1.807770 0.000000 
#    z 0.000000 0.000000 1.785230 
# 
# From -- ./inp_files/9379.got.cif
#   From: 2010.03.12/outbox.cif.g09.slc.cpg/sg57_5_cif.got.tgz:9379.got - 2010.04.16 15:48:40.
