data_PCOD8232276
_publ_section_title
;
Structure prediction by ZEFSAII (Michael W. Deem and Ramdas Pophale) SiO2 
 PCOD8232276
Probable space group: P B C M
;
_chemical_formula_sum "Si O2"
_cell_formula_units_Z 64
_cell_length_a 19.116487
_cell_length_b 19.055305
_cell_length_c 8.823031
_cell_angle_alpha 90.000000
_cell_angle_beta 90.000000
_cell_angle_gamma 90.000000
_cell_volume 3213.969828
_symmetry_space_group_name_H-M "P B C M"
_symmetry_group_IT_number 57
_symmetry_cell_setting 'orthorhombic'
loop_
_space_group_symop_operation_xyz
x,y,z
-x,-y,1/2+z
x,1/2-y,-z
-x,1/2+y,1/2-z
-x,-y,-z
x,y,1/2-z
-x,1/2+y,z
x,1/2-y,1/2+z
loop_
_atom_site_type_symbol
_atom_site_label
_atom_site_fract_x
_atom_site_fract_y
_atom_site_fract_z
Si Si1 0.435612 0.927715 0.926455
Si Si2 0.771614 0.314158 0.914926
Si Si3 0.574596 0.590109 0.571473
Si Si4 0.930714 0.183019 0.083388
Si Si5 0.931227 0.467255 0.431052
Si Si6 0.703250 0.673269 0.069495
Si Si7 0.795279 0.549121 0.072892
Si Si8 0.298871 0.926535 0.424679
O O1 0.451272 0.920594 0.750000
O O2 0.423398 0.008588 0.977607
O O3 0.496988 0.887189 0.016407
O O4 0.361952 0.894492 0.975348
O O5 0.736623 0.328292 0.750000
O O6 0.851531 0.294647 0.887960
O O7 0.732914 0.250000 0.000000
O O8 0.767802 0.380347 0.027798
O O9 0.583172 0.600861 0.750000
O O10 0.632403 0.636916 0.488896
O O11 0.966140 0.170693 0.250000
O O12 0.967886 0.250000 0.000000
O O13 0.931574 0.113064 0.983577
O O14 0.932421 0.469070 0.250000
O O15 0.865540 0.514068 0.497962
O O16 0.000000 0.500000 0.500000
O O17 0.698093 0.678540 0.250000
O O18 0.772679 0.627768 0.020346
O O19 0.712158 0.750000 0.000000
O O20 0.808877 0.547603 0.250000
O O21 0.724935 0.505234 0.033789
O O22 0.318373 0.918931 0.250000
#
# Coordination Sequence:
#
# PCOD8232276 Si02
#       8
#     8   8   8   8   8   8   8   8
#     4  10  20  33  53  83 116 149 189 242 294 349
#     4  10  20  33  51  79 113 148 186 229 278 338
#     4  10  20  35  55  82 113 150 193 240 291 351
#     4  10  20  35  57  86 117 153 193 239 291 355
#     4  11  22  40  62  90 123 161 203 251 308 369
#     4  11  22  40  62  88 118 158 204 255 309 362
#     4   9  20  37  60  85 116 153 197 247 300 358
#     4  11  19  33  56  83 113 152 193 239 294 351
#
# _framework density 19.913067999999999
#
# number of rings (size 3 to 8) (size 9 to 14) (size 15 to 20)
#    0.000    1.750    2.500    2.625    0.000    2.000 
#    0.000    3.750    0.000    1.500    0.000    0.000 
#    0.000    0.000    0.000    0.000    0.000    0.000 
#
# Total GULP energy -792907.165778 kJ/mol
# GULP energy per Si atom -12389.174465 kJ/mol
# Density = 1.986775 g / cm^3
# Si number density = 19.913068 Si / 1000 Ang^3
#
#
#
# Elastic Constant Matrix: (Units=GPa)
#
#
# Indices 1 2 3 4 5 6 
#
# 1 90.8331 44.1024 39.6255 0.0000 0.0000 0.0000
# 2 44.1024 130.3307 51.9746 0.0000 0.0000 0.0000
# 3 39.6255 51.9746 85.7796 0.0000 0.0000 0.0000
# 4 0.0000 0.0000 0.0000 33.7263 0.0000 0.0000
# 5 0.0000 0.0000 0.0000 0.0000 26.4645 0.0000
# 6 0.0000 0.0000 0.0000 0.0000 0.0000 16.1541
#
#
#
# Elastic Compliance Matrix: (Units=1/GPa)
#
#
# Indices 1 2 3 4 5 6 
#
# 1 0.014611 -0.002970 -0.004950 0.000000 0.000000 0.000000
# 2 -0.002970 0.010721 -0.005124 0.000000 0.000000 0.000000
# 3 -0.004950 -0.005124 0.017049 0.000000 0.000000 0.000000
# 4 0.000000 0.000000 0.000000 0.029650 0.000000 0.000000
# 5 0.000000 0.000000 0.000000 0.000000 0.037786 0.000000
# 6 0.000000 0.000000 0.000000 0.000000 0.000000 0.061904
#
#
# Mechanical properties :
#
#
# Convention : Reuss Voigt Hill
#
# Bulk Modulus (GPa) = 61.37576 64.26092 62.81834
# Shear Modulus (GPa) = 24.60141 26.68504 25.64322
#
# Velocity S-wave (km/s) = 3.51870 3.66468 3.59243
# Velocity P-wave (km/s) = 6.88455 7.08853 6.98729
#
# Compressibility (1/GPa) = 0.01629308
#
# Stress axis : x y z
#
# Youngs Moduli (GPa) = 68.44355 93.27235 58.65460
#
# Poissons Ratio (x) = 0.27704 0.29032
# Poissons Ratio (y) = 0.20329 0.30055
# Poissons Ratio (z) = 0.33877 0.47793
#
# Static dielectric constant tensor:
#      x y z
#    x 3.620830 0.000000 0.000000 
#    y 0.000000 3.231030 0.000000 
#    z 0.000000 0.000000 3.729010 
# 
# 
# High freq. dielectric constant tensor:
#      x y z
#    x 1.760130 0.000000 0.000000 
#    y 0.000000 1.766570 0.000000 
#    z 0.000000 0.000000 1.780880 
# 
# From -- ./inp_files/8425.got.cif
#   From: 2010.03.12/outbox.cif.g09.slc.cpg/sg57_5_cif.got.tgz:8425.got - 2010.04.16 15:48:40.
