data_PCOD8232452
_publ_section_title
;
Structure prediction by ZEFSAII (Michael W. Deem and Ramdas Pophale) SiO2 
 PCOD8232452
Probable space group: P B C M
;
_chemical_formula_sum "Si O2"
_cell_formula_units_Z 48
_cell_length_a 16.369360
_cell_length_b 18.067295
_cell_length_c 8.668719
_cell_angle_alpha 90.000000
_cell_angle_beta 90.000000
_cell_angle_gamma 90.000000
_cell_volume 2563.774130
_symmetry_space_group_name_H-M "P B C M"
_symmetry_group_IT_number 57
_symmetry_cell_setting 'orthorhombic'
loop_
_space_group_symop_operation_xyz
x,y,z
-x,-y,1/2+z
x,1/2-y,-z
-x,1/2+y,1/2-z
-x,-y,-z
x,y,1/2-z
-x,1/2+y,z
x,1/2-y,1/2+z
loop_
_atom_site_type_symbol
_atom_site_label
_atom_site_fract_x
_atom_site_fract_y
_atom_site_fract_z
Si Si1 0.020299 0.670045 0.932032
Si Si2 0.824691 0.394550 0.927959
Si Si3 0.849817 0.829463 0.568534
Si Si4 0.741029 0.549230 0.572014
Si Si5 0.413621 0.521494 0.931789
Si Si6 0.331755 0.673845 0.931235
O O1 0.013800 0.675384 0.750000
O O2 0.041713 0.750000 0.000000
O O3 0.090993 0.613627 0.980381
O O4 0.934398 0.640245 0.997211
O O5 0.837926 0.374396 0.750000
O O6 0.798342 0.478666 0.952326
O O7 0.756801 0.339517 0.995025
O O8 0.827532 0.750000 0.500000
O O9 0.860299 0.822431 0.750000
O O10 0.776640 0.884135 0.527551
O O11 0.735983 0.572612 0.750000
O O12 0.650920 0.532964 0.510458
O O13 0.411991 0.508609 0.750000
O O14 0.393065 0.606840 0.973487
O O15 0.500000 0.500000 0.000000
O O16 0.320568 0.681488 0.750000
O O17 0.368484 0.750000 0.000000
#
# Coordination Sequence:
#
# PCOD8232452 Si02
#       6
#     8   8   8   8   8   8
#     4  11  21  34  52  75 107 145 186 228 270 317
#     4  10  20  34  53  78 109 144 181 222 268 319
#     4  11  22  38  58  79 107 142 183 228 272 319
#     4  10  21  38  59  82 108 140 179 221 270 326
#     4  10  21  38  60  85 112 143 179 222 272 326
#     4  10  20  34  54  81 112 144 179 219 266 321
#
# _framework density 18.722397999999998
#
# number of rings (size 3 to 8) (size 9 to 14) (size 15 to 20)
#    0.000    1.667    0.000    6.500    0.000    4.667 
#    0.000    0.833    0.000    2.000    0.000    0.000 
#    0.000    0.000    0.000    0.000    0.000    0.000 
#
# Total GULP energy -595445.299703 kJ/mol
# GULP energy per Si atom -12405.110410 kJ/mol
# Density = 1.867978 g / cm^3
# Si number density = 18.722398 Si / 1000 Ang^3
#
#
#
# Elastic Constant Matrix: (Units=GPa)
#
#
# Indices 1 2 3 4 5 6 
#
# 1 127.8216 64.3210 58.3682 0.0000 0.0000 0.0000
# 2 64.3210 86.6208 50.7730 0.0000 0.0000 0.0000
# 3 58.3682 50.7730 147.2722 0.0000 0.0000 0.0000
# 4 0.0000 0.0000 0.0000 32.1997 0.0000 0.0000
# 5 0.0000 0.0000 0.0000 0.0000 36.1149 0.0000
# 6 0.0000 0.0000 0.0000 0.0000 0.0000 24.2365
#
#
#
# Elastic Compliance Matrix: (Units=1/GPa)
#
#
# Indices 1 2 3 4 5 6 
#
# 1 0.013085 -0.008367 -0.002301 0.000000 0.000000 0.000000
# 2 -0.008367 0.019819 -0.003517 0.000000 0.000000 0.000000
# 3 -0.002301 -0.003517 0.008915 0.000000 0.000000 0.000000
# 4 0.000000 0.000000 0.000000 0.031056 0.000000 0.000000
# 5 0.000000 0.000000 0.000000 0.000000 0.027689 0.000000
# 6 0.000000 0.000000 0.000000 0.000000 0.000000 0.041260
#
#
# Mechanical properties :
#
#
# Convention : Reuss Voigt Hill
#
# Bulk Modulus (GPa) = 74.35925 78.73765 76.54845
# Shear Modulus (GPa) = 28.62430 31.06037 29.84234
#
# Velocity S-wave (km/s) = 3.91433 4.07750 3.99675
# Velocity P-wave (km/s) = 7.76095 8.01964 7.89135
#
# Compressibility (1/GPa) = 0.01344823
#
# Stress axis : x y z
#
# Youngs Moduli (GPa) = 76.42495 50.45657 112.17677
#
# Poissons Ratio (x) = 0.42219 0.25814
# Poissons Ratio (y) = 0.63947 0.39447
# Poissons Ratio (z) = 0.17587 0.17743
#
# Static dielectric constant tensor:
#      x y z
#    x 3.348850 0.000000 0.000000 
#    y 0.000000 3.382990 0.000000 
#    z 0.000000 0.000000 3.607570 
# 
# 
# High freq. dielectric constant tensor:
#      x y z
#    x 1.718700 0.000000 0.000000 
#    y 0.000000 1.722590 0.000000 
#    z 0.000000 0.000000 1.749330 
# 
# From -- ./inp_files/4634.got.cif
#   From: 2010.03.12/outbox.cif.g09.slc.cpg/sg57_3_cif.got.tgz:4634.got - 2010.04.16 15:48:40.
