data_PCOD8232891
_publ_section_title
;
Structure prediction by ZEFSAII (Michael W. Deem and Ramdas Pophale) SiO2 
 PCOD8232891
Probable space group: P B C M
;
_chemical_formula_sum "Si O2"
_cell_formula_units_Z 56
_cell_length_a 5.208050
_cell_length_b 23.828665
_cell_length_c 21.925600
_cell_angle_alpha 90.000000
_cell_angle_beta 90.000000
_cell_angle_gamma 90.000000
_cell_volume 2720.986227
_symmetry_space_group_name_H-M "P B C M"
_symmetry_group_IT_number 57
_symmetry_cell_setting 'orthorhombic'
loop_
_space_group_symop_operation_xyz
x,y,z
-x,-y,1/2+z
x,1/2-y,-z
-x,1/2+y,1/2-z
-x,-y,-z
x,y,1/2-z
-x,1/2+y,z
x,1/2-y,1/2+z
loop_
_atom_site_type_symbol
_atom_site_label
_atom_site_fract_x
_atom_site_fract_y
_atom_site_fract_z
Si Si1 0.312732 0.735895 0.317608
Si Si2 0.170365 0.384215 0.449242
Si Si3 0.140937 0.885006 0.679410
Si Si4 0.763976 0.649979 0.422473
Si Si5 0.802200 0.767946 0.117666
Si Si6 0.593627 0.053745 0.417585
Si Si7 0.305192 0.952724 0.449815
O O1 0.226543 0.752121 0.250000
O O2 0.337234 0.668014 0.323814
O O3 0.588773 0.764337 0.329242
O O4 0.094025 0.760626 0.361021
O O5 0.076035 0.370241 0.518228
O O6 0.218715 0.327233 0.413873
O O7 0.434650 0.417390 0.444392
O O8 0.938249 0.420940 0.420234
O O9 0.073208 0.899448 0.750000
O O10 0.248436 0.941604 0.645955
O O11 0.888182 0.866342 0.642485
O O12 0.726811 0.716944 0.428013
O O13 0.493377 0.618091 0.428323
O O14 0.752014 0.033597 0.477989
O O15 0.351812 0.010696 0.412063
#
# Coordination Sequence:
#
# PCOD8232891 Si02
#       7
#     8   8   8   8   8   8   8
#     4  10  21  37  58  86 116 150 198 245 296 354
#     4  11  22  38  57  88 122 156 198 237 289 360
#     4  10  20  35  58  87 120 153 191 249 307 357
#     4  10  21  35  56  89 122 150 191 244 308 351
#     4  11  21  36  59  87 119 157 191 242 299 354
#     4  10  20  37  59  84 119 153 199 246 296 354
#     4  10  23  36  61  85 118 161 197 240 291 351
#
# _framework density 20.580772
#
# number of rings (size 3 to 8) (size 9 to 14) (size 15 to 20)
#    0.000    1.714    2.857    1.714    2.000    2.857 
#    0.000    2.857    0.000    5.143    0.000    0.000 
#    0.000    0.000    0.000    0.000    0.000    0.000 
#
# Total GULP energy -693898.883153 kJ/mol
# GULP energy per Si atom -12391.051485 kJ/mol
# Density = 2.053393 g / cm^3
# Si number density = 20.580772 Si / 1000 Ang^3
#
#
#
# Elastic Constant Matrix: (Units=GPa)
#
#
# Indices 1 2 3 4 5 6 
#
# 1 63.4121 -1.6645 9.9390 0.0000 0.0000 0.0000
# 2 -1.6645 57.9748 18.5105 0.0000 0.0000 0.0000
# 3 9.9390 18.5105 79.5524 0.0000 0.0000 0.0000
# 4 0.0000 0.0000 0.0000 24.1031 0.0000 0.0000
# 5 0.0000 0.0000 0.0000 0.0000 20.1144 0.0000
# 6 0.0000 0.0000 0.0000 0.0000 0.0000 30.9791
#
#
#
# Elastic Compliance Matrix: (Units=1/GPa)
#
#
# Indices 1 2 3 4 5 6 
#
# 1 0.016161 0.001198 -0.002298 0.000000 0.000000 0.000000
# 2 0.001198 0.018722 -0.004506 0.000000 0.000000 0.000000
# 3 -0.002298 -0.004506 0.013906 0.000000 0.000000 0.000000
# 4 0.000000 0.000000 0.000000 0.041488 0.000000 0.000000
# 5 0.000000 0.000000 0.000000 0.000000 0.049716 0.000000
# 6 0.000000 0.000000 0.000000 0.000000 0.000000 0.032280
#
#
# Mechanical properties :
#
#
# Convention : Reuss Voigt Hill
#
# Bulk Modulus (GPa) = 26.61193 28.27879 27.44536
# Shear Modulus (GPa) = 25.50877 26.64961 26.07919
#
# Velocity S-wave (km/s) = 3.52440 3.60235 3.56359
# Velocity P-wave (km/s) = 5.43327 5.57429 5.50423
#
# Compressibility (1/GPa) = 0.03757713
#
# Stress axis : x y z
#
# Youngs Moduli (GPa) = 61.87562 53.41334 71.91208
#
# Poissons Ratio (x) = -0.06397 0.16524
# Poissons Ratio (y) = -0.07411 0.32403
# Poissons Ratio (z) = 0.14218 0.24068
#
# Static dielectric constant tensor:
#      x y z
#    x 3.532730 0.000000 0.000000 
#    y 0.000000 3.882370 0.000000 
#    z 0.000000 0.000000 3.679320 
# 
# 
# High freq. dielectric constant tensor:
#      x y z
#    x 1.805680 0.000000 0.000000 
#    y 0.000000 1.800090 0.000000 
#    z 0.000000 0.000000 1.775940 
# 
# From -- ./inp_files/23784.got.cif
#   From: 2010.03.12/outbox.cif.g09.slc.cpg/sg57_12_cif.got.tgz:23784.got - 2010.04.16 15:48:40.
