data_PCOD8232439
_publ_section_title
;
Structure prediction by ZEFSAII (Michael W. Deem and Ramdas Pophale) SiO2 
 PCOD8232439
Probable space group: P B C M
;
_chemical_formula_sum "Si O2"
_cell_formula_units_Z 64
_cell_length_a 20.051981
_cell_length_b 18.708500
_cell_length_c 8.995254
_cell_angle_alpha 90.000000
_cell_angle_beta 90.000000
_cell_angle_gamma 90.000000
_cell_volume 3374.501953
_symmetry_space_group_name_H-M "P B C M"
_symmetry_group_IT_number 57
_symmetry_cell_setting 'orthorhombic'
loop_
_space_group_symop_operation_xyz
x,y,z
-x,-y,1/2+z
x,1/2-y,-z
-x,1/2+y,1/2-z
-x,-y,-z
x,y,1/2-z
-x,1/2+y,z
x,1/2-y,1/2+z
loop_
_atom_site_type_symbol
_atom_site_label
_atom_site_fract_x
_atom_site_fract_y
_atom_site_fract_z
Si Si1 0.311560 0.080224 0.426030
Si Si2 0.075864 0.066682 0.421579
Si Si3 0.417854 0.823706 0.925053
Si Si4 0.809950 0.674092 0.075662
Si Si5 0.817075 0.325537 0.075132
Si Si6 0.430271 0.322801 0.924034
Si Si7 0.688615 0.419118 0.424638
Si Si8 0.077355 0.578554 0.076728
O O1 0.306131 0.078475 0.250000
O O2 0.251664 0.128443 0.489936
O O3 0.382359 0.113107 0.478121
O O4 0.303986 0.999723 0.485428
O O5 0.084589 0.044070 0.250000
O O6 0.121862 0.133358 0.463464
O O7 0.000643 0.090208 0.456881
O O8 0.099113 0.999218 0.518624
O O9 0.407784 0.815937 0.750000
O O10 0.494082 0.841998 0.968403
O O11 0.394773 0.750000 0.000000
O O12 0.373447 0.887069 0.987449
O O13 0.801629 0.685812 0.250000
O O14 0.812076 0.750000 0.000000
O O15 0.825905 0.314535 0.250000
O O16 0.755935 0.377419 0.036251
O O17 0.802298 0.250000 0.000000
O O18 0.884331 0.359277 0.009911
O O19 0.423336 0.310138 0.750000
O O20 0.406266 0.250000 0.000000
O O21 0.672817 0.416184 0.250000
O O22 0.094183 0.584153 0.250000
#
# Coordination Sequence:
#
# PCOD8232439 Si02
#       8
#     8   8   8   8   8   8   8   8
#     4   9  18  34  55  77 104 139 175 212 259 312
#     4   9  19  36  56  80 111 145 179 216 262 316
#     4  10  20  34  53  78 107 138 172 213 259 308
#     4  10  20  35  55  78 106 139 176 217 260 308
#     4  11  23  38  56  78 106 140 179 223 270 321
#     4   9  18  33  53  77 106 139 174 211 254 307
#     4  10  21  37  57  78 102 137 177 217 265 319
#     4  10  20  35  57  83 109 140 179 221 265 315
#
# _framework density 18.965762000000002
#
# number of rings (size 3 to 8) (size 9 to 14) (size 15 to 20)
#    0.000    2.250    0.000    2.625    0.000    6.500 
#    0.000    2.500    0.000    0.000    0.000    0.000 
#    0.000    0.000    0.000    0.000    0.000    0.000 
#
# Total GULP energy -793815.176459 kJ/mol
# GULP energy per Si atom -12403.362132 kJ/mol
# Density = 1.892259 g / cm^3
# Si number density = 18.965762 Si / 1000 Ang^3
#
#
#
# Elastic Constant Matrix: (Units=GPa)
#
#
# Indices 1 2 3 4 5 6 
#
# 1 106.7760 79.5557 42.4858 0.0000 0.0000 0.0000
# 2 79.5557 165.3984 53.7949 0.0000 0.0000 0.0000
# 3 42.4858 53.7949 60.5805 0.0000 0.0000 0.0000
# 4 0.0000 0.0000 0.0000 34.5954 0.0000 0.0000
# 5 0.0000 0.0000 0.0000 0.0000 21.2590 0.0000
# 6 0.0000 0.0000 0.0000 0.0000 0.0000 37.9150
#
#
#
# Elastic Compliance Matrix: (Units=1/GPa)
#
#
# Indices 1 2 3 4 5 6 
#
# 1 0.016102 -0.005726 -0.006208 0.000000 0.000000 0.000000
# 2 -0.005726 0.010537 -0.005342 0.000000 0.000000 0.000000
# 3 -0.006208 -0.005342 0.025604 0.000000 0.000000 0.000000
# 4 0.000000 0.000000 0.000000 0.028906 0.000000 0.000000
# 5 0.000000 0.000000 0.000000 0.000000 0.047039 0.000000
# 6 0.000000 0.000000 0.000000 0.000000 0.000000 0.026375
#
#
# Mechanical properties :
#
#
# Convention : Reuss Voigt Hill
#
# Bulk Modulus (GPa) = 56.52096 76.04752 66.28424
# Shear Modulus (GPa) = 25.63976 29.21512 27.42744
#
# Velocity S-wave (km/s) = 3.68080 3.92907 3.80696
# Velocity P-wave (km/s) = 6.92320 7.79537 7.37219
#
# Compressibility (1/GPa) = 0.01769255
#
# Stress axis : x y z
#
# Youngs Moduli (GPa) = 62.10601 94.90050 39.05662
#
# Poissons Ratio (x) = 0.54337 0.24246
# Poissons Ratio (y) = 0.35560 0.20862
# Poissons Ratio (z) = 0.38554 0.50692
#
# Static dielectric constant tensor:
#      x y z
#    x 3.648020 0.000000 0.000000 
#    y 0.000000 3.543020 0.000000 
#    z 0.000000 0.000000 3.353930 
# 
# 
# High freq. dielectric constant tensor:
#      x y z
#    x 1.749070 0.000000 0.000000 
#    y 0.000000 1.740210 0.000000 
#    z 0.000000 0.000000 1.724350 
# 
# From -- ./inp_files/8521.got.cif
#   From: 2010.03.12/outbox.cif.g09.slc.cpg/sg57_5_cif.got.tgz:8521.got - 2010.04.16 15:48:40.
