data_PCOD8232657
_publ_section_title
;
Structure prediction by ZEFSAII (Michael W. Deem and Ramdas Pophale) SiO2 
 PCOD8232657
Probable space group: P B C M
;
_chemical_formula_sum "Si O2"
_cell_formula_units_Z 48
_cell_length_a 30.328660
_cell_length_b 9.392371
_cell_length_c 8.911661
_cell_angle_alpha 90.000000
_cell_angle_beta 90.000000
_cell_angle_gamma 90.000000
_cell_volume 2538.558167
_symmetry_space_group_name_H-M "P B C M"
_symmetry_group_IT_number 57
_symmetry_cell_setting 'orthorhombic'
loop_
_space_group_symop_operation_xyz
x,y,z
-x,-y,1/2+z
x,1/2-y,-z
-x,1/2+y,1/2-z
-x,-y,-z
x,y,1/2-z
-x,1/2+y,z
x,1/2-y,1/2+z
loop_
_atom_site_type_symbol
_atom_site_label
_atom_site_fract_x
_atom_site_fract_y
_atom_site_fract_z
Si Si1 0.691791 0.598656 0.426650
Si Si2 0.621972 0.401704 0.574624
Si Si3 0.792337 0.896063 0.574915
Si Si4 0.866544 0.399207 0.423324
Si Si5 0.537409 0.905095 0.425431
Si Si6 0.964435 0.401628 0.424201
O O1 0.678831 0.750000 0.500000
O O2 0.682124 0.609905 0.250000
O O3 0.664790 0.469491 0.498158
O O4 0.742351 0.558365 0.462055
O O5 0.610608 0.250000 0.500000
O O6 0.630782 0.376984 0.750000
O O7 0.582715 0.512309 0.546985
O O8 0.804630 0.750000 0.500000
O O9 0.799292 0.877058 0.750000
O O10 0.827658 0.005643 0.506471
O O11 0.863336 0.250000 0.500000
O O12 0.857183 0.374564 0.250000
O O13 0.915261 0.466568 0.448674
O O14 0.539973 0.750000 0.500000
O O15 0.527005 0.885605 0.250000
O O16 0.500000 0.000000 0.500000
O O17 0.967587 0.250000 0.500000
O O18 0.975624 0.385260 0.250000
O O19 0.000000 0.500000 0.500000
#
# Coordination Sequence:
#
# PCOD8232657 Si02
#       6
#     8   8   8   8   8   8
#     4  10  20  36  58  82 111 146 184 227 273 323
#     4  11  24  40  59  85 116 150 188 230 276 327
#     4   9  19  35  54  79 108 139 178 221 266 318
#     4   9  19  35  53  75 104 137 174 216 264 318
#     4  11  24  41  63  89 118 152 189 231 278 328
#     4  10  20  35  54  76 104 138 176 219 267 320
#
# _framework density 18.908370999999999
#
# number of rings (size 3 to 8) (size 9 to 14) (size 15 to 20)
#    0.000    2.000    0.000    3.000    0.000    8.667 
#    0.000    3.333    0.000    0.000    0.000    0.000 
#    0.000    0.000    0.000    0.000    0.000    0.000 
#
# Total GULP energy -595190.996286 kJ/mol
# GULP energy per Si atom -12399.812423 kJ/mol
# Density = 1.886533 g / cm^3
# Si number density = 18.908371 Si / 1000 Ang^3
#
#
#
# Elastic Constant Matrix: (Units=GPa)
#
#
# Indices 1 2 3 4 5 6 
#
# 1 120.6989 73.2740 65.5288 0.0000 0.0000 0.0000
# 2 73.2740 121.2886 69.8314 0.0000 0.0000 0.0000
# 3 65.5288 69.8314 105.8031 0.0000 0.0000 0.0000
# 4 0.0000 0.0000 0.0000 38.2143 0.0000 0.0000
# 5 0.0000 0.0000 0.0000 0.0000 31.1808 0.0000
# 6 0.0000 0.0000 0.0000 0.0000 0.0000 42.5920
#
#
#
# Elastic Compliance Matrix: (Units=1/GPa)
#
#
# Indices 1 2 3 4 5 6 
#
# 1 0.014679 -0.005861 -0.005223 0.000000 0.000000 0.000000
# 2 -0.005861 0.015638 -0.006692 0.000000 0.000000 0.000000
# 3 -0.005223 -0.006692 0.017103 0.000000 0.000000 0.000000
# 4 0.000000 0.000000 0.000000 0.026168 0.000000 0.000000
# 5 0.000000 0.000000 0.000000 0.000000 0.032071 0.000000
# 6 0.000000 0.000000 0.000000 0.000000 0.000000 0.023479
#
#
# Mechanical properties :
#
#
# Convention : Reuss Voigt Hill
#
# Bulk Modulus (GPa) = 84.25249 85.00657 84.62953
# Shear Modulus (GPa) = 29.64825 31.67452 30.66138
#
# Velocity S-wave (km/s) = 3.96409 4.09731 4.03125
# Velocity P-wave (km/s) = 8.09982 8.21210 8.15615
#
# Compressibility (1/GPa) = 0.01186909
#
# Stress axis : x y z
#
# Youngs Moduli (GPa) = 68.12633 63.94682 58.46969
#
# Poissons Ratio (x) = 0.37477 0.30539
# Poissons Ratio (y) = 0.39926 0.39125
# Poissons Ratio (z) = 0.35583 0.42790
#
# Static dielectric constant tensor:
#      x y z
#    x 3.838310 0.000000 0.000000 
#    y 0.000000 3.583820 0.000000 
#    z 0.000000 0.000000 3.600780 
# 
# 
# High freq. dielectric constant tensor:
#      x y z
#    x 1.749610 0.000000 0.000000 
#    y 0.000000 1.733820 0.000000 
#    z 0.000000 0.000000 1.745690 
# 
# From -- ./inp_files/9905.got.cif
#   From: 2010.03.12/outbox.cif.g09.slc.cpg/sg57_5_cif.got.tgz:9905.got - 2010.04.16 15:48:40.
