data_PCOD8232881
_publ_section_title
;
Structure prediction by ZEFSAII (Michael W. Deem and Ramdas Pophale) SiO2 
 PCOD8232881
Probable space group: P B C M
;
_chemical_formula_sum "Si O2"
_cell_formula_units_Z 48
_cell_length_a 30.982261
_cell_length_b 9.125351
_cell_length_c 8.614743
_cell_angle_alpha 90.000000
_cell_angle_beta 90.000000
_cell_angle_gamma 90.000000
_cell_volume 2435.594655
_symmetry_space_group_name_H-M "P B C M"
_symmetry_group_IT_number 57
_symmetry_cell_setting 'orthorhombic'
loop_
_space_group_symop_operation_xyz
x,y,z
-x,-y,1/2+z
x,1/2-y,-z
-x,1/2+y,1/2-z
-x,-y,-z
x,y,1/2-z
-x,1/2+y,z
x,1/2-y,1/2+z
loop_
_atom_site_type_symbol
_atom_site_label
_atom_site_fract_x
_atom_site_fract_y
_atom_site_fract_z
Si Si1 0.205513 0.908576 0.929848
Si Si2 0.539730 0.088757 0.933503
Si Si3 0.880678 0.086039 0.933311
Si Si4 0.300850 0.911331 0.570070
Si Si5 0.622809 0.909284 0.932574
Si Si6 0.960019 0.911699 0.433994
O O1 0.192279 0.899280 0.750000
O O2 0.252670 0.981140 0.952525
O O3 0.211274 0.750000 0.000000
O O4 0.166116 0.985446 0.023027
O O5 0.535894 0.094510 0.750000
O O6 0.583910 0.012681 0.988539
O O7 0.539076 0.250000 0.000000
O O8 0.500000 0.000000 0.000000
O O9 0.887862 0.087332 0.750000
O O10 0.883669 0.250000 0.000000
O O11 0.916076 0.986716 0.013704
O O12 0.306098 0.750000 0.500000
O O13 0.312436 0.897699 0.750000
O O14 0.332237 0.025545 0.489757
O O15 0.624301 0.896077 0.750000
O O16 0.614733 0.750000 0.000000
O O17 0.961931 0.750000 0.500000
O O18 0.962777 0.907328 0.250000
O O19 0.000000 0.000000 0.500000
#
# Coordination Sequence:
#
# PCOD8232881 Si02
#       6
#     8   8   8   8   8   8
#     4   9  17  31  53  83 115 150 191 237 285 338
#     4  11  24  41  63  90 119 153 191 236 286 342
#     4  11  21  36  59  88 119 155 194 237 287 341
#     4  10  20  35  58  86 117 152 194 240 288 340
#     4  11  24  40  59  84 116 153 194 239 290 343
#     4  12  25  43  63  87 117 151 191 237 287 342
#
# _framework density 19.707712000000001
#
# number of rings (size 3 to 8) (size 9 to 14) (size 15 to 20)
#    0.000    1.333    0.000    7.500    0.000    7.333 
#    0.000    0.833    0.000    4.000    0.000    0.000 
#    0.000    0.000    0.000    0.000    0.000    0.000 
#
# Total GULP energy -595183.783599 kJ/mol
# GULP energy per Si atom -12399.662158 kJ/mol
# Density = 1.966286 g / cm^3
# Si number density = 19.707712 Si / 1000 Ang^3
#
#
#
# Elastic Constant Matrix: (Units=GPa)
#
#
# Indices 1 2 3 4 5 6 
#
# 1 165.5897 77.1625 63.0574 0.0000 0.0000 0.0000
# 2 77.1625 132.1759 54.0259 0.0000 0.0000 0.0000
# 3 63.0574 54.0259 130.8105 0.0000 0.0000 0.0000
# 4 0.0000 0.0000 0.0000 35.6644 0.0000 0.0000
# 5 0.0000 0.0000 0.0000 0.0000 36.7855 0.0000
# 6 0.0000 0.0000 0.0000 0.0000 0.0000 38.2216
#
#
#
# Elastic Compliance Matrix: (Units=1/GPa)
#
#
# Indices 1 2 3 4 5 6 
#
# 1 0.008976 -0.004177 -0.002602 0.000000 0.000000 0.000000
# 2 -0.004177 0.011046 -0.002549 0.000000 0.000000 0.000000
# 3 -0.002602 -0.002549 0.009952 0.000000 0.000000 0.000000
# 4 0.000000 0.000000 0.000000 0.028039 0.000000 0.000000
# 5 0.000000 0.000000 0.000000 0.000000 0.027185 0.000000
# 6 0.000000 0.000000 0.000000 0.000000 0.000000 0.026163
#
#
# Mechanical properties :
#
#
# Convention : Reuss Voigt Hill
#
# Bulk Modulus (GPa) = 88.34771 90.78531 89.56651
# Shear Modulus (GPa) = 37.37265 37.75631 37.56448
#
# Velocity S-wave (km/s) = 4.35943 4.38175 4.37060
# Velocity P-wave (km/s) = 8.38247 8.47145 8.42708
#
# Compressibility (1/GPa) = 0.01131891
#
# Stress axis : x y z
#
# Youngs Moduli (GPa) = 111.40687 90.53351 100.48703
#
# Poissons Ratio (x) = 0.37812 0.26147
# Poissons Ratio (y) = 0.46530 0.25610
# Poissons Ratio (z) = 0.28988 0.23073
#
# Static dielectric constant tensor:
#      x y z
#    x 4.221270 0.000000 0.000000 
#    y 0.000000 3.422700 0.000000 
#    z 0.000000 0.000000 3.833310 
# 
# 
# High freq. dielectric constant tensor:
#      x y z
#    x 1.795750 0.000000 0.000000 
#    y 0.000000 1.747820 0.000000 
#    z 0.000000 0.000000 1.789910 
# 
# From -- ./inp_files/10036.got.cif
#   From: 2010.03.12/outbox.cif.g09.slc.cpg/sg57_6_cif.got.tgz:10036.got - 2010.04.16 15:48:40.
