data_PCOD8232068
_publ_section_title
;
Structure prediction by ZEFSAII (Michael W. Deem and Ramdas Pophale) SiO2 
 PCOD8232068
Probable space group: P B C M
;
_chemical_formula_sum "Si O2"
_cell_formula_units_Z 64
_cell_length_a 12.209140
_cell_length_b 14.194568
_cell_length_c 17.231375
_cell_angle_alpha 90.000000
_cell_angle_beta 90.000000
_cell_angle_gamma 90.000000
_cell_volume 2986.257045
_symmetry_space_group_name_H-M "P B C M"
_symmetry_group_IT_number 57
_symmetry_cell_setting 'orthorhombic'
loop_
_space_group_symop_operation_xyz
x,y,z
-x,-y,1/2+z
x,1/2-y,-z
-x,1/2+y,1/2-z
-x,-y,-z
x,y,1/2-z
-x,1/2+y,z
x,1/2-y,1/2+z
loop_
_atom_site_type_symbol
_atom_site_label
_atom_site_fract_x
_atom_site_fract_y
_atom_site_fract_z
Si Si1 0.259239 0.277198 0.584748
Si Si2 0.638408 0.964623 0.928731
Si Si3 0.686704 0.149067 0.661419
Si Si4 0.913489 0.846236 0.160345
Si Si5 0.883583 0.243816 0.090360
Si Si6 0.447142 0.309225 0.164646
Si Si7 0.169422 0.553804 0.340858
Si Si8 0.600229 0.006137 0.394383
O O1 0.214212 0.250000 0.500000
O O2 0.268315 0.389339 0.595033
O O3 0.184853 0.228352 0.649807
O O4 0.383604 0.242330 0.595788
O O5 0.686242 0.061146 0.896142
O O6 0.516424 0.938393 0.896103
O O7 0.631384 0.968296 0.021012
O O8 0.698707 0.113561 0.750000
O O9 0.783444 0.219027 0.640819
O O10 0.575260 0.207407 0.649819
O O11 0.948820 0.846813 0.250000
O O12 0.012453 0.809601 0.107663
O O13 0.875135 0.950551 0.133421
O O14 0.900970 0.134401 0.114961
O O15 0.856356 0.250000 0.000000
O O16 0.414044 0.270756 0.250000
O O17 0.417487 0.419523 0.163624
O O18 0.152544 0.568344 0.250000
O O19 0.298098 0.566982 0.362241
#
# Coordination Sequence:
#
# PCOD8232068 Si02
#       8
#     8   8   8   8   8   8   8   8
#     4  12  22  37  62  97 132 172 217 267 323 388
#     4  10  22  36  60  95 133 176 215 267 331 385
#     4  10  23  42  60  89 133 169 212 272 326 382
#     4  11  25  45  67  93 130 169 218 276 325 385
#     4  12  27  45  70  98 127 169 220 272 331 392
#     4  10  20  36  59  88 127 170 212 267 321 376
#     4  11  23  42  68  95 126 171 217 264 323 394
#     4  10  19  38  60  91 132 173 222 263 318 389
#
# _framework density 21.431511
#
# number of rings (size 3 to 8) (size 9 to 14) (size 15 to 20)
#    0.000    1.250    2.500    3.000    1.750    3.500 
#    0.000    0.000    0.000    0.000    0.000    0.000 
#    0.000    0.000    0.000    0.000    0.000    0.000 
#
# Total GULP energy -793592.256812 kJ/mol
# GULP energy per Si atom -12399.879013 kJ/mol
# Density = 2.138273 g / cm^3
# Si number density = 21.431511 Si / 1000 Ang^3
#
#
#
# Elastic Constant Matrix: (Units=GPa)
#
#
# Indices 1 2 3 4 5 6 
#
# 1 87.1523 35.6974 20.1385 0.0000 0.0000 0.0000
# 2 35.6974 77.7341 19.0580 0.0000 0.0000 0.0000
# 3 20.1385 19.0580 63.0420 0.0000 0.0000 0.0000
# 4 0.0000 0.0000 0.0000 28.3217 0.0000 0.0000
# 5 0.0000 0.0000 0.0000 0.0000 28.5405 0.0000
# 6 0.0000 0.0000 0.0000 0.0000 0.0000 25.1415
#
#
#
# Elastic Compliance Matrix: (Units=1/GPa)
#
#
# Indices 1 2 3 4 5 6 
#
# 1 0.014590 -0.006002 -0.002846 0.000000 0.000000 0.000000
# 2 -0.006002 0.016364 -0.003029 0.000000 0.000000 0.000000
# 3 -0.002846 -0.003029 0.017687 0.000000 0.000000 0.000000
# 4 0.000000 0.000000 0.000000 0.035309 0.000000 0.000000
# 5 0.000000 0.000000 0.000000 0.000000 0.035038 0.000000
# 6 0.000000 0.000000 0.000000 0.000000 0.000000 0.039775
#
#
# Mechanical properties :
#
#
# Convention : Reuss Voigt Hill
#
# Bulk Modulus (GPa) = 40.18440 41.96848 41.07644
# Shear Modulus (GPa) = 26.20350 26.60304 26.40327
#
# Velocity S-wave (km/s) = 3.50045 3.52704 3.51377
# Velocity P-wave (km/s) = 5.92692 6.01762 5.97244
#
# Compressibility (1/GPa) = 0.02488528
#
# Stress axis : x y z
#
# Youngs Moduli (GPa) = 68.53787 61.11142 56.53726
#
# Poissons Ratio (x) = 0.36682 0.16092
# Poissons Ratio (y) = 0.41140 0.17127
# Poissons Ratio (z) = 0.19508 0.18513
#
# Static dielectric constant tensor:
#      x y z
#    x 3.917370 0.000000 0.000000 
#    y 0.000000 3.780480 0.000000 
#    z 0.000000 0.000000 3.756590 
# 
# 
# High freq. dielectric constant tensor:
#      x y z
#    x 1.835780 0.000000 0.000000 
#    y 0.000000 1.834270 0.000000 
#    z 0.000000 0.000000 1.846770 
# 
# From -- ./inp_files/22034.got.cif
#   From: 2010.03.12/outbox.cif.g09.slc.cpg/sg57_12_cif.got.tgz:22034.got - 2010.04.16 15:48:40.
