data_PCOD8232954
_publ_section_title
;
Structure prediction by ZEFSAII (Michael W. Deem and Ramdas Pophale) SiO2 
 PCOD8232954
Probable space group: P B C M
;
_chemical_formula_sum "Si O2"
_cell_formula_units_Z 48
_cell_length_a 9.772450
_cell_length_b 31.149299
_cell_length_c 8.778478
_cell_angle_alpha 90.000000
_cell_angle_beta 90.000000
_cell_angle_gamma 90.000000
_cell_volume 2672.212306
_symmetry_space_group_name_H-M "P B C M"
_symmetry_group_IT_number 57
_symmetry_cell_setting 'orthorhombic'
loop_
_space_group_symop_operation_xyz
x,y,z
-x,-y,1/2+z
x,1/2-y,-z
-x,1/2+y,1/2-z
-x,-y,-z
x,y,1/2-z
-x,1/2+y,z
x,1/2-y,1/2+z
loop_
_atom_site_type_symbol
_atom_site_label
_atom_site_fract_x
_atom_site_fract_y
_atom_site_fract_z
Si Si1 0.621938 0.955546 0.424568
Si Si2 0.322660 0.631463 0.572218
Si Si3 0.337515 0.546574 0.422800
Si Si4 0.121889 0.704507 0.568093
Si Si5 0.168621 0.205236 0.429538
Si Si6 0.361354 0.361642 0.424746
O O1 0.564651 0.957799 0.250000
O O2 0.498562 0.956111 0.543482
O O3 0.700174 0.910039 0.443941
O O4 0.718561 0.997657 0.455128
O O5 0.306742 0.632292 0.750000
O O6 0.267727 0.584581 0.519400
O O7 0.228600 0.669259 0.504677
O O8 0.479833 0.638702 0.523730
O O9 0.313074 0.559870 0.250000
O O10 0.168417 0.750000 0.500000
O O11 0.118582 0.707359 0.750000
O O12 0.972973 0.691316 0.507444
O O13 0.220676 0.250000 0.500000
O O14 0.147360 0.210527 0.250000
O O15 0.281358 0.169382 0.462640
O O16 0.346055 0.345998 0.250000
#
# Coordination Sequence:
#
# PCOD8232954 Si02
#       6
#     8   8   8   8   8   8
#     4   8  15  27  43  66  98 132 162 195 238 284
#     4   9  19  33  50  74 103 131 159 197 246 291
#     4   9  15  24  43  70  98 129 163 197 234 281
#     4  10  20  36  55  73  95 127 164 200 243 293
#     4  11  22  36  53  73  96 126 164 201 241 291
#     4   9  17  32  51  73 102 131 160 198 242 285
#
# _framework density 17.962644000000001
#
# number of rings (size 3 to 8) (size 9 to 14) (size 15 to 20)
#    0.000    2.667    0.000    4.500    0.000    5.333 
#    0.000    1.667    0.000    1.000    0.000    0.000 
#    0.000    0.000    0.000    0.000    0.000    0.000 
#
# Total GULP energy -594762.773537 kJ/mol
# GULP energy per Si atom -12390.891115 kJ/mol
# Density = 1.792176 g / cm^3
# Si number density = 17.962644 Si / 1000 Ang^3
#
#
#
# Elastic Constant Matrix: (Units=GPa)
#
#
# Indices 1 2 3 4 5 6 
#
# 1 48.5612 60.1245 24.1065 0.0000 0.0000 0.0000
# 2 60.1245 155.6094 40.1569 0.0000 0.0000 0.0000
# 3 24.1065 40.1569 55.0904 0.0000 0.0000 0.0000
# 4 0.0000 0.0000 0.0000 32.2587 0.0000 0.0000
# 5 0.0000 0.0000 0.0000 0.0000 20.4999 0.0000
# 6 0.0000 0.0000 0.0000 0.0000 0.0000 4.2516
#
#
#
# Elastic Compliance Matrix: (Units=1/GPa)
#
#
# Indices 1 2 3 4 5 6 
#
# 1 0.042229 -0.014223 -0.008111 0.000000 0.000000 0.000000
# 2 -0.014223 0.012706 -0.003038 0.000000 0.000000 0.000000
# 3 -0.008111 -0.003038 0.023915 0.000000 0.000000 0.000000
# 4 0.000000 0.000000 0.000000 0.030999 0.000000 0.000000
# 5 0.000000 0.000000 0.000000 0.000000 0.048781 0.000000
# 6 0.000000 0.000000 0.000000 0.000000 0.000000 0.235205
#
#
# Mechanical properties :
#
#
# Convention : Reuss Voigt Hill
#
# Bulk Modulus (GPa) = 35.57899 56.44855 46.01377
# Shear Modulus (GPa) = 11.01447 20.39360 15.70403
#
# Velocity S-wave (km/s) = 2.47895 3.37313 2.96000
# Velocity P-wave (km/s) = 5.29564 6.83113 6.11180
#
# Compressibility (1/GPa) = 0.02810647
#
# Stress axis : x y z
#
# Youngs Moduli (GPa) = 23.68029 78.70305 41.81397
#
# Poissons Ratio (x) = 1.11943 0.33914
# Poissons Ratio (y) = 0.33682 0.12702
# Poissons Ratio (z) = 0.19207 0.23909
#
# Static dielectric constant tensor:
#      x y z
#    x 2.981280 0.000000 0.000000 
#    y 0.000000 3.881120 0.000000 
#    z 0.000000 0.000000 3.283180 
# 
# 
# High freq. dielectric constant tensor:
#      x y z
#    x 1.637090 0.000000 0.000000 
#    y 0.000000 1.720680 0.000000 
#    z 0.000000 0.000000 1.698340 
# 
# From -- ./inp_files/2014.got.cif
#   From: 2010.03.12/outbox.cif.g09.slc.cpg/sg57_2_cif.got.tgz:2014.got - 2010.04.16 15:48:40.
