data_PCOD8232081
_publ_section_title
;
Structure prediction by ZEFSAII (Michael W. Deem and Ramdas Pophale) SiO2 
 PCOD8232081
Probable space group: P B C M
;
_chemical_formula_sum "Si O2"
_cell_formula_units_Z 32
_cell_length_a 9.547729
_cell_length_b 8.724013
_cell_length_c 17.395834
_cell_angle_alpha 90.000000
_cell_angle_beta 90.000000
_cell_angle_gamma 90.000000
_cell_volume 1448.977502
_symmetry_space_group_name_H-M "P B C M"
_symmetry_group_IT_number 57
_symmetry_cell_setting 'orthorhombic'
loop_
_space_group_symop_operation_xyz
x,y,z
-x,-y,1/2+z
x,1/2-y,-z
-x,1/2+y,1/2-z
-x,-y,-z
x,y,1/2-z
-x,1/2+y,z
x,1/2-y,1/2+z
loop_
_atom_site_type_symbol
_atom_site_label
_atom_site_fract_x
_atom_site_fract_y
_atom_site_fract_z
Si Si1 0.649320 0.727413 0.083579
Si Si2 0.818234 0.256898 0.592527
Si Si3 0.419191 0.547214 0.340723
Si Si4 0.070074 0.054940 0.421139
O O1 0.573249 0.587101 0.127213
O O2 0.811310 0.684584 0.069561
O O3 0.639284 0.886372 0.129351
O O4 0.578504 0.750000 0.000000
O O5 0.802065 0.250000 0.500000
O O6 0.675070 0.310332 0.631232
O O7 0.940405 0.369429 0.623812
O O8 0.860210 0.088180 0.622954
O O9 0.424679 0.540458 0.250000
O O10 0.000000 0.000000 0.500000
#
# Coordination Sequence:
#
# PCOD8232081 Si02
#       4
#     8   8   8   8
#     4  12  23  42  69  95 127 172 223 270 321 385
#     4  10  19  38  64  94 127 167 216 264 318 381
#     4  12  26  43  63  98 139 175 215 267 325 388
#     4  10  20  37  66  99 127 160 216 279 321 372
#
# _framework density 22.084536
#
# number of rings (size 3 to 8) (size 9 to 14) (size 15 to 20)
#    0.000    1.000    0.000   10.500    0.000    0.000 
#    0.000    7.500    0.000    0.000    0.000    0.000 
#    0.000    0.000    0.000    0.000    0.000    0.000 
#
# Total GULP energy -396699.471866 kJ/mol
# GULP energy per Si atom -12396.858496 kJ/mol
# Density = 2.203427 g / cm^3
# Si number density = 22.084536 Si / 1000 Ang^3
#
#
#
# Elastic Constant Matrix: (Units=GPa)
#
#
# Indices 1 2 3 4 5 6 
#
# 1 102.6481 16.2594 36.6017 0.0000 0.0000 0.0000
# 2 16.2594 83.8124 27.9883 0.0000 0.0000 0.0000
# 3 36.6017 27.9883 122.1454 0.0000 0.0000 0.0000
# 4 0.0000 0.0000 0.0000 27.5225 0.0000 0.0000
# 5 0.0000 0.0000 0.0000 0.0000 4.1315 0.0000
# 6 0.0000 0.0000 0.0000 0.0000 0.0000 9.4055
#
#
#
# Elastic Compliance Matrix: (Units=1/GPa)
#
#
# Indices 1 2 3 4 5 6 
#
# 1 0.011004 -0.001119 -0.003041 0.000000 0.000000 0.000000
# 2 -0.001119 0.013034 -0.002651 0.000000 0.000000 0.000000
# 3 -0.003041 -0.002651 0.009706 0.000000 0.000000 0.000000
# 4 0.000000 0.000000 0.000000 0.036334 0.000000 0.000000
# 5 0.000000 0.000000 0.000000 0.000000 0.242041 0.000000
# 6 0.000000 0.000000 0.000000 0.000000 0.000000 0.106321
#
#
# Mechanical properties :
#
#
# Convention : Reuss Voigt Hill
#
# Bulk Modulus (GPa) = 49.70022 52.25607 50.97815
# Shear Modulus (GPa) = 11.39554 23.39568 17.39561
#
# Velocity S-wave (km/s) = 2.27402 3.25833 2.80961
# Velocity P-wave (km/s) = 5.42663 6.15376 5.80160
#
# Compressibility (1/GPa) = 0.02012063
#
# Stress axis : x y z
#
# Youngs Moduli (GPa) = 90.87943 76.72317 103.03259
#
# Poissons Ratio (x) = 0.08587 0.31331
# Poissons Ratio (y) = 0.10171 0.27316
# Poissons Ratio (z) = 0.27635 0.20341
#
# Static dielectric constant tensor:
#      x y z
#    x 4.191370 0.000000 0.000000 
#    y 0.000000 4.369870 0.000000 
#    z 0.000000 0.000000 3.532900 
# 
# 
# High freq. dielectric constant tensor:
#      x y z
#    x 1.886660 0.000000 0.000000 
#    y 0.000000 1.894090 0.000000 
#    z 0.000000 0.000000 1.818330 
# 
# From -- ./inp_files/23951.got.cif
#   From: 2010.03.12/outbox.cif.g09.slc.cpg/sg57_12_cif.got.tgz:23951.got - 2010.04.16 15:48:40.
