data_PCOD8232605
_publ_section_title
;
Structure prediction by ZEFSAII (Michael W. Deem and Ramdas Pophale) SiO2 
 PCOD8232605
Probable space group: P B C M
;
_chemical_formula_sum "Si O2"
_cell_formula_units_Z 48
_cell_length_a 18.379985
_cell_length_b 9.390847
_cell_length_c 13.909728
_cell_angle_alpha 90.000000
_cell_angle_beta 90.000000
_cell_angle_gamma 90.000000
_cell_volume 2400.869503
_symmetry_space_group_name_H-M "P B C M"
_symmetry_group_IT_number 57
_symmetry_cell_setting 'orthorhombic'
loop_
_space_group_symop_operation_xyz
x,y,z
-x,-y,1/2+z
x,1/2-y,-z
-x,1/2+y,1/2-z
-x,-y,-z
x,y,1/2-z
-x,1/2+y,z
x,1/2-y,1/2+z
loop_
_atom_site_type_symbol
_atom_site_label
_atom_site_fract_x
_atom_site_fract_y
_atom_site_fract_z
Si Si1 0.946048 0.114301 0.136970
Si Si2 0.916572 0.894758 0.511072
Si Si3 0.410538 0.733753 0.750000
Si Si4 0.683890 0.133351 0.922662
Si Si5 0.844356 0.124664 0.642130
Si Si6 0.480868 0.454003 0.750000
Si Si7 0.432257 0.090719 0.456858
O O1 0.966311 0.103590 0.250000
O O2 0.875826 0.217226 0.120899
O O3 0.013063 0.164671 0.070325
O O4 0.929438 0.956071 0.096294
O O5 0.868561 0.750000 0.500000
O O6 0.880198 0.016785 0.570509
O O7 0.367830 0.707476 0.653559
O O8 0.479993 0.625649 0.750000
O O9 0.436424 0.897398 0.750000
O O10 0.758642 0.100843 0.869201
O O11 0.643693 0.996536 0.971359
O O12 0.703738 0.250000 0.000000
O O13 0.865892 0.082170 0.750000
O O14 0.440593 0.390514 0.657099
O O15 0.427789 0.250000 0.500000
O O16 0.500000 0.000000 0.500000
#
# Coordination Sequence:
#
# PCOD8232605 Si02
#       7
#     8   8   4   8   8   4   8
#     4  10  21  38  61  89 122 161 213 259 310 378
#     4  11  22  36  59  91 123 159 204 262 318 371
#     4  10  20  36  56  88 110 152 188 242 294 358
#     4  11  22  38  61  86 121 157 204 251 310 373
#     4  11  23  42  64  86 121 167 211 261 321 383
#     4  10  20  34  58  82 122 148 196 244 296 354
#     4  11  22  38  61  93 124 164 206 255 309 377
#
# _framework density 19.992756
#
# number of rings (size 3 to 8) (size 9 to 14) (size 15 to 20)
#    0.000    1.333    0.833    7.500    0.000    3.333 
#    0.000    0.000    0.000    0.000    0.000    0.000 
#    0.000    0.000    0.000    0.000    0.000    0.000 
#
# Total GULP energy -594659.126815 kJ/mol
# GULP energy per Si atom -12388.731809 kJ/mol
# Density = 1.994725 g / cm^3
# Si number density = 19.992756 Si / 1000 Ang^3
#
#
#
# Elastic Constant Matrix: (Units=GPa)
#
#
# Indices 1 2 3 4 5 6 
#
# 1 79.3906 18.6194 10.5859 0.0000 0.0000 0.0000
# 2 18.6194 95.5901 44.8766 0.0000 0.0000 0.0000
# 3 10.5859 44.8766 117.7862 0.0000 0.0000 0.0000
# 4 0.0000 0.0000 0.0000 17.5100 0.0000 0.0000
# 5 0.0000 0.0000 0.0000 0.0000 25.7133 0.0000
# 6 0.0000 0.0000 0.0000 0.0000 0.0000 26.2246
#
#
#
# Elastic Compliance Matrix: (Units=1/GPa)
#
#
# Indices 1 2 3 4 5 6 
#
# 1 0.013205 -0.002454 -0.000252 0.000000 0.000000 0.000000
# 2 -0.002454 0.013196 -0.004807 0.000000 0.000000 0.000000
# 3 -0.000252 -0.004807 0.010344 0.000000 0.000000 0.000000
# 4 0.000000 0.000000 0.000000 0.057110 0.000000 0.000000
# 5 0.000000 0.000000 0.000000 0.000000 0.038890 0.000000
# 6 0.000000 0.000000 0.000000 0.000000 0.000000 0.038132
#
#
# Mechanical properties :
#
#
# Convention : Reuss Voigt Hill
#
# Bulk Modulus (GPa) = 46.04171 48.99231 47.51701
# Shear Modulus (GPa) = 25.88745 28.46858 27.17801
#
# Velocity S-wave (km/s) = 3.60229 3.77761 3.69099
# Velocity P-wave (km/s) = 6.35462 6.60192 6.47945
#
# Compressibility (1/GPa) = 0.02171944
#
# Stress axis : x y z
#
# Youngs Moduli (GPa) = 75.72865 75.77969 96.67308
#
# Poissons Ratio (x) = 0.18595 0.02435
# Poissons Ratio (y) = 0.18583 0.46473
# Poissons Ratio (z) = 0.01907 0.36429
#
# Static dielectric constant tensor:
#      x y z
#    x 3.900240 0.000000 0.000000 
#    y 0.000000 3.723870 0.000000 
#    z 0.000000 0.000000 3.940230 
# 
# 
# High freq. dielectric constant tensor:
#      x y z
#    x 1.757250 0.000000 0.000000 
#    y 0.000000 1.784060 0.000000 
#    z 0.000000 0.000000 1.804130 
# 
# From -- ./inp_files/19012.got.cif
#   From: 2010.03.12/outbox.cif.g09.slc.cpg/sg57_10_cif.got.tgz:19012.got - 2010.04.16 15:48:40.
