data_PCOD8232265
_publ_section_title
;
Structure prediction by ZEFSAII (Michael W. Deem and Ramdas Pophale) SiO2 
 PCOD8232265
Probable space group: P B C M
;
_chemical_formula_sum "Si O2"
_cell_formula_units_Z 48
_cell_length_a 16.068946
_cell_length_b 18.514186
_cell_length_c 8.747672
_cell_angle_alpha 90.000000
_cell_angle_beta 90.000000
_cell_angle_gamma 90.000000
_cell_volume 2602.462644
_symmetry_space_group_name_H-M "P B C M"
_symmetry_group_IT_number 57
_symmetry_cell_setting 'orthorhombic'
loop_
_space_group_symop_operation_xyz
x,y,z
-x,-y,1/2+z
x,1/2-y,-z
-x,1/2+y,1/2-z
-x,-y,-z
x,y,1/2-z
-x,1/2+y,z
x,1/2-y,1/2+z
loop_
_atom_site_type_symbol
_atom_site_label
_atom_site_fract_x
_atom_site_fract_y
_atom_site_fract_z
Si Si1 0.744338 0.039998 0.430181
Si Si2 0.022246 0.326938 0.426685
Si Si3 0.169088 0.672690 0.927447
Si Si4 0.831986 0.908863 0.570037
Si Si5 0.414744 0.027577 0.431116
Si Si6 0.331459 0.326413 0.571431
O O1 0.732999 0.035632 0.250000
O O2 0.773101 0.118973 0.479016
O O3 0.813373 0.983385 0.485163
O O4 0.656659 0.025296 0.509982
O O5 0.040143 0.250000 0.500000
O O6 0.048414 0.323814 0.250000
O O7 0.077488 0.384834 0.515792
O O8 0.926948 0.350298 0.447707
O O9 0.194205 0.673418 0.750000
O O10 0.185339 0.750000 0.000000
O O11 0.831117 0.923876 0.750000
O O12 0.762500 0.849120 0.525113
O O13 0.418017 0.022784 0.250000
O O14 0.394580 0.110155 0.483229
O O15 0.500000 0.000000 0.500000
O O16 0.356623 0.250000 0.500000
O O17 0.338575 0.316118 0.750000
#
# Coordination Sequence:
#
# PCOD8232265 Si02
#       6
#     8   8   8   8   8   8
#     4  11  22  37  58  82 107 140 180 221 273 331
#     4  10  20  33  51  76 107 145 186 227 273 322
#     4  10  21  38  57  78 107 143 184 230 275 321
#     4  10  20  34  52  77 110 145 182 226 270 319
#     4  10  21  39  60  84 112 142 178 221 270 325
#     4   9  19  33  52  79 110 141 174 214 262 316
#
# _framework density 18.444068000000001
#
# number of rings (size 3 to 8) (size 9 to 14) (size 15 to 20)
#    0.000    2.000    0.000    5.000    0.000    8.000 
#    0.000    0.833    0.000    2.000    0.000    0.000 
#    0.000    0.000    0.000    0.000    0.000    0.000 
#
# Total GULP energy -595318.537929 kJ/mol
# GULP energy per Si atom -12402.469540 kJ/mol
# Density = 1.840209 g / cm^3
# Si number density = 18.444068 Si / 1000 Ang^3
#
#
#
# Elastic Constant Matrix: (Units=GPa)
#
#
# Indices 1 2 3 4 5 6 
#
# 1 91.9337 65.7771 38.2704 0.0000 0.0000 0.0000
# 2 65.7771 111.4495 41.7608 0.0000 0.0000 0.0000
# 3 38.2704 41.7608 89.0308 0.0000 0.0000 0.0000
# 4 0.0000 0.0000 0.0000 36.7633 0.0000 0.0000
# 5 0.0000 0.0000 0.0000 0.0000 33.0008 0.0000
# 6 0.0000 0.0000 0.0000 0.0000 0.0000 250.6140
#
#
#
# Elastic Compliance Matrix: (Units=1/GPa)
#
#
# Indices 1 2 3 4 5 6 
#
# 1 0.019769 -0.010293 -0.003670 0.000000 0.000000 0.000000
# 2 -0.010293 0.016245 -0.003195 0.000000 0.000000 0.000000
# 3 -0.003670 -0.003195 0.014309 0.000000 0.000000 0.000000
# 4 0.000000 0.000000 0.000000 0.027201 0.000000 0.000000
# 5 0.000000 0.000000 0.000000 0.000000 0.030302 0.000000
# 6 0.000000 0.000000 0.000000 0.000000 0.000000 0.003990
#
#
# Mechanical properties :
#
#
# Convention : Reuss Voigt Hill
#
# Bulk Modulus (GPa) = 62.47529 64.89229 63.68379
# Shear Modulus (GPa) = 33.01030 73.84934 53.42982
#
# Velocity S-wave (km/s) = 4.23514 6.33455 5.38808
# Velocity P-wave (km/s) = 7.60668 9.42134 8.56222
#
# Compressibility (1/GPa) = 0.01600633
#
# Stress axis : x y z
#
# Youngs Moduli (GPa) = 50.58320 61.55867 69.88843
#
# Poissons Ratio (x) = 0.63360 0.25650
# Poissons Ratio (y) = 0.52063 0.22332
# Poissons Ratio (z) = 0.18565 0.19670
#
# Static dielectric constant tensor:
#      x y z
#    x 3.341390 0.000000 0.000000 
#    y 0.000000 3.391080 0.000000 
#    z 0.000000 0.000000 3.472900 
# 
# 
# High freq. dielectric constant tensor:
#      x y z
#    x 1.704080 0.000000 0.000000 
#    y 0.000000 1.716770 0.000000 
#    z 0.000000 0.000000 1.730180 
# 
# From -- ./inp_files/4660.got.cif
#   From: 2010.03.12/outbox.cif.g09.slc.cpg/sg57_3_cif.got.tgz:4660.got - 2010.04.16 15:48:40.
