data_PCOD8232166
_publ_section_title
;
Structure prediction by ZEFSAII (Michael W. Deem and Ramdas Pophale) SiO2 
 PCOD8232166
Probable space group: P B C M
;
_chemical_formula_sum "Si O2"
_cell_formula_units_Z 64
_cell_length_a 15.037675
_cell_length_b 24.444793
_cell_length_c 8.740878
_cell_angle_alpha 90.000000
_cell_angle_beta 90.000000
_cell_angle_gamma 90.000000
_cell_volume 3213.084278
_symmetry_space_group_name_H-M "P B C M"
_symmetry_group_IT_number 57
_symmetry_cell_setting 'orthorhombic'
loop_
_space_group_symop_operation_xyz
x,y,z
-x,-y,1/2+z
x,1/2-y,-z
-x,1/2+y,1/2-z
-x,-y,-z
x,y,1/2-z
-x,1/2+y,z
x,1/2-y,1/2+z
loop_
_atom_site_type_symbol
_atom_site_label
_atom_site_fract_x
_atom_site_fract_y
_atom_site_fract_z
Si Si1 0.050135 0.371718 0.928336
Si Si2 0.859168 0.096496 0.074297
Si Si3 0.868086 0.515758 0.421538
Si Si4 0.674654 0.103161 0.568396
Si Si5 0.366310 0.132549 0.433363
Si Si6 0.467540 0.691618 0.568124
Si Si7 0.338648 0.484335 0.920586
Si Si8 0.202115 0.308581 0.069239
O O1 0.074401 0.364365 0.750000
O O2 0.078842 0.432027 0.984750
O O3 0.944340 0.364552 0.956481
O O4 0.101758 0.326166 0.026002
O O5 0.831328 0.097327 0.250000
O O6 0.774771 0.118561 0.980064
O O7 0.887790 0.035077 0.031172
O O8 0.899315 0.500575 0.250000
O O9 0.764693 0.530324 0.421242
O O10 0.675098 0.098767 0.750000
O O11 0.606939 0.149012 0.509889
O O12 0.646032 0.043433 0.496924
O O13 0.367001 0.136190 0.250000
O O14 0.437790 0.173470 0.503825
O O15 0.386620 0.069735 0.491139
O O16 0.269934 0.148530 0.495543
O O17 0.441159 0.750000 0.500000
O O18 0.471844 0.694995 0.750000
O O19 0.375670 0.490845 0.750000
O O20 0.214015 0.306736 0.250000
O O21 0.224149 0.250000 0.000000
#
# Coordination Sequence:
#
# PCOD8232166 Si02
#       8
#     8   8   8   8   8   8   8   8
#     4  10  20  36  55  80 116 156 195 239 288 337
#     4  10  20  32  54  87 119 149 191 241 287 340
#     4   9  16  31  53  78 117 160 192 227 279 340
#     4   9  20  40  61  82 116 158 196 239 293 350
#     4  11  21  38  63  89 120 152 187 232 292 355
#     4  11  24  42  63  87 113 147 197 246 291 347
#     4   8  15  31  57  85 115 154 187 223 282 345
#     4  12  25  40  59  83 115 154 199 245 291 350
#
# _framework density 19.918555000000001
#
# number of rings (size 3 to 8) (size 9 to 14) (size 15 to 20)
#    0.000    2.000    1.250    3.750    0.000    3.000 
#    0.000    1.250    0.000    1.500    0.000    0.000 
#    0.000    0.000    0.000    0.000    0.000    0.000 
#
# Total GULP energy -793377.248373 kJ/mol
# GULP energy per Si atom -12396.519506 kJ/mol
# Density = 1.987322 g / cm^3
# Si number density = 19.918555 Si / 1000 Ang^3
#
#
#
# Elastic Constant Matrix: (Units=GPa)
#
#
# Indices 1 2 3 4 5 6 
#
# 1 64.1917 50.4955 25.1340 0.0000 0.0000 0.0000
# 2 50.4955 124.1035 37.7255 0.0000 0.0000 0.0000
# 3 25.1340 37.7255 63.2716 0.0000 0.0000 0.0000
# 4 0.0000 0.0000 0.0000 25.8457 0.0000 0.0000
# 5 0.0000 0.0000 0.0000 0.0000 29.3728 0.0000
# 6 0.0000 0.0000 0.0000 0.0000 0.0000 29.8889
#
#
#
# Elastic Compliance Matrix: (Units=1/GPa)
#
#
# Indices 1 2 3 4 5 6 
#
# 1 0.023925 -0.008361 -0.004519 0.000000 0.000000 0.000000
# 2 -0.008361 0.012763 -0.004289 0.000000 0.000000 0.000000
# 3 -0.004519 -0.004289 0.020157 0.000000 0.000000 0.000000
# 4 0.000000 0.000000 0.000000 0.038691 0.000000 0.000000
# 5 0.000000 0.000000 0.000000 0.000000 0.034045 0.000000
# 6 0.000000 0.000000 0.000000 0.000000 0.000000 0.033457
#
#
# Mechanical properties :
#
#
# Convention : Reuss Voigt Hill
#
# Bulk Modulus (GPa) = 44.42808 53.14188 48.78498
# Shear Modulus (GPa) = 24.40474 26.23560 25.32017
#
# Velocity S-wave (km/s) = 3.50412 3.63318 3.56924
# Velocity P-wave (km/s) = 6.22295 6.65864 6.44448
#
# Compressibility (1/GPa) = 0.02250829
#
# Stress axis : x y z
#
# Youngs Moduli (GPa) = 41.79799 78.34878 49.61027
#
# Poissons Ratio (x) = 0.65507 0.22417
# Poissons Ratio (y) = 0.34947 0.21277
# Poissons Ratio (z) = 0.18887 0.33603
#
# Static dielectric constant tensor:
#      x y z
#    x 3.573790 0.000000 0.000000 
#    y 0.000000 3.734190 0.000000 
#    z 0.000000 0.000000 3.449210 
# 
# 
# High freq. dielectric constant tensor:
#      x y z
#    x 1.773540 0.000000 0.000000 
#    y 0.000000 1.772530 0.000000 
#    z 0.000000 0.000000 1.761920 
# 
# From -- ./inp_files/5564.got.cif
#   From: 2010.03.12/outbox.cif.g09.slc.cpg/sg57_3_cif.got.tgz:5564.got - 2010.04.16 15:48:40.
