data_PCOD8232800
_publ_section_title
;
Structure prediction by ZEFSAII (Michael W. Deem and Ramdas Pophale) SiO2 
 PCOD8232800
Probable space group: P B C M
;
_chemical_formula_sum "Si O2"
_cell_formula_units_Z 64
_cell_length_a 22.706599
_cell_length_b 16.095050
_cell_length_c 9.108261
_cell_angle_alpha 90.000000
_cell_angle_beta 90.000000
_cell_angle_gamma 90.000000
_cell_volume 3328.740098
_symmetry_space_group_name_H-M "P B C M"
_symmetry_group_IT_number 57
_symmetry_cell_setting 'orthorhombic'
loop_
_space_group_symop_operation_xyz
x,y,z
-x,-y,1/2+z
x,1/2-y,-z
-x,1/2+y,1/2-z
-x,-y,-z
x,y,1/2-z
-x,1/2+y,z
x,1/2-y,1/2+z
loop_
_atom_site_type_symbol
_atom_site_label
_atom_site_fract_x
_atom_site_fract_y
_atom_site_fract_z
Si Si1 0.938493 0.334051 0.921113
Si Si2 0.589725 0.632006 0.413518
Si Si3 0.375269 0.556142 0.910543
Si Si4 0.704209 0.670801 0.577156
Si Si5 0.541007 0.331508 0.921685
Si Si6 0.923268 0.666766 0.419373
Si Si7 0.122019 0.512420 0.580035
Si Si8 0.745401 0.513084 0.082333
O O1 0.922333 0.327806 0.750000
O O2 0.007655 0.342743 0.947601
O O3 0.914948 0.250000 0.000000
O O4 0.910129 0.417126 0.986892
O O5 0.597310 0.671616 0.250000
O O6 0.599541 0.535247 0.400550
O O7 0.635970 0.670225 0.527099
O O8 0.524584 0.647376 0.478229
O O9 0.383585 0.599114 0.750000
O O10 0.305751 0.554164 0.952738
O O11 0.411825 0.598974 0.037981
O O12 0.734922 0.750000 0.500000
O O13 0.708177 0.679109 0.750000
O O14 0.739744 0.590312 0.526479
O O15 0.541111 0.319465 0.750000
O O16 0.564515 0.250000 0.000000
O O17 0.899178 0.750000 0.500000
O O18 0.907653 0.679431 0.250000
O O19 0.893469 0.580983 0.477169
O O20 0.102610 0.520699 0.750000
O O21 0.191453 0.529051 0.559860
O O22 0.737436 0.545315 0.250000
#
# Coordination Sequence:
#
# PCOD8232800 Si02
#       8
#     8   8   8   8   8   8   8   8
#     4  10  20  35  56  83 114 147 185 228 274 325
#     4   9  19  35  54  77 103 130 163 205 256 313
#     4   9  18  35  55  73  98 131 165 205 254 305
#     4  11  21  33  52  76 105 140 176 215 260 312
#     4  11  22  34  51  76 103 130 163 206 256 310
#     4   9  19  34  54  83 118 152 183 220 268 324
#     4  10  20  36  58  83 112 146 184 229 279 325
#     4   9  20  38  56  75 103 138 177 220 264 312
#
# _framework density 19.226493999999999
#
# number of rings (size 3 to 8) (size 9 to 14) (size 15 to 20)
#    0.000    2.250    0.000    3.750    0.000    6.000 
#    0.000    1.875    0.000    0.000    0.000    0.000 
#    0.000    0.000    0.000    0.000    0.000    0.000 
#
# Total GULP energy -793467.229869 kJ/mol
# GULP energy per Si atom -12397.925467 kJ/mol
# Density = 1.918273 g / cm^3
# Si number density = 19.226494 Si / 1000 Ang^3
#
#
#
# Elastic Constant Matrix: (Units=GPa)
#
#
# Indices 1 2 3 4 5 6 
#
# 1 56.4262 25.9613 26.9277 0.0000 0.0000 0.0000
# 2 25.9613 83.7254 37.8026 0.0000 0.0000 0.0000
# 3 26.9277 37.8026 95.6106 0.0000 0.0000 0.0000
# 4 0.0000 0.0000 0.0000 36.1565 0.0000 0.0000
# 5 0.0000 0.0000 0.0000 0.0000 23.0312 0.0000
# 6 0.0000 0.0000 0.0000 0.0000 0.0000 -0.1640
#
#
#
# Elastic Compliance Matrix: (Units=1/GPa)
#
#
# Indices 1 2 3 4 5 6 
#
# 1 0.022011 -0.004901 -0.004261 0.000000 0.000000 0.000000
# 2 -0.004901 0.015631 -0.004800 0.000000 0.000000 0.000000
# 3 -0.004261 -0.004800 0.013557 0.000000 0.000000 0.000000
# 4 0.000000 0.000000 0.000000 0.027658 0.000000 0.000000
# 5 0.000000 0.000000 0.000000 0.000000 0.043419 0.000000
# 6 0.000000 0.000000 0.000000 0.000000 0.000000 -6.099257
#
#
# Mechanical properties :
#
#
# Convention : Reuss Voigt Hill
#
# Bulk Modulus (GPa) = 42.96599 46.34948 44.65773
# Shear Modulus (GPa) = -0.84157 21.47614 10.31729
#
# Velocity S-wave (km/s) = -0.66232 3.34579 2.31902
# Velocity P-wave (km/s) = 4.67022 6.25181 5.51798
#
# Compressibility (1/GPa) = 0.02327422
#
# Stress axis : x y z
#
# Youngs Moduli (GPa) = 45.43233 63.97714 73.76284
#
# Poissons Ratio (x) = 0.31355 0.31433
# Poissons Ratio (y) = 0.22266 0.35404
# Poissons Ratio (z) = 0.19360 0.30707
#
# Static dielectric constant tensor:
#      x y z
#    x 3.572670 0.000000 0.000000 
#    y 0.000000 3.813090 0.000000 
#    z 0.000000 0.000000 3.529030 
# 
# 
# High freq. dielectric constant tensor:
#      x y z
#    x 1.741460 0.000000 0.000000 
#    y 0.000000 1.742060 0.000000 
#    z 0.000000 0.000000 1.745540 
# 
# From -- ./inp_files/9404.got.cif
#   From: 2010.03.12/outbox.cif.g09.slc.cpg/sg57_5_cif.got.tgz:9404.got - 2010.04.16 15:48:40.
