data_PCOD8232426
_publ_section_title
;
Structure prediction by ZEFSAII (Michael W. Deem and Ramdas Pophale) SiO2 
 PCOD8232426
Probable space group: P B C M
;
_chemical_formula_sum "Si O2"
_cell_formula_units_Z 64
_cell_length_a 12.250256
_cell_length_b 28.904796
_cell_length_c 9.002928
_cell_angle_alpha 90.000000
_cell_angle_beta 90.000000
_cell_angle_gamma 90.000000
_cell_volume 3187.857135
_symmetry_space_group_name_H-M "P B C M"
_symmetry_group_IT_number 57
_symmetry_cell_setting 'orthorhombic'
loop_
_space_group_symop_operation_xyz
x,y,z
-x,-y,1/2+z
x,1/2-y,-z
-x,1/2+y,1/2-z
-x,-y,-z
x,y,1/2-z
-x,1/2+y,z
x,1/2-y,1/2+z
loop_
_atom_site_type_symbol
_atom_site_label
_atom_site_fract_x
_atom_site_fract_y
_atom_site_fract_z
Si Si1 0.507377 0.561176 0.916754
Si Si2 0.321576 0.008395 0.424907
Si Si3 0.944628 0.703199 0.076751
Si Si4 0.489340 0.165076 0.915497
Si Si5 0.104256 0.975717 0.926994
Si Si6 0.700142 0.703628 0.076529
Si Si7 0.126781 0.631548 0.075784
Si Si8 0.717838 0.297416 0.425024
O O1 0.539247 0.545495 0.750000
O O2 0.401876 0.533140 0.972259
O O3 0.466002 0.613292 0.921223
O O4 0.613931 0.554280 0.021173
O O5 0.296515 0.010991 0.250000
O O6 0.209268 0.002949 0.513142
O O7 0.947810 0.713535 0.250000
O O8 0.016093 0.658841 0.034231
O O9 0.822078 0.691169 0.022102
O O10 0.988630 0.750000 0.000000
O O11 0.448944 0.177993 0.750000
O O12 0.589350 0.198044 0.962160
O O13 0.386943 0.165633 0.026658
O O14 0.096236 0.980293 0.750000
O O15 0.112194 0.921659 0.975192
O O16 0.000000 0.000000 0.000000
O O17 0.696795 0.710125 0.250000
O O18 0.657806 0.750000 0.000000
O O19 0.152603 0.634298 0.250000
O O20 0.223557 0.657080 0.989133
O O21 0.761295 0.250000 0.500000
O O22 0.740118 0.294883 0.250000
#
# Coordination Sequence:
#
# PCOD8232426 Si02
#       8
#     8   8   8   8   8   8   8   8
#     4   9  19  36  58  84 113 146 185 233 287 341
#     4  10  20  37  60  84 112 146 187 233 284 343
#     4   9  19  36  56  80 109 141 181 230 281 334
#     4  10  21  36  54  80 114 148 185 229 276 330
#     4  11  24  41  61  86 118 155 195 243 300 360
#     4  10  20  34  53  76 105 142 181 222 271 325
#     4  10  22  40  61  85 114 148 190 240 291 347
#     4  11  23  38  58  86 121 158 195 237 286 342
#
# _framework density 20.076183
#
# number of rings (size 3 to 8) (size 9 to 14) (size 15 to 20)
#    0.000    2.000    0.000    3.000    0.000    8.000 
#    0.000    1.250    0.000    0.000    0.000    0.000 
#    0.000    0.000    0.000    0.000    0.000    0.000 
#
# Total GULP energy -793565.922831 kJ/mol
# GULP energy per Si atom -12399.467544 kJ/mol
# Density = 2.003049 g / cm^3
# Si number density = 20.076183 Si / 1000 Ang^3
#
#
#
# Elastic Constant Matrix: (Units=GPa)
#
#
# Indices 1 2 3 4 5 6 
#
# 1 114.6896 34.7513 48.4882 0.0000 0.0000 0.0000
# 2 34.7513 80.8362 33.0587 0.0000 0.0000 0.0000
# 3 48.4882 33.0587 76.7196 0.0000 0.0000 0.0000
# 4 0.0000 0.0000 0.0000 30.2021 0.0000 0.0000
# 5 0.0000 0.0000 0.0000 0.0000 33.3730 0.0000
# 6 0.0000 0.0000 0.0000 0.0000 0.0000 28.8975
#
#
#
# Elastic Compliance Matrix: (Units=1/GPa)
#
#
# Indices 1 2 3 4 5 6 
#
# 1 0.012321 -0.002564 -0.006682 0.000000 0.000000 0.000000
# 2 -0.002564 0.015551 -0.005080 0.000000 0.000000 0.000000
# 3 -0.006682 -0.005080 0.019447 0.000000 0.000000 0.000000
# 4 0.000000 0.000000 0.000000 0.033110 0.000000 0.000000
# 5 0.000000 0.000000 0.000000 0.000000 0.029964 0.000000
# 6 0.000000 0.000000 0.000000 0.000000 0.000000 0.034605
#
#
# Mechanical properties :
#
#
# Convention : Reuss Voigt Hill
#
# Bulk Modulus (GPa) = 53.57508 56.09352 54.83430
# Shear Modulus (GPa) = 27.79727 28.89100 28.34413
#
# Velocity S-wave (km/s) = 3.72504 3.79762 3.76151
# Velocity P-wave (km/s) = 6.72645 6.87242 6.79983
#
# Compressibility (1/GPa) = 0.01866539
#
# Stress axis : x y z
#
# Youngs Moduli (GPa) = 81.16040 64.30622 51.42190
#
# Poissons Ratio (x) = 0.16488 0.34362
# Poissons Ratio (y) = 0.20810 0.26124
# Poissons Ratio (z) = 0.54235 0.32669
#
# Static dielectric constant tensor:
#      x y z
#    x 3.723700 0.000000 0.000000 
#    y 0.000000 3.672490 0.000000 
#    z 0.000000 0.000000 3.695120 
# 
# 
# High freq. dielectric constant tensor:
#      x y z
#    x 1.790370 0.000000 0.000000 
#    y 0.000000 1.779490 0.000000 
#    z 0.000000 0.000000 1.783450 
# 
# From -- ./inp_files/3882.got.cif
#   From: 2010.03.12/outbox.cif.g09.slc.cpg/sg57_2_cif.got.tgz:3882.got - 2010.04.16 15:48:40.
