data_PCOD8232505
_publ_section_title
;
Structure prediction by ZEFSAII (Michael W. Deem and Ramdas Pophale) SiO2 
 PCOD8232505
Probable space group: P B C M
;
_chemical_formula_sum "Si O2"
_cell_formula_units_Z 64
_cell_length_a 14.711268
_cell_length_b 23.427830
_cell_length_c 9.313149
_cell_angle_alpha 90.000000
_cell_angle_beta 90.000000
_cell_angle_gamma 90.000000
_cell_volume 3209.805541
_symmetry_space_group_name_H-M "P B C M"
_symmetry_group_IT_number 57
_symmetry_cell_setting 'orthorhombic'
loop_
_space_group_symop_operation_xyz
x,y,z
-x,-y,1/2+z
x,1/2-y,-z
-x,1/2+y,1/2-z
-x,-y,-z
x,y,1/2-z
-x,1/2+y,z
x,1/2-y,1/2+z
loop_
_atom_site_type_symbol
_atom_site_label
_atom_site_fract_x
_atom_site_fract_y
_atom_site_fract_z
Si Si1 0.139994 0.893646 0.084655
Si Si2 0.548156 0.338524 0.911828
Si Si3 0.713199 0.301342 0.414773
Si Si4 0.017752 0.309556 0.081747
Si Si5 0.656346 0.807523 0.918942
Si Si6 0.782570 0.005769 0.416108
Si Si7 0.580205 0.471603 0.587092
Si Si8 0.201424 0.124451 0.585331
O O1 0.122671 0.909387 0.250000
O O2 0.234003 0.860058 0.062402
O O3 0.058460 0.854000 0.026659
O O4 0.147859 0.952366 0.997547
O O5 0.568387 0.317330 0.750000
O O6 0.445992 0.324281 0.956716
O O7 0.566803 0.404815 0.924376
O O8 0.611899 0.306012 0.023092
O O9 0.763663 0.250000 0.500000
O O10 0.708226 0.283749 0.250000
O O11 0.004074 0.297330 0.250000
O O12 0.114058 0.337937 0.047331
O O13 0.008579 0.250000 0.000000
O O14 0.673001 0.799960 0.750000
O O15 0.684840 0.750000 0.000000
O O16 0.718284 0.858360 0.978454
O O17 0.783209 0.023803 0.250000
O O18 0.679186 0.011107 0.475802
O O19 0.820204 0.942115 0.440253
O O20 0.500000 0.500000 0.500000
O O21 0.572628 0.493620 0.750000
O O22 0.231926 0.134354 0.750000
#
# Coordination Sequence:
#
# PCOD8232505 Si02
#       8
#     8   8   8   8   8   8   8   8
#     4  10  22  39  59  86 119 154 193 240 290 346
#     4  10  21  37  55  80 114 152 194 239 289 348
#     4  11  22  35  55  82 112 149 190 234 286 342
#     4  10  22  41  63  89 120 153 196 245 296 355
#     4  11  23  38  58  84 116 154 197 246 298 352
#     4  10  21  38  60  87 120 157 196 241 294 352
#     4  10  20  34  54  80 113 153 197 242 285 340
#     4  10  22  40  62  88 119 155 196 245 298 351
#
# _framework density 19.938903
#
# number of rings (size 3 to 8) (size 9 to 14) (size 15 to 20)
#    0.000    1.750    1.250    2.625    0.000    6.500 
#    0.000    0.000    0.000    0.000    0.000    0.000 
#    0.000    0.000    0.000    0.000    0.000    0.000 
#
# Total GULP energy -793810.850142 kJ/mol
# GULP energy per Si atom -12403.294533 kJ/mol
# Density = 1.989352 g / cm^3
# Si number density = 19.938903 Si / 1000 Ang^3
#
#
#
# Elastic Constant Matrix: (Units=GPa)
#
#
# Indices 1 2 3 4 5 6 
#
# 1 76.7131 34.6719 36.1309 0.0000 0.0000 0.0000
# 2 34.6719 96.5713 42.3794 0.0000 0.0000 0.0000
# 3 36.1309 42.3794 82.3750 0.0000 0.0000 0.0000
# 4 0.0000 0.0000 0.0000 34.7958 0.0000 0.0000
# 5 0.0000 0.0000 0.0000 0.0000 25.3509 0.0000
# 6 0.0000 0.0000 0.0000 0.0000 0.0000 37.5068
#
#
#
# Elastic Compliance Matrix: (Units=1/GPa)
#
#
# Indices 1 2 3 4 5 6 
#
# 1 0.017420 -0.003747 -0.005713 0.000000 0.000000 0.000000
# 2 -0.003747 0.014181 -0.005652 0.000000 0.000000 0.000000
# 3 -0.005713 -0.005652 0.017553 0.000000 0.000000 0.000000
# 4 0.000000 0.000000 0.000000 0.028739 0.000000 0.000000
# 5 0.000000 0.000000 0.000000 0.000000 0.039446 0.000000
# 6 0.000000 0.000000 0.000000 0.000000 0.000000 0.026662
#
#
# Mechanical properties :
#
#
# Convention : Reuss Voigt Hill
#
# Bulk Modulus (GPa) = 52.82698 53.55821 53.19259
# Shear Modulus (GPa) = 27.69552 29.02920 28.36236
#
# Velocity S-wave (km/s) = 3.73100 3.81977 3.77565
# Velocity P-wave (km/s) = 6.71658 6.80983 6.76336
#
# Compressibility (1/GPa) = 0.01892972
#
# Stress axis : x y z
#
# Youngs Moduli (GPa) = 57.40579 70.51829 56.97012
#
# Poissons Ratio (x) = 0.26425 0.32546
# Poissons Ratio (y) = 0.21511 0.32199
# Poissons Ratio (z) = 0.32795 0.39857
#
# Static dielectric constant tensor:
#      x y z
#    x 3.596880 0.000000 0.000000 
#    y 0.000000 3.624620 0.000000 
#    z 0.000000 0.000000 2.780640 
# 
# 
# High freq. dielectric constant tensor:
#      x y z
#    x 1.778710 0.000000 0.000000 
#    y 0.000000 1.789640 0.000000 
#    z 0.000000 0.000000 1.771410 
# 
# From -- ./inp_files/5726.got.cif
#   From: 2010.03.12/outbox.cif.g09.slc.cpg/sg57_3_cif.got.tgz:5726.got - 2010.04.16 15:48:40.
