data_PCOD8232757
_publ_section_title
;
Structure prediction by ZEFSAII (Michael W. Deem and Ramdas Pophale) SiO2 
 PCOD8232757
Probable space group: P B C M
;
_chemical_formula_sum "Si O2"
_cell_formula_units_Z 40
_cell_length_a 15.661750
_cell_length_b 13.600632
_cell_length_c 9.322900
_cell_angle_alpha 90.000000
_cell_angle_beta 90.000000
_cell_angle_gamma 90.000000
_cell_volume 1985.868116
_symmetry_space_group_name_H-M "P B C M"
_symmetry_group_IT_number 57
_symmetry_cell_setting 'orthorhombic'
loop_
_space_group_symop_operation_xyz
x,y,z
-x,-y,1/2+z
x,1/2-y,-z
-x,1/2+y,1/2-z
-x,-y,-z
x,y,1/2-z
-x,1/2+y,z
x,1/2-y,1/2+z
loop_
_atom_site_type_symbol
_atom_site_label
_atom_site_fract_x
_atom_site_fract_y
_atom_site_fract_z
Si Si1 0.310293 0.054111 0.416256
Si Si2 0.953782 0.351998 0.918768
Si Si3 0.538269 0.910367 0.087579
Si Si4 0.639884 0.161624 0.909552
Si Si5 0.879862 0.971348 0.915092
O O1 0.335245 0.066730 0.250000
O O2 0.373523 0.124167 0.509518
O O3 0.211603 0.079636 0.445631
O O4 0.326858 0.942355 0.468870
O O5 0.935517 0.338896 0.750000
O O6 0.050311 0.388155 0.948246
O O7 0.938794 0.250000 0.000000
O O8 0.890379 0.434023 0.983190
O O9 0.559915 0.942136 0.250000
O O10 0.463770 0.828677 0.087189
O O11 0.500000 0.000000 0.000000
O O12 0.675340 0.174865 0.750000
O O13 0.680535 0.250000 0.000000
O O14 0.885915 0.007175 0.750000
#
# Coordination Sequence:
#
# PCOD8232757 Si02
#       5
#     8   8   8   8   8
#     4   9  18  33  51  72  98 127 162 207 255 301
#     4  10  20  35  56  79 105 139 175 214 263 317
#     4   9  17  30  47  67  91 124 163 198 237 287
#     4   9  18  30  45  67  95 126 161 201 244 292
#     4   9  19  36  56  78 105 137 174 216 264 318
#
# _framework density 20.142323999999999
#
# number of rings (size 3 to 8) (size 9 to 14) (size 15 to 20)
#    0.000    2.800    0.000    2.400    0.000    6.400 
#    0.000    3.000    0.000    4.800    0.000    0.000 
#    0.000    0.000    0.000    0.000    0.000    0.000 
#
# Total GULP energy -495750.666439 kJ/mol
# GULP energy per Si atom -12393.766661 kJ/mol
# Density = 2.009648 g / cm^3
# Si number density = 20.142324 Si / 1000 Ang^3
#
#
#
# Elastic Constant Matrix: (Units=GPa)
#
#
# Indices 1 2 3 4 5 6 
#
# 1 69.0582 -21.3469 13.9494 0.0000 0.0000 0.0000
# 2 -21.3469 27.9549 14.2419 0.0000 0.0000 0.0000
# 3 13.9494 14.2419 90.9338 0.0000 0.0000 0.0000
# 4 0.0000 0.0000 0.0000 27.8044 0.0000 0.0000
# 5 0.0000 0.0000 0.0000 0.0000 30.2329 0.0000
# 6 0.0000 0.0000 0.0000 0.0000 0.0000 11.8626
#
#
#
# Elastic Compliance Matrix: (Units=1/GPa)
#
#
# Indices 1 2 3 4 5 6 
#
# 1 0.022030 0.020152 -0.006536 0.000000 0.000000 0.000000
# 2 0.020152 0.057308 -0.012067 0.000000 0.000000 0.000000
# 3 -0.006536 -0.012067 0.013890 0.000000 0.000000 0.000000
# 4 0.000000 0.000000 0.000000 0.035966 0.000000 0.000000
# 5 0.000000 0.000000 0.000000 0.000000 0.033077 0.000000
# 6 0.000000 0.000000 0.000000 0.000000 0.000000 0.084298
#
#
# Mechanical properties :
#
#
# Convention : Reuss Voigt Hill
#
# Bulk Modulus (GPa) = 10.38129 22.40397 16.39263
# Shear Modulus (GPa) = 18.14369 26.05348 22.09858
#
# Velocity S-wave (km/s) = 3.00455 3.60039 3.31588
# Velocity P-wave (km/s) = 4.14748 5.33204 4.77662
#
# Compressibility (1/GPa) = 0.09632715
#
# Stress axis : x y z
#
# Youngs Moduli (GPa) = 45.39249 17.44950 71.99681
#
# Poissons Ratio (x) = -0.35165 0.47055
# Poissons Ratio (y) = -0.91476 0.86878
# Poissons Ratio (z) = 0.29667 0.21056
#
# Static dielectric constant tensor:
#      x y z
#    x 4.024440 0.000000 0.000000 
#    y 0.000000 3.220030 0.000000 
#    z 0.000000 0.000000 3.788660 
# 
# 
# High freq. dielectric constant tensor:
#      x y z
#    x 1.787880 0.000000 0.000000 
#    y 0.000000 1.747310 0.000000 
#    z 0.000000 0.000000 1.789480 
# 
# From -- ./inp_files/6365.got.cif
#   From: 2010.03.12/outbox.cif.g09.slc.cpg/sg57_4_cif.got.tgz:6365.got - 2010.04.16 15:48:40.
