data_PCOD8232316
_publ_section_title
;
Structure prediction by ZEFSAII (Michael W. Deem and Ramdas Pophale) SiO2 
 PCOD8232316
Probable space group: P B C M
;
_chemical_formula_sum "Si O2"
_cell_formula_units_Z 64
_cell_length_a 11.704186
_cell_length_b 31.647340
_cell_length_c 9.206868
_cell_angle_alpha 90.000000
_cell_angle_beta 90.000000
_cell_angle_gamma 90.000000
_cell_volume 3410.282405
_symmetry_space_group_name_H-M "P B C M"
_symmetry_group_IT_number 57
_symmetry_cell_setting 'orthorhombic'
loop_
_space_group_symop_operation_xyz
x,y,z
-x,-y,1/2+z
x,1/2-y,-z
-x,1/2+y,1/2-z
-x,-y,-z
x,y,1/2-z
-x,1/2+y,z
x,1/2-y,1/2+z
loop_
_atom_site_type_symbol
_atom_site_label
_atom_site_fract_x
_atom_site_fract_y
_atom_site_fract_z
Si Si1 0.952715 0.039371 0.080175
Si Si2 0.445384 0.294265 0.576990
Si Si3 0.920218 0.610501 0.584724
Si Si4 0.249031 0.935611 0.407846
Si Si5 0.498380 0.045188 0.581044
Si Si6 0.706671 0.290443 0.583863
Si Si7 0.343421 0.375937 0.420605
Si Si8 0.139045 0.654935 0.905102
O O1 0.960228 0.033861 0.250000
O O2 0.819481 0.040861 0.034705
O O3 0.030699 0.078202 0.031975
O O4 0.000000 0.000000 0.000000
O O5 0.407206 0.250000 0.500000
O O6 0.421772 0.290894 0.750000
O O7 0.578118 0.303000 0.541772
O O8 0.382697 0.334858 0.510212
O O9 0.927801 0.592482 0.750000
O O10 0.790616 0.621107 0.545521
O O11 0.001723 0.651990 0.570620
O O12 0.239294 0.959017 0.250000
O O13 0.381270 0.932181 0.451544
O O14 0.191583 0.890881 0.389489
O O15 0.478104 0.035424 0.750000
O O16 0.403988 0.079935 0.527897
O O17 0.500000 0.000000 0.500000
O O18 0.749436 0.250000 0.500000
O O19 0.716797 0.280039 0.750000
O O20 0.797778 0.325800 0.542611
O O21 0.368819 0.368434 0.250000
O O22 0.162078 0.678658 0.750000
#
# Coordination Sequence:
#
# PCOD8232316 Si02
#       8
#     8   8   8   8   8   8   8   8
#     4  11  22  35  55  79 105 138 182 233 282 332
#     4  10  21  37  59  88 118 149 189 236 285 341
#     4   9  20  38  57  80 110 146 188 229 279 339
#     4   9  19  36  54  76 106 140 179 223 275 329
#     4  10  22  37  55  82 115 151 191 237 287 343
#     4  10  20  33  53  82 113 142 178 225 276 333
#     4  10  21  39  61  83 114 155 194 236 290 346
#     4   9  17  33  56  78 106 139 176 225 276 329
#
# _framework density 18.766774999999999
#
# number of rings (size 3 to 8) (size 9 to 14) (size 15 to 20)
#    0.000    2.250    0.000    3.375    1.750    6.000 
#    0.000    0.625    0.000    0.000    0.000    0.000 
#    0.000    0.000    0.000    0.000    0.000    0.000 
#
# Total GULP energy -792973.290531 kJ/mol
# GULP energy per Si atom -12390.207665 kJ/mol
# Density = 1.872406 g / cm^3
# Si number density = 18.766775 Si / 1000 Ang^3
#
#
#
# Elastic Constant Matrix: (Units=GPa)
#
#
# Indices 1 2 3 4 5 6 
#
# 1 128.4759 38.1259 41.3878 0.0000 0.0000 0.0000
# 2 38.1259 69.0530 34.4671 0.0000 0.0000 0.0000
# 3 41.3878 34.4671 96.3450 0.0000 0.0000 0.0000
# 4 0.0000 0.0000 0.0000 36.8139 0.0000 0.0000
# 5 0.0000 0.0000 0.0000 0.0000 25.2808 0.0000
# 6 0.0000 0.0000 0.0000 0.0000 0.0000 20.2544
#
#
#
# Elastic Compliance Matrix: (Units=1/GPa)
#
#
# Indices 1 2 3 4 5 6 
#
# 1 0.009890 -0.004066 -0.002794 0.000000 0.000000 0.000000
# 2 -0.004066 0.019301 -0.005158 0.000000 0.000000 0.000000
# 3 -0.002794 -0.005158 0.013425 0.000000 0.000000 0.000000
# 4 0.000000 0.000000 0.000000 0.027164 0.000000 0.000000
# 5 0.000000 0.000000 0.000000 0.000000 0.039556 0.000000
# 6 0.000000 0.000000 0.000000 0.000000 0.000000 0.049372
#
#
# Mechanical properties :
#
#
# Convention : Reuss Voigt Hill
#
# Bulk Modulus (GPa) = 53.82187 57.98172 55.90179
# Shear Modulus (GPa) = 26.46371 28.46269 27.46320
#
# Velocity S-wave (km/s) = 3.75925 3.89865 3.82958
# Velocity P-wave (km/s) = 6.89813 7.15744 7.02898
#
# Compressibility (1/GPa) = 0.01857981
#
# Stress axis : x y z
#
# Youngs Moduli (GPa) = 101.10950 51.80995 74.48793
#
# Poissons Ratio (x) = 0.21066 0.20812
# Poissons Ratio (y) = 0.41112 0.38423
# Poissons Ratio (z) = 0.28250 0.26725
#
# Static dielectric constant tensor:
#      x y z
#    x 3.680060 0.000000 0.000000 
#    y 0.000000 3.477160 0.000000 
#    z 0.000000 0.000000 3.028900 
# 
# 
# High freq. dielectric constant tensor:
#      x y z
#    x 1.734600 0.000000 0.000000 
#    y 0.000000 1.713230 0.000000 
#    z 0.000000 0.000000 1.731240 
# 
# From -- ./inp_files/3726.got.cif
#   From: 2010.03.12/outbox.cif.g09.slc.cpg/sg57_2_cif.got.tgz:3726.got - 2010.04.16 15:48:40.
