data_PCOD8232566
_publ_section_title
;
Structure prediction by ZEFSAII (Michael W. Deem and Ramdas Pophale) SiO2 
 PCOD8232566
Probable space group: P B C M
;
_chemical_formula_sum "Si O2"
_cell_formula_units_Z 56
_cell_length_a 22.361700
_cell_length_b 14.341524
_cell_length_c 8.654588
_cell_angle_alpha 90.000000
_cell_angle_beta 90.000000
_cell_angle_gamma 90.000000
_cell_volume 2775.533791
_symmetry_space_group_name_H-M "P B C M"
_symmetry_group_IT_number 57
_symmetry_cell_setting 'orthorhombic'
loop_
_space_group_symop_operation_xyz
x,y,z
-x,-y,1/2+z
x,1/2-y,-z
-x,1/2+y,1/2-z
-x,-y,-z
x,y,1/2-z
-x,1/2+y,z
x,1/2-y,1/2+z
loop_
_atom_site_type_symbol
_atom_site_label
_atom_site_fract_x
_atom_site_fract_y
_atom_site_fract_z
Si Si1 0.857544 0.956317 0.570388
Si Si2 0.398321 0.848128 0.434060
Si Si3 0.367393 0.034465 0.566296
Si Si4 0.014426 0.098147 0.429192
Si Si5 0.098965 0.658379 0.569099
Si Si6 0.747870 0.851915 0.430602
Si Si7 0.529360 0.653194 0.433916
O O1 0.839870 0.959297 0.750000
O O2 0.914406 0.886787 0.545746
O O3 0.803548 0.916339 0.472689
O O4 0.871730 0.061546 0.509830
O O5 0.374337 0.750000 0.500000
O O6 0.394946 0.847676 0.250000
O O7 0.465726 0.866298 0.489276
O O8 0.356756 0.929437 0.505088
O O9 0.375626 0.035485 0.750000
O O10 0.312037 0.097428 0.510467
O O11 0.426741 0.070922 0.482494
O O12 0.997794 0.100220 0.250000
O O13 0.970843 0.168981 0.517950
O O14 0.000000 0.000000 0.500000
O O15 0.132492 0.750000 0.500000
O O16 0.103071 0.662010 0.750000
O O17 0.753889 0.750000 0.500000
O O18 0.745568 0.839301 0.250000
O O19 0.555959 0.750000 0.500000
O O20 0.522402 0.658411 0.250000
#
# Coordination Sequence:
#
# PCOD8232566 Si02
#       7
#     8   8   8   8   8   8   8
#     4   9  20  38  58  81 113 149 190 234 281 333
#     4  11  22  38  60  87 118 153 188 231 282 336
#     4  11  23  40  59  84 115 150 192 236 282 337
#     4   9  17  31  52  79 110 146 183 227 277 330
#     4  10  20  34  55  85 117 152 188 231 281 336
#     4  11  25  42  63  85 110 145 187 234 283 333
#     4  11  21  35  57  87 120 155 191 233 283 337
#
# _framework density 20.176299
#
# number of rings (size 3 to 8) (size 9 to 14) (size 15 to 20)
#    0.000    1.714    0.000    6.857    0.000    7.429 
#    0.000    0.714    0.000    1.714    0.000    0.000 
#    0.000    0.000    0.000    0.000    0.000    0.000 
#
# Total GULP energy -694247.807770 kJ/mol
# GULP energy per Si atom -12397.282282 kJ/mol
# Density = 2.013038 g / cm^3
# Si number density = 20.176299 Si / 1000 Ang^3
#
#
#
# Elastic Constant Matrix: (Units=GPa)
#
#
# Indices 1 2 3 4 5 6 
#
# 1 63.8474 45.7127 31.0305 0.0000 0.0000 0.0000
# 2 45.7127 141.9352 32.8325 0.0000 0.0000 0.0000
# 3 31.0305 32.8325 82.8017 0.0000 0.0000 0.0000
# 4 0.0000 0.0000 0.0000 38.5224 0.0000 0.0000
# 5 0.0000 0.0000 0.0000 0.0000 27.2705 0.0000
# 6 0.0000 0.0000 0.0000 0.0000 0.0000 22.6635
#
#
#
# Elastic Compliance Matrix: (Units=1/GPa)
#
#
# Indices 1 2 3 4 5 6 
#
# 1 0.022956 -0.005949 -0.006244 0.000000 0.000000 0.000000
# 2 -0.005949 0.009299 -0.001458 0.000000 0.000000 0.000000
# 3 -0.006244 -0.001458 0.014995 0.000000 0.000000 0.000000
# 4 0.000000 0.000000 0.000000 0.025959 0.000000 0.000000
# 5 0.000000 0.000000 0.000000 0.000000 0.036670 0.000000
# 6 0.000000 0.000000 0.000000 0.000000 0.000000 0.044124
#
#
# Mechanical properties :
#
#
# Convention : Reuss Voigt Hill
#
# Bulk Modulus (GPa) = 50.12937 56.41507 53.27222
# Shear Modulus (GPa) = 26.60229 29.62519 28.11374
#
# Velocity S-wave (km/s) = 3.63504 3.83602 3.73688
# Velocity P-wave (km/s) = 6.52056 6.90230 6.71414
#
# Compressibility (1/GPa) = 0.01994839
#
# Stress axis : x y z
#
# Youngs Moduli (GPa) = 43.56079 107.54221 66.68863
#
# Poissons Ratio (x) = 0.63978 0.41641
# Poissons Ratio (y) = 0.25915 0.09721
# Poissons Ratio (z) = 0.27200 0.15676
#
# Static dielectric constant tensor:
#      x y z
#    x 3.686730 0.000000 0.000000 
#    y 0.000000 4.171990 0.000000 
#    z 0.000000 0.000000 3.438510 
# 
# 
# High freq. dielectric constant tensor:
#      x y z
#    x 1.763930 0.000000 0.000000 
#    y 0.000000 1.801970 0.000000 
#    z 0.000000 0.000000 1.798010 
# 
# From -- ./inp_files/8172.got.cif
#   From: 2010.03.12/outbox.cif.g09.slc.cpg/sg57_5_cif.got.tgz:8172.got - 2010.04.16 15:48:40.
