data_PCOD8232346
_publ_section_title
;
Structure prediction by ZEFSAII (Michael W. Deem and Ramdas Pophale) SiO2 
 PCOD8232346
Probable space group: P B C M
;
_chemical_formula_sum "Si O2"
_cell_formula_units_Z 48
_cell_length_a 16.736042
_cell_length_b 18.501910
_cell_length_c 9.276760
_cell_angle_alpha 90.000000
_cell_angle_beta 90.000000
_cell_angle_gamma 90.000000
_cell_volume 2872.537072
_symmetry_space_group_name_H-M "P B C M"
_symmetry_group_IT_number 57
_symmetry_cell_setting 'orthorhombic'
loop_
_space_group_symop_operation_xyz
x,y,z
-x,-y,1/2+z
x,1/2-y,-z
-x,1/2+y,1/2-z
-x,-y,-z
x,y,1/2-z
-x,1/2+y,z
x,1/2-y,1/2+z
loop_
_atom_site_type_symbol
_atom_site_label
_atom_site_fract_x
_atom_site_fract_y
_atom_site_fract_z
Si Si1 0.354627 0.176566 0.416492
Si Si2 0.214317 0.425912 0.582192
Si Si3 0.234669 0.942076 0.912555
Si Si4 0.497780 0.075355 0.080724
Si Si5 0.354506 0.824438 0.917266
Si Si6 0.079807 0.485165 0.413926
O O1 0.366783 0.250000 0.500000
O O2 0.368813 0.193845 0.250000
O O3 0.265620 0.146038 0.444172
O O4 0.419199 0.118429 0.469753
O O5 0.196019 0.438160 0.750000
O O6 0.264947 0.494888 0.521292
O O7 0.130307 0.420998 0.493654
O O8 0.264523 0.960803 0.750000
O O9 0.270925 0.864694 0.957399
O O10 0.136903 0.942926 0.916434
O O11 0.496586 0.059514 0.250000
O O12 0.574196 0.122817 0.035723
O O13 0.500000 0.000000 0.000000
O O14 0.359740 0.805230 0.750000
O O15 0.359726 0.750000 0.000000
O O16 0.059663 0.462034 0.250000
O O17 0.000000 0.500000 0.500000
#
# Coordination Sequence:
#
# PCOD8232346 Si02
#       6
#     8   8   8   8   8   8
#     4  10  21  34  49  73 103 136 172 210 250 297
#     4   9  17  30  49  73 100 128 166 207 247 292
#     4   8  17  31  48  71  99 129 163 203 250 298
#     4  10  21  35  52  74 101 132 173 216 252 292
#     4  10  20  34  50  72 102 135 170 208 251 297
#     4   9  17  30  51  77 102 127 163 205 250 298
#
# _framework density 16.709966000000001
#
# number of rings (size 3 to 8) (size 9 to 14) (size 15 to 20)
#    1.000    1.667    0.000    2.000    0.000    3.333 
#    0.000    0.000    0.000    1.000    0.000    2.333 
#    0.000    0.000    0.000    0.000    0.000    0.000 
#
# Total GULP energy -594733.742148 kJ/mol
# GULP energy per Si atom -12390.286295 kJ/mol
# Density = 1.667193 g / cm^3
# Si number density = 16.709966 Si / 1000 Ang^3
#
#
#
# Elastic Constant Matrix: (Units=GPa)
#
#
# Indices 1 2 3 4 5 6 
#
# 1 105.6374 50.0003 50.4504 0.0000 0.0000 0.0000
# 2 50.0003 116.6028 60.0293 0.0000 0.0000 0.0000
# 3 50.4504 60.0293 93.0543 0.0000 0.0000 0.0000
# 4 0.0000 0.0000 0.0000 32.7005 0.0000 0.0000
# 5 0.0000 0.0000 0.0000 0.0000 26.0097 0.0000
# 6 0.0000 0.0000 0.0000 0.0000 0.0000 12.1506
#
#
#
# Elastic Compliance Matrix: (Units=1/GPa)
#
#
# Indices 1 2 3 4 5 6 
#
# 1 0.013446 -0.003014 -0.005346 0.000000 0.000000 0.000000
# 2 -0.003014 0.013516 -0.007085 0.000000 0.000000 0.000000
# 3 -0.005346 -0.007085 0.018215 0.000000 0.000000 0.000000
# 4 0.000000 0.000000 0.000000 0.030581 0.000000 0.000000
# 5 0.000000 0.000000 0.000000 0.000000 0.038447 0.000000
# 6 0.000000 0.000000 0.000000 0.000000 0.000000 0.082300
#
#
# Mechanical properties :
#
#
# Convention : Reuss Voigt Hill
#
# Bulk Modulus (GPa) = 69.98914 70.69492 70.34203
# Shear Modulus (GPa) = 21.53714 24.49313 23.01514
#
# Velocity S-wave (km/s) = 3.59399 3.83270 3.71527
# Velocity P-wave (km/s) = 7.69402 7.87306 7.78405
#
# Compressibility (1/GPa) = 0.01428793
#
# Stress axis : x y z
#
# Youngs Moduli (GPa) = 74.37299 73.98617 54.89859
#
# Poissons Ratio (x) = 0.22296 0.29347
# Poissons Ratio (y) = 0.22413 0.38898
# Poissons Ratio (z) = 0.39758 0.52422
#
# Static dielectric constant tensor:
#      x y z
#    x 3.132850 0.000000 0.000000 
#    y 0.000000 2.875790 0.000000 
#    z 0.000000 0.000000 3.100820 
# 
# 
# High freq. dielectric constant tensor:
#      x y z
#    x 1.641430 0.000000 0.000000 
#    y 0.000000 1.616930 0.000000 
#    z 0.000000 0.000000 1.651190 
# 
# From -- ./inp_files/6717.got.cif
#   From: 2010.03.12/outbox.cif.g09.slc.cpg/sg57_4_cif.got.tgz:6717.got - 2010.04.16 15:48:40.
