data_PCOD8232733
_publ_section_title
;
Structure prediction by ZEFSAII (Michael W. Deem and Ramdas Pophale) SiO2 
 PCOD8232733
Probable space group: P B C M
;
_chemical_formula_sum "Si O2"
_cell_formula_units_Z 48
_cell_length_a 30.788244
_cell_length_b 9.356999
_cell_length_c 8.659515
_cell_angle_alpha 90.000000
_cell_angle_beta 90.000000
_cell_angle_gamma 90.000000
_cell_volume 2494.681300
_symmetry_space_group_name_H-M "P B C M"
_symmetry_group_IT_number 57
_symmetry_cell_setting 'orthorhombic'
loop_
_space_group_symop_operation_xyz
x,y,z
-x,-y,1/2+z
x,1/2-y,-z
-x,1/2+y,1/2-z
-x,-y,-z
x,y,1/2-z
-x,1/2+y,z
x,1/2-y,1/2+z
loop_
_atom_site_type_symbol
_atom_site_label
_atom_site_fract_x
_atom_site_fract_y
_atom_site_fract_z
Si Si1 0.366725 0.596420 0.931417
Si Si2 0.199284 0.096779 0.570308
Si Si3 0.883646 0.091609 0.069150
Si Si4 0.537058 0.404121 0.431074
Si Si5 0.711018 0.904735 0.933146
Si Si6 0.039480 0.409532 0.566495
O O1 0.362242 0.609411 0.750000
O O2 0.414782 0.537465 0.975668
O O3 0.329200 0.495652 0.999016
O O4 0.358580 0.750000 0.000000
O O5 0.185388 0.250000 0.500000
O O6 0.207475 0.122863 0.750000
O O7 0.243081 0.034530 0.493619
O O8 0.163335 0.976712 0.540014
O O9 0.895423 0.097904 0.250000
O O10 0.885191 0.250000 0.000000
O O11 0.916775 0.988988 0.981512
O O12 0.530291 0.250000 0.500000
O O13 0.500000 0.500000 0.500000
O O14 0.531016 0.395796 0.250000
O O15 0.711717 0.901563 0.750000
O O16 0.703621 0.750000 0.000000
O O17 0.038684 0.250000 0.500000
O O18 0.035972 0.400918 0.750000
O O19 0.000000 0.500000 0.500000
#
# Coordination Sequence:
#
# PCOD8232733 Si02
#       6
#     8   8   8   8   8   8
#     4   9  20  36  54  77 106 140 178 221 270 326
#     4  10  21  37  58  83 112 147 187 231 280 332
#     4  11  24  41  61  88 120 155 195 238 286 338
#     4  10  20  36  55  78 107 140 180 224 274 329
#     4  10  20  35  55  80 109 142 182 226 273 327
#     4  12  25  43  66  92 123 158 197 240 288 340
#
# _framework density 19.240933999999999
#
# number of rings (size 3 to 8) (size 9 to 14) (size 15 to 20)
#    0.000    1.667    0.000    5.500    0.000    7.333 
#    0.000    5.000    0.000    0.000    0.000    0.000 
#    0.000    0.000    0.000    0.000    0.000    0.000 
#
# Total GULP energy -595191.248667 kJ/mol
# GULP energy per Si atom -12399.817681 kJ/mol
# Density = 1.919714 g / cm^3
# Si number density = 19.240934 Si / 1000 Ang^3
#
#
#
# Elastic Constant Matrix: (Units=GPa)
#
#
# Indices 1 2 3 4 5 6 
#
# 1 159.5052 90.4743 69.1936 0.0000 0.0000 0.0000
# 2 90.4743 121.9966 62.6951 0.0000 0.0000 0.0000
# 3 69.1936 62.6951 116.2892 0.0000 0.0000 0.0000
# 4 0.0000 0.0000 0.0000 35.2541 0.0000 0.0000
# 5 0.0000 0.0000 0.0000 0.0000 20.5478 0.0000
# 6 0.0000 0.0000 0.0000 0.0000 0.0000 41.2079
#
#
#
# Elastic Compliance Matrix: (Units=1/GPa)
#
#
# Indices 1 2 3 4 5 6 
#
# 1 0.011590 -0.006987 -0.003129 0.000000 0.000000 0.000000
# 2 -0.006987 0.015551 -0.004226 0.000000 0.000000 0.000000
# 3 -0.003129 -0.004226 0.012740 0.000000 0.000000 0.000000
# 4 0.000000 0.000000 0.000000 0.028365 0.000000 0.000000
# 5 0.000000 0.000000 0.000000 0.000000 0.048667 0.000000
# 6 0.000000 0.000000 0.000000 0.000000 0.000000 0.024267
#
#
# Mechanical properties :
#
#
# Convention : Reuss Voigt Hill
#
# Bulk Modulus (GPa) = 89.32636 93.61299 91.46968
# Shear Modulus (GPa) = 28.80219 31.09716 29.94967
#
# Velocity S-wave (km/s) = 3.87321 4.02456 3.94961
# Velocity P-wave (km/s) = 8.15649 8.38777 8.27294
#
# Compressibility (1/GPa) = 0.01119490
#
# Stress axis : x y z
#
# Youngs Moduli (GPa) = 86.28001 64.30539 78.49433
#
# Poissons Ratio (x) = 0.44932 0.24563
# Poissons Ratio (y) = 0.60286 0.33175
# Poissons Ratio (z) = 0.26999 0.27178
#
# Static dielectric constant tensor:
#      x y z
#    x 4.036140 0.000000 0.000000 
#    y 0.000000 3.560250 0.000000 
#    z 0.000000 0.000000 3.714040 
# 
# 
# High freq. dielectric constant tensor:
#      x y z
#    x 1.768800 0.000000 0.000000 
#    y 0.000000 1.747300 0.000000 
#    z 0.000000 0.000000 1.763760 
# 
# From -- ./inp_files/9890.got.cif
#   From: 2010.03.12/outbox.cif.g09.slc.cpg/sg57_5_cif.got.tgz:9890.got - 2010.04.16 15:48:40.
