data_PCOD8232989
_publ_section_title
;
Structure prediction by ZEFSAII (Michael W. Deem and Ramdas Pophale) SiO2 
 PCOD8232989
Probable space group: P B C M
;
_chemical_formula_sum "Si O2"
_cell_formula_units_Z 40
_cell_length_a 9.128966
_cell_length_b 25.832368
_cell_length_c 8.954247
_cell_angle_alpha 90.000000
_cell_angle_beta 90.000000
_cell_angle_gamma 90.000000
_cell_volume 2111.615682
_symmetry_space_group_name_H-M "P B C M"
_symmetry_group_IT_number 57
_symmetry_cell_setting 'orthorhombic'
loop_
_space_group_symop_operation_xyz
x,y,z
-x,-y,1/2+z
x,1/2-y,-z
-x,1/2+y,1/2-z
-x,-y,-z
x,y,1/2-z
-x,1/2+y,z
x,1/2-y,1/2+z
loop_
_atom_site_type_symbol
_atom_site_label
_atom_site_fract_x
_atom_site_fract_y
_atom_site_fract_z
Si Si1 0.337310 0.402782 0.426851
Si Si2 0.328592 0.905120 0.073335
Si Si3 0.158106 0.998045 0.927676
Si Si4 0.169675 0.302658 0.073456
Si Si5 0.164684 0.801802 0.424308
O O1 0.330614 0.400891 0.250000
O O2 0.504047 0.407150 0.481146
O O3 0.248003 0.452196 0.485840
O O4 0.264711 0.350340 0.490476
O O5 0.311216 0.915351 0.250000
O O6 0.264977 0.849567 0.026930
O O7 0.240842 0.947386 0.981701
O O8 0.143234 0.997698 0.750000
O O9 0.000000 0.000000 0.000000
O O10 0.185691 0.297482 0.250000
O O11 0.001948 0.312883 0.025177
O O12 0.229449 0.250000 0.000000
O O13 0.226871 0.750000 0.500000
O O14 0.173067 0.792418 0.250000
#
# Coordination Sequence:
#
# PCOD8232989 Si02
#       5
#     8   8   8   8   8
#     4   9  19  35  55  77 106 140 174 213 264 318
#     4  10  20  36  56  79 107 140 174 216 268 317
#     4  11  22  37  57  80 105 138 178 220 263 317
#     4   9  17  32  51  73 101 136 175 214 254 303
#     4   9  18  32  52  75 104 140 178 217 259 307
#
# _framework density 18.942841999999999
#
# number of rings (size 3 to 8) (size 9 to 14) (size 15 to 20)
#    0.000    2.400    0.000    2.400    0.000    4.800 
#    0.000    8.000    0.000    0.000    0.000    0.000 
#    0.000    0.000    0.000    0.000    0.000    0.000 
#
# Total GULP energy -496076.191949 kJ/mol
# GULP energy per Si atom -12401.904799 kJ/mol
# Density = 1.889973 g / cm^3
# Si number density = 18.942842 Si / 1000 Ang^3
#
#
#
# Elastic Constant Matrix: (Units=GPa)
#
#
# Indices 1 2 3 4 5 6 
#
# 1 156.2341 102.5033 39.4606 0.0000 0.0000 0.0000
# 2 102.5033 182.8631 48.9388 0.0000 0.0000 0.0000
# 3 39.4606 48.9388 38.9766 0.0000 0.0000 0.0000
# 4 0.0000 0.0000 0.0000 34.9030 0.0000 0.0000
# 5 0.0000 0.0000 0.0000 0.0000 23.8175 0.0000
# 6 0.0000 0.0000 0.0000 0.0000 0.0000 13.3693
#
#
#
# Elastic Compliance Matrix: (Units=1/GPa)
#
#
# Indices 1 2 3 4 5 6 
#
# 1 0.010731 -0.004681 -0.004988 0.000000 0.000000 0.000000
# 2 -0.004681 0.010278 -0.008166 0.000000 0.000000 0.000000
# 3 -0.004988 -0.008166 0.040959 0.000000 0.000000 0.000000
# 4 0.000000 0.000000 0.000000 0.028651 0.000000 0.000000
# 5 0.000000 0.000000 0.000000 0.000000 0.041986 0.000000
# 6 0.000000 0.000000 0.000000 0.000000 0.000000 0.074798
#
#
# Mechanical properties :
#
#
# Convention : Reuss Voigt Hill
#
# Bulk Modulus (GPa) = 38.02308 84.43101 61.22704
# Shear Modulus (GPa) = 19.85406 26.89603 23.37505
#
# Velocity S-wave (km/s) = 3.24095 3.77218 3.51661
# Velocity P-wave (km/s) = 5.84133 7.97751 6.99149
#
# Compressibility (1/GPa) = 0.02629982
#
# Stress axis : x y z
#
# Youngs Moduli (GPa) = 93.18578 97.29873 24.41460
#
# Poissons Ratio (x) = 0.45541 0.12177
# Poissons Ratio (y) = 0.43616 0.19937
# Poissons Ratio (z) = 0.46478 0.79453
#
# Static dielectric constant tensor:
#      x y z
#    x 3.877330 0.000000 0.000000 
#    y 0.000000 3.739620 0.000000 
#    z 0.000000 0.000000 3.242890 
# 
# 
# High freq. dielectric constant tensor:
#      x y z
#    x 1.742230 0.000000 0.000000 
#    y 0.000000 1.753340 0.000000 
#    z 0.000000 0.000000 1.709860 
# 
# From -- ./inp_files/1490.got.cif
#   From: 2010.03.12/outbox.cif.g09.slc.cpg/sg57_1_cif.got.tgz:1490.got - 2010.04.16 15:48:40.
