data_PCOD8232965
_publ_section_title
;
Structure prediction by ZEFSAII (Michael W. Deem and Ramdas Pophale) SiO2 
 PCOD8232965
Probable space group: P B C M
;
_chemical_formula_sum "Si O2"
_cell_formula_units_Z 48
_cell_length_a 29.216272
_cell_length_b 10.228054
_cell_length_c 8.663722
_cell_angle_alpha 90.000000
_cell_angle_beta 90.000000
_cell_angle_gamma 90.000000
_cell_volume 2588.941992
_symmetry_space_group_name_H-M "P B C M"
_symmetry_group_IT_number 57
_symmetry_cell_setting 'orthorhombic'
loop_
_space_group_symop_operation_xyz
x,y,z
-x,-y,1/2+z
x,1/2-y,-z
-x,1/2+y,1/2-z
-x,-y,-z
x,y,1/2-z
-x,1/2+y,z
x,1/2-y,1/2+z
loop_
_atom_site_type_symbol
_atom_site_label
_atom_site_fract_x
_atom_site_fract_y
_atom_site_fract_z
Si Si1 0.969623 0.886651 0.068856
Si Si2 0.300466 0.614607 0.931603
Si Si3 0.467188 0.109997 0.934081
Si Si4 0.631892 0.612499 0.065975
Si Si5 0.196657 0.886525 0.432349
Si Si6 0.864521 0.612953 0.931478
O O1 0.976387 0.881805 0.250000
O O2 0.917100 0.912317 0.022218
O O3 0.986959 0.750000 0.000000
O O4 0.000000 0.000000 0.000000
O O5 0.302383 0.627189 0.750000
O O6 0.332030 0.496187 0.988797
O O7 0.248691 0.588314 0.988455
O O8 0.319548 0.750000 0.000000
O O9 0.469121 0.113105 0.750000
O O10 0.483082 0.250000 0.000000
O O11 0.416390 0.076125 0.990684
O O12 0.500000 0.000000 0.000000
O O13 0.626680 0.620446 0.250000
O O14 0.649955 0.750000 0.000000
O O15 0.178453 0.750000 0.500000
O O16 0.192977 0.881724 0.250000
O O17 0.165327 0.000196 0.495524
O O18 0.857339 0.615348 0.750000
O O19 0.847352 0.750000 0.000000
#
# Coordination Sequence:
#
# PCOD8232965 Si02
#       6
#     8   8   8   8   8   8
#     4  10  21  37  57  80 108 140 178 220 267 318
#     4   9  20  36  55  79 108 140 178 220 265 315
#     4  11  22  38  58  82 110 143 181 223 269 319
#     4  10  20  36  55  79 109 141 178 221 266 317
#     4  10  20  36  56  80 109 143 181 223 267 317
#     4  10  21  37  56  80 108 141 178 221 268 318
#
# _framework density 18.540393000000002
#
# number of rings (size 3 to 8) (size 9 to 14) (size 15 to 20)
#    0.000    2.000    0.000    4.500    0.000    6.000 
#    0.000    3.333    0.000    0.000    0.000    0.000 
#    0.000    0.000    0.000    0.000    0.000    0.000 
#
# Total GULP energy -595357.467148 kJ/mol
# GULP energy per Si atom -12403.280566 kJ/mol
# Density = 1.849819 g / cm^3
# Si number density = 18.540393 Si / 1000 Ang^3
#
#
#
# Elastic Constant Matrix: (Units=GPa)
#
#
# Indices 1 2 3 4 5 6 
#
# 1 95.2469 107.8686 48.1000 0.0000 0.0000 0.0000
# 2 107.8686 200.0144 68.1038 0.0000 0.0000 0.0000
# 3 48.1000 68.1038 95.2509 0.0000 0.0000 0.0000
# 4 0.0000 0.0000 0.0000 40.4865 0.0000 0.0000
# 5 0.0000 0.0000 0.0000 0.0000 28.7290 0.0000
# 6 0.0000 0.0000 0.0000 0.0000 0.0000 44.5920
#
#
#
# Elastic Compliance Matrix: (Units=1/GPa)
#
#
# Indices 1 2 3 4 5 6 
#
# 1 0.028346 -0.013764 -0.004473 0.000000 0.000000 0.000000
# 2 -0.013764 0.013292 -0.002553 0.000000 0.000000 0.000000
# 3 -0.004473 -0.002553 0.014583 0.000000 0.000000 0.000000
# 4 0.000000 0.000000 0.000000 0.024700 0.000000 0.000000
# 5 0.000000 0.000000 0.000000 0.000000 0.034808 0.000000
# 6 0.000000 0.000000 0.000000 0.000000 0.000000 0.022426
#
#
# Mechanical properties :
#
#
# Convention : Reuss Voigt Hill
#
# Bulk Modulus (GPa) = 68.30380 93.18412 80.74396
# Shear Modulus (GPa) = 27.08356 33.85749 30.47053
#
# Velocity S-wave (km/s) = 3.82617 4.27798 4.05837
# Velocity P-wave (km/s) = 7.51265 8.64700 8.09971
#
# Compressibility (1/GPa) = 0.01464047
#
# Stress axis : x y z
#
# Youngs Moduli (GPa) = 35.27861 75.23368 68.57402
#
# Poissons Ratio (x) = 1.03551 0.30673
# Poissons Ratio (y) = 0.48557 0.17508
# Poissons Ratio (z) = 0.15780 0.19208
#
# Static dielectric constant tensor:
#      x y z
#    x 3.512400 0.000000 0.000000 
#    y 0.000000 3.603380 0.000000 
#    z 0.000000 0.000000 3.411750 
# 
# 
# High freq. dielectric constant tensor:
#      x y z
#    x 1.716360 0.000000 0.000000 
#    y 0.000000 1.731510 0.000000 
#    z 0.000000 0.000000 1.734900 
# 
# From -- ./inp_files/9903.got.cif
#   From: 2010.03.12/outbox.cif.g09.slc.cpg/sg57_5_cif.got.tgz:9903.got - 2010.04.16 15:48:40.
