data_PCOD8232518
_publ_section_title
;
Structure prediction by ZEFSAII (Michael W. Deem and Ramdas Pophale) SiO2 
 PCOD8232518
Probable space group: P B C M
;
_chemical_formula_sum "Si O2"
_cell_formula_units_Z 56
_cell_length_a 14.750044
_cell_length_b 22.373630
_cell_length_c 8.853859
_cell_angle_alpha 90.000000
_cell_angle_beta 90.000000
_cell_angle_gamma 90.000000
_cell_volume 2921.879955
_symmetry_space_group_name_H-M "P B C M"
_symmetry_group_IT_number 57
_symmetry_cell_setting 'orthorhombic'
loop_
_space_group_symop_operation_xyz
x,y,z
-x,-y,1/2+z
x,1/2-y,-z
-x,1/2+y,1/2-z
-x,-y,-z
x,y,1/2-z
-x,1/2+y,z
x,1/2-y,1/2+z
loop_
_atom_site_type_symbol
_atom_site_label
_atom_site_fract_x
_atom_site_fract_y
_atom_site_fract_z
Si Si1 0.925760 0.690113 0.429229
Si Si2 0.091946 0.980109 0.074170
Si Si3 0.607333 0.556459 0.927430
Si Si4 0.421664 0.578173 0.428092
Si Si5 0.114684 0.654516 0.570632
Si Si6 0.700019 0.189688 0.429653
Si Si7 0.213695 0.087433 0.426503
O O1 0.883018 0.750000 0.500000
O O2 0.937634 0.694415 0.250000
O O3 0.857585 0.637670 0.476387
O O4 0.022679 0.681357 0.506169
O O5 0.073468 0.983964 0.250000
O O6 0.120572 0.914544 0.022408
O O7 0.172559 0.023775 0.025469
O O8 0.000000 0.000000 0.000000
O O9 0.599505 0.561709 0.750000
O O10 0.616632 0.486835 0.978451
O O11 0.519429 0.587705 0.997828
O O12 0.692954 0.594585 0.983879
O O13 0.433971 0.581131 0.250000
O O14 0.355575 0.631180 0.484552
O O15 0.118340 0.663959 0.750000
O O16 0.198273 0.687129 0.492613
O O17 0.655389 0.250000 0.500000
O O18 0.701287 0.194272 0.250000
O O19 0.234914 0.091455 0.250000
#
# Coordination Sequence:
#
# PCOD8232518 Si02
#       7
#     8   8   8   8   8   8   8
#     4  11  23  39  57  76 107 149 193 235 276 326
#     4  10  20  34  54  82 113 146 184 229 280 331
#     4  10  20  35  61  91 114 142 182 229 280 339
#     4   9  20  39  60  85 116 148 180 225 285 339
#     4  11  22  36  57  84 114 149 189 232 281 337
#     4  11  23  39  59  83 115 153 193 235 281 337
#     4  10  21  37  56  81 114 149 182 226 281 331
#
# _framework density 19.165742999999999
#
# number of rings (size 3 to 8) (size 9 to 14) (size 15 to 20)
#    0.000    1.714    1.429    3.000    0.000    4.000 
#    0.000    0.714    0.000    0.000    0.000    0.000 
#    0.000    0.000    0.000    0.000    0.000    0.000 
#
# Total GULP energy -694549.344601 kJ/mol
# GULP energy per Si atom -12402.666868 kJ/mol
# Density = 1.912212 g / cm^3
# Si number density = 19.165743 Si / 1000 Ang^3
#
#
#
# Elastic Constant Matrix: (Units=GPa)
#
#
# Indices 1 2 3 4 5 6 
#
# 1 110.4497 37.1280 28.0171 0.0000 0.0000 0.0000
# 2 37.1280 106.0057 31.4818 0.0000 0.0000 0.0000
# 3 28.0171 31.4818 45.1935 0.0000 0.0000 0.0000
# 4 0.0000 0.0000 0.0000 30.5913 0.0000 0.0000
# 5 0.0000 0.0000 0.0000 0.0000 33.9589 0.0000
# 6 0.0000 0.0000 0.0000 0.0000 0.0000 29.3301
#
#
#
# Elastic Compliance Matrix: (Units=1/GPa)
#
#
# Indices 1 2 3 4 5 6 
#
# 1 0.011187 -0.002343 -0.005303 0.000000 0.000000 0.000000
# 2 -0.002343 0.012385 -0.007175 0.000000 0.000000 0.000000
# 3 -0.005303 -0.007175 0.030412 0.000000 0.000000 0.000000
# 4 0.000000 0.000000 0.000000 0.032689 0.000000 0.000000
# 5 0.000000 0.000000 0.000000 0.000000 0.029447 0.000000
# 6 0.000000 0.000000 0.000000 0.000000 0.000000 0.034095
#
#
# Mechanical properties :
#
#
# Convention : Reuss Voigt Hill
#
# Bulk Modulus (GPa) = 41.08025 50.54475 45.81250
# Shear Modulus (GPa) = 26.59993 29.77753 28.18873
#
# Velocity S-wave (km/s) = 3.72948 3.94596 3.83925
# Velocity P-wave (km/s) = 6.32662 6.86953 6.60366
#
# Compressibility (1/GPa) = 0.02434260
#
# Stress axis : x y z
#
# Youngs Moduli (GPa) = 89.39187 80.74331 32.88148
#
# Poissons Ratio (x) = 0.18920 0.17436
# Poissons Ratio (y) = 0.20947 0.23591
# Poissons Ratio (z) = 0.47402 0.57931
#
# Static dielectric constant tensor:
#      x y z
#    x 3.401210 0.000000 0.000000 
#    y 0.000000 3.833520 0.000000 
#    z 0.000000 0.000000 3.459240 
# 
# 
# High freq. dielectric constant tensor:
#      x y z
#    x 1.742120 0.000000 0.000000 
#    y 0.000000 1.751120 0.000000 
#    z 0.000000 0.000000 1.748140 
# 
# From -- ./inp_files/5282.got.cif
#   From: 2010.03.12/outbox.cif.g09.slc.cpg/sg57_3_cif.got.tgz:5282.got - 2010.04.16 15:48:40.
