data_PCOD8232018
_publ_section_title
;
Structure prediction by ZEFSAII (Michael W. Deem and Ramdas Pophale) SiO2 
 PCOD8232018
Probable space group: P B C M
;
_chemical_formula_sum "Si O2"
_cell_formula_units_Z 64
_cell_length_a 21.951864
_cell_length_b 9.773212
_cell_length_c 15.227572
_cell_angle_alpha 90.000000
_cell_angle_beta 90.000000
_cell_angle_gamma 90.000000
_cell_volume 3266.926657
_symmetry_space_group_name_H-M "P B C M"
_symmetry_group_IT_number 57
_symmetry_cell_setting 'orthorhombic'
loop_
_space_group_symop_operation_xyz
x,y,z
-x,-y,1/2+z
x,1/2-y,-z
-x,1/2+y,1/2-z
-x,-y,-z
x,y,1/2-z
-x,1/2+y,z
x,1/2-y,1/2+z
loop_
_atom_site_type_symbol
_atom_site_label
_atom_site_fract_x
_atom_site_fract_y
_atom_site_fract_z
Si Si1 0.773043 0.374478 0.435034
Si Si2 0.238458 0.383742 0.445744
Si Si3 0.875570 0.547879 0.648954
Si Si4 0.112024 0.743510 0.648139
Si Si5 0.347880 0.956546 0.648453
Si Si6 0.652493 0.363675 0.151131
Si Si7 0.559503 0.409145 0.000312
Si Si8 0.007544 0.130648 0.559917
O O1 0.755454 0.250000 0.500000
O O2 0.791145 0.506122 0.489889
O O3 0.826900 0.340996 0.368365
O O4 0.715745 0.428835 0.378545
O O5 0.259960 0.250000 0.500000
O O6 0.179575 0.355211 0.384805
O O7 0.294263 0.447321 0.389428
O O8 0.862440 0.529191 0.750000
O O9 0.877094 0.394461 0.607278
O O10 0.941744 0.613437 0.634905
O O11 0.096495 0.749267 0.750000
O O12 0.056813 0.668901 0.600954
O O13 0.362000 0.999652 0.750000
O O14 0.331551 0.797040 0.644194
O O15 0.406589 0.967426 0.585952
O O16 0.634108 0.405524 0.250000
O O17 0.600356 0.424548 0.087848
O O18 0.540757 0.250000 0.000000
O O19 0.500000 0.500000 0.000000
O O20 0.033662 0.250000 0.500000
O O21 0.000000 0.000000 0.500000
#
# Coordination Sequence:
#
# PCOD8232018 Si02
#       8
#     8   8   8   8   8   8   8   8
#     4  12  19  38  65  90 120 159 211 254 312 380
#     4  12  24  39  62  93 129 161 203 261 327 382
#     4  11  23  41  62  88 120 159 205 258 318 388
#     4  11  23  39  62  91 117 156 210 262 310 380
#     4  10  20  39  66  92 123 170 217 255 306 379
#     4  10  19  36  64  97 125 161 216 265 304 364
#     4  10  21  39  63  93 128 169 213 259 308 363
#     4  12  23  41  60  86 118 156 207 255 319 385
#
# _framework density 19.590278000000001
#
# number of rings (size 3 to 8) (size 9 to 14) (size 15 to 20)
#    0.000    1.000    5.000    3.000    0.000    3.000 
#    0.000    3.750    0.000    0.000    0.000    0.000 
#    0.000    0.000    0.000    0.000    0.000    0.000 
#
# Total GULP energy -793244.204868 kJ/mol
# GULP energy per Si atom -12394.440701 kJ/mol
# Density = 1.954569 g / cm^3
# Si number density = 19.590278 Si / 1000 Ang^3
#
#
#
# Elastic Constant Matrix: (Units=GPa)
#
#
# Indices 1 2 3 4 5 6 
#
# 1 148.4910 39.3228 60.1546 0.0000 0.0000 0.0000
# 2 39.3228 78.5982 43.6287 0.0000 0.0000 0.0000
# 3 60.1546 43.6287 119.4434 0.0000 0.0000 0.0000
# 4 0.0000 0.0000 0.0000 21.8446 0.0000 0.0000
# 5 0.0000 0.0000 0.0000 0.0000 23.2770 0.0000
# 6 0.0000 0.0000 0.0000 0.0000 0.0000 35.7273
#
#
#
# Elastic Compliance Matrix: (Units=1/GPa)
#
#
# Indices 1 2 3 4 5 6 
#
# 1 0.008819 -0.002442 -0.003550 0.000000 0.000000 0.000000
# 2 -0.002442 0.016635 -0.004846 0.000000 0.000000 0.000000
# 3 -0.003550 -0.004846 0.011930 0.000000 0.000000 0.000000
# 4 0.000000 0.000000 0.000000 0.045778 0.000000 0.000000
# 5 0.000000 0.000000 0.000000 0.000000 0.042961 0.000000
# 6 0.000000 0.000000 0.000000 0.000000 0.000000 0.027990
#
#
# Mechanical properties :
#
#
# Convention : Reuss Voigt Hill
#
# Bulk Modulus (GPa) = 63.66070 70.30498 66.98284
# Shear Modulus (GPa) = 27.62065 29.73153 28.67609
#
# Velocity S-wave (km/s) = 3.75896 3.89995 3.83010
# Velocity P-wave (km/s) = 7.16982 7.49967 7.33660
#
# Compressibility (1/GPa) = 0.01570828
#
# Stress axis : x y z
#
# Youngs Moduli (GPa) = 113.39155 60.11515 83.82224
#
# Poissons Ratio (x) = 0.14679 0.29753
# Poissons Ratio (y) = 0.27689 0.40623
# Poissons Ratio (z) = 0.40249 0.29134
#
# Static dielectric constant tensor:
#      x y z
#    x 3.502240 0.000000 0.000000 
#    y 0.000000 3.524760 0.000000 
#    z 0.000000 0.000000 3.906000 
# 
# 
# High freq. dielectric constant tensor:
#      x y z
#    x 1.765890 0.000000 0.000000 
#    y 0.000000 1.742330 0.000000 
#    z 0.000000 0.000000 1.774870 
# 
# From -- ./inp_files/19525.got.cif
#   From: 2010.03.12/outbox.cif.g09.slc.cpg/sg57_10_cif.got.tgz:19525.got - 2010.04.16 15:48:40.
