data_PCOD8232766
_publ_section_title
;
Structure prediction by ZEFSAII (Michael W. Deem and Ramdas Pophale) SiO2 
 PCOD8232766
Probable space group: P B C M
;
_chemical_formula_sum "Si O2"
_cell_formula_units_Z 64
_cell_length_a 16.426933
_cell_length_b 21.705632
_cell_length_c 9.174687
_cell_angle_alpha 90.000000
_cell_angle_beta 90.000000
_cell_angle_gamma 90.000000
_cell_volume 3271.298529
_symmetry_space_group_name_H-M "P B C M"
_symmetry_group_IT_number 57
_symmetry_cell_setting 'orthorhombic'
loop_
_space_group_symop_operation_xyz
x,y,z
-x,-y,1/2+z
x,1/2-y,-z
-x,1/2+y,1/2-z
-x,-y,-z
x,y,1/2-z
-x,1/2+y,z
x,1/2-y,1/2+z
loop_
_atom_site_type_symbol
_atom_site_label
_atom_site_fract_x
_atom_site_fract_y
_atom_site_fract_z
Si Si1 0.059057 0.813333 0.419875
Si Si2 0.693952 0.693861 0.914815
Si Si3 0.376385 0.608105 0.080608
Si Si4 0.217897 0.432347 0.415969
Si Si5 0.445341 0.360922 0.585640
Si Si6 0.359518 0.488312 0.918080
Si Si7 0.248314 0.688023 0.579619
Si Si8 0.970149 0.561542 0.578963
O O1 0.030861 0.750000 0.500000
O O2 0.040935 0.802847 0.250000
O O3 0.153946 0.826085 0.450190
O O4 0.012537 0.874821 0.477307
O O5 0.682778 0.713551 0.750000
O O6 0.753652 0.637288 0.935937
O O7 0.735736 0.750000 0.000000
O O8 0.603336 0.682501 0.976362
O O9 0.352191 0.604223 0.250000
O O10 0.458386 0.648003 0.058769
O O11 0.397260 0.541205 0.017973
O O12 0.300954 0.633579 0.988756
O O13 0.232652 0.454801 0.250000
O O14 0.267819 0.475085 0.526233
O O15 0.124301 0.433820 0.458843
O O16 0.422155 0.342173 0.750000
O O17 0.419136 0.431182 0.557911
O O18 0.354383 0.508745 0.750000
O O19 0.275896 0.750000 0.500000
O O20 0.267272 0.694368 0.750000
O O21 0.987389 0.554152 0.750000
O O22 0.000000 0.500000 0.500000
#
# Coordination Sequence:
#
# PCOD8232766 Si02
#       8
#     8   8   8   8   8   8   8   8
#     4   9  20  39  61  84 114 150 192 237 284 343
#     4  10  20  35  57  81 110 147 186 230 280 332
#     4  11  22  35  55  81 109 144 184 228 279 334
#     4   9  20  38  56  80 113 148 184 227 277 334
#     4   9  20  37  54  77 109 144 185 230 277 332
#     4  10  20  35  56  80 109 144 184 228 275 331
#     4  10  21  38  57  80 109 143 185 232 278 330
#     4  10  22  39  59  88 122 153 190 239 290 346
#
# _framework density 19.564095999999999
#
# number of rings (size 3 to 8) (size 9 to 14) (size 15 to 20)
#    0.000    2.250    0.000    1.875    1.750    4.500 
#    0.000    0.000    0.000    0.000    0.000    0.000 
#    0.000    0.000    0.000    0.000    0.000    0.000 
#
# Total GULP energy -793614.321188 kJ/mol
# GULP energy per Si atom -12400.223769 kJ/mol
# Density = 1.951957 g / cm^3
# Si number density = 19.564096 Si / 1000 Ang^3
#
#
#
# Elastic Constant Matrix: (Units=GPa)
#
#
# Indices 1 2 3 4 5 6 
#
# 1 86.2029 29.7387 36.4416 0.0000 0.0000 0.0000
# 2 29.7387 86.2585 42.6704 0.0000 0.0000 0.0000
# 3 36.4416 42.6704 96.7001 0.0000 0.0000 0.0000
# 4 0.0000 0.0000 0.0000 40.8167 0.0000 0.0000
# 5 0.0000 0.0000 0.0000 0.0000 26.8284 0.0000
# 6 0.0000 0.0000 0.0000 0.0000 0.0000 17.9019
#
#
#
# Elastic Compliance Matrix: (Units=1/GPa)
#
#
# Indices 1 2 3 4 5 6 
#
# 1 0.014347 -0.002906 -0.004124 0.000000 0.000000 0.000000
# 2 -0.002906 0.015419 -0.005709 0.000000 0.000000 0.000000
# 3 -0.004124 -0.005709 0.014415 0.000000 0.000000 0.000000
# 4 0.000000 0.000000 0.000000 0.024500 0.000000 0.000000
# 5 0.000000 0.000000 0.000000 0.000000 0.037274 0.000000
# 6 0.000000 0.000000 0.000000 0.000000 0.000000 0.055860
#
#
# Mechanical properties :
#
#
# Convention : Reuss Voigt Hill
#
# Bulk Modulus (GPa) = 53.46971 54.09588 53.78279
# Shear Modulus (GPa) = 25.83640 27.79679 26.81659
#
# Velocity S-wave (km/s) = 3.63795 3.77345 3.70632
# Velocity P-wave (km/s) = 6.71090 6.83343 6.77244
#
# Compressibility (1/GPa) = 0.01870218
#
# Stress axis : x y z
#
# Youngs Moduli (GPa) = 69.70328 64.85531 69.37443
#
# Poissons Ratio (x) = 0.18847 0.28611
# Poissons Ratio (y) = 0.20256 0.39604
# Poissons Ratio (z) = 0.28747 0.37024
#
# Static dielectric constant tensor:
#      x y z
#    x 3.491660 0.000000 0.000000 
#    y 0.000000 3.580820 0.000000 
#    z 0.000000 0.000000 3.628220 
# 
# 
# High freq. dielectric constant tensor:
#      x y z
#    x 1.759720 0.000000 0.000000 
#    y 0.000000 1.763920 0.000000 
#    z 0.000000 0.000000 1.765640 
# 
# From -- ./inp_files/5711.got.cif
#   From: 2010.03.12/outbox.cif.g09.slc.cpg/sg57_3_cif.got.tgz:5711.got - 2010.04.16 15:48:40.
