data_PCOD8232955
_publ_section_title
;
Structure prediction by ZEFSAII (Michael W. Deem and Ramdas Pophale) SiO2 
 PCOD8232955
Probable space group: P B C M
;
_chemical_formula_sum "Si O2"
_cell_formula_units_Z 48
_cell_length_a 9.684923
_cell_length_b 30.950365
_cell_length_c 8.940180
_cell_angle_alpha 90.000000
_cell_angle_beta 90.000000
_cell_angle_gamma 90.000000
_cell_volume 2679.835958
_symmetry_space_group_name_H-M "P B C M"
_symmetry_group_IT_number 57
_symmetry_cell_setting 'orthorhombic'
loop_
_space_group_symop_operation_xyz
x,y,z
-x,-y,1/2+z
x,1/2-y,-z
-x,1/2+y,1/2-z
-x,-y,-z
x,y,1/2-z
-x,1/2+y,z
x,1/2-y,1/2+z
loop_
_atom_site_type_symbol
_atom_site_label
_atom_site_fract_x
_atom_site_fract_y
_atom_site_fract_z
Si Si1 0.816464 0.794690 0.926883
Si Si2 0.632385 0.632351 0.927597
Si Si3 0.345919 0.454958 0.915798
Si Si4 0.672729 0.463019 0.914983
Si Si5 0.865872 0.206362 0.424337
Si Si6 0.661311 0.131773 0.427565
O O1 0.790107 0.793188 0.750000
O O2 0.976221 0.802973 0.967176
O O3 0.765945 0.750000 0.000000
O O4 0.732692 0.832891 0.001039
O O5 0.635298 0.635476 0.750000
O O6 0.687231 0.585310 0.977280
O O7 0.479127 0.641906 0.985980
O O8 0.286813 0.445705 0.750000
O O9 0.508035 0.462655 0.908196
O O10 0.273619 0.498621 0.978107
O O11 0.733118 0.471950 0.750000
O O12 0.720285 0.415672 0.972595
O O13 0.810863 0.250000 0.500000
O O14 0.847488 0.213152 0.250000
O O15 0.774336 0.166306 0.480391
O O16 0.630899 0.133100 0.250000
#
# Coordination Sequence:
#
# PCOD8232955 Si02
#       6
#     8   8   8   8   8   8
#     4  10  20  36  55  74  97 128 165 203 245 294
#     4  11  21  32  49  75 103 132 166 204 245 288
#     4   9  16  27  44  67  97 130 162 200 244 289
#     4   8  14  25  43  67  96 128 160 196 241 292
#     4   9  19  35  55  75  97 128 164 201 244 295
#     4   9  18  33  51  74 103 132 163 203 249 293
#
# _framework density 17.911545
#
# number of rings (size 3 to 8) (size 9 to 14) (size 15 to 20)
#    0.000    2.667    0.000    3.500    0.000    6.000 
#    0.000    1.667    0.000    1.000    0.000    0.000 
#    0.000    0.000    0.000    0.000    0.000    0.000 
#
# Total GULP energy -595078.050961 kJ/mol
# GULP energy per Si atom -12397.459395 kJ/mol
# Density = 1.787078 g / cm^3
# Si number density = 17.911545 Si / 1000 Ang^3
#
#
#
# Elastic Constant Matrix: (Units=GPa)
#
#
# Indices 1 2 3 4 5 6 
#
# 1 48.8236 62.9027 37.1048 0.0000 0.0000 0.0000
# 2 62.9027 168.8357 66.0211 0.0000 0.0000 0.0000
# 3 37.1048 66.0211 98.6089 0.0000 0.0000 0.0000
# 4 0.0000 0.0000 0.0000 36.0764 0.0000 0.0000
# 5 0.0000 0.0000 0.0000 0.0000 14.8243 0.0000
# 6 0.0000 0.0000 0.0000 0.0000 0.0000 -11.5451
#
#
#
# Elastic Compliance Matrix: (Units=1/GPa)
#
#
# Indices 1 2 3 4 5 6 
#
# 1 0.043031 -0.013141 -0.007394 0.000000 0.000000 0.000000
# 2 -0.013141 0.012036 -0.003114 0.000000 0.000000 0.000000
# 3 -0.007394 -0.003114 0.015008 0.000000 0.000000 0.000000
# 4 0.000000 0.000000 0.000000 0.027719 0.000000 0.000000
# 5 0.000000 0.000000 0.000000 0.000000 0.067457 0.000000
# 6 0.000000 0.000000 0.000000 0.000000 0.000000 -0.086617
#
#
# Mechanical properties :
#
#
# Convention : Reuss Voigt Hill
#
# Bulk Modulus (GPa) = 43.90108 72.03617 57.96863
# Shear Modulus (GPa) = 37.44625 17.88709 27.66667
#
# Velocity S-wave (km/s) = 4.57729 3.16355 3.93444
# Velocity P-wave (km/s) = 7.24559 7.32455 7.28518
#
# Compressibility (1/GPa) = 0.02277848
#
# Stress axis : x y z
#
# Youngs Moduli (GPa) = 23.23906 83.08108 66.63034
#
# Poissons Ratio (x) = 1.09174 0.49265
# Poissons Ratio (y) = 0.30538 0.20749
# Poissons Ratio (z) = 0.17182 0.25872
#
# Static dielectric constant tensor:
#      x y z
#    x 2.992920 0.000000 0.000000 
#    y 0.000000 3.738720 0.000000 
#    z 0.000000 0.000000 3.464760 
# 
# 
# High freq. dielectric constant tensor:
#      x y z
#    x 1.645520 0.000000 0.000000 
#    y 0.000000 1.711760 0.000000 
#    z 0.000000 0.000000 1.698080 
# 
# From -- ./inp_files/2114.got.cif
#   From: 2010.03.12/outbox.cif.g09.slc.cpg/sg57_2_cif.got.tgz:2114.got - 2010.04.16 15:48:40.
