data_PCOD8232702
_publ_section_title
;
Structure prediction by ZEFSAII (Michael W. Deem and Ramdas Pophale) SiO2 
 PCOD8232702
Probable space group: P B C M
;
_chemical_formula_sum "Si O2"
_cell_formula_units_Z 56
_cell_length_a 21.314069
_cell_length_b 15.037044
_cell_length_c 8.905545
_cell_angle_alpha 90.000000
_cell_angle_beta 90.000000
_cell_angle_gamma 90.000000
_cell_volume 2854.232457
_symmetry_space_group_name_H-M "P B C M"
_symmetry_group_IT_number 57
_symmetry_cell_setting 'orthorhombic'
loop_
_space_group_symop_operation_xyz
x,y,z
-x,-y,1/2+z
x,1/2-y,-z
-x,1/2+y,1/2-z
-x,-y,-z
x,y,1/2-z
-x,1/2+y,z
x,1/2-y,1/2+z
loop_
_atom_site_type_symbol
_atom_site_label
_atom_site_fract_x
_atom_site_fract_y
_atom_site_fract_z
Si Si1 0.352941 0.844420 0.925585
Si Si2 0.278597 0.016047 0.925985
Si Si3 0.491972 0.845743 0.573405
Si Si4 0.945416 0.658956 0.073925
Si Si5 0.149167 0.007562 0.427443
Si Si6 0.613028 0.653969 0.573483
Si Si7 0.088190 0.658035 0.427174
O O1 0.348568 0.827071 0.750000
O O2 0.304071 0.919361 0.977804
O O3 0.422655 0.882786 0.964768
O O4 0.337273 0.750000 0.000000
O O5 0.262381 0.015252 0.750000
O O6 0.328566 0.091616 0.964874
O O7 0.217579 0.039531 0.022420
O O8 0.495881 0.750000 0.500000
O O9 0.504027 0.841631 0.750000
O O10 0.550671 0.895955 0.494481
O O11 0.939977 0.672252 0.250000
O O12 0.901053 0.580180 0.016612
O O13 0.016582 0.636129 0.025618
O O14 0.922115 0.750000 0.000000
O O15 0.146061 0.994261 0.250000
O O16 0.134156 0.915905 0.509140
O O17 0.625680 0.750000 0.500000
O O18 0.603632 0.665435 0.750000
O O19 0.109964 0.750000 0.500000
O O20 0.096178 0.664449 0.250000
#
# Coordination Sequence:
#
# PCOD8232702 Si02
#       7
#     8   8   8   8   8   8   8
#     4   9  19  36  56  78 105 136 174 220 269 322
#     4  10  23  40  54  74 107 148 187 220 265 323
#     4   9  16  29  52  79 104 131 168 218 273 324
#     4   9  20  37  59  87 115 143 180 225 272 323
#     4  11  23  38  56  82 114 147 185 227 270 321
#     4  10  20  35  55  77 105 140 178 223 272 323
#     4  10  20  37  61  87 114 145 180 222 272 323
#
# _framework density 19.619985
#
# number of rings (size 3 to 8) (size 9 to 14) (size 15 to 20)
#    0.000    2.286    0.000    3.000    0.000    5.714 
#    0.000    4.286    0.000    0.000    0.000    0.000 
#    0.000    0.000    0.000    0.000    0.000    0.000 
#
# Total GULP energy -694298.245153 kJ/mol
# GULP energy per Si atom -12398.182949 kJ/mol
# Density = 1.957533 g / cm^3
# Si number density = 19.619985 Si / 1000 Ang^3
#
#
#
# Elastic Constant Matrix: (Units=GPa)
#
#
# Indices 1 2 3 4 5 6 
#
# 1 68.3743 15.0725 22.0900 0.0000 0.0000 0.0000
# 2 15.0725 64.8467 21.3847 0.0000 0.0000 0.0000
# 3 22.0900 21.3847 63.3054 0.0000 0.0000 0.0000
# 4 0.0000 0.0000 0.0000 28.6304 0.0000 0.0000
# 5 0.0000 0.0000 0.0000 0.0000 32.6468 0.0000
# 6 0.0000 0.0000 0.0000 0.0000 0.0000 21.2045
#
#
#
# Elastic Compliance Matrix: (Units=1/GPa)
#
#
# Indices 1 2 3 4 5 6 
#
# 1 0.016761 -0.002214 -0.005101 0.000000 0.000000 0.000000
# 2 -0.002214 0.017647 -0.005189 0.000000 0.000000 0.000000
# 3 -0.005101 -0.005189 0.019329 0.000000 0.000000 0.000000
# 4 0.000000 0.000000 0.000000 0.034928 0.000000 0.000000
# 5 0.000000 0.000000 0.000000 0.000000 0.030631 0.000000
# 6 0.000000 0.000000 0.000000 0.000000 0.000000 0.047160
#
#
# Mechanical properties :
#
#
# Convention : Reuss Voigt Hill
#
# Bulk Modulus (GPa) = 34.80623 34.84676 34.82650
# Shear Modulus (GPa) = 24.87078 25.69493 25.28285
#
# Velocity S-wave (km/s) = 3.56423 3.62281 3.59364
# Velocity P-wave (km/s) = 5.89212 5.94130 5.91676
#
# Compressibility (1/GPa) = 0.02873048
#
# Stress axis : x y z
#
# Youngs Moduli (GPa) = 59.66102 56.66815 51.73545
#
# Poissons Ratio (x) = 0.12545 0.26390
# Poissons Ratio (y) = 0.13207 0.26843
# Poissons Ratio (z) = 0.30433 0.29403
#
# Static dielectric constant tensor:
#      x y z
#    x 3.997540 0.000000 0.000000 
#    y 0.000000 3.510180 0.000000 
#    z 0.000000 0.000000 3.543010 
# 
# 
# High freq. dielectric constant tensor:
#      x y z
#    x 1.771130 0.000000 0.000000 
#    y 0.000000 1.757660 0.000000 
#    z 0.000000 0.000000 1.766150 
# 
# From -- ./inp_files/8084.got.cif
#   From: 2010.03.12/outbox.cif.g09.slc.cpg/sg57_5_cif.got.tgz:8084.got - 2010.04.16 15:48:40.
