data_PCOD8232748
_publ_section_title
;
Structure prediction by ZEFSAII (Michael W. Deem and Ramdas Pophale) SiO2 
 PCOD8232748
Probable space group: P B C M
;
_chemical_formula_sum "Si O2"
_cell_formula_units_Z 64
_cell_length_a 20.977329
_cell_length_b 17.546440
_cell_length_c 9.124553
_cell_angle_alpha 90.000000
_cell_angle_beta 90.000000
_cell_angle_gamma 90.000000
_cell_volume 3358.542152
_symmetry_space_group_name_H-M "P B C M"
_symmetry_group_IT_number 57
_symmetry_cell_setting 'orthorhombic'
loop_
_space_group_symop_operation_xyz
x,y,z
-x,-y,1/2+z
x,1/2-y,-z
-x,1/2+y,1/2-z
-x,-y,-z
x,y,1/2-z
-x,1/2+y,z
x,1/2-y,1/2+z
loop_
_atom_site_type_symbol
_atom_site_label
_atom_site_fract_x
_atom_site_fract_y
_atom_site_fract_z
Si Si1 0.162149 0.322536 0.088380
Si Si2 0.323405 0.561169 0.583750
Si Si3 0.433620 0.019180 0.926438
Si Si4 0.744495 0.597437 0.409094
Si Si5 0.908073 0.063471 0.922233
Si Si6 0.613738 0.671276 0.078941
Si Si7 0.049287 0.080477 0.915254
Si Si8 0.209015 0.668252 0.575812
O O1 0.184478 0.305143 0.250000
O O2 0.087004 0.339910 0.076576
O O3 0.182628 0.250000 0.000000
O O4 0.202152 0.394397 0.031950
O O5 0.348708 0.574544 0.750000
O O6 0.383209 0.546775 0.475856
O O7 0.279995 0.487410 0.578372
O O8 0.277532 0.630772 0.533296
O O9 0.437242 0.020463 0.750000
O O10 0.500000 0.000000 0.000000
O O11 0.416900 0.102174 0.988463
O O12 0.776328 0.608970 0.250000
O O13 0.689358 0.660155 0.429831
O O14 0.899078 0.055134 0.750000
O O15 0.850072 0.115723 0.982430
O O16 0.977264 0.098745 0.967135
O O17 0.910264 0.978938 0.988458
O O18 0.591029 0.670631 0.250000
O O19 0.594008 0.750000 0.000000
O O20 0.048097 0.047924 0.750000
O O21 0.204073 0.750000 0.500000
O O22 0.203955 0.678520 0.750000
#
# Coordination Sequence:
#
# PCOD8232748 Si02
#       8
#     8   8   8   8   8   8   8   8
#     4  11  22  32  44  67 101 136 170 210 256 308
#     4   9  19  37  58  81 108 139 177 220 266 319
#     4  11  22  38  61  87 115 149 186 224 268 321
#     4   9  18  33  54  76 101 136 176 216 260 313
#     4   9  18  35  56  75  98 132 174 221 275 329
#     4  10  20  35  55  82 114 146 182 224 269 318
#     4   9  19  34  51  73  99 130 174 225 272 324
#     4  10  21  36  56  81 110 143 181 229 282 334
#
# _framework density 19.055887999999999
#
# number of rings (size 3 to 8) (size 9 to 14) (size 15 to 20)
#    0.000    2.250    0.000    3.750    0.000    7.000 
#    0.000    0.625    0.000    1.500    0.000    0.000 
#    0.000    0.000    0.000    0.000    0.000    0.000 
#
# Total GULP energy -793106.291763 kJ/mol
# GULP energy per Si atom -12392.285809 kJ/mol
# Density = 1.901252 g / cm^3
# Si number density = 19.055888 Si / 1000 Ang^3
#
#
#
# Elastic Constant Matrix: (Units=GPa)
#
#
# Indices 1 2 3 4 5 6 
#
# 1 108.2976 50.0355 56.3446 0.0000 0.0000 0.0000
# 2 50.0355 77.7121 40.3132 0.0000 0.0000 0.0000
# 3 56.3446 40.3132 111.3820 0.0000 0.0000 0.0000
# 4 0.0000 0.0000 0.0000 30.4145 0.0000 0.0000
# 5 0.0000 0.0000 0.0000 0.0000 27.6975 0.0000
# 6 0.0000 0.0000 0.0000 0.0000 0.0000 21.3634
#
#
#
# Elastic Compliance Matrix: (Units=1/GPa)
#
#
# Indices 1 2 3 4 5 6 
#
# 1 0.015180 -0.007129 -0.005099 0.000000 0.000000 0.000000
# 2 -0.007129 0.019190 -0.003339 0.000000 0.000000 0.000000
# 3 -0.005099 -0.003339 0.012766 0.000000 0.000000 0.000000
# 4 0.000000 0.000000 0.000000 0.032879 0.000000 0.000000
# 5 0.000000 0.000000 0.000000 0.000000 0.036104 0.000000
# 6 0.000000 0.000000 0.000000 0.000000 0.000000 0.046809
#
#
# Mechanical properties :
#
#
# Convention : Reuss Voigt Hill
#
# Bulk Modulus (GPa) = 62.49132 65.64205 64.06668
# Shear Modulus (GPa) = 25.07548 25.94166 25.50857
#
# Velocity S-wave (km/s) = 3.63146 3.69365 3.66268
# Velocity P-wave (km/s) = 7.10269 7.26034 7.18195
#
# Compressibility (1/GPa) = 0.01600222
#
# Stress axis : x y z
#
# Youngs Moduli (GPa) = 65.87441 52.10968 78.33163
#
# Poissons Ratio (x) = 0.37148 0.39942
# Poissons Ratio (y) = 0.46961 0.26158
# Poissons Ratio (z) = 0.33590 0.17402
#
# Static dielectric constant tensor:
#      x y z
#    x 3.627290 0.000000 0.000000 
#    y 0.000000 3.375520 0.000000 
#    z 0.000000 0.000000 3.605980 
# 
# 
# High freq. dielectric constant tensor:
#      x y z
#    x 1.741210 0.000000 0.000000 
#    y 0.000000 1.727770 0.000000 
#    z 0.000000 0.000000 1.741610 
# 
# From -- ./inp_files/9335.got.cif
#   From: 2010.03.12/outbox.cif.g09.slc.cpg/sg57_5_cif.got.tgz:9335.got - 2010.04.16 15:48:40.
