data_PCOD8232427
_publ_section_title
;
Structure prediction by ZEFSAII (Michael W. Deem and Ramdas Pophale) SiO2 
 PCOD8232427
Probable space group: P B C M
;
_chemical_formula_sum "Si O2"
_cell_formula_units_Z 40
_cell_length_a 11.370934
_cell_length_b 21.203751
_cell_length_c 9.003205
_cell_angle_alpha 90.000000
_cell_angle_beta 90.000000
_cell_angle_gamma 90.000000
_cell_volume 2170.730825
_symmetry_space_group_name_H-M "P B C M"
_symmetry_group_IT_number 57
_symmetry_cell_setting 'orthorhombic'
loop_
_space_group_symop_operation_xyz
x,y,z
-x,-y,1/2+z
x,1/2-y,-z
-x,1/2+y,1/2-z
-x,-y,-z
x,y,1/2-z
-x,1/2+y,z
x,1/2-y,1/2+z
loop_
_atom_site_type_symbol
_atom_site_label
_atom_site_fract_x
_atom_site_fract_y
_atom_site_fract_z
Si Si1 0.507847 0.185779 0.924717
Si Si2 0.167820 0.455882 0.583366
Si Si3 0.225141 0.687493 0.925486
Si Si4 0.412123 0.050240 0.926662
Si Si5 0.040844 0.911575 0.416359
O O1 0.497844 0.196050 0.750000
O O2 0.641719 0.174464 0.977399
O O3 0.439722 0.122506 0.974705
O O4 0.457105 0.250000 0.000000
O O5 0.204629 0.435424 0.750000
O O6 0.281602 0.464705 0.481663
O O7 0.095128 0.519622 0.586451
O O8 0.078185 0.404968 0.512891
O O9 0.219855 0.693476 0.750000
O O10 0.141522 0.632470 0.985653
O O11 0.175287 0.750000 0.000000
O O12 0.421487 0.042487 0.750000
O O13 0.500000 0.000000 0.000000
O O14 0.007345 0.890212 0.250000
#
# Coordination Sequence:
#
# PCOD8232427 Si02
#       5
#     8   8   8   8   8
#     4   9  19  35  54  77 106 139 174 215 262 312
#     4  10  20  34  53  77 103 132 170 213 258 308
#     4   9  17  31  51  74 100 129 164 206 251 299
#     4  11  22  36  55  80 109 140 177 219 264 314
#     4   9  18  34  53  73 102 135 165 205 257 308
#
# _framework density 18.426973
#
# number of rings (size 3 to 8) (size 9 to 14) (size 15 to 20)
#    0.000    2.400    0.000    2.400    0.000    6.400 
#    0.000    5.000    0.000    0.000    0.000    0.000 
#    0.000    0.000    0.000    0.000    0.000    0.000 
#
# Total GULP energy -495865.494653 kJ/mol
# GULP energy per Si atom -12396.637366 kJ/mol
# Density = 1.838503 g / cm^3
# Si number density = 18.426973 Si / 1000 Ang^3
#
#
#
# Elastic Constant Matrix: (Units=GPa)
#
#
# Indices 1 2 3 4 5 6 
#
# 1 79.0021 12.1610 33.3646 0.0000 0.0000 0.0000
# 2 12.1610 55.1030 30.4137 0.0000 0.0000 0.0000
# 3 33.3646 30.4137 66.5195 0.0000 0.0000 0.0000
# 4 0.0000 0.0000 0.0000 30.6543 0.0000 0.0000
# 5 0.0000 0.0000 0.0000 0.0000 14.5670 0.0000
# 6 0.0000 0.0000 0.0000 0.0000 0.0000 -8.7545
#
#
#
# Elastic Compliance Matrix: (Units=1/GPa)
#
#
# Indices 1 2 3 4 5 6 
#
# 1 0.016120 0.001211 -0.008639 0.000000 0.000000 0.000000
# 2 0.001211 0.024364 -0.011747 0.000000 0.000000 0.000000
# 3 -0.008639 -0.011747 0.024737 0.000000 0.000000 0.000000
# 4 0.000000 0.000000 0.000000 0.032622 0.000000 0.000000
# 5 0.000000 0.000000 0.000000 0.000000 0.068648 0.000000
# 6 0.000000 0.000000 0.000000 0.000000 0.000000 -0.114227
#
#
# Mechanical properties :
#
#
# Convention : Reuss Voigt Hill
#
# Bulk Modulus (GPa) = 37.21495 39.16701 38.19098
# Shear Modulus (GPa) = 50.21532 15.60573 32.91053
#
# Velocity S-wave (km/s) = 5.22591 2.91331 4.23069
# Velocity P-wave (km/s) = 7.52684 5.71121 6.68099
#
# Compressibility (1/GPa) = 0.02687092
#
# Stress axis : x y z
#
# Youngs Moduli (GPa) = 62.03486 41.04369 40.42517
#
# Poissons Ratio (x) = -0.04969 0.34923
# Poissons Ratio (y) = -0.07510 0.47487
# Poissons Ratio (z) = 0.53591 0.48213
#
# Static dielectric constant tensor:
#      x y z
#    x 3.430990 0.000000 0.000000 
#    y 0.000000 4.493510 0.000000 
#    z 0.000000 0.000000 3.521210 
# 
# 
# High freq. dielectric constant tensor:
#      x y z
#    x 1.711180 0.000000 0.000000 
#    y 0.000000 1.706580 0.000000 
#    z 0.000000 0.000000 1.714960 
# 
# From -- ./inp_files/1498.got.cif
#   From: 2010.03.12/outbox.cif.g09.slc.cpg/sg57_1_cif.got.tgz:1498.got - 2010.04.16 15:48:40.
