data_PCOD8232306
_publ_section_title
;
Structure prediction by ZEFSAII (Michael W. Deem and Ramdas Pophale) SiO2 
 PCOD8232306
Probable space group: P B C M
;
_chemical_formula_sum "Si O2"
_cell_formula_units_Z 64
_cell_length_a 12.872531
_cell_length_b 27.351960
_cell_length_c 9.368211
_cell_angle_alpha 90.000000
_cell_angle_beta 90.000000
_cell_angle_gamma 90.000000
_cell_volume 3298.443603
_symmetry_space_group_name_H-M "P B C M"
_symmetry_group_IT_number 57
_symmetry_cell_setting 'orthorhombic'
loop_
_space_group_symop_operation_xyz
x,y,z
-x,-y,1/2+z
x,1/2-y,-z
-x,1/2+y,1/2-z
-x,-y,-z
x,y,1/2-z
-x,1/2+y,z
x,1/2-y,1/2+z
loop_
_atom_site_type_symbol
_atom_site_label
_atom_site_fract_x
_atom_site_fract_y
_atom_site_fract_z
Si Si1 0.384130 0.136143 0.917527
Si Si2 0.585068 0.525875 0.592318
Si Si3 0.048639 0.543289 0.586279
Si Si4 0.186520 0.299063 0.417271
Si Si5 0.028539 0.846980 0.082838
Si Si6 0.763589 0.161853 0.089128
Si Si7 0.455735 0.798664 0.920763
Si Si8 0.236522 0.552067 0.094902
O O1 0.410114 0.143537 0.750000
O O2 0.378240 0.079079 0.961748
O O3 0.272538 0.160051 0.954118
O O4 0.474815 0.158096 0.015191
O O5 0.500000 0.500000 0.500000
O O6 0.538161 0.531965 0.750000
O O7 0.680356 0.489765 0.592091
O O8 0.034359 0.530961 0.750000
O O9 0.001971 0.596434 0.547048
O O10 0.168159 0.543451 0.543922
O O11 0.000000 0.500000 0.500000
O O12 0.216458 0.250000 0.500000
O O13 0.185556 0.287605 0.250000
O O14 0.072219 0.316813 0.467742
O O15 0.049959 0.840669 0.250000
O O16 0.133281 0.828664 0.004777
O O17 0.796109 0.175386 0.250000
O O18 0.665874 0.194299 0.039373
O O19 0.718604 0.106706 0.079802
O O20 0.472211 0.795429 0.750000
O O21 0.494606 0.750000 0.000000
O O22 0.177676 0.548882 0.250000
#
# Coordination Sequence:
#
# PCOD8232306 Si02
#       8
#     8   8   8   8   8   8   8   8
#     4  10  22  39  60  85 115 153 195 238 289 347
#     4  10  21  36  58  85 116 155 191 233 285 343
#     4  10  20  33  53  80 110 146 185 229 275 329
#     4  10  22  40  60  83 113 151 196 242 292 343
#     4   9  20  37  58  82 112 151 191 233 282 340
#     4   9  19  36  57  83 115 149 185 232 284 337
#     4  11  23  39  60  85 113 146 187 238 294 348
#     4   9  18  34  55  78 109 148 184 222 274 329
#
# _framework density 19.403089000000001
#
# number of rings (size 3 to 8) (size 9 to 14) (size 15 to 20)
#    0.000    2.250    0.000    1.875    1.750    6.000 
#    0.000    5.000    0.000    0.000    0.000    0.000 
#    0.000    0.000    0.000    0.000    0.000    0.000 
#
# Total GULP energy -793259.642298 kJ/mol
# GULP energy per Si atom -12394.681911 kJ/mol
# Density = 1.935893 g / cm^3
# Si number density = 19.403089 Si / 1000 Ang^3
#
#
#
# Elastic Constant Matrix: (Units=GPa)
#
#
# Indices 1 2 3 4 5 6 
#
# 1 99.0395 47.2461 43.2619 0.0000 0.0000 0.0000
# 2 47.2461 105.1216 42.0674 0.0000 0.0000 0.0000
# 3 43.2619 42.0674 63.4595 0.0000 0.0000 0.0000
# 4 0.0000 0.0000 0.0000 29.9179 0.0000 0.0000
# 5 0.0000 0.0000 0.0000 0.0000 33.4444 0.0000
# 6 0.0000 0.0000 0.0000 0.0000 0.0000 30.6679
#
#
#
# Elastic Compliance Matrix: (Units=1/GPa)
#
#
# Indices 1 2 3 4 5 6 
#
# 1 0.015365 -0.003694 -0.008026 0.000000 0.000000 0.000000
# 2 -0.003694 0.013835 -0.006653 0.000000 0.000000 0.000000
# 3 -0.008026 -0.006653 0.025640 0.000000 0.000000 0.000000
# 4 0.000000 0.000000 0.000000 0.033425 0.000000 0.000000
# 5 0.000000 0.000000 0.000000 0.000000 0.029900 0.000000
# 6 0.000000 0.000000 0.000000 0.000000 0.000000 0.032607
#
#
# Mechanical properties :
#
#
# Convention : Reuss Voigt Hill
#
# Bulk Modulus (GPa) = 55.26657 59.19683 57.23170
# Shear Modulus (GPa) = 25.83296 27.80905 26.82101
#
# Velocity S-wave (km/s) = 3.65277 3.78991 3.72197
# Velocity P-wave (km/s) = 6.80702 7.05169 6.93044
#
# Compressibility (1/GPa) = 0.01809412
#
# Stress axis : x y z
#
# Youngs Moduli (GPa) = 65.08304 72.27788 39.00129
#
# Poissons Ratio (x) = 0.26698 0.31303
# Poissons Ratio (y) = 0.24041 0.25949
# Poissons Ratio (z) = 0.52236 0.48089
#
# Static dielectric constant tensor:
#      x y z
#    x 3.219500 0.000000 0.000000 
#    y 0.000000 3.537210 0.000000 
#    z 0.000000 0.000000 3.755670 
# 
# 
# High freq. dielectric constant tensor:
#      x y z
#    x 1.749300 0.000000 0.000000 
#    y 0.000000 1.767180 0.000000 
#    z 0.000000 0.000000 1.754470 
# 
# From -- ./inp_files/3871.got.cif
#   From: 2010.03.12/outbox.cif.g09.slc.cpg/sg57_2_cif.got.tgz:3871.got - 2010.04.16 15:48:40.
