data_PCOD8232692
_publ_section_title
;
Structure prediction by ZEFSAII (Michael W. Deem and Ramdas Pophale) SiO2 
 PCOD8232692
Probable space group: P B C M
;
_chemical_formula_sum "Si O2"
_cell_formula_units_Z 64
_cell_length_a 25.933032
_cell_length_b 14.878133
_cell_length_c 8.932432
_cell_angle_alpha 90.000000
_cell_angle_beta 90.000000
_cell_angle_gamma 90.000000
_cell_volume 3446.445787
_symmetry_space_group_name_H-M "P B C M"
_symmetry_group_IT_number 57
_symmetry_cell_setting 'orthorhombic'
loop_
_space_group_symop_operation_xyz
x,y,z
-x,-y,1/2+z
x,1/2-y,-z
-x,1/2+y,1/2-z
-x,-y,-z
x,y,1/2-z
-x,1/2+y,z
x,1/2-y,1/2+z
loop_
_atom_site_type_symbol
_atom_site_label
_atom_site_fract_x
_atom_site_fract_y
_atom_site_fract_z
Si Si1 0.501703 0.650785 0.426858
Si Si2 0.055619 0.004127 0.072105
Si Si3 0.239586 0.158122 0.576144
Si Si4 0.308060 0.993875 0.574844
Si Si5 0.877298 0.844399 0.073182
Si Si6 0.872594 0.342039 0.074386
Si Si7 0.243669 0.657502 0.573978
Si Si8 0.427251 0.490023 0.424273
O O1 0.495795 0.750000 0.500000
O O2 0.506632 0.665365 0.250000
O O3 0.453450 0.585602 0.468430
O O4 0.551524 0.596375 0.485828
O O5 0.051400 0.011373 0.250000
O O6 0.087862 0.917479 0.020409
O O7 0.084418 0.088990 0.007032
O O8 0.000000 0.000000 0.000000
O O9 0.256016 0.250000 0.500000
O O10 0.244561 0.175739 0.750000
O O11 0.181495 0.128028 0.534864
O O12 0.279261 0.083374 0.520382
O O13 0.298876 0.975896 0.750000
O O14 0.284625 0.914005 0.480368
O O15 0.367682 0.001993 0.534247
O O16 0.887593 0.841923 0.250000
O O17 0.890266 0.750000 0.000000
O O18 0.874735 0.327872 0.250000
O O19 0.814551 0.368811 0.023797
O O20 0.890776 0.250000 0.000000
O O21 0.260526 0.750000 0.500000
O O22 0.247497 0.667931 0.750000
O O23 0.436381 0.469983 0.250000
#
# Coordination Sequence:
#
# PCOD8232692 Si02
#       8
#     8   8   8   8   8   8   8   8
#     4  10  20  36  58  79 103 140 183 227 272 318
#     4  11  23  38  55  79 108 138 175 221 270 321
#     4   9  19  34  54  79 108 141 177 216 260 315
#     4  10  20  35  54  80 114 145 174 217 267 313
#     4  10  20  36  57  80 105 139 179 218 263 315
#     4   9  20  37  57  79 105 138 177 219 263 313
#     4  10  20  35  55  80 108 141 179 217 260 314
#     4   9  20  37  55  79 110 142 180 223 267 317
#
# _framework density 18.569855
#
# number of rings (size 3 to 8) (size 9 to 14) (size 15 to 20)
#    0.000    2.250    0.000    2.250    0.000    5.000 
#    0.000    3.750    0.000    0.000    0.000    0.000 
#    0.000    0.000    0.000    0.000    0.000    0.000 
#
# Total GULP energy -793638.701030 kJ/mol
# GULP energy per Si atom -12400.604704 kJ/mol
# Density = 1.852759 g / cm^3
# Si number density = 18.569855 Si / 1000 Ang^3
#
#
#
# Elastic Constant Matrix: (Units=GPa)
#
#
# Indices 1 2 3 4 5 6 
#
# 1 140.8925 97.6232 53.6618 0.0000 0.0000 0.0000
# 2 97.6232 155.8563 62.7497 0.0000 0.0000 0.0000
# 3 53.6618 62.7497 67.6312 0.0000 0.0000 0.0000
# 4 0.0000 0.0000 0.0000 38.6725 0.0000 0.0000
# 5 0.0000 0.0000 0.0000 0.0000 27.8947 0.0000
# 6 0.0000 0.0000 0.0000 0.0000 0.0000 57.4727
#
#
#
# Elastic Compliance Matrix: (Units=1/GPa)
#
#
# Indices 1 2 3 4 5 6 
#
# 1 0.013355 -0.006543 -0.004526 0.000000 0.000000 0.000000
# 2 -0.006543 0.013448 -0.007286 0.000000 0.000000 0.000000
# 3 -0.004526 -0.007286 0.025137 0.000000 0.000000 0.000000
# 4 0.000000 0.000000 0.000000 0.025858 0.000000 0.000000
# 5 0.000000 0.000000 0.000000 0.000000 0.035849 0.000000
# 6 0.000000 0.000000 0.000000 0.000000 0.000000 0.017400
#
#
# Mechanical properties :
#
#
# Convention : Reuss Voigt Hill
#
# Bulk Modulus (GPa) = 65.65642 88.04995 76.85318
# Shear Modulus (GPa) = 28.92991 34.83102 31.88046
#
# Velocity S-wave (km/s) = 3.95130 4.33561 4.14791
# Velocity P-wave (km/s) = 7.50002 8.51949 8.02596
#
# Compressibility (1/GPa) = 0.01523080
#
# Stress axis : x y z
#
# Youngs Moduli (GPa) = 74.87906 74.36201 39.78245
#
# Poissons Ratio (x) = 0.48655 0.18004
# Poissons Ratio (y) = 0.48993 0.28984
# Poissons Ratio (z) = 0.33888 0.54177
#
# Static dielectric constant tensor:
#      x y z
#    x 3.396280 0.000000 0.000000 
#    y 0.000000 3.389020 0.000000 
#    z 0.000000 0.000000 3.433230 
# 
# 
# High freq. dielectric constant tensor:
#      x y z
#    x 1.721640 0.000000 0.000000 
#    y 0.000000 1.728970 0.000000 
#    z 0.000000 0.000000 1.725010 
# 
# From -- ./inp_files/9441.got.cif
#   From: 2010.03.12/outbox.cif.g09.slc.cpg/sg57_5_cif.got.tgz:9441.got - 2010.04.16 15:48:40.
