data_PCOD8232597
_publ_section_title
;
Structure prediction by ZEFSAII (Michael W. Deem and Ramdas Pophale) SiO2 
 PCOD8232597
Probable space group: P B C M
;
_chemical_formula_sum "Si O2"
_cell_formula_units_Z 64
_cell_length_a 23.577482
_cell_length_b 14.653457
_cell_length_c 9.191864
_cell_angle_alpha 90.000000
_cell_angle_beta 90.000000
_cell_angle_gamma 90.000000
_cell_volume 3175.711972
_symmetry_space_group_name_H-M "P B C M"
_symmetry_group_IT_number 57
_symmetry_cell_setting 'orthorhombic'
loop_
_space_group_symop_operation_xyz
x,y,z
-x,-y,1/2+z
x,1/2-y,-z
-x,1/2+y,1/2-z
-x,-y,-z
x,y,1/2-z
-x,1/2+y,z
x,1/2-y,1/2+z
loop_
_atom_site_type_symbol
_atom_site_label
_atom_site_fract_x
_atom_site_fract_y
_atom_site_fract_z
Si Si1 0.736383 0.834421 0.589111
Si Si2 0.045916 0.840395 0.420592
Si Si3 0.604760 0.665833 0.411966
Si Si4 0.351708 0.654661 0.418336
Si Si5 0.253343 0.979057 0.582508
Si Si6 0.440328 0.998492 0.579672
Si Si7 0.126075 0.530183 0.085475
Si Si8 0.917131 0.662918 0.583601
O O1 0.764231 0.750000 0.500000
O O2 0.764380 0.838917 0.750000
O O3 0.670379 0.813655 0.607928
O O4 0.744962 0.929535 0.509386
O O5 0.068078 0.750000 0.500000
O O6 0.053181 0.827070 0.250000
O O7 0.085291 0.922705 0.470875
O O8 0.981233 0.861709 0.466714
O O9 0.575869 0.750000 0.500000
O O10 0.576720 0.656455 0.250000
O O11 0.598634 0.574757 0.506346
O O12 0.355654 0.750000 0.500000
O O13 0.342386 0.676892 0.250000
O O14 0.298480 0.594921 0.476778
O O15 0.409878 0.598868 0.443840
O O16 0.267517 0.003744 0.750000
O O17 0.190609 0.935804 0.567445
O O18 0.447833 0.020112 0.750000
O O19 0.500000 0.000000 0.500000
O O20 0.104235 0.548741 0.250000
O O21 0.123979 0.421953 0.052653
O O22 0.892568 0.750000 0.500000
O O23 0.918108 0.691476 0.750000
#
# Coordination Sequence:
#
# PCOD8232597 Si02
#       8
#     8   8   8   8   8   8   8   8
#     4  10  20  34  57  85 113 148 188 232 282 342
#     4  10  20  35  56  80 110 147 192 241 292 348
#     4  10  20  35  58  87 116 149 187 230 282 339
#     4  10  23  42  64  86 114 154 196 238 287 338
#     4  10  21  39  59  83 117 154 193 240 291 344
#     4  11  23  40  62  89 121 154 192 241 292 347
#     4  10  21  36  56  83 116 150 190 240 293 345
#     4   9  19  35  55  81 112 151 191 236 291 348
#
# _framework density 20.152961000000001
#
# number of rings (size 3 to 8) (size 9 to 14) (size 15 to 20)
#    0.000    2.000    1.250    1.875    0.000    5.500 
#    0.000    3.750    0.000    0.000    0.000    0.000 
#    0.000    0.000    0.000    0.000    0.000    0.000 
#
# Total GULP energy -793662.500655 kJ/mol
# GULP energy per Si atom -12400.976573 kJ/mol
# Density = 2.010709 g / cm^3
# Si number density = 20.152961 Si / 1000 Ang^3
#
#
#
# Elastic Constant Matrix: (Units=GPa)
#
#
# Indices 1 2 3 4 5 6 
#
# 1 71.4700 23.6181 27.5979 0.0000 0.0000 0.0000
# 2 23.6181 114.7935 59.9782 0.0000 0.0000 0.0000
# 3 27.5979 59.9782 116.2600 0.0000 0.0000 0.0000
# 4 0.0000 0.0000 0.0000 44.1810 0.0000 0.0000
# 5 0.0000 0.0000 0.0000 0.0000 20.9958 0.0000
# 6 0.0000 0.0000 0.0000 0.0000 0.0000 12.8528
#
#
#
# Elastic Compliance Matrix: (Units=1/GPa)
#
#
# Indices 1 2 3 4 5 6 
#
# 1 0.015657 -0.001752 -0.002813 0.000000 0.000000 0.000000
# 2 -0.001752 0.012122 -0.005838 0.000000 0.000000 0.000000
# 3 -0.002813 -0.005838 0.012281 0.000000 0.000000 0.000000
# 4 0.000000 0.000000 0.000000 0.022634 0.000000 0.000000
# 5 0.000000 0.000000 0.000000 0.000000 0.047629 0.000000
# 6 0.000000 0.000000 0.000000 0.000000 0.000000 0.077804
#
#
# Mechanical properties :
#
#
# Convention : Reuss Voigt Hill
#
# Bulk Modulus (GPa) = 51.93499 58.32355 55.12927
# Shear Modulus (GPa) = 23.21802 28.36120 25.78961
#
# Velocity S-wave (km/s) = 3.39793 3.75547 3.58116
# Velocity P-wave (km/s) = 6.42035 6.91433 6.67191
#
# Compressibility (1/GPa) = 0.01925484
#
# Stress axis : x y z
#
# Youngs Moduli (GPa) = 63.86936 82.49548 81.42712
#
# Poissons Ratio (x) = 0.14449 0.22906
# Poissons Ratio (y) = 0.11187 0.47536
# Poissons Ratio (z) = 0.17967 0.48160
#
# Static dielectric constant tensor:
#      x y z
#    x 3.601650 0.000000 0.000000 
#    y 0.000000 3.599230 0.000000 
#    z 0.000000 0.000000 3.819660 
# 
# 
# High freq. dielectric constant tensor:
#      x y z
#    x 1.778220 0.000000 0.000000 
#    y 0.000000 1.783760 0.000000 
#    z 0.000000 0.000000 1.792530 
# 
# From -- ./inp_files/9431.got.cif
#   From: 2010.03.12/outbox.cif.g09.slc.cpg/sg57_5_cif.got.tgz:9431.got - 2010.04.16 15:48:40.
