data_PCOD8232704
_publ_section_title
;
Structure prediction by ZEFSAII (Michael W. Deem and Ramdas Pophale) SiO2 
 PCOD8232704
Probable space group: P B C M
;
_chemical_formula_sum "Si O2"
_cell_formula_units_Z 64
_cell_length_a 23.492347
_cell_length_b 14.999031
_cell_length_c 9.355311
_cell_angle_alpha 90.000000
_cell_angle_beta 90.000000
_cell_angle_gamma 90.000000
_cell_volume 3296.460219
_symmetry_space_group_name_H-M "P B C M"
_symmetry_group_IT_number 57
_symmetry_cell_setting 'orthorhombic'
loop_
_space_group_symop_operation_xyz
x,y,z
-x,-y,1/2+z
x,1/2-y,-z
-x,1/2+y,1/2-z
-x,-y,-z
x,y,1/2-z
-x,1/2+y,z
x,1/2-y,1/2+z
loop_
_atom_site_type_symbol
_atom_site_label
_atom_site_fract_x
_atom_site_fract_y
_atom_site_fract_z
Si Si1 0.113871 0.396647 0.411304
Si Si2 0.504791 0.347829 0.078671
Si Si3 0.234358 0.169210 0.589384
Si Si4 0.882260 0.063295 0.910861
Si Si5 0.424080 0.510577 0.086390
Si Si6 0.709215 0.488645 0.915020
Si Si7 0.229507 0.662346 0.915455
Si Si8 0.006471 0.665710 0.915953
O O1 0.099567 0.423702 0.250000
O O2 0.165400 0.326832 0.420465
O O3 0.136297 0.484333 0.487538
O O4 0.055326 0.360401 0.480733
O O5 0.513015 0.332230 0.250000
O O6 0.450964 0.413393 0.047277
O O7 0.498979 0.250000 0.000000
O O8 0.556924 0.406254 0.013850
O O9 0.260289 0.250000 0.500000
O O10 0.255360 0.183183 0.750000
O O11 0.259472 0.077536 0.530533
O O12 0.877356 0.027864 0.750000
O O13 0.837753 0.143108 0.936088
O O14 0.947220 0.089564 0.944570
O O15 0.439827 0.535224 0.250000
O O16 0.357448 0.498437 0.065251
O O17 0.725380 0.467264 0.750000
O O18 0.730740 0.413152 0.020082
O O19 0.245088 0.674713 0.750000
O O20 0.245654 0.750000 0.000000
O O21 0.002066 0.690592 0.750000
O O22 0.029754 0.750000 0.000000
#
# Coordination Sequence:
#
# PCOD8232704 Si02
#       8
#     8   8   8   8   8   8   8   8
#     4  10  20  35  55  78 105 140 182 227 283 342
#     4  10  20  36  60  90 123 157 193 233 280 333
#     4  10  21  36  56  82 111 147 188 232 283 339
#     4  10  21  36  54  78 106 138 182 231 283 343
#     4   9  20  38  60  86 117 156 197 238 281 328
#     4  10  21  40  61  83 116 153 194 240 284 332
#     4  11  23  38  58  83 111 148 192 238 290 346
#     4  10  21  35  51  76 106 137 177 226 280 342
#
# _framework density 19.414764000000002
#
# number of rings (size 3 to 8) (size 9 to 14) (size 15 to 20)
#    0.000    2.000    1.250    1.875    0.000    4.500 
#    0.000    0.000    0.000    0.000    0.000    0.000 
#    0.000    0.000    0.000    0.000    0.000    0.000 
#
# Total GULP energy -793378.677766 kJ/mol
# GULP energy per Si atom -12396.541840 kJ/mol
# Density = 1.937058 g / cm^3
# Si number density = 19.414764 Si / 1000 Ang^3
#
#
#
# Elastic Constant Matrix: (Units=GPa)
#
#
# Indices 1 2 3 4 5 6 
#
# 1 89.3090 25.9259 31.1919 0.0000 0.0000 0.0000
# 2 25.9259 128.5259 68.2755 0.0000 0.0000 0.0000
# 3 31.1919 68.2755 87.8091 0.0000 0.0000 0.0000
# 4 0.0000 0.0000 0.0000 40.3893 0.0000 0.0000
# 5 0.0000 0.0000 0.0000 0.0000 24.2458 0.0000
# 6 0.0000 0.0000 0.0000 0.0000 0.0000 10.2560
#
#
#
# Elastic Compliance Matrix: (Units=1/GPa)
#
#
# Indices 1 2 3 4 5 6 
#
# 1 0.012789 -0.000284 -0.004322 0.000000 0.000000 0.000000
# 2 -0.000284 0.013262 -0.010211 0.000000 0.000000 0.000000
# 3 -0.004322 -0.010211 0.020863 0.000000 0.000000 0.000000
# 4 0.000000 0.000000 0.000000 0.024759 0.000000 0.000000
# 5 0.000000 0.000000 0.000000 0.000000 0.041244 0.000000
# 6 0.000000 0.000000 0.000000 0.000000 0.000000 0.097503
#
#
# Mechanical properties :
#
#
# Convention : Reuss Voigt Hill
#
# Bulk Modulus (GPa) = 57.86986 61.82562 59.84774
# Shear Modulus (GPa) = 20.34043 26.99494 23.66768
#
# Velocity S-wave (km/s) = 3.24030 3.73290 3.49529
# Velocity P-wave (km/s) = 6.62354 7.10585 6.86893
#
# Compressibility (1/GPa) = 0.01728015
#
# Stress axis : x y z
#
# Youngs Moduli (GPa) = 78.19181 75.40282 47.93075
#
# Poissons Ratio (x) = 0.02138 0.20718
# Poissons Ratio (y) = 0.02217 0.48943
# Poissons Ratio (z) = 0.33798 0.76995
#
# Static dielectric constant tensor:
#      x y z
#    x 3.554380 0.000000 0.000000 
#    y 0.000000 3.484630 0.000000 
#    z 0.000000 0.000000 3.602890 
# 
# 
# High freq. dielectric constant tensor:
#      x y z
#    x 1.755820 0.000000 0.000000 
#    y 0.000000 1.752360 0.000000 
#    z 0.000000 0.000000 1.756140 
# 
# From -- ./inp_files/9402.got.cif
#   From: 2010.03.12/outbox.cif.g09.slc.cpg/sg57_5_cif.got.tgz:9402.got - 2010.04.16 15:48:40.
