data_PCOD8232918
_publ_section_title
;
Structure prediction by ZEFSAII (Michael W. Deem and Ramdas Pophale) SiO2 
 PCOD8232918
Probable space group: P B C M
;
_chemical_formula_sum "Si O2"
_cell_formula_units_Z 32
_cell_length_a 9.952264
_cell_length_b 19.664541
_cell_length_c 8.479462
_cell_angle_alpha 90.000000
_cell_angle_beta 90.000000
_cell_angle_gamma 90.000000
_cell_volume 1659.487555
_symmetry_space_group_name_H-M "P B C M"
_symmetry_group_IT_number 57
_symmetry_cell_setting 'orthorhombic'
loop_
_space_group_symop_operation_xyz
x,y,z
-x,-y,1/2+z
x,1/2-y,-z
-x,1/2+y,1/2-z
-x,-y,-z
x,y,1/2-z
-x,1/2+y,z
x,1/2-y,1/2+z
loop_
_atom_site_type_symbol
_atom_site_label
_atom_site_fract_x
_atom_site_fract_y
_atom_site_fract_z
Si Si1 0.335267 0.560647 0.933905
Si Si2 0.052243 0.570850 0.434866
Si Si3 0.391156 0.406235 0.567122
Si Si4 0.158280 0.324988 0.434290
O O1 0.359824 0.571419 0.750000
O O2 0.338921 0.481139 0.979160
O O3 0.192902 0.591287 0.984943
O O4 0.451646 0.600872 0.026505
O O5 0.073808 0.563632 0.250000
O O6 0.000000 0.500000 0.500000
O O7 0.946238 0.629111 0.471091
O O8 0.367263 0.390523 0.750000
O O9 0.308682 0.351973 0.464989
O O10 0.143819 0.250000 0.500000
O O11 0.125516 0.327055 0.250000
#
# Coordination Sequence:
#
# PCOD8232918 Si02
#       4
#     8   8   8   8
#     4  10  20  35  59  90 123 156 198 249 302 354
#     4  12  23  38  61  91 124 161 205 254 307 362
#     4  10  20  36  59  88 122 157 199 247 300 358
#     4  12  25  42  63  88 123 164 206 252 308 370
#
# _framework density 19.283062000000001
#
# number of rings (size 3 to 8) (size 9 to 14) (size 15 to 20)
#    0.000    1.000    2.500    6.000    0.000    2.000 
#    0.000    1.250    0.000    0.000    0.000    0.000 
#    0.000    0.000    0.000    0.000    0.000    0.000 
#
# Total GULP energy -397027.926046 kJ/mol
# GULP energy per Si atom -12407.122689 kJ/mol
# Density = 1.923917 g / cm^3
# Si number density = 19.283062 Si / 1000 Ang^3
#
#
#
# Elastic Constant Matrix: (Units=GPa)
#
#
# Indices 1 2 3 4 5 6 
#
# 1 121.2207 38.1139 6.5112 0.0000 0.0000 0.0000
# 2 38.1139 93.7816 15.3600 0.0000 0.0000 0.0000
# 3 6.5112 15.3600 71.5852 0.0000 0.0000 0.0000
# 4 0.0000 0.0000 0.0000 28.4944 0.0000 0.0000
# 5 0.0000 0.0000 0.0000 0.0000 39.7242 0.0000
# 6 0.0000 0.0000 0.0000 0.0000 0.0000 -5.0244
#
#
#
# Elastic Compliance Matrix: (Units=1/GPa)
#
#
# Indices 1 2 3 4 5 6 
#
# 1 0.009458 -0.003838 -0.000037 0.000000 0.000000 0.000000
# 2 -0.003838 0.012609 -0.002356 0.000000 0.000000 0.000000
# 3 -0.000037 -0.002356 0.014478 0.000000 0.000000 0.000000
# 4 0.000000 0.000000 0.000000 0.035095 0.000000 0.000000
# 5 0.000000 0.000000 0.000000 0.000000 0.025174 0.000000
# 6 0.000000 0.000000 0.000000 0.000000 0.000000 -0.199028
#
#
# Mechanical properties :
#
#
# Convention : Reuss Voigt Hill
#
# Bulk Modulus (GPa) = 41.52283 45.17307 43.34795
# Shear Modulus (GPa) = -61.18091 27.74566 -16.71762
#
# Velocity S-wave (km/s) = -5.63885 3.79735 -2.94761
# Velocity P-wave (km/s) = 4.56240 6.53480 3.30818
#
# Compressibility (1/GPa) = 0.02408313
#
# Stress axis : x y z
#
# Youngs Moduli (GPa) = 105.72978 79.30995 69.06873
#
# Poissons Ratio (x) = 0.30438 0.00254
# Poissons Ratio (y) = 0.40577 0.16275
# Poissons Ratio (z) = 0.00389 0.18688
#
# Static dielectric constant tensor:
#      x y z
#    x 3.648180 0.000000 0.000000 
#    y 0.000000 3.370480 0.000000 
#    z 0.000000 0.000000 3.145690 
# 
# 
# High freq. dielectric constant tensor:
#      x y z
#    x 1.766280 0.000000 0.000000 
#    y 0.000000 1.719940 0.000000 
#    z 0.000000 0.000000 1.769340 
# 
# From -- ./inp_files/1226.got.cif
#   From: 2010.03.12/outbox.cif.g09.slc.cpg/sg57_1_cif.got.tgz:1226.got - 2010.04.16 15:48:40.
