data_PCOD8232745
_publ_section_title
;
Structure prediction by ZEFSAII (Michael W. Deem and Ramdas Pophale) SiO2 
 PCOD8232745
Probable space group: P B C M
;
_chemical_formula_sum "Si O2"
_cell_formula_units_Z 48
_cell_length_a 14.759145
_cell_length_b 19.294123
_cell_length_c 9.112645
_cell_angle_alpha 90.000000
_cell_angle_beta 90.000000
_cell_angle_gamma 90.000000
_cell_volume 2594.960157
_symmetry_space_group_name_H-M "P B C M"
_symmetry_group_IT_number 57
_symmetry_cell_setting 'orthorhombic'
loop_
_space_group_symop_operation_xyz
x,y,z
-x,-y,1/2+z
x,1/2-y,-z
-x,1/2+y,1/2-z
-x,-y,-z
x,y,1/2-z
-x,1/2+y,z
x,1/2-y,1/2+z
loop_
_atom_site_type_symbol
_atom_site_label
_atom_site_fract_x
_atom_site_fract_y
_atom_site_fract_z
Si Si1 0.042667 0.065997 0.922523
Si Si2 0.281234 0.592570 0.578115
Si Si3 0.425106 0.679632 0.422874
Si Si4 0.893936 0.177631 0.920669
Si Si5 0.228818 0.437010 0.921510
Si Si6 0.632736 0.818764 0.920478
O O1 0.046499 0.050992 0.750000
O O2 0.981690 0.132415 0.958764
O O3 0.141477 0.082316 0.984193
O O4 0.000000 0.000000 0.000000
O O5 0.300925 0.602066 0.750000
O O6 0.368272 0.615743 0.485913
O O7 0.195079 0.636976 0.525682
O O8 0.263167 0.513145 0.538185
O O9 0.391026 0.750000 0.500000
O O10 0.409507 0.686791 0.250000
O O11 0.529285 0.664796 0.463952
O O12 0.886764 0.192838 0.750000
O O13 0.902859 0.250000 0.000000
O O14 0.203979 0.431884 0.750000
O O15 0.307324 0.384001 0.968219
O O16 0.641552 0.803622 0.750000
O O17 0.668682 0.750000 0.000000
#
# Coordination Sequence:
#
# PCOD8232745 Si02
#       6
#     8   8   8   8   8   8
#     4  11  22  39  60  83 112 149 189 230 278 335
#     4  10  20  36  56  81 114 149 184 230 283 336
#     4  10  20  35  55  82 112 149 192 232 280 335
#     4  10  22  38  56  82 113 146 186 228 277 332
#     4  10  21  39  60  83 113 150 186 230 287 337
#     4   9  20  38  59  81 113 151 189 235 284 333
#
# _framework density 18.497394
#
# number of rings (size 3 to 8) (size 9 to 14) (size 15 to 20)
#    0.000    2.000    1.667    1.500    0.000    6.667 
#    0.000    3.333    0.000    0.000    0.000    0.000 
#    0.000    0.000    0.000    0.000    0.000    0.000 
#
# Total GULP energy -595421.107080 kJ/mol
# GULP energy per Si atom -12404.606397 kJ/mol
# Density = 1.845529 g / cm^3
# Si number density = 18.497394 Si / 1000 Ang^3
#
#
#
# Elastic Constant Matrix: (Units=GPa)
#
#
# Indices 1 2 3 4 5 6 
#
# 1 125.4793 85.2842 57.5875 0.0000 0.0000 0.0000
# 2 85.2842 163.2859 64.3940 0.0000 0.0000 0.0000
# 3 57.5875 64.3940 66.8116 0.0000 0.0000 0.0000
# 4 0.0000 0.0000 0.0000 33.2295 0.0000 0.0000
# 5 0.0000 0.0000 0.0000 0.0000 32.4775 0.0000
# 6 0.0000 0.0000 0.0000 0.0000 0.0000 32.3751
#
#
#
# Elastic Compliance Matrix: (Units=1/GPa)
#
#
# Indices 1 2 3 4 5 6 
#
# 1 0.014907 -0.004386 -0.008622 0.000000 0.000000 0.000000
# 2 -0.004386 0.011170 -0.006985 0.000000 0.000000 0.000000
# 3 -0.008622 -0.006985 0.029131 0.000000 0.000000 0.000000
# 4 0.000000 0.000000 0.000000 0.030094 0.000000 0.000000
# 5 0.000000 0.000000 0.000000 0.000000 0.030791 0.000000
# 6 0.000000 0.000000 0.000000 0.000000 0.000000 0.030888
#
#
# Mechanical properties :
#
#
# Convention : Reuss Voigt Hill
#
# Bulk Modulus (GPa) = 65.69259 85.56756 75.63008
# Shear Modulus (GPa) = 26.03609 29.50382 27.76996
#
# Velocity S-wave (km/s) = 3.75581 3.99811 3.87885
# Velocity P-wave (km/s) = 7.37562 8.22635 7.81257
#
# Compressibility (1/GPa) = 0.01522242
#
# Stress axis : x y z
#
# Youngs Moduli (GPa) = 67.08066 89.52836 34.32711
#
# Poissons Ratio (x) = 0.39266 0.29597
# Poissons Ratio (y) = 0.29421 0.23978
# Poissons Ratio (z) = 0.57838 0.62536
#
# Static dielectric constant tensor:
#      x y z
#    x 3.604200 0.000000 0.000000 
#    y 0.000000 3.399250 0.000000 
#    z 0.000000 0.000000 3.442920 
# 
# 
# High freq. dielectric constant tensor:
#      x y z
#    x 1.725520 0.000000 0.000000 
#    y 0.000000 1.722800 0.000000 
#    z 0.000000 0.000000 1.716890 
# 
# From -- ./inp_files/4555.got.cif
#   From: 2010.03.12/outbox.cif.g09.slc.cpg/sg57_3_cif.got.tgz:4555.got - 2010.04.16 15:48:40.
