data_PCOD8232995
_publ_section_title
;
Structure prediction by ZEFSAII (Michael W. Deem and Ramdas Pophale) SiO2 
 PCOD8232995
Probable space group: P B C M
;
_chemical_formula_sum "Si O2"
_cell_formula_units_Z 40
_cell_length_a 11.521869
_cell_length_b 20.777458
_cell_length_c 8.746314
_cell_angle_alpha 90.000000
_cell_angle_beta 90.000000
_cell_angle_gamma 90.000000
_cell_volume 2093.825145
_symmetry_space_group_name_H-M "P B C M"
_symmetry_group_IT_number 57
_symmetry_cell_setting 'orthorhombic'
loop_
_space_group_symop_operation_xyz
x,y,z
-x,-y,1/2+z
x,1/2-y,-z
-x,1/2+y,1/2-z
-x,-y,-z
x,y,1/2-z
-x,1/2+y,z
x,1/2-y,1/2+z
loop_
_atom_site_type_symbol
_atom_site_label
_atom_site_fract_x
_atom_site_fract_y
_atom_site_fract_z
Si Si1 0.089069 0.449353 0.569862
Si Si2 0.336117 0.045578 0.579058
Si Si3 0.724909 0.183793 0.929076
Si Si4 0.450669 0.907427 0.920181
Si Si5 0.971485 0.182549 0.069959
O O1 0.088112 0.459477 0.750000
O O2 0.215473 0.464141 0.506270
O O3 0.056724 0.375867 0.526162
O O4 0.000000 0.500000 0.500000
O O5 0.314473 0.072607 0.750000
O O6 0.417832 0.094397 0.484348
O O7 0.402282 0.978739 0.589157
O O8 0.744770 0.191213 0.750000
O O9 0.679051 0.250000 0.000000
O O10 0.628874 0.130865 0.962240
O O11 0.845938 0.163719 0.005401
O O12 0.450161 0.876564 0.750000
O O13 0.960794 0.191584 0.250000
O O14 0.017631 0.250000 0.000000
#
# Coordination Sequence:
#
# PCOD8232995 Si02
#       5
#     8   8   8   8   8
#     4  11  23  37  56  83 113 145 184 229 275 327
#     4  10  21  36  56  81 108 141 179 220 270 324
#     4  11  21  34  55  81 108 140 179 221 267 318
#     4  10  20  36  56  79 109 140 175 221 269 320
#     4  10  21  37  56  80 110 145 184 225 272 324
#
# _framework density 19.103791999999999
#
# number of rings (size 3 to 8) (size 9 to 14) (size 15 to 20)
#    0.000    1.600    0.000    6.600    0.000   10.400 
#    0.000    1.000    0.000    2.400    0.000    0.000 
#    0.000    0.000    0.000    0.000    0.000    0.000 
#
# Total GULP energy -496068.149804 kJ/mol
# GULP energy per Si atom -12401.703745 kJ/mol
# Density = 1.906031 g / cm^3
# Si number density = 19.103792 Si / 1000 Ang^3
#
#
#
# Elastic Constant Matrix: (Units=GPa)
#
#
# Indices 1 2 3 4 5 6 
#
# 1 100.7886 24.7381 40.1447 0.0000 0.0000 0.0000
# 2 24.7381 49.0932 46.3688 0.0000 0.0000 0.0000
# 3 40.1447 46.3688 120.9598 0.0000 0.0000 0.0000
# 4 0.0000 0.0000 0.0000 32.0772 0.0000 0.0000
# 5 0.0000 0.0000 0.0000 0.0000 -17.5093 0.0000
# 6 0.0000 0.0000 0.0000 0.0000 0.0000 28.2439
#
#
#
# Elastic Compliance Matrix: (Units=1/GPa)
#
#
# Indices 1 2 3 4 5 6 
#
# 1 0.011810 -0.003525 -0.002568 0.000000 0.000000 0.000000
# 2 -0.003525 0.032983 -0.011474 0.000000 0.000000 0.000000
# 3 -0.002568 -0.011474 0.013518 0.000000 0.000000 0.000000
# 4 0.000000 0.000000 0.000000 0.031175 0.000000 0.000000
# 5 0.000000 0.000000 0.000000 0.000000 -0.057113 0.000000
# 6 0.000000 0.000000 0.000000 0.000000 0.000000 0.035406
#
#
# Mechanical properties :
#
#
# Convention : Reuss Voigt Hill
#
# Bulk Modulus (GPa) = 43.14763 54.81608 48.98186
# Shear Modulus (GPa) = 45.19232 19.20170 32.19701
#
# Velocity S-wave (km/s) = 4.86904 3.17381 4.10978
# Velocity P-wave (km/s) = 7.36512 6.49514 6.94377
#
# Compressibility (1/GPa) = 0.02317624
#
# Stress axis : x y z
#
# Youngs Moduli (GPa) = 84.67433 30.31890 73.97644
#
# Poissons Ratio (x) = 0.10689 0.18998
# Poissons Ratio (y) = 0.29851 0.84877
# Poissons Ratio (z) = 0.21745 0.34787
#
# Static dielectric constant tensor:
#      x y z
#    x 3.450790 0.000000 0.000000 
#    y 0.000000 3.514220 0.000000 
#    z 0.000000 0.000000 3.827610 
# 
# 
# High freq. dielectric constant tensor:
#      x y z
#    x 1.739430 0.000000 0.000000 
#    y 0.000000 1.731580 0.000000 
#    z 0.000000 0.000000 1.766180 
# 
# From -- ./inp_files/1542.got.cif
#   From: 2010.03.12/outbox.cif.g09.slc.cpg/sg57_1_cif.got.tgz:1542.got - 2010.04.16 15:48:40.
