data_PCOD8232631
_publ_section_title
;
Structure prediction by ZEFSAII (Michael W. Deem and Ramdas Pophale) SiO2 
 PCOD8232631
Probable space group: P B C M
;
_chemical_formula_sum "Si O2"
_cell_formula_units_Z 64
_cell_length_a 14.952535
_cell_length_b 29.342787
_cell_length_c 8.738167
_cell_angle_alpha 90.000000
_cell_angle_beta 90.000000
_cell_angle_gamma 90.000000
_cell_volume 3833.862467
_symmetry_space_group_name_H-M "P B C M"
_symmetry_group_IT_number 57
_symmetry_cell_setting 'orthorhombic'
loop_
_space_group_symop_operation_xyz
x,y,z
-x,-y,1/2+z
x,1/2-y,-z
-x,1/2+y,1/2-z
-x,-y,-z
x,y,1/2-z
-x,1/2+y,z
x,1/2-y,1/2+z
loop_
_atom_site_type_symbol
_atom_site_label
_atom_site_fract_x
_atom_site_fract_y
_atom_site_fract_z
Si Si1 0.035896 0.612470 0.071780
Si Si2 0.141579 0.057938 0.430235
Si Si3 0.544152 0.561775 0.573047
Si Si4 0.710561 0.880952 0.427587
Si Si5 0.986144 0.702736 0.569160
Si Si6 0.375969 0.967368 0.569799
Si Si7 0.792460 0.703761 0.069880
Si Si8 0.174988 0.963956 0.930279
O O1 0.032871 0.624533 0.250000
O O2 0.121168 0.581753 0.029999
O O3 0.946754 0.585617 0.022481
O O4 0.046654 0.659744 0.979244
O O5 0.159327 0.061605 0.250000
O O6 0.225260 0.078046 0.522149
O O7 0.129285 0.005645 0.479749
O O8 0.524378 0.554581 0.750000
O O9 0.607842 0.604926 0.544047
O O10 0.448447 0.569380 0.491044
O O11 0.594529 0.516996 0.507556
O O12 0.728554 0.870052 0.250000
O O13 0.725104 0.836707 0.530948
O O14 0.024645 0.750000 0.500000
O O15 0.982653 0.707542 0.750000
O O16 0.887652 0.692900 0.504784
O O17 0.375330 0.965519 0.750000
O O18 0.276343 0.956391 0.510195
O O19 0.804951 0.708631 0.250000
O O20 0.751881 0.750000 0.000000
O O21 0.170891 0.974998 0.750000
#
# Coordination Sequence:
#
# PCOD8232631 Si02
#       8
#     8   8   8   8   8   8   8   8
#     4  10  21  35  50  71 100 134 171 208 249 296
#     4  11  21  31  46  71 101 135 174 209 240 290
#     4   9  18  31  48  70  96 126 162 203 247 292
#     4  11  20  33  51  72 100 134 168 202 248 299
#     4  11  21  34  53  73  98 130 165 207 251 294
#     4   9  17  31  48  69  94 127 167 204 247 291
#     4  11  21  34  51  74 101 130 166 203 247 295
#     4  10  20  35  51  68  99 138 172 210 250 295
#
# _framework density 16.693346999999999
#
# number of rings (size 3 to 8) (size 9 to 14) (size 15 to 20)
#    0.000    1.750    2.500    4.125    0.000    2.500 
#    0.000    0.000    0.000    0.000    0.000    0.875 
#    0.000    6.000    0.000    0.000    0.000    0.000 
#
# Total GULP energy -793685.296234 kJ/mol
# GULP energy per Si atom -12401.332754 kJ/mol
# Density = 1.665535 g / cm^3
# Si number density = 16.693347 Si / 1000 Ang^3
#
#
#
# Elastic Constant Matrix: (Units=GPa)
#
#
# Indices 1 2 3 4 5 6 
#
# 1 81.5161 47.5271 29.4598 0.0000 0.0000 0.0000
# 2 47.5271 112.7647 42.9675 0.0000 0.0000 0.0000
# 3 29.4598 42.9675 76.1315 0.0000 0.0000 0.0000
# 4 0.0000 0.0000 0.0000 29.2186 0.0000 0.0000
# 5 0.0000 0.0000 0.0000 0.0000 21.8251 0.0000
# 6 0.0000 0.0000 0.0000 0.0000 0.0000 18.3989
#
#
#
# Elastic Compliance Matrix: (Units=1/GPa)
#
#
# Indices 1 2 3 4 5 6 
#
# 1 0.016855 -0.005884 -0.003201 0.000000 0.000000 0.000000
# 2 -0.005884 0.013352 -0.005259 0.000000 0.000000 0.000000
# 3 -0.003201 -0.005259 0.017342 0.000000 0.000000 0.000000
# 4 0.000000 0.000000 0.000000 0.034225 0.000000 0.000000
# 5 0.000000 0.000000 0.000000 0.000000 0.045819 0.000000
# 6 0.000000 0.000000 0.000000 0.000000 0.000000 0.054351
#
#
# Mechanical properties :
#
#
# Convention : Reuss Voigt Hill
#
# Bulk Modulus (GPa) = 53.02065 56.70233 54.86149
# Shear Modulus (GPa) = 23.05014 23.91904 23.48459
#
# Velocity S-wave (km/s) = 3.71994 3.78941 3.75483
# Velocity P-wave (km/s) = 7.09092 7.29293 7.19263
#
# Compressibility (1/GPa) = 0.01886058
#
# Stress axis : x y z
#
# Youngs Moduli (GPa) = 59.32898 74.89656 57.66404
#
# Poissons Ratio (x) = 0.44070 0.18460
# Poissons Ratio (y) = 0.34910 0.30323
# Poissons Ratio (z) = 0.18993 0.39385
#
# Static dielectric constant tensor:
#      x y z
#    x 3.099160 0.000000 0.000000 
#    y 0.000000 3.134600 0.000000 
#    z 0.000000 0.000000 3.126070 
# 
# 
# High freq. dielectric constant tensor:
#      x y z
#    x 1.621490 0.000000 0.000000 
#    y 0.000000 1.630990 0.000000 
#    z 0.000000 0.000000 1.649830 
# 
# From -- ./inp_files/6086.got.cif
#   From: 2010.03.12/outbox.cif.g09.slc.cpg/sg57_4_cif.got.tgz:6086.got - 2010.04.16 15:48:40.
