data_PCOD8232970
_publ_section_title
;
Structure prediction by ZEFSAII (Michael W. Deem and Ramdas Pophale) SiO2 
 PCOD8232970
Probable space group: P B C M
;
_chemical_formula_sum "Si O2"
_cell_formula_units_Z 48
_cell_length_a 30.592830
_cell_length_b 9.370041
_cell_length_c 8.510793
_cell_angle_alpha 90.000000
_cell_angle_beta 90.000000
_cell_angle_gamma 90.000000
_cell_volume 2439.670486
_symmetry_space_group_name_H-M "P B C M"
_symmetry_group_IT_number 57
_symmetry_cell_setting 'orthorhombic'
loop_
_space_group_symop_operation_xyz
x,y,z
-x,-y,1/2+z
x,1/2-y,-z
-x,1/2+y,1/2-z
-x,-y,-z
x,y,1/2-z
-x,1/2+y,z
x,1/2-y,1/2+z
loop_
_atom_site_type_symbol
_atom_site_label
_atom_site_fract_x
_atom_site_fract_y
_atom_site_fract_z
Si Si1 0.459940 0.590350 0.935883
Si Si2 0.960634 0.908417 0.435615
Si Si3 0.792576 0.399900 0.434970
Si Si4 0.129546 0.093109 0.063629
Si Si5 0.619103 0.590965 0.935821
Si Si6 0.693752 0.404773 0.063188
O O1 0.462372 0.596192 0.750000
O O2 0.462086 0.750000 0.000000
O O3 0.500000 0.500000 0.000000
O O4 0.415563 0.515499 0.988172
O O5 0.965586 0.750000 0.500000
O O6 0.961702 0.906070 0.250000
O O7 0.914751 0.976591 0.494147
O O8 0.000000 0.000000 0.500000
O O9 0.808336 0.250000 0.500000
O O10 0.793478 0.393553 0.250000
O O11 0.827494 0.512776 0.499556
O O12 0.743466 0.436294 0.491130
O O13 0.126301 0.091671 0.250000
O O14 0.134670 0.250000 0.000000
O O15 0.613180 0.593315 0.750000
O O16 0.612607 0.750000 0.000000
O O17 0.666398 0.530961 0.983179
O O18 0.687612 0.408528 0.250000
O O19 0.678541 0.250000 0.000000
#
# Coordination Sequence:
#
# PCOD8232970 Si02
#       6
#     8   8   8   8   8   8
#     4  12  25  44  67  94 125 161 200 244 293 348
#     4  11  22  38  58  82 110 145 185 231 281 337
#     4   9  20  36  57  83 114 148 189 234 282 337
#     4  10  20  36  55  80 111 146 185 230 280 338
#     4  12  25  42  62  89 121 158 199 245 294 347
#     4  10  20  38  60  86 117 154 195 240 289 343
#
# _framework density 19.674787999999999
#
# number of rings (size 3 to 8) (size 9 to 14) (size 15 to 20)
#    0.000    1.333    0.000    7.500    0.000    3.333 
#    0.000    3.333    0.000    0.000    0.000    0.000 
#    0.000    0.000    0.000    0.000    0.000    0.000 
#
# Total GULP energy -595309.778014 kJ/mol
# GULP energy per Si atom -12402.287042 kJ/mol
# Density = 1.963001 g / cm^3
# Si number density = 19.674788 Si / 1000 Ang^3
#
#
#
# Elastic Constant Matrix: (Units=GPa)
#
#
# Indices 1 2 3 4 5 6 
#
# 1 143.8899 81.9886 51.0694 0.0000 0.0000 0.0000
# 2 81.9886 129.1831 53.2340 0.0000 0.0000 0.0000
# 3 51.0694 53.2340 139.1611 0.0000 0.0000 0.0000
# 4 0.0000 0.0000 0.0000 38.0153 0.0000 0.0000
# 5 0.0000 0.0000 0.0000 0.0000 31.7600 0.0000
# 6 0.0000 0.0000 0.0000 0.0000 0.0000 47.1396
#
#
#
# Elastic Compliance Matrix: (Units=1/GPa)
#
#
# Indices 1 2 3 4 5 6 
#
# 1 0.011197 -0.006426 -0.001651 0.000000 0.000000 0.000000
# 2 -0.006426 0.012878 -0.002568 0.000000 0.000000 0.000000
# 3 -0.001651 -0.002568 0.008774 0.000000 0.000000 0.000000
# 4 0.000000 0.000000 0.000000 0.026305 0.000000 0.000000
# 5 0.000000 0.000000 0.000000 0.000000 0.031486 0.000000
# 6 0.000000 0.000000 0.000000 0.000000 0.000000 0.021214
#
#
# Mechanical properties :
#
#
# Convention : Reuss Voigt Hill
#
# Bulk Modulus (GPa) = 86.51283 87.20200 86.85741
# Shear Modulus (GPa) = 36.49705 38.44580 37.47143
#
# Velocity S-wave (km/s) = 4.31166 4.42528 4.36884
# Velocity P-wave (km/s) = 8.29784 8.39813 8.34814
#
# Compressibility (1/GPa) = 0.01155898
#
# Stress axis : x y z
#
# Youngs Moduli (GPa) = 89.30605 77.65354 113.97226
#
# Poissons Ratio (x) = 0.49903 0.18816
# Poissons Ratio (y) = 0.57391 0.29266
# Poissons Ratio (z) = 0.14744 0.19940
#
# Static dielectric constant tensor:
#      x y z
#    x 4.095750 0.000000 0.000000 
#    y 0.000000 3.660430 0.000000 
#    z 0.000000 0.000000 3.723810 
# 
# 
# High freq. dielectric constant tensor:
#      x y z
#    x 1.786300 0.000000 0.000000 
#    y 0.000000 1.766270 0.000000 
#    z 0.000000 0.000000 1.783380 
# 
# From -- ./inp_files/10000.got.cif
#   From: 2010.03.12/outbox.cif.g09.slc.cpg/sg57_5_cif.got.tgz:10000.got - 2010.04.16 15:48:40.
