data_PCOD8232659
_publ_section_title
;
Structure prediction by ZEFSAII (Michael W. Deem and Ramdas Pophale) SiO2 
 PCOD8232659
Probable space group: P B C M
;
_chemical_formula_sum "Si O2"
_cell_formula_units_Z 48
_cell_length_a 29.262158
_cell_length_b 10.230818
_cell_length_c 8.579871
_cell_angle_alpha 90.000000
_cell_angle_beta 90.000000
_cell_angle_gamma 90.000000
_cell_volume 2568.605854
_symmetry_space_group_name_H-M "P B C M"
_symmetry_group_IT_number 57
_symmetry_cell_setting 'orthorhombic'
loop_
_space_group_symop_operation_xyz
x,y,z
-x,-y,1/2+z
x,1/2-y,-z
-x,1/2+y,1/2-z
-x,-y,-z
x,y,1/2-z
-x,1/2+y,z
x,1/2-y,1/2+z
loop_
_atom_site_type_symbol
_atom_site_label
_atom_site_fract_x
_atom_site_fract_y
_atom_site_fract_z
Si Si1 0.699522 0.386303 0.066832
Si Si2 0.966964 0.890282 0.565102
Si Si3 0.468622 0.387554 0.933934
Si Si4 0.132191 0.388359 0.065488
Si Si5 0.635116 0.886753 0.934312
Si Si6 0.195594 0.889196 0.065445
O O1 0.694391 0.379952 0.250000
O O2 0.667782 0.500562 0.996879
O O3 0.751777 0.411786 0.018262
O O4 0.681419 0.250000 0.000000
O O5 0.982759 0.750000 0.500000
O O6 0.969165 0.887314 0.750000
O O7 0.916067 0.924716 0.510668
O O8 0.000000 0.000000 0.500000
O O9 0.472337 0.384751 0.750000
O O10 0.416694 0.413298 0.990141
O O11 0.486444 0.250000 0.000000
O O12 0.500000 0.500000 0.000000
O O13 0.126343 0.378720 0.250000
O O14 0.150139 0.250000 0.000000
O O15 0.168072 0.498504 0.020860
O O16 0.638152 0.881624 0.750000
O O17 0.653367 0.750000 0.000000
O O18 0.187588 0.895250 0.250000
O O19 0.178588 0.750000 0.000000
#
# Coordination Sequence:
#
# PCOD8232659 Si02
#       6
#     8   8   8   8   8   8
#     4   9  19  35  54  77 106 137 174 216 262 313
#     4  11  22  39  60  85 114 146 183 225 271 320
#     4  10  20  35  54  76 105 138 176 218 265 316
#     4  11  22  38  58  82 111 145 182 223 269 319
#     4   9  19  35  53  76 104 136 173 216 261 313
#     4  10  20  36  56  80 109 142 179 222 267 317
#
# _framework density 18.687179
#
# number of rings (size 3 to 8) (size 9 to 14) (size 15 to 20)
#    0.000    2.000    0.000    5.000    0.000    4.000 
#    0.000    6.667    0.000    0.000    0.000    0.000 
#    0.000    0.000    0.000    0.000    0.000    0.000 
#
# Total GULP energy -595345.967089 kJ/mol
# GULP energy per Si atom -12403.040981 kJ/mol
# Density = 1.864465 g / cm^3
# Si number density = 18.687179 Si / 1000 Ang^3
#
#
#
# Elastic Constant Matrix: (Units=GPa)
#
#
# Indices 1 2 3 4 5 6 
#
# 1 91.9011 100.7747 38.0244 0.0000 0.0000 0.0000
# 2 100.7747 187.7572 52.3623 0.0000 0.0000 0.0000
# 3 38.0244 52.3623 97.8126 0.0000 0.0000 0.0000
# 4 0.0000 0.0000 0.0000 38.0244 0.0000 0.0000
# 5 0.0000 0.0000 0.0000 0.0000 24.0941 0.0000
# 6 0.0000 0.0000 0.0000 0.0000 0.0000 41.3437
#
#
#
# Elastic Compliance Matrix: (Units=1/GPa)
#
#
# Indices 1 2 3 4 5 6 
#
# 1 0.027300 -0.013745 -0.003255 0.000000 0.000000 0.000000
# 2 -0.013745 0.013181 -0.001713 0.000000 0.000000 0.000000
# 3 -0.003255 -0.001713 0.012406 0.000000 0.000000 0.000000
# 4 0.000000 0.000000 0.000000 0.026299 0.000000 0.000000
# 5 0.000000 0.000000 0.000000 0.000000 0.041504 0.000000
# 6 0.000000 0.000000 0.000000 0.000000 0.000000 0.024188
#
#
# Mechanical properties :
#
#
# Convention : Reuss Voigt Hill
#
# Bulk Modulus (GPa) = 64.67560 84.42152 74.54856
# Shear Modulus (GPa) = 26.67282 33.11308 29.89295
#
# Velocity S-wave (km/s) = 3.78210 4.21404 4.00390
# Velocity P-wave (km/s) = 7.33193 8.30372 7.83291
#
# Compressibility (1/GPa) = 0.01546178
#
# Stress axis : x y z
#
# Youngs Moduli (GPa) = 36.62980 75.86600 80.60710
#
# Poissons Ratio (x) = 1.04279 0.26235
# Poissons Ratio (y) = 0.50348 0.13807
# Poissons Ratio (z) = 0.11922 0.12995
#
# Static dielectric constant tensor:
#      x y z
#    x 3.557360 0.000000 0.000000 
#    y 0.000000 3.600330 0.000000 
#    z 0.000000 0.000000 3.476060 
# 
# 
# High freq. dielectric constant tensor:
#      x y z
#    x 1.722460 0.000000 0.000000 
#    y 0.000000 1.737300 0.000000 
#    z 0.000000 0.000000 1.735800 
# 
# From -- ./inp_files/9909.got.cif
#   From: 2010.03.12/outbox.cif.g09.slc.cpg/sg57_5_cif.got.tgz:9909.got - 2010.04.16 15:48:40.
