data_PCOD8232320
_publ_section_title
;
Structure prediction by ZEFSAII (Michael W. Deem and Ramdas Pophale) SiO2 
 PCOD8232320
Probable space group: P B C M
;
_chemical_formula_sum "Si O2"
_cell_formula_units_Z 56
_cell_length_a 16.541714
_cell_length_b 21.108812
_cell_length_c 8.838197
_cell_angle_alpha 90.000000
_cell_angle_beta 90.000000
_cell_angle_gamma 90.000000
_cell_volume 3086.085666
_symmetry_space_group_name_H-M "P B C M"
_symmetry_group_IT_number 57
_symmetry_cell_setting 'orthorhombic'
loop_
_space_group_symop_operation_xyz
x,y,z
-x,-y,1/2+z
x,1/2-y,-z
-x,1/2+y,1/2-z
-x,-y,-z
x,y,1/2-z
-x,1/2+y,z
x,1/2-y,1/2+z
loop_
_atom_site_type_symbol
_atom_site_label
_atom_site_fract_x
_atom_site_fract_y
_atom_site_fract_z
Si Si1 0.358246 0.817053 0.427587
Si Si2 0.785952 0.519037 0.922409
Si Si3 0.053659 0.684034 0.570159
Si Si4 0.468346 0.904976 0.577151
Si Si5 0.207341 0.873671 0.924992
Si Si6 0.621057 0.981462 0.576146
Si Si7 0.958246 0.560499 0.572767
O O1 0.341280 0.750000 0.500000
O O2 0.351048 0.811520 0.250000
O O3 0.446288 0.843945 0.475367
O O4 0.293134 0.865956 0.493446
O O5 0.758657 0.530777 0.750000
O O6 0.815786 0.446942 0.944135
O O7 0.862774 0.562135 0.966963
O O8 0.711514 0.537962 0.029741
O O9 0.021521 0.750000 0.500000
O O10 0.055835 0.689923 0.750000
O O11 0.143163 0.670727 0.508614
O O12 0.995626 0.626829 0.514897
O O13 0.447999 0.888763 0.750000
O O14 0.562982 0.920485 0.555339
O O15 0.412058 0.963686 0.530778
O O16 0.212357 0.853241 0.750000
O O17 0.619536 0.004884 0.750000
O O18 0.972153 0.553128 0.750000
O O19 0.000000 0.500000 0.500000
#
# Coordination Sequence:
#
# PCOD8232320 Si02
#       7
#     8   8   8   8   8   8   8
#     4  12  24  37  54  77 109 147 185 222 267 323
#     4  10  20  34  55  81 113 144 178 227 279 328
#     4  11  23  38  57  80 111 148 189 231 275 334
#     4  10  20  35  53  77 108 141 179 220 263 316
#     4  11  21  35  55  80 113 148 182 223 273 328
#     4  10  20  33  54  81 108 139 176 219 267 318
#     4  10  21  37  57  82 109 144 185 230 280 332
#
# _framework density 18.145966000000001
#
# number of rings (size 3 to 8) (size 9 to 14) (size 15 to 20)
#    0.000    1.429    2.857    3.429    0.000    3.429 
#    0.000    0.000    0.000    0.857    0.000    4.000 
#    0.000    0.000    0.000    0.000    0.000    0.000 
#
# Total GULP energy -694545.337164 kJ/mol
# GULP energy per Si atom -12402.595306 kJ/mol
# Density = 1.810466 g / cm^3
# Si number density = 18.145966 Si / 1000 Ang^3
#
#
#
# Elastic Constant Matrix: (Units=GPa)
#
#
# Indices 1 2 3 4 5 6 
#
# 1 97.3705 44.6985 38.8641 0.0000 0.0000 0.0000
# 2 44.6985 83.6790 42.9499 0.0000 0.0000 0.0000
# 3 38.8641 42.9499 99.5767 0.0000 0.0000 0.0000
# 4 0.0000 0.0000 0.0000 27.4462 0.0000 0.0000
# 5 0.0000 0.0000 0.0000 0.0000 30.2225 0.0000
# 6 0.0000 0.0000 0.0000 0.0000 0.0000 26.5211
#
#
#
# Elastic Compliance Matrix: (Units=1/GPa)
#
#
# Indices 1 2 3 4 5 6 
#
# 1 0.014240 -0.006106 -0.002924 0.000000 0.000000 0.000000
# 2 -0.006106 0.017966 -0.005366 0.000000 0.000000 0.000000
# 3 -0.002924 -0.005366 0.013498 0.000000 0.000000 0.000000
# 4 0.000000 0.000000 0.000000 0.036435 0.000000 0.000000
# 5 0.000000 0.000000 0.000000 0.000000 0.033088 0.000000
# 6 0.000000 0.000000 0.000000 0.000000 0.000000 0.037706
#
#
# Mechanical properties :
#
#
# Convention : Reuss Voigt Hill
#
# Bulk Modulus (GPa) = 59.12848 59.29457 59.21152
# Shear Modulus (GPa) = 26.68614 27.11221 26.89918
#
# Velocity S-wave (km/s) = 3.83905 3.86958 3.85434
# Velocity P-wave (km/s) = 7.23234 7.26032 7.24634
#
# Compressibility (1/GPa) = 0.01691232
#
# Stress axis : x y z
#
# Youngs Moduli (GPa) = 70.22440 55.66012 74.08252
#
# Poissons Ratio (x) = 0.33984 0.21664
# Poissons Ratio (y) = 0.42876 0.39755
# Poissons Ratio (z) = 0.20536 0.29869
#
# Static dielectric constant tensor:
#      x y z
#    x 3.435320 0.000000 0.000000 
#    y 0.000000 3.283080 0.000000 
#    z 0.000000 0.000000 3.422900 
# 
# 
# High freq. dielectric constant tensor:
#      x y z
#    x 1.699880 0.000000 0.000000 
#    y 0.000000 1.682570 0.000000 
#    z 0.000000 0.000000 1.714720 
# 
# From -- ./inp_files/5138.got.cif
#   From: 2010.03.12/outbox.cif.g09.slc.cpg/sg57_3_cif.got.tgz:5138.got - 2010.04.16 15:48:40.
