data_PCOD8232871
_publ_section_title
;
Structure prediction by ZEFSAII (Michael W. Deem and Ramdas Pophale) SiO2 
 PCOD8232871
Probable space group: P B C M
;
_chemical_formula_sum "Si O2"
_cell_formula_units_Z 48
_cell_length_a 30.889542
_cell_length_b 9.051699
_cell_length_c 8.686831
_cell_angle_alpha 90.000000
_cell_angle_beta 90.000000
_cell_angle_gamma 90.000000
_cell_volume 2428.862587
_symmetry_space_group_name_H-M "P B C M"
_symmetry_group_IT_number 57
_symmetry_cell_setting 'orthorhombic'
loop_
_space_group_symop_operation_xyz
x,y,z
-x,-y,1/2+z
x,1/2-y,-z
-x,1/2+y,1/2-z
-x,-y,-z
x,y,1/2-z
-x,1/2+y,z
x,1/2-y,1/2+z
loop_
_atom_site_type_symbol
_atom_site_label
_atom_site_fract_x
_atom_site_fract_y
_atom_site_fract_z
Si Si1 0.039909 0.586635 0.431785
Si Si2 0.779253 0.088362 0.928407
Si Si3 0.296253 0.406677 0.428422
Si Si4 0.874986 0.409796 0.071509
Si Si5 0.618491 0.411716 0.569727
Si Si6 0.540081 0.912220 0.932557
O O1 0.039323 0.750000 0.500000
O O2 0.036233 0.589995 0.250000
O O3 0.085315 0.507672 0.483667
O O4 0.000000 0.500000 0.500000
O O5 0.768563 0.106804 0.750000
O O6 0.827537 0.018844 0.953015
O O7 0.773200 0.250000 0.000000
O O8 0.747587 0.969394 0.000973
O O9 0.308814 0.250000 0.500000
O O10 0.288518 0.381748 0.250000
O O11 0.334394 0.521828 0.461467
O O12 0.887404 0.398947 0.250000
O O13 0.870552 0.250000 0.000000
O O14 0.617130 0.250000 0.500000
O O15 0.606986 0.407273 0.750000
O O16 0.584405 0.511505 0.480861
O O17 0.536507 0.905867 0.750000
O O18 0.539129 0.750000 0.000000
O O19 0.500000 0.000000 0.000000
#
# Coordination Sequence:
#
# PCOD8232871 Si02
#       6
#     8   8   8   8   8   8
#     4  11  21  35  55  80 110 145 184 230 280 336
#     4  10  20  35  58  85 114 146 187 234 281 335
#     4  11  24  40  60  85 118 155 193 237 289 345
#     4   9  17  31  52  79 108 142 183 229 278 333
#     4  11  24  42  64  92 122 157 199 245 293 345
#     4  12  25  43  66  93 126 163 202 247 296 350
#
# _framework density 19.762338
#
# number of rings (size 3 to 8) (size 9 to 14) (size 15 to 20)
#    0.000    1.333    0.000    7.500    0.000    7.333 
#    0.000    0.833    0.000    4.000    0.000    0.000 
#    0.000    0.000    0.000    0.000    0.000    0.000 
#
# Total GULP energy -595182.330729 kJ/mol
# GULP energy per Si atom -12399.631890 kJ/mol
# Density = 1.971736 g / cm^3
# Si number density = 19.762338 Si / 1000 Ang^3
#
#
#
# Elastic Constant Matrix: (Units=GPa)
#
#
# Indices 1 2 3 4 5 6 
#
# 1 138.0734 51.1003 82.5723 0.0000 0.0000 0.0000
# 2 51.1003 110.9081 59.9982 0.0000 0.0000 0.0000
# 3 82.5723 59.9982 181.6428 0.0000 0.0000 0.0000
# 4 0.0000 0.0000 0.0000 35.5942 0.0000 0.0000
# 5 0.0000 0.0000 0.0000 0.0000 34.8401 0.0000
# 6 0.0000 0.0000 0.0000 0.0000 0.0000 39.7394
#
#
#
# Elastic Compliance Matrix: (Units=1/GPa)
#
#
# Indices 1 2 3 4 5 6 
#
# 1 0.010604 -0.002774 -0.003904 0.000000 0.000000 0.000000
# 2 -0.002774 0.011704 -0.002605 0.000000 0.000000 0.000000
# 3 -0.003904 -0.002605 0.008141 0.000000 0.000000 0.000000
# 4 0.000000 0.000000 0.000000 0.028094 0.000000 0.000000
# 5 0.000000 0.000000 0.000000 0.000000 0.028703 0.000000
# 6 0.000000 0.000000 0.000000 0.000000 0.000000 0.025164
#
#
# Mechanical properties :
#
#
# Convention : Reuss Voigt Hill
#
# Bulk Modulus (GPa) = 84.15768 90.88511 87.52139
# Shear Modulus (GPa) = 37.05476 37.83164 37.44320
#
# Velocity S-wave (km/s) = 4.33485 4.38005 4.35751
# Velocity P-wave (km/s) = 8.22994 8.46574 8.34867
#
# Compressibility (1/GPa) = 0.01188246
#
# Stress axis : x y z
#
# Youngs Moduli (GPa) = 94.30516 85.44369 122.84166
#
# Poissons Ratio (x) = 0.23699 0.47960
# Poissons Ratio (y) = 0.26156 0.32000
# Poissons Ratio (z) = 0.36819 0.22258
#
# Static dielectric constant tensor:
#      x y z
#    x 4.554360 0.000000 0.000000 
#    y 0.000000 3.403460 0.000000 
#    z 0.000000 0.000000 4.021170 
# 
# 
# High freq. dielectric constant tensor:
#      x y z
#    x 1.797390 0.000000 0.000000 
#    y 0.000000 1.749580 0.000000 
#    z 0.000000 0.000000 1.793660 
# 
# From -- ./inp_files/9969.got.cif
#   From: 2010.03.12/outbox.cif.g09.slc.cpg/sg57_5_cif.got.tgz:9969.got - 2010.04.16 15:48:40.
