data_PCOD8232700
_publ_section_title
;
Structure prediction by ZEFSAII (Michael W. Deem and Ramdas Pophale) SiO2 
 PCOD8232700
Probable space group: P B C M
;
_chemical_formula_sum "Si O2"
_cell_formula_units_Z 56
_cell_length_a 21.292790
_cell_length_b 15.030306
_cell_length_c 9.175280
_cell_angle_alpha 90.000000
_cell_angle_beta 90.000000
_cell_angle_gamma 90.000000
_cell_volume 2936.430455
_symmetry_space_group_name_H-M "P B C M"
_symmetry_group_IT_number 57
_symmetry_cell_setting 'orthorhombic'
loop_
_space_group_symop_operation_xyz
x,y,z
-x,-y,1/2+z
x,1/2-y,-z
-x,1/2+y,1/2-z
-x,-y,-z
x,y,1/2-z
-x,1/2+y,z
x,1/2-y,1/2+z
loop_
_atom_site_type_symbol
_atom_site_label
_atom_site_fract_x
_atom_site_fract_y
_atom_site_fract_z
Si Si1 0.151559 0.154879 0.421809
Si Si2 0.356624 0.999105 0.582693
Si Si3 0.443035 0.661422 0.419662
Si Si4 0.878798 0.344178 0.920640
Si Si5 0.412870 0.160267 0.420920
Si Si6 0.787600 0.497605 0.582379
Si Si7 0.014975 0.160211 0.416098
O O1 0.159560 0.250000 0.500000
O O2 0.164625 0.166869 0.250000
O O3 0.081419 0.112281 0.452154
O O4 0.200850 0.085981 0.488399
O O5 0.373298 0.022980 0.750000
O O6 0.368981 0.083021 0.481091
O O7 0.399730 0.918817 0.525294
O O8 0.284672 0.969856 0.566760
O O9 0.420562 0.750000 0.500000
O O10 0.433932 0.678991 0.250000
O O11 0.514871 0.637833 0.458364
O O12 0.868660 0.326362 0.750000
O O13 0.828362 0.415235 0.979222
O O14 0.948511 0.388360 0.951530
O O15 0.869332 0.250000 0.000000
O O16 0.391550 0.250000 0.500000
O O17 0.401683 0.171626 0.250000
O O18 0.805555 0.517765 0.750000
O O19 0.013555 0.250000 0.500000
O O20 0.015814 0.188774 0.250000
#
# Coordination Sequence:
#
# PCOD8232700 Si02
#       7
#     8   8   8   8   8   8   8
#     4  10  20  35  55  77 102 133 172 218 264 310
#     4  10  21  37  54  75 107 143 176 211 252 301
#     4   9  19  35  56  82 109 136 169 211 258 305
#     4   9  18  34  54  76 104 136 171 213 260 308
#     4  10  20  35  57  83 107 134 170 213 260 306
#     4  10  22  37  52  74 106 143 177 209 253 307
#     4   8  15  29  50  75 100 128 165 211 262 309
#
# _framework density 19.070772999999999
#
# number of rings (size 3 to 8) (size 9 to 14) (size 15 to 20)
#    0.000    2.571    0.000    1.286    0.000    4.571 
#    0.000    0.000    0.000    0.000    0.000    0.000 
#    0.000    0.000    0.000    0.000    0.000    0.000 
#
# Total GULP energy -694093.621068 kJ/mol
# GULP energy per Si atom -12394.528948 kJ/mol
# Density = 1.902737 g / cm^3
# Si number density = 19.070773 Si / 1000 Ang^3
#
#
#
# Elastic Constant Matrix: (Units=GPa)
#
#
# Indices 1 2 3 4 5 6 
#
# 1 64.8371 27.0822 20.4153 0.0000 0.0000 0.0000
# 2 27.0822 82.9422 31.0678 0.0000 0.0000 0.0000
# 3 20.4153 31.0678 56.9987 0.0000 0.0000 0.0000
# 4 0.0000 0.0000 0.0000 33.0244 0.0000 0.0000
# 5 0.0000 0.0000 0.0000 0.0000 23.9826 0.0000
# 6 0.0000 0.0000 0.0000 0.0000 0.0000 22.8274
#
#
#
# Elastic Compliance Matrix: (Units=1/GPa)
#
#
# Indices 1 2 3 4 5 6 
#
# 1 0.018633 -0.004504 -0.004219 0.000000 0.000000 0.000000
# 2 -0.004504 0.016238 -0.007238 0.000000 0.000000 0.000000
# 3 -0.004219 -0.007238 0.023000 0.000000 0.000000 0.000000
# 4 0.000000 0.000000 0.000000 0.030281 0.000000 0.000000
# 5 0.000000 0.000000 0.000000 0.000000 0.041697 0.000000
# 6 0.000000 0.000000 0.000000 0.000000 0.000000 0.043807
#
#
# Mechanical properties :
#
#
# Convention : Reuss Voigt Hill
#
# Bulk Modulus (GPa) = 38.53465 40.21207 39.37336
# Shear Modulus (GPa) = 23.33974 24.38106 23.86040
#
# Velocity S-wave (km/s) = 3.50215 3.57942 3.54100
# Velocity P-wave (km/s) = 6.05007 6.18179 6.11629
#
# Compressibility (1/GPa) = 0.02595067
#
# Stress axis : x y z
#
# Youngs Moduli (GPa) = 53.66865 61.58328 43.47759
#
# Poissons Ratio (x) = 0.27735 0.18343
# Poissons Ratio (y) = 0.24171 0.31468
# Poissons Ratio (z) = 0.22643 0.44572
#
# Static dielectric constant tensor:
#      x y z
#    x 3.962950 0.000000 0.000000 
#    y 0.000000 3.282990 0.000000 
#    z 0.000000 0.000000 3.444770 
# 
# 
# High freq. dielectric constant tensor:
#      x y z
#    x 1.749400 0.000000 0.000000 
#    y 0.000000 1.724960 0.000000 
#    z 0.000000 0.000000 1.740660 
# 
# From -- ./inp_files/8007.got.cif
#   From: 2010.03.12/outbox.cif.g09.slc.cpg/sg57_5_cif.got.tgz:8007.got - 2010.04.16 15:48:40.
