data_PCOD8232927
_publ_section_title
;
Structure prediction by ZEFSAII (Michael W. Deem and Ramdas Pophale) SiO2 
 PCOD8232927
Probable space group: P B C M
;
_chemical_formula_sum "Si O2"
_cell_formula_units_Z 56
_cell_length_a 14.637040
_cell_length_b 22.289233
_cell_length_c 9.308245
_cell_angle_alpha 90.000000
_cell_angle_beta 90.000000
_cell_angle_gamma 90.000000
_cell_volume 3036.799991
_symmetry_space_group_name_H-M "P B C M"
_symmetry_group_IT_number 57
_symmetry_cell_setting 'orthorhombic'
loop_
_space_group_symop_operation_xyz
x,y,z
-x,-y,1/2+z
x,1/2-y,-z
-x,1/2+y,1/2-z
-x,-y,-z
x,y,1/2-z
-x,1/2+y,z
x,1/2-y,1/2+z
loop_
_atom_site_type_symbol
_atom_site_label
_atom_site_fract_x
_atom_site_fract_y
_atom_site_fract_z
Si Si1 0.885392 0.858784 0.916038
Si Si2 0.086320 0.476145 0.085578
Si Si3 0.389211 0.555803 0.582165
Si Si4 0.784654 0.086823 0.413021
Si Si5 0.079828 0.808437 0.582545
Si Si6 0.568884 0.579260 0.082575
Si Si7 0.690672 0.808418 0.584491
O O1 0.891027 0.879876 0.750000
O O2 0.798284 0.816918 0.943510
O O3 0.975712 0.822712 0.960864
O O4 0.874965 0.916190 0.015929
O O5 0.056879 0.464810 0.250000
O O6 0.168165 0.522751 0.076044
O O7 0.000000 0.500000 0.000000
O O8 0.393360 0.569549 0.750000
O O9 0.301677 0.588841 0.517093
O O10 0.383380 0.484631 0.550353
O O11 0.477517 0.585338 0.509706
O O12 0.752558 0.099338 0.250000
O O13 0.856530 0.136634 0.465292
O O14 0.114087 0.750000 0.500000
O O15 0.088105 0.795595 0.750000
O O16 0.543327 0.584095 0.250000
O O17 0.637080 0.632052 0.033415
O O18 0.655749 0.750000 0.500000
O O19 0.670100 0.796187 0.750000
#
# Coordination Sequence:
#
# PCOD8232927 Si02
#       7
#     8   8   8   8   8   8   8
#     4  10  20  37  56  79 114 148 183 229 277 326
#     4  11  21  34  54  81 112 146 183 224 275 327
#     4  10  20  35  60  88 108 137 181 227 275 334
#     4  10  21  37  54  78 113 147 176 221 277 322
#     4  10  21  37  54  74 106 146 186 226 268 315
#     4   9  19  37  57  82 114 145 174 220 284 333
#     4  10  21  36  57  82 114 152 188 230 278 329
#
# _framework density 18.440463999999999
#
# number of rings (size 3 to 8) (size 9 to 14) (size 15 to 20)
#    0.000    2.000    1.429    2.143    0.000    5.143 
#    0.000    0.714    0.000    0.000    0.000    0.000 
#    0.000    0.000    0.000    0.000    0.000    0.000 
#
# Total GULP energy -694604.560298 kJ/mol
# GULP energy per Si atom -12403.652862 kJ/mol
# Density = 1.839849 g / cm^3
# Si number density = 18.440464 Si / 1000 Ang^3
#
#
#
# Elastic Constant Matrix: (Units=GPa)
#
#
# Indices 1 2 3 4 5 6 
#
# 1 114.2000 38.5328 50.0327 0.0000 0.0000 0.0000
# 2 38.5328 100.1504 46.0046 0.0000 0.0000 0.0000
# 3 50.0327 46.0046 76.2199 0.0000 0.0000 0.0000
# 4 0.0000 0.0000 0.0000 35.4551 0.0000 0.0000
# 5 0.0000 0.0000 0.0000 0.0000 29.0710 0.0000
# 6 0.0000 0.0000 0.0000 0.0000 0.0000 19.6866
#
#
#
# Elastic Compliance Matrix: (Units=1/GPa)
#
#
# Indices 1 2 3 4 5 6 
#
# 1 0.012438 -0.001432 -0.007300 0.000000 0.000000 0.000000
# 2 -0.001432 0.013980 -0.007498 0.000000 0.000000 0.000000
# 3 -0.007300 -0.007498 0.022438 0.000000 0.000000 0.000000
# 4 0.000000 0.000000 0.000000 0.028205 0.000000 0.000000
# 5 0.000000 0.000000 0.000000 0.000000 0.034399 0.000000
# 6 0.000000 0.000000 0.000000 0.000000 0.000000 0.050796
#
#
# Mechanical properties :
#
#
# Convention : Reuss Voigt Hill
#
# Bulk Modulus (GPa) = 60.99390 62.19004 61.59197
# Shear Modulus (GPa) = 24.97735 27.24257 26.10996
#
# Velocity S-wave (km/s) = 3.68433 3.84777 3.76693
# Velocity P-wave (km/s) = 7.15870 7.31700 7.23828
#
# Compressibility (1/GPa) = 0.01639508
#
# Stress axis : x y z
#
# Youngs Moduli (GPa) = 80.39770 71.52938 44.56778
#
# Poissons Ratio (x) = 0.10244 0.32536
# Poissons Ratio (y) = 0.11514 0.33417
# Poissons Ratio (z) = 0.58693 0.53633
#
# Static dielectric constant tensor:
#      x y z
#    x 3.324320 0.000000 0.000000 
#    y 0.000000 3.763130 0.000000 
#    z 0.000000 0.000000 3.337160 
# 
# 
# High freq. dielectric constant tensor:
#      x y z
#    x 1.713610 0.000000 0.000000 
#    y 0.000000 1.709650 0.000000 
#    z 0.000000 0.000000 1.716570 
# 
# From -- ./inp_files/5127.got.cif
#   From: 2010.03.12/outbox.cif.g09.slc.cpg/sg57_3_cif.got.tgz:5127.got - 2010.04.16 15:48:40.
