data_PCOD8232870
_publ_section_title
;
Structure prediction by ZEFSAII (Michael W. Deem and Ramdas Pophale) SiO2 
 PCOD8232870
Probable space group: P B C M
;
_chemical_formula_sum "Si O2"
_cell_formula_units_Z 56
_cell_length_a 21.273412
_cell_length_b 14.866740
_cell_length_c 8.871996
_cell_angle_alpha 90.000000
_cell_angle_beta 90.000000
_cell_angle_gamma 90.000000
_cell_volume 2805.913216
_symmetry_space_group_name_H-M "P B C M"
_symmetry_group_IT_number 57
_symmetry_cell_setting 'orthorhombic'
loop_
_space_group_symop_operation_xyz
x,y,z
-x,-y,1/2+z
x,1/2-y,-z
-x,1/2+y,1/2-z
-x,-y,-z
x,y,1/2-z
-x,1/2+y,z
x,1/2-y,1/2+z
loop_
_atom_site_type_symbol
_atom_site_label
_atom_site_fract_x
_atom_site_fract_y
_atom_site_fract_z
Si Si1 0.089213 0.512913 0.073410
Si Si2 0.569101 0.101514 0.077408
Si Si3 0.688158 0.835253 0.423237
Si Si4 0.233526 0.988133 0.921567
Si Si5 0.311221 0.837040 0.425361
Si Si6 0.429170 0.087642 0.424477
Si Si7 0.998979 0.650590 0.928124
O O1 0.079413 0.529818 0.250000
O O2 0.161684 0.507903 0.026296
O O3 0.058351 0.416774 0.027543
O O4 0.061127 0.599363 0.986919
O O5 0.591173 0.109551 0.250000
O O6 0.497378 0.134785 0.055374
O O7 0.616035 0.159583 0.976387
O O8 0.574998 0.998167 0.031296
O O9 0.722169 0.750000 0.500000
O O10 0.670298 0.818469 0.250000
O O11 0.624482 0.845961 0.519670
O O12 0.737756 0.914083 0.441014
O O13 0.239431 0.953867 0.750000
O O14 0.272731 0.924382 0.029621
O O15 0.278877 0.750000 0.500000
O O16 0.308861 0.824705 0.250000
O O17 0.418911 0.059656 0.250000
O O18 0.004060 0.664333 0.750000
O O19 0.990429 0.750000 0.000000
#
# Coordination Sequence:
#
# PCOD8232870 Si02
#       7
#     8   8   8   8   8   8   8
#     4   9  20  39  62  88 120 159 200 240 288 342
#     4  10  20  36  58  84 114 148 189 242 301 359
#     4  11  23  38  59  84 116 154 196 245 297 354
#     4  10  22  42  63  85 118 157 197 245 294 344
#     4  12  25  40  61  86 115 153 198 246 299 358
#     4  10  20  35  58  85 113 148 192 241 299 361
#     4  10  20  36  61  93 126 159 196 239 287 336
#
# _framework density 19.957851000000002
#
# number of rings (size 3 to 8) (size 9 to 14) (size 15 to 20)
#    0.000    1.714    1.429    3.000    0.000    5.143 
#    0.000    0.000    0.000    0.000    0.000    0.000 
#    0.000    0.000    0.000    0.000    0.000    0.000 
#
# Total GULP energy -694411.776860 kJ/mol
# GULP energy per Si atom -12400.210301 kJ/mol
# Density = 1.991243 g / cm^3
# Si number density = 19.957851 Si / 1000 Ang^3
#
#
#
# Elastic Constant Matrix: (Units=GPa)
#
#
# Indices 1 2 3 4 5 6 
#
# 1 110.4953 27.7386 43.9482 0.0000 0.0000 0.0000
# 2 27.7386 96.2236 42.5279 0.0000 0.0000 0.0000
# 3 43.9482 42.5279 111.7992 0.0000 0.0000 0.0000
# 4 0.0000 0.0000 0.0000 34.3136 0.0000 0.0000
# 5 0.0000 0.0000 0.0000 0.0000 13.7075 0.0000
# 6 0.0000 0.0000 0.0000 0.0000 0.0000 -20.7451
#
#
#
# Elastic Compliance Matrix: (Units=1/GPa)
#
#
# Indices 1 2 3 4 5 6 
#
# 1 0.010905 -0.001501 -0.003716 0.000000 0.000000 0.000000
# 2 -0.001501 0.012699 -0.004241 0.000000 0.000000 0.000000
# 3 -0.003716 -0.004241 0.012018 0.000000 0.000000 0.000000
# 4 0.000000 0.000000 0.000000 0.029143 0.000000 0.000000
# 5 0.000000 0.000000 0.000000 0.000000 0.072953 0.000000
# 6 0.000000 0.000000 0.000000 0.000000 0.000000 -0.048204
#
#
# Mechanical properties :
#
#
# Convention : Reuss Voigt Hill
#
# Bulk Modulus (GPa) = 59.85342 60.77194 60.31268
# Shear Modulus (GPa) = 43.86010 19.07543 31.46777
#
# Velocity S-wave (km/s) = 4.69298 3.09493 3.97509
# Velocity P-wave (km/s) = 7.70847 6.57934 7.16618
#
# Compressibility (1/GPa) = 0.01670748
#
# Stress axis : x y z
#
# Youngs Moduli (GPa) = 91.70192 78.74330 83.20637
#
# Poissons Ratio (x) = 0.11823 0.30916
# Poissons Ratio (y) = 0.13768 0.35285
# Poissons Ratio (z) = 0.34073 0.33392
#
# Static dielectric constant tensor:
#      x y z
#    x 3.692940 0.000000 0.000000 
#    y 0.000000 3.611610 0.000000 
#    z 0.000000 0.000000 3.477550 
# 
# 
# High freq. dielectric constant tensor:
#      x y z
#    x 1.772760 0.000000 0.000000 
#    y 0.000000 1.781090 0.000000 
#    z 0.000000 0.000000 1.786820 
# 
# From -- ./inp_files/8168.got.cif
#   From: 2010.03.12/outbox.cif.g09.slc.cpg/sg57_5_cif.got.tgz:8168.got - 2010.04.16 15:48:40.
