data_PCOD8232680
_publ_section_title
;
Structure prediction by ZEFSAII (Michael W. Deem and Ramdas Pophale) SiO2 
 PCOD8232680
Probable space group: P B C M
;
_chemical_formula_sum "Si O2"
_cell_formula_units_Z 48
_cell_length_a 30.756506
_cell_length_b 9.377950
_cell_length_c 8.568491
_cell_angle_alpha 90.000000
_cell_angle_beta 90.000000
_cell_angle_gamma 90.000000
_cell_volume 2471.435354
_symmetry_space_group_name_H-M "P B C M"
_symmetry_group_IT_number 57
_symmetry_cell_setting 'orthorhombic'
loop_
_space_group_symop_operation_xyz
x,y,z
-x,-y,1/2+z
x,1/2-y,-z
-x,1/2+y,1/2-z
-x,-y,-z
x,y,1/2-z
-x,1/2+y,z
x,1/2-y,1/2+z
loop_
_atom_site_type_symbol
_atom_site_label
_atom_site_fract_x
_atom_site_fract_y
_atom_site_fract_z
Si Si1 0.706229 0.599765 0.065498
Si Si2 0.538912 0.407970 0.934856
Si Si3 0.039710 0.409531 0.064961
Si Si4 0.628417 0.093801 0.564663
Si Si5 0.803113 0.900877 0.566670
Si Si6 0.882283 0.091523 0.565289
O O1 0.706131 0.605158 0.250000
O O2 0.670979 0.488045 0.003589
O O3 0.754734 0.560977 0.003414
O O4 0.691039 0.750000 0.000000
O O5 0.537679 0.405452 0.750000
O O6 0.533920 0.250000 0.000000
O O7 0.500000 0.500000 0.000000
O O8 0.584583 0.475506 0.993362
O O9 0.036896 0.402960 0.250000
O O10 0.038063 0.250000 0.000000
O O11 0.083540 0.486498 0.013239
O O12 0.000000 0.500000 0.000000
O O13 0.634199 0.250000 0.500000
O O14 0.624456 0.093934 0.750000
O O15 0.819704 0.750000 0.500000
O O16 0.802503 0.881688 0.750000
O O17 0.835048 0.029385 0.518495
O O18 0.887161 0.250000 0.500000
O O19 0.889857 0.093773 0.750000
#
# Coordination Sequence:
#
# PCOD8232680 Si02
#       6
#     8   8   8   8   8   8
#     4   9  19  35  55  80 110 144 184 229 275 328
#     4  11  22  38  58  81 109 142 182 226 276 331
#     4  12  25  43  65  90 120 154 193 236 286 339
#     4  10  20  35  54  78 109 143 181 224 273 328
#     4   9  19  36  57  81 111 147 187 231 279 331
#     4  11  23  39  59  86 119 154 194 238 285 337
#
# _framework density 19.421913
#
# number of rings (size 3 to 8) (size 9 to 14) (size 15 to 20)
#    0.000    1.667    0.000    6.000    0.000    5.333 
#    0.000    1.667    0.000    0.000    0.000    0.000 
#    0.000    0.000    0.000    0.000    0.000    0.000 
#
# Total GULP energy -595211.036640 kJ/mol
# GULP energy per Si atom -12400.229930 kJ/mol
# Density = 1.937771 g / cm^3
# Si number density = 19.421913 Si / 1000 Ang^3
#
#
#
# Elastic Constant Matrix: (Units=GPa)
#
#
# Indices 1 2 3 4 5 6 
#
# 1 154.5293 89.4374 59.1709 0.0000 0.0000 0.0000
# 2 89.4374 132.8260 51.0284 0.0000 0.0000 0.0000
# 3 59.1709 51.0284 113.4992 0.0000 0.0000 0.0000
# 4 0.0000 0.0000 0.0000 36.5153 0.0000 0.0000
# 5 0.0000 0.0000 0.0000 0.0000 30.3001 0.0000
# 6 0.0000 0.0000 0.0000 0.0000 0.0000 44.6019
#
#
#
# Elastic Compliance Matrix: (Units=1/GPa)
#
#
# Indices 1 2 3 4 5 6 
#
# 1 0.011396 -0.006516 -0.003011 0.000000 0.000000 0.000000
# 2 -0.006516 0.012827 -0.002370 0.000000 0.000000 0.000000
# 3 -0.003011 -0.002370 0.011446 0.000000 0.000000 0.000000
# 4 0.000000 0.000000 0.000000 0.027386 0.000000 0.000000
# 5 0.000000 0.000000 0.000000 0.000000 0.033003 0.000000
# 6 0.000000 0.000000 0.000000 0.000000 0.000000 0.022421
#
#
# Mechanical properties :
#
#
# Convention : Reuss Voigt Hill
#
# Bulk Modulus (GPa) = 84.21863 88.90309 86.56086
# Shear Modulus (GPa) = 34.19254 35.69798 34.94526
#
# Velocity S-wave (km/s) = 4.20040 4.29187 4.24638
# Velocity P-wave (km/s) = 8.18421 8.39251 8.28901
#
# Compressibility (1/GPa) = 0.01187386
#
# Stress axis : x y z
#
# Youngs Moduli (GPa) = 87.75107 77.96177 87.36783
#
# Poissons Ratio (x) = 0.50804 0.26309
# Poissons Ratio (y) = 0.57183 0.20703
# Poissons Ratio (z) = 0.26424 0.18474
#
# Static dielectric constant tensor:
#      x y z
#    x 4.415560 0.000000 0.000000 
#    y 0.000000 3.562090 0.000000 
#    z 0.000000 0.000000 3.647430 
# 
# 
# High freq. dielectric constant tensor:
#      x y z
#    x 1.776560 0.000000 0.000000 
#    y 0.000000 1.754250 0.000000 
#    z 0.000000 0.000000 1.765580 
# 
# From -- ./inp_files/10063.got.cif
#   From: 2010.03.12/outbox.cif.g09.slc.cpg/sg57_6_cif.got.tgz:10063.got - 2010.04.16 15:48:40.
