data_PCOD8232330
_publ_section_title
;
Structure prediction by ZEFSAII (Michael W. Deem and Ramdas Pophale) SiO2 
 PCOD8232330
Probable space group: P B C M
;
_chemical_formula_sum "Si O2"
_cell_formula_units_Z 64
_cell_length_a 14.954309
_cell_length_b 23.723836
_cell_length_c 9.287069
_cell_angle_alpha 90.000000
_cell_angle_beta 90.000000
_cell_angle_gamma 90.000000
_cell_volume 3294.806663
_symmetry_space_group_name_H-M "P B C M"
_symmetry_group_IT_number 57
_symmetry_cell_setting 'orthorhombic'
loop_
_space_group_symop_operation_xyz
x,y,z
-x,-y,1/2+z
x,1/2-y,-z
-x,1/2+y,1/2-z
-x,-y,-z
x,y,1/2-z
-x,1/2+y,z
x,1/2-y,1/2+z
loop_
_atom_site_type_symbol
_atom_site_label
_atom_site_fract_x
_atom_site_fract_y
_atom_site_fract_z
Si Si1 0.905852 0.998283 0.579210
Si Si2 0.012462 0.691952 0.582132
Si Si3 0.851460 0.609625 0.918877
Si Si4 0.352699 0.603931 0.081403
Si Si5 0.532622 0.629574 0.584942
Si Si6 0.585772 0.511340 0.588668
Si Si7 0.300134 0.304936 0.416938
Si Si8 0.180123 0.618043 0.917019
O O1 0.919960 0.990671 0.750000
O O2 0.848738 0.946903 0.514006
O O3 0.855232 0.056150 0.543920
O O4 0.000000 0.000000 0.500000
O O5 0.997059 0.750000 0.500000
O O6 0.006686 0.705642 0.750000
O O7 0.107353 0.664838 0.539902
O O8 0.937256 0.646844 0.539063
O O9 0.853241 0.593120 0.750000
O O10 0.763043 0.643588 0.962270
O O11 0.351021 0.618291 0.250000
O O12 0.340654 0.536196 0.047433
O O13 0.446822 0.626887 0.018182
O O14 0.268996 0.633773 0.006343
O O15 0.498218 0.631808 0.750000
O O16 0.605236 0.577579 0.567848
O O17 0.595450 0.682476 0.546391
O O18 0.500000 0.500000 0.500000
O O19 0.557763 0.497583 0.750000
O O20 0.268299 0.250000 0.500000
O O21 0.287229 0.292171 0.250000
O O22 0.204577 0.621792 0.750000
#
# Coordination Sequence:
#
# PCOD8232330 Si02
#       8
#     8   8   8   8   8   8   8   8
#     4  11  22  38  60  88 122 159 196 237 293 354
#     4  10  21  39  60  83 113 150 192 238 286 338
#     4  10  21  39  61  87 121 155 190 239 295 352
#     4  10  20  33  55  85 111 145 190 237 282 337
#     4   9  18  35  55  77 109 150 187 229 290 345
#     4   8  15  28  47  73 103 134 173 217 268 327
#     4  10  22  38  60  85 116 156 198 246 299 351
#     4  10  22  39  56  82 122 159 189 233 292 347
#
# _framework density 19.424509
#
# number of rings (size 3 to 8) (size 9 to 14) (size 15 to 20)
#    0.000    2.250    1.250    1.125    1.750    3.500 
#    0.000    0.625    0.000    0.000    0.000    0.000 
#    0.000    0.000    0.000    0.000    0.000    0.000 
#
# Total GULP energy -793126.343974 kJ/mol
# GULP energy per Si atom -12392.599125 kJ/mol
# Density = 1.938030 g / cm^3
# Si number density = 19.424509 Si / 1000 Ang^3
#
#
#
# Elastic Constant Matrix: (Units=GPa)
#
#
# Indices 1 2 3 4 5 6 
#
# 1 86.5662 9.3608 33.0458 0.0000 0.0000 0.0000
# 2 9.3608 67.7315 27.7839 0.0000 0.0000 0.0000
# 3 33.0458 27.7839 62.6231 0.0000 0.0000 0.0000
# 4 0.0000 0.0000 0.0000 32.2979 0.0000 0.0000
# 5 0.0000 0.0000 0.0000 0.0000 25.9779 0.0000
# 6 0.0000 0.0000 0.0000 0.0000 0.0000 11.9271
#
#
#
# Elastic Compliance Matrix: (Units=1/GPa)
#
#
# Indices 1 2 3 4 5 6 
#
# 1 0.014573 0.001394 -0.008309 0.000000 0.000000 0.000000
# 2 0.001394 0.018182 -0.008803 0.000000 0.000000 0.000000
# 3 -0.008309 -0.008803 0.024258 0.000000 0.000000 0.000000
# 4 0.000000 0.000000 0.000000 0.030962 0.000000 0.000000
# 5 0.000000 0.000000 0.000000 0.000000 0.038494 0.000000
# 6 0.000000 0.000000 0.000000 0.000000 0.000000 0.083842
#
#
# Mechanical properties :
#
#
# Convention : Reuss Voigt Hill
#
# Bulk Modulus (GPa) = 39.09371 39.70019 39.39695
# Shear Modulus (GPa) = 19.97824 23.82261 21.90042
#
# Velocity S-wave (km/s) = 3.21051 3.50583 3.36141
# Velocity P-wave (km/s) = 5.82347 6.07209 5.94908
#
# Compressibility (1/GPa) = 0.02557956
#
# Stress axis : x y z
#
# Youngs Moduli (GPa) = 68.62106 54.99826 41.22297
#
# Poissons Ratio (x) = -0.07668 0.34250
# Poissons Ratio (y) = -0.09567 0.36287
# Poissons Ratio (z) = 0.57014 0.48413
#
# Static dielectric constant tensor:
#      x y z
#    x 3.375800 0.000000 0.000000 
#    y 0.000000 3.128600 0.000000 
#    z 0.000000 0.000000 3.448830 
# 
# 
# High freq. dielectric constant tensor:
#      x y z
#    x 1.755530 0.000000 0.000000 
#    y 0.000000 1.750420 0.000000 
#    z 0.000000 0.000000 1.752190 
# 
# From -- ./inp_files/5569.got.cif
#   From: 2010.03.12/outbox.cif.g09.slc.cpg/sg57_3_cif.got.tgz:5569.got - 2010.04.16 15:48:40.
