data_PCOD8232194
_publ_section_title
;
Structure prediction by ZEFSAII (Michael W. Deem and Ramdas Pophale) SiO2 
 PCOD8232194
Probable space group: P B C M
;
_chemical_formula_sum "Si O2"
_cell_formula_units_Z 48
_cell_length_a 15.113204
_cell_length_b 20.020903
_cell_length_c 9.441817
_cell_angle_alpha 90.000000
_cell_angle_beta 90.000000
_cell_angle_gamma 90.000000
_cell_volume 2856.904906
_symmetry_space_group_name_H-M "P B C M"
_symmetry_group_IT_number 57
_symmetry_cell_setting 'orthorhombic'
loop_
_space_group_symop_operation_xyz
x,y,z
-x,-y,1/2+z
x,1/2-y,-z
-x,1/2+y,1/2-z
-x,-y,-z
x,y,1/2-z
-x,1/2+y,z
x,1/2-y,1/2+z
loop_
_atom_site_type_symbol
_atom_site_label
_atom_site_fract_x
_atom_site_fract_y
_atom_site_fract_z
Si Si1 0.402781 0.185314 0.913760
Si Si2 0.391647 0.683634 0.916156
Si Si3 0.277392 0.578833 0.417819
Si Si4 0.921721 0.420350 0.905364
Si Si5 0.078636 0.420987 0.093323
Si Si6 0.728758 0.927944 0.081911
O O1 0.382200 0.199265 0.750000
O O2 0.505071 0.168758 0.938470
O O3 0.346661 0.122507 0.971602
O O4 0.372619 0.250000 0.000000
O O5 0.368091 0.691265 0.750000
O O6 0.363198 0.750000 0.000000
O O7 0.341198 0.622290 0.985691
O O8 0.296190 0.588693 0.250000
O O9 0.176686 0.599515 0.456172
O O10 0.295350 0.502700 0.467167
O O11 0.938112 0.390293 0.750000
O O12 0.929911 0.499660 0.899607
O O13 0.997863 0.389279 0.004670
O O14 0.070953 0.390041 0.250000
O O15 0.174689 0.404390 0.023803
O O16 0.737078 0.929405 0.250000
#
# Coordination Sequence:
#
# PCOD8232194 Si02
#       6
#     8   8   8   8   8   8
#     4   9  18  33  50  67  90 121 155 188 225 273
#     4  10  20  33  49  68  90 119 154 190 228 272
#     4   9  17  30  48  69  94 123 152 186 230 274
#     4   8  14  24  39  62  91 119 146 180 223 266
#     4   8  13  23  41  63  87 118 152 182 217 265
#     4   8  15  29  48  69  94 123 152 185 230 276
#
# _framework density 16.801397999999999
#
# number of rings (size 3 to 8) (size 9 to 14) (size 15 to 20)
#    0.000    3.333    0.000    2.500    0.000    2.000 
#    0.000    4.167    0.000    1.000    0.000    4.667 
#    0.000    0.000    0.000    0.000    0.000    0.000 
#
# Total GULP energy -594878.729129 kJ/mol
# GULP energy per Si atom -12393.306857 kJ/mol
# Density = 1.676316 g / cm^3
# Si number density = 16.801398 Si / 1000 Ang^3
#
#
#
# Elastic Constant Matrix: (Units=GPa)
#
#
# Indices 1 2 3 4 5 6 
#
# 1 107.7214 67.7560 56.7725 0.0000 0.0000 0.0000
# 2 67.7560 86.3862 47.5464 0.0000 0.0000 0.0000
# 3 56.7725 47.5464 74.5546 0.0000 0.0000 0.0000
# 4 0.0000 0.0000 0.0000 21.9841 0.0000 0.0000
# 5 0.0000 0.0000 0.0000 0.0000 25.8378 0.0000
# 6 0.0000 0.0000 0.0000 0.0000 0.0000 1.7643
#
#
#
# Elastic Compliance Matrix: (Units=1/GPa)
#
#
# Indices 1 2 3 4 5 6 
#
# 1 0.021397 -0.012041 -0.008615 0.000000 0.000000 0.000000
# 2 -0.012041 0.024613 -0.006527 0.000000 0.000000 0.000000
# 3 -0.008615 -0.006527 0.024136 0.000000 0.000000 0.000000
# 4 0.000000 0.000000 0.000000 0.045487 0.000000 0.000000
# 5 0.000000 0.000000 0.000000 0.000000 0.038703 0.000000
# 6 0.000000 0.000000 0.000000 0.000000 0.000000 0.566795
#
#
# Mechanical properties :
#
#
# Convention : Reuss Voigt Hill
#
# Bulk Modulus (GPa) = 63.37358 68.09021 65.73190
# Shear Modulus (GPa) = 6.40404 16.35641 11.38022
#
# Velocity S-wave (km/s) = 1.95445 3.12350 2.60539
# Velocity P-wave (km/s) = 6.54937 7.32276 6.94684
#
# Compressibility (1/GPa) = 0.01577945
#
# Stress axis : x y z
#
# Youngs Moduli (GPa) = 46.73513 40.62905 41.43256
#
# Poissons Ratio (x) = 0.48922 0.35692
# Poissons Ratio (y) = 0.56275 0.27045
# Poissons Ratio (z) = 0.40260 0.26520
#
# Static dielectric constant tensor:
#      x y z
#    x 3.386540 0.000000 0.000000 
#    y 0.000000 2.893120 0.000000 
#    z 0.000000 0.000000 3.203180 
# 
# 
# High freq. dielectric constant tensor:
#      x y z
#    x 1.657340 0.000000 0.000000 
#    y 0.000000 1.609940 0.000000 
#    z 0.000000 0.000000 1.633360 
# 
# From -- ./inp_files/4934.got.cif
#   From: 2010.03.12/outbox.cif.g09.slc.cpg/sg57_3_cif.got.tgz:4934.got - 2010.04.16 15:48:40.
