data_PCOD8232676
_publ_section_title
;
Structure prediction by ZEFSAII (Michael W. Deem and Ramdas Pophale) SiO2 
 PCOD8232676
Probable space group: P B C M
;
_chemical_formula_sum "Si O2"
_cell_formula_units_Z 48
_cell_length_a 30.664314
_cell_length_b 9.463328
_cell_length_c 8.712938
_cell_angle_alpha 90.000000
_cell_angle_beta 90.000000
_cell_angle_gamma 90.000000
_cell_volume 2528.376646
_symmetry_space_group_name_H-M "P B C M"
_symmetry_group_IT_number 57
_symmetry_cell_setting 'orthorhombic'
loop_
_space_group_symop_operation_xyz
x,y,z
-x,-y,1/2+z
x,1/2-y,-z
-x,1/2+y,1/2-z
-x,-y,-z
x,y,1/2-z
-x,1/2+y,z
x,1/2-y,1/2+z
loop_
_atom_site_type_symbol
_atom_site_label
_atom_site_fract_x
_atom_site_fract_y
_atom_site_fract_z
Si Si1 0.128543 0.402115 0.567886
Si Si2 0.366553 0.599796 0.930412
Si Si3 0.710961 0.595048 0.431783
Si Si4 0.464475 0.899422 0.069343
Si Si5 0.790716 0.095034 0.569648
Si Si6 0.037340 0.096512 0.566994
O O1 0.141878 0.250000 0.500000
O O2 0.122562 0.386733 0.750000
O O3 0.165014 0.515660 0.522677
O O4 0.084104 0.459026 0.491633
O O5 0.362835 0.618778 0.750000
O O6 0.333904 0.477980 0.988572
O O7 0.415489 0.554638 0.979481
O O8 0.352953 0.750000 0.000000
O O9 0.714762 0.750000 0.500000
O O10 0.712638 0.608936 0.250000
O O11 0.750553 0.498357 0.493127
O O12 0.469448 0.894400 0.250000
O O13 0.475779 0.750000 0.000000
O O14 0.500000 0.000000 0.000000
O O15 0.789769 0.250000 0.500000
O O16 0.786809 0.111994 0.750000
O O17 0.028736 0.250000 0.500000
O O18 0.036130 0.098045 0.750000
O O19 0.000000 0.000000 0.500000
#
# Coordination Sequence:
#
# PCOD8232676 Si02
#       6
#     8   8   8   8   8   8
#     4  10  20  36  56  81 110 143 182 224 268 320
#     4   9  19  35  55  78 106 138 178 221 267 319
#     4  10  21  37  55  80 109 140 177 219 264 317
#     4  10  20  35  54  78 107 142 180 224 272 324
#     4  10  22  37  56  81 110 141 178 220 265 317
#     4  11  22  38  59  84 113 148 186 228 275 325
#
# _framework density 18.984514999999998
#
# number of rings (size 3 to 8) (size 9 to 14) (size 15 to 20)
#    0.000    2.000    0.000    4.500    0.000    4.667 
#    0.000    3.333    0.000    0.000    0.000    0.000 
#    0.000    0.000    0.000    0.000    0.000    0.000 
#
# Total GULP energy -595232.434975 kJ/mol
# GULP energy per Si atom -12400.675729 kJ/mol
# Density = 1.894130 g / cm^3
# Si number density = 18.984515 Si / 1000 Ang^3
#
#
#
# Elastic Constant Matrix: (Units=GPa)
#
#
# Indices 1 2 3 4 5 6 
#
# 1 173.3084 122.8595 57.3165 0.0000 0.0000 0.0000
# 2 122.8595 161.2041 53.5954 0.0000 0.0000 0.0000
# 3 57.3165 53.5954 78.6465 0.0000 0.0000 0.0000
# 4 0.0000 0.0000 0.0000 38.4230 0.0000 0.0000
# 5 0.0000 0.0000 0.0000 0.0000 27.8957 0.0000
# 6 0.0000 0.0000 0.0000 0.0000 0.0000 42.3509
#
#
#
# Elastic Compliance Matrix: (Units=1/GPa)
#
#
# Indices 1 2 3 4 5 6 
#
# 1 0.013295 -0.008936 -0.003600 0.000000 0.000000 0.000000
# 2 -0.008936 0.014027 -0.003046 0.000000 0.000000 0.000000
# 3 -0.003600 -0.003046 0.017415 0.000000 0.000000 0.000000
# 4 0.000000 0.000000 0.000000 0.026026 0.000000 0.000000
# 5 0.000000 0.000000 0.000000 0.000000 0.035848 0.000000
# 6 0.000000 0.000000 0.000000 0.000000 0.000000 0.023612
#
#
# Mechanical properties :
#
#
# Convention : Reuss Voigt Hill
#
# Bulk Modulus (GPa) = 73.67961 97.85576 85.76769
# Shear Modulus (GPa) = 30.13655 33.69307 31.91481
#
# Velocity S-wave (km/s) = 3.98858 4.21737 4.10457
# Velocity P-wave (km/s) = 7.75282 8.68170 8.23037
#
# Compressibility (1/GPa) = 0.01357228
#
# Stress axis : x y z
#
# Youngs Moduli (GPa) = 75.21352 71.29279 57.42316
#
# Poissons Ratio (x) = 0.63708 0.20671
# Poissons Ratio (y) = 0.67212 0.17493
# Poissons Ratio (z) = 0.27076 0.21718
#
# Static dielectric constant tensor:
#      x y z
#    x 3.861620 0.000000 0.000000 
#    y 0.000000 6.891220 0.000000 
#    z 0.000000 0.000000 3.475060 
# 
# 
# High freq. dielectric constant tensor:
#      x y z
#    x 1.755980 0.000000 0.000000 
#    y 0.000000 1.738180 0.000000 
#    z 0.000000 0.000000 1.740880 
# 
# From -- ./inp_files/9921.got.cif
#   From: 2010.03.12/outbox.cif.g09.slc.cpg/sg57_5_cif.got.tgz:9921.got - 2010.04.16 15:48:40.
