data_PCOD8232075
_publ_section_title
;
Structure prediction by ZEFSAII (Michael W. Deem and Ramdas Pophale) SiO2 
 PCOD8232075
Probable space group: P B C M
;
_chemical_formula_sum "Si O2"
_cell_formula_units_Z 40
_cell_length_a 12.481203
_cell_length_b 10.087600
_cell_length_c 16.710941
_cell_angle_alpha 90.000000
_cell_angle_beta 90.000000
_cell_angle_gamma 90.000000
_cell_volume 2103.997433
_symmetry_space_group_name_H-M "P B C M"
_symmetry_group_IT_number 57
_symmetry_cell_setting 'orthorhombic'
loop_
_space_group_symop_operation_xyz
x,y,z
-x,-y,1/2+z
x,1/2-y,-z
-x,1/2+y,1/2-z
-x,-y,-z
x,y,1/2-z
-x,1/2+y,z
x,1/2-y,1/2+z
loop_
_atom_site_type_symbol
_atom_site_label
_atom_site_fract_x
_atom_site_fract_y
_atom_site_fract_z
Si Si1 0.128344 0.121020 0.955051
Si Si2 0.497419 0.373752 0.055611
Si Si3 0.115049 0.864695 0.059826
Si Si4 0.306123 0.715619 0.657398
Si Si5 0.307188 0.026721 0.656914
O O1 0.198413 0.084435 0.878995
O O2 0.010214 0.149426 0.919364
O O3 0.173413 0.250000 0.000000
O O4 0.133743 0.006984 0.021172
O O5 0.609833 0.359500 0.101145
O O6 0.406212 0.392071 0.121626
O O7 0.469509 0.250000 0.000000
O O8 0.500000 0.500000 0.000000
O O9 0.188075 0.843668 0.138473
O O10 0.152695 0.750000 0.000000
O O11 0.331212 0.686935 0.750000
O O12 0.315243 0.871101 0.638050
O O13 0.303844 0.055697 0.750000
#
# Coordination Sequence:
#
# PCOD8232075 Si02
#       5
#     8   8   8   8   8
#     4  10  21  37  62  92 119 155 201 250 288 343
#     4  12  23  41  65  89 117 157 204 246 292 357
#     4  10  19  38  64  87 117 158 204 239 289 358
#     4  11  23  40  62  89 123 159 196 244 305 361
#     4  11  23  40  61  89 124 157 196 248 305 356
#
# _framework density 19.011429
#
# number of rings (size 3 to 8) (size 9 to 14) (size 15 to 20)
#    0.000    1.200    4.000    3.000    0.000    0.800 
#    0.000    3.000    0.000    0.000    0.000    0.000 
#    0.000    0.000    0.000    0.000    0.000    0.000 
#
# Total GULP energy -496135.998742 kJ/mol
# GULP energy per Si atom -12403.399969 kJ/mol
# Density = 1.896816 g / cm^3
# Si number density = 19.011429 Si / 1000 Ang^3
#
#
#
# Elastic Constant Matrix: (Units=GPa)
#
#
# Indices 1 2 3 4 5 6 
#
# 1 108.4161 33.0751 69.0783 0.0000 0.0000 0.0000
# 2 33.0751 119.6981 59.9025 0.0000 0.0000 0.0000
# 3 69.0783 59.9025 120.7442 0.0000 0.0000 0.0000
# 4 0.0000 0.0000 0.0000 33.1721 0.0000 0.0000
# 5 0.0000 0.0000 0.0000 0.0000 22.1008 0.0000
# 6 0.0000 0.0000 0.0000 0.0000 0.0000 22.7401
#
#
#
# Elastic Compliance Matrix: (Units=1/GPa)
#
#
# Indices 1 2 3 4 5 6 
#
# 1 0.014518 0.000193 -0.008401 0.000000 0.000000 0.000000
# 2 0.000193 0.011116 -0.005625 0.000000 0.000000 0.000000
# 3 -0.008401 -0.005625 0.015879 0.000000 0.000000 0.000000
# 4 0.000000 0.000000 0.000000 0.030146 0.000000 0.000000
# 5 0.000000 0.000000 0.000000 0.000000 0.045247 0.000000
# 6 0.000000 0.000000 0.000000 0.000000 0.000000 0.043975
#
#
# Mechanical properties :
#
#
# Convention : Reuss Voigt Hill
#
# Bulk Modulus (GPa) = 72.22439 74.77448 73.49944
# Shear Modulus (GPa) = 25.88468 28.05610 26.97039
#
# Velocity S-wave (km/s) = 3.69390 3.84572 3.77057
# Velocity P-wave (km/s) = 7.50104 7.69000 7.59611
#
# Compressibility (1/GPa) = 0.01384574
#
# Stress axis : x y z
#
# Youngs Moduli (GPa) = 68.88021 89.95916 62.97546
#
# Poissons Ratio (x) = -0.01735 0.52909
# Poissons Ratio (y) = -0.01328 0.35425
# Poissons Ratio (z) = 0.57870 0.50604
#
# Static dielectric constant tensor:
#      x y z
#    x 3.868480 0.000000 0.000000 
#    y 0.000000 3.633630 0.000000 
#    z 0.000000 0.000000 3.337630 
# 
# 
# High freq. dielectric constant tensor:
#      x y z
#    x 1.751140 0.000000 0.000000 
#    y 0.000000 1.749640 0.000000 
#    z 0.000000 0.000000 1.731330 
# 
# From -- ./inp_files/18231.got.cif
#   From: 2010.03.12/outbox.cif.g09.slc.cpg/sg57_10_cif.got.tgz:18231.got - 2010.04.16 15:48:40.
