data_PCOD8232354
_publ_section_title
;
Structure prediction by ZEFSAII (Michael W. Deem and Ramdas Pophale) SiO2 
 PCOD8232354
Probable space group: P B C M
;
_chemical_formula_sum "Si O2"
_cell_formula_units_Z 64
_cell_length_a 17.408386
_cell_length_b 23.312653
_cell_length_c 8.933428
_cell_angle_alpha 90.000000
_cell_angle_beta 90.000000
_cell_angle_gamma 90.000000
_cell_volume 3625.503667
_symmetry_space_group_name_H-M "P B C M"
_symmetry_group_IT_number 57
_symmetry_cell_setting 'orthorhombic'
loop_
_space_group_symop_operation_xyz
x,y,z
-x,-y,1/2+z
x,1/2-y,-z
-x,1/2+y,1/2-z
-x,-y,-z
x,y,1/2-z
-x,1/2+y,z
x,1/2-y,1/2+z
loop_
_atom_site_type_symbol
_atom_site_label
_atom_site_fract_x
_atom_site_fract_y
_atom_site_fract_z
Si Si1 0.416145 0.618607 0.428343
Si Si2 0.811053 0.397600 0.914363
Si Si3 0.782156 0.922446 0.070233
Si Si4 0.081893 0.504288 0.074001
Si Si5 0.283448 0.810236 0.073997
Si Si6 0.328405 0.515227 0.412874
Si Si7 0.268691 0.190518 0.427378
Si Si8 0.556542 0.808113 0.924592
O O1 0.401341 0.620143 0.250000
O O2 0.361007 0.664332 0.505414
O O3 0.397099 0.553368 0.490022
O O4 0.503122 0.637387 0.468652
O O5 0.826434 0.369839 0.750000
O O6 0.884819 0.433255 0.970596
O O7 0.742026 0.441735 0.895720
O O8 0.790409 0.349461 0.035780
O O9 0.777461 0.918404 0.250000
O O10 0.860539 0.953851 0.019010
O O11 0.706879 0.958431 0.007052
O O12 0.782761 0.860149 0.995338
O O13 0.072256 0.499304 0.250000
O O14 0.000000 0.500000 0.000000
O O15 0.293111 0.804163 0.250000
O O16 0.266734 0.750000 0.000000
O O17 0.358391 0.495875 0.250000
O O18 0.240412 0.250000 0.500000
O O19 0.257952 0.193530 0.250000
O O20 0.356809 0.178386 0.475435
O O21 0.552495 0.796216 0.750000
O O22 0.525483 0.750000 0.000000
#
# Coordination Sequence:
#
# PCOD8232354 Si02
#       8
#     8   8   8   8   8   8   8   8
#     4   9  16  29  46  64  90 125 162 203 246 291
#     4   8  15  30  47  65  92 126 158 188 222 268
#     4   9  17  32  52  74  99 130 162 192 231 287
#     4   9  18  32  54  81 106 128 152 183 227 280
#     4  11  20  28  41  64  92 125 163 201 237 278
#     4   7  12  25  46  66  88 122 159 188 226 278
#     4  10  20  34  51  72  95 124 163 208 251 291
#     4   9  18  30  45  64  89 122 163 209 256 297
#
# _framework density 17.652718
#
# number of rings (size 3 to 8) (size 9 to 14) (size 15 to 20)
#    0.000    3.000    0.000    4.125    0.000    3.000 
#    0.000    5.625    0.000    0.750    0.000    5.250 
#    0.000    0.000    0.000    0.000    0.000    0.000 
#
# Total GULP energy -792859.768642 kJ/mol
# GULP energy per Si atom -12388.433885 kJ/mol
# Density = 1.761254 g / cm^3
# Si number density = 17.652718 Si / 1000 Ang^3
#
#
#
# Elastic Constant Matrix: (Units=GPa)
#
#
# Indices 1 2 3 4 5 6 
#
# 1 68.3073 38.2869 22.2531 0.0000 0.0000 0.0000
# 2 38.2869 104.5318 34.0324 0.0000 0.0000 0.0000
# 3 22.2531 34.0324 53.3485 0.0000 0.0000 0.0000
# 4 0.0000 0.0000 0.0000 25.2011 0.0000 0.0000
# 5 0.0000 0.0000 0.0000 0.0000 22.1556 0.0000
# 6 0.0000 0.0000 0.0000 0.0000 0.0000 21.9609
#
#
#
# Elastic Compliance Matrix: (Units=1/GPa)
#
#
# Indices 1 2 3 4 5 6 
#
# 1 0.019224 -0.005592 -0.004452 0.000000 0.000000 0.000000
# 2 -0.005592 0.013701 -0.006407 0.000000 0.000000 0.000000
# 3 -0.004452 -0.006407 0.024689 0.000000 0.000000 0.000000
# 4 0.000000 0.000000 0.000000 0.039681 0.000000 0.000000
# 5 0.000000 0.000000 0.000000 0.000000 0.045135 0.000000
# 6 0.000000 0.000000 0.000000 0.000000 0.000000 0.045535
#
#
# Mechanical properties :
#
#
# Convention : Reuss Voigt Hill
#
# Bulk Modulus (GPa) = 40.46650 46.14806 43.30728
# Shear Modulus (GPa) = 21.82402 22.63788 22.23095
#
# Velocity S-wave (km/s) = 3.51992 3.58495 3.55258
# Velocity P-wave (km/s) = 6.28436 6.58291 6.43537
#
# Compressibility (1/GPa) = 0.02471180
#
# Stress axis : x y z
#
# Youngs Moduli (GPa) = 52.01728 72.98890 40.50370
#
# Poissons Ratio (x) = 0.40815 0.18031
# Poissons Ratio (y) = 0.29088 0.25953
# Poissons Ratio (z) = 0.23157 0.46767
#
# Static dielectric constant tensor:
#      x y z
#    x 3.370700 0.000000 0.000000 
#    y 0.000000 3.539540 0.000000 
#    z 0.000000 0.000000 3.084490 
# 
# 
# High freq. dielectric constant tensor:
#      x y z
#    x 1.654980 0.000000 0.000000 
#    y 0.000000 1.680950 0.000000 
#    z 0.000000 0.000000 1.664720 
# 
# From -- ./inp_files/7213.got.cif
#   From: 2010.03.12/outbox.cif.g09.slc.cpg/sg57_4_cif.got.tgz:7213.got - 2010.04.16 15:48:40.
