data_PCOD8232966
_publ_section_title
;
Structure prediction by ZEFSAII (Michael W. Deem and Ramdas Pophale) SiO2 
 PCOD8232966
Probable space group: P B C M
;
_chemical_formula_sum "Si O2"
_cell_formula_units_Z 64
_cell_length_a 13.871516
_cell_length_b 9.875348
_cell_length_c 25.233184
_cell_angle_alpha 90.000000
_cell_angle_beta 90.000000
_cell_angle_gamma 90.000000
_cell_volume 3456.594149
_symmetry_space_group_name_H-M "P B C M"
_symmetry_group_IT_number 57
_symmetry_cell_setting 'orthorhombic'
loop_
_space_group_symop_operation_xyz
x,y,z
-x,-y,1/2+z
x,1/2-y,-z
-x,1/2+y,1/2-z
-x,-y,-z
x,y,1/2-z
-x,1/2+y,z
x,1/2-y,1/2+z
loop_
_atom_site_type_symbol
_atom_site_label
_atom_site_fract_x
_atom_site_fract_y
_atom_site_fract_z
Si Si1 0.576776 0.360499 0.187546
Si Si2 0.405362 0.552983 0.187223
Si Si3 0.208869 0.033959 0.863577
Si Si4 0.883167 0.784257 0.687583
Si Si5 0.903191 0.234712 0.350711
Si Si6 0.863414 0.605815 0.974391
Si Si7 0.082833 0.631663 0.541433
Si Si8 0.778639 0.047099 0.690523
O O1 0.586210 0.373566 0.250000
O O2 0.487621 0.449887 0.167534
O O3 0.676742 0.417287 0.162123
O O4 0.559943 0.204060 0.172373
O O5 0.382950 0.538609 0.250000
O O6 0.312704 0.521214 0.152154
O O7 0.186213 0.159804 0.825533
O O8 0.208686 0.076198 0.925583
O O9 0.129377 0.919833 0.852264
O O10 0.903419 0.794070 0.750000
O O11 0.983050 0.763609 0.657389
O O12 0.833688 0.920070 0.663764
O O13 0.873919 0.315151 0.403864
O O14 0.846138 0.319231 0.306274
O O15 0.971012 0.593172 0.950764
O O16 0.839052 0.750000 0.000000
O O17 0.853875 0.495416 0.021336
O O18 0.092507 0.750000 0.500000
O O19 0.756521 0.999997 0.750000
#
# Coordination Sequence:
#
# PCOD8232966 Si02
#       8
#     8   8   8   8   8   8   8   8
#     4   9  19  37  58  83 112 149 188 236 288 329
#     4  10  21  37  60  86 116 145 186 241 289 341
#     4  12  23  37  58  86 112 152 197 240 290 344
#     4  11  25  36  50  81 124 165 195 227 271 339
#     4  12  22  36  57  82 117 156 198 234 282 341
#     4  10  22  36  56  80 112 146 192 246 291 340
#     4  10  20  36  55  79 109 148 193 245 289 326
#     4  10  22  38  55  79 119 161 196 229 276 340
#
# _framework density 18.515335
#
# number of rings (size 3 to 8) (size 9 to 14) (size 15 to 20)
#    0.000    1.500    3.750    1.500    3.500    2.500 
#    0.000    0.000    0.000    0.000    0.000    4.375 
#    0.000    0.000    0.000    0.000    0.000    0.000 
#
# Total GULP energy -793633.819480 kJ/mol
# GULP energy per Si atom -12400.528429 kJ/mol
# Density = 1.847319 g / cm^3
# Si number density = 18.515335 Si / 1000 Ang^3
#
#
#
# Elastic Constant Matrix: (Units=GPa)
#
#
# Indices 1 2 3 4 5 6 
#
# 1 86.7192 44.7361 26.3317 0.0000 0.0000 0.0000
# 2 44.7361 136.2965 32.9695 0.0000 0.0000 0.0000
# 3 26.3317 32.9695 60.1822 0.0000 0.0000 0.0000
# 4 0.0000 0.0000 0.0000 21.3029 0.0000 0.0000
# 5 0.0000 0.0000 0.0000 0.0000 17.3787 0.0000
# 6 0.0000 0.0000 0.0000 0.0000 0.0000 23.5585
#
#
#
# Elastic Compliance Matrix: (Units=1/GPa)
#
#
# Indices 1 2 3 4 5 6 
#
# 1 0.014831 -0.003802 -0.004406 0.000000 0.000000 0.000000
# 2 -0.003802 0.009432 -0.003504 0.000000 0.000000 0.000000
# 3 -0.004406 -0.003504 0.020464 0.000000 0.000000 0.000000
# 4 0.000000 0.000000 0.000000 0.046942 0.000000 0.000000
# 5 0.000000 0.000000 0.000000 0.000000 0.057542 0.000000
# 6 0.000000 0.000000 0.000000 0.000000 0.000000 0.042448
#
#
# Mechanical properties :
#
#
# Convention : Reuss Voigt Hill
#
# Bulk Modulus (GPa) = 46.94221 54.58584 50.76402
# Shear Modulus (GPa) = 22.50403 24.39207 23.44805
#
# Velocity S-wave (km/s) = 3.49008 3.63354 3.56253
# Velocity P-wave (km/s) = 6.45361 6.86650 6.66325
#
# Compressibility (1/GPa) = 0.02130279
#
# Stress axis : x y z
#
# Youngs Moduli (GPa) = 67.42767 106.01716 48.86748
#
# Poissons Ratio (x) = 0.40308 0.21531
# Poissons Ratio (y) = 0.25636 0.17122
# Poissons Ratio (z) = 0.29709 0.37147
#
# Static dielectric constant tensor:
#      x y z
#    x 3.357560 0.000000 0.000000 
#    y 0.000000 3.689070 0.000000 
#    z 0.000000 0.000000 2.845890 
# 
# 
# High freq. dielectric constant tensor:
#      x y z
#    x 1.694230 0.000000 0.000000 
#    y 0.000000 1.743900 0.000000 
#    z 0.000000 0.000000 1.691980 
# 
# From -- ./inp_files/29780.got.cif
#   From: 2010.03.12/outbox.cif.g09.slc.cpg/sg57_15_cif.got.tgz:29780.got - 2010.04.16 15:48:40.
