data_PCOD8232020
_publ_section_title
;
Structure prediction by ZEFSAII (Michael W. Deem and Ramdas Pophale) SiO2 
 PCOD8232020
Probable space group: P B C M
;
_chemical_formula_sum "Si O2"
_cell_formula_units_Z 56
_cell_length_a 19.204079
_cell_length_b 9.243885
_cell_length_c 15.528322
_cell_angle_alpha 90.000000
_cell_angle_beta 90.000000
_cell_angle_gamma 90.000000
_cell_volume 2756.592346
_symmetry_space_group_name_H-M "P B C M"
_symmetry_group_IT_number 57
_symmetry_cell_setting 'orthorhombic'
loop_
_space_group_symop_operation_xyz
x,y,z
-x,-y,1/2+z
x,1/2-y,-z
-x,1/2+y,1/2-z
-x,-y,-z
x,y,1/2-z
-x,1/2+y,z
x,1/2-y,1/2+z
loop_
_atom_site_type_symbol
_atom_site_label
_atom_site_fract_x
_atom_site_fract_y
_atom_site_fract_z
Si Si1 0.203840 0.618192 0.444255
Si Si2 0.072292 0.905376 0.845707
Si Si3 0.050772 0.274984 0.402826
Si Si4 0.808139 0.631979 0.434491
Si Si5 0.572682 0.579481 0.000612
Si Si6 0.327064 0.119352 0.154046
Si Si7 0.328886 0.461561 0.348541
O O1 0.236116 0.750000 0.500000
O O2 0.138545 0.674134 0.388668
O O3 0.168267 0.501284 0.507070
O O4 0.261743 0.547815 0.382223
O O5 0.095238 0.943562 0.750000
O O6 0.006782 0.797683 0.842678
O O7 0.052108 0.054895 0.890008
O O8 0.027132 0.250000 0.500000
O O9 0.126341 0.201969 0.384783
O O10 0.773847 0.750000 0.500000
O O11 0.750605 0.567158 0.369476
O O12 0.618250 0.549372 0.086823
O O13 0.559438 0.750000 0.000000
O O14 0.500000 0.500000 0.000000
O O15 0.608794 0.511780 0.915816
O O16 0.348128 0.066785 0.250000
O O17 0.318054 0.290876 0.150332
O O18 0.346595 0.512058 0.250000
#
# Coordination Sequence:
#
# PCOD8232020 Si02
#       7
#     8   8   8   8   8   8   8
#     4  12  24  39  64  90 124 162 204 264 326 375
#     4  12  25  41  60  89 123 161 210 266 320 381
#     4  11  23  40  64  86 116 163 211 258 321 384
#     4  11  19  40  64  88 116 159 213 254 312 384
#     4  10  21  39  64  92 128 166 207 251 305 364
#     4  10  19  36  66  95 122 161 214 261 301 365
#     4  10  20  39  67  93 121 166 214 254 308 374
#
# _framework density 20.314935999999999
#
# number of rings (size 3 to 8) (size 9 to 14) (size 15 to 20)
#    0.000    1.143    5.714    2.143    2.000    3.429 
#    0.000    1.429    0.000    0.000    0.000    0.000 
#    0.000    0.000    0.000    0.000    0.000    0.000 
#
# Total GULP energy -694103.844616 kJ/mol
# GULP energy per Si atom -12394.711511 kJ/mol
# Density = 2.026870 g / cm^3
# Si number density = 20.314936 Si / 1000 Ang^3
#
#
#
# Elastic Constant Matrix: (Units=GPa)
#
#
# Indices 1 2 3 4 5 6 
#
# 1 145.3394 23.8228 61.1079 0.0000 0.0000 0.0000
# 2 23.8228 51.6213 29.2325 0.0000 0.0000 0.0000
# 3 61.1079 29.2325 146.0169 0.0000 0.0000 0.0000
# 4 0.0000 0.0000 0.0000 15.2753 0.0000 0.0000
# 5 0.0000 0.0000 0.0000 0.0000 17.1723 0.0000
# 6 0.0000 0.0000 0.0000 0.0000 0.0000 29.9076
#
#
#
# Elastic Compliance Matrix: (Units=1/GPa)
#
#
# Indices 1 2 3 4 5 6 
#
# 1 0.008559 -0.002167 -0.003148 0.000000 0.000000 0.000000
# 2 -0.002167 0.022398 -0.003577 0.000000 0.000000 0.000000
# 3 -0.003148 -0.003577 0.008882 0.000000 0.000000 0.000000
# 4 0.000000 0.000000 0.000000 0.065465 0.000000 0.000000
# 5 0.000000 0.000000 0.000000 0.000000 0.058233 0.000000
# 6 0.000000 0.000000 0.000000 0.000000 0.000000 0.033436
#
#
# Mechanical properties :
#
#
# Convention : Reuss Voigt Hill
#
# Bulk Modulus (GPa) = 45.34280 63.47822 54.41051
# Shear Modulus (GPa) = 22.51135 27.72533 25.11834
#
# Velocity S-wave (km/s) = 3.33245 3.69830 3.52013
# Velocity P-wave (km/s) = 6.09716 7.03928 6.58509
#
# Compressibility (1/GPa) = 0.02205422
#
# Stress axis : x y z
#
# Youngs Moduli (GPa) = 116.83137 44.64752 112.58535
#
# Poissons Ratio (x) = 0.09676 0.35444
# Poissons Ratio (y) = 0.25321 0.40272
# Poissons Ratio (z) = 0.36781 0.15970
#
# Static dielectric constant tensor:
#      x y z
#    x 3.535220 0.000000 0.000000 
#    y 0.000000 3.514980 0.000000 
#    z 0.000000 0.000000 4.009830 
# 
# 
# High freq. dielectric constant tensor:
#      x y z
#    x 1.787870 0.000000 0.000000 
#    y 0.000000 1.773730 0.000000 
#    z 0.000000 0.000000 1.799580 
# 
# From -- ./inp_files/19355.got.cif
#   From: 2010.03.12/outbox.cif.g09.slc.cpg/sg57_10_cif.got.tgz:19355.got - 2010.04.16 15:48:40.
