data_PCOD8232456
_publ_section_title
;
Structure prediction by ZEFSAII (Michael W. Deem and Ramdas Pophale) SiO2 
 PCOD8232456
Probable space group: P B C M
;
_chemical_formula_sum "Si O2"
_cell_formula_units_Z 64
_cell_length_a 24.912671
_cell_length_b 14.103800
_cell_length_c 9.465036
_cell_angle_alpha 90.000000
_cell_angle_beta 90.000000
_cell_angle_gamma 90.000000
_cell_volume 3325.666560
_symmetry_space_group_name_H-M "P B C M"
_symmetry_group_IT_number 57
_symmetry_cell_setting 'orthorhombic'
loop_
_space_group_symop_operation_xyz
x,y,z
-x,-y,1/2+z
x,1/2-y,-z
-x,1/2+y,1/2-z
-x,-y,-z
x,y,1/2-z
-x,1/2+y,z
x,1/2-y,1/2+z
loop_
_atom_site_type_symbol
_atom_site_label
_atom_site_fract_x
_atom_site_fract_y
_atom_site_fract_z
Si Si1 0.227678 0.153072 0.414071
Si Si2 0.368990 0.662757 0.588828
Si Si3 0.089763 0.662484 0.909192
Si Si4 0.332815 0.460817 0.911800
Si Si5 0.517652 0.411715 0.090621
Si Si6 0.595649 0.837641 0.410090
Si Si7 0.117754 0.450175 0.585091
Si Si8 0.022170 0.413056 0.412216
O O1 0.226113 0.250000 0.500000
O O2 0.230068 0.180119 0.250000
O O3 0.278318 0.089797 0.460565
O O4 0.176650 0.087920 0.447817
O O5 0.345468 0.750000 0.500000
O O6 0.373217 0.696127 0.750000
O O7 0.328113 0.574474 0.572452
O O8 0.428413 0.636060 0.530420
O O9 0.109423 0.679491 0.750000
O O10 0.113088 0.560835 0.961808
O O11 0.024529 0.665886 0.917000
O O12 0.112925 0.750000 0.000000
O O13 0.347211 0.434483 0.750000
O O14 0.381393 0.431001 0.014266
O O15 0.529112 0.447504 0.250000
O O16 0.468883 0.336862 0.088533
O O17 0.500000 0.500000 0.000000
O O18 0.618424 0.750000 0.500000
O O19 0.617507 0.830947 0.250000
O O20 0.102107 0.440477 0.750000
O O21 0.077326 0.384294 0.492008
O O22 0.034795 0.441007 0.250000
O O23 0.000000 0.500000 0.500000
#
# Coordination Sequence:
#
# PCOD8232456 Si02
#       8
#     8   8   8   8   8   8   8   8
#     4  10  22  40  61  82 106 139 179 228 282 332
#     4  10  21  37  57  81 110 145 183 222 270 327
#     4   9  18  31  49  75 108 144 179 214 256 311
#     4  10  21  39  60  80 107 142 181 228 278 328
#     4  10  20  34  53  79 110 145 181 219 266 322
#     4  11  22  34  53  81 110 143 179 220 270 323
#     4   9  19  36  54  76 108 144 182 225 274 325
#     4   9  17  30  49  75 107 144 183 221 264 313
#
# _framework density 19.244261999999999
#
# number of rings (size 3 to 8) (size 9 to 14) (size 15 to 20)
#    0.000    2.250    1.250    2.250    0.000    6.500 
#    0.000    3.125    0.000    0.000    0.000    0.000 
#    0.000    0.000    0.000    0.000    0.000    0.000 
#
# Total GULP energy -793388.214827 kJ/mol
# GULP energy per Si atom -12396.690857 kJ/mol
# Density = 1.920046 g / cm^3
# Si number density = 19.244262 Si / 1000 Ang^3
#
#
#
# Elastic Constant Matrix: (Units=GPa)
#
#
# Indices 1 2 3 4 5 6 
#
# 1 92.5459 38.5045 31.3816 0.0000 0.0000 0.0000
# 2 38.5045 110.7164 53.5411 0.0000 0.0000 0.0000
# 3 31.3816 53.5411 90.0502 0.0000 0.0000 0.0000
# 4 0.0000 0.0000 0.0000 35.8600 0.0000 0.0000
# 5 0.0000 0.0000 0.0000 0.0000 23.1344 0.0000
# 6 0.0000 0.0000 0.0000 0.0000 0.0000 23.9956
#
#
#
# Elastic Compliance Matrix: (Units=1/GPa)
#
#
# Indices 1 2 3 4 5 6 
#
# 1 0.013052 -0.003284 -0.002596 0.000000 0.000000 0.000000
# 2 -0.003284 0.013503 -0.006884 0.000000 0.000000 0.000000
# 3 -0.002596 -0.006884 0.016103 0.000000 0.000000 0.000000
# 4 0.000000 0.000000 0.000000 0.027886 0.000000 0.000000
# 5 0.000000 0.000000 0.000000 0.000000 0.043226 0.000000
# 6 0.000000 0.000000 0.000000 0.000000 0.000000 0.041674
#
#
# Mechanical properties :
#
#
# Convention : Reuss Voigt Hill
#
# Bulk Modulus (GPa) = 58.37758 60.01855 59.19806
# Shear Modulus (GPa) = 26.78346 27.92368 27.35357
#
# Velocity S-wave (km/s) = 3.73468 3.81335 3.77422
# Velocity P-wave (km/s) = 6.99986 7.11648 7.05841
#
# Compressibility (1/GPa) = 0.01712986
#
# Stress axis : x y z
#
# Youngs Moduli (GPa) = 76.61669 74.05636 62.10103
#
# Poissons Ratio (x) = 0.24318 0.16122
# Poissons Ratio (y) = 0.25159 0.42752
# Poissons Ratio (z) = 0.19890 0.50982
#
# Static dielectric constant tensor:
#      x y z
#    x 3.700010 0.000000 0.000000 
#    y 0.000000 3.354300 0.000000 
#    z 0.000000 0.000000 4.198190 
# 
# 
# High freq. dielectric constant tensor:
#      x y z
#    x 1.732780 0.000000 0.000000 
#    y 0.000000 1.737860 0.000000 
#    z 0.000000 0.000000 1.749310 
# 
# From -- ./inp_files/9341.got.cif
#   From: 2010.03.12/outbox.cif.g09.slc.cpg/sg57_5_cif.got.tgz:9341.got - 2010.04.16 15:48:40.
