data_PCOD8232049
_publ_section_title
;
Structure prediction by ZEFSAII (Michael W. Deem and Ramdas Pophale) SiO2 
 PCOD8232049
Probable space group: P B C M
;
_chemical_formula_sum "Si O2"
_cell_formula_units_Z 64
_cell_length_a 18.718467
_cell_length_b 9.921741
_cell_length_c 15.765778
_cell_angle_alpha 90.000000
_cell_angle_beta 90.000000
_cell_angle_gamma 90.000000
_cell_volume 2928.016845
_symmetry_space_group_name_H-M "P B C M"
_symmetry_group_IT_number 57
_symmetry_cell_setting 'orthorhombic'
loop_
_space_group_symop_operation_xyz
x,y,z
-x,-y,1/2+z
x,1/2-y,-z
-x,1/2+y,1/2-z
-x,-y,-z
x,y,1/2-z
-x,1/2+y,z
x,1/2-y,1/2+z
loop_
_atom_site_type_symbol
_atom_site_label
_atom_site_fract_x
_atom_site_fract_y
_atom_site_fract_z
Si Si1 0.059415 0.974649 0.650048
Si Si2 0.779977 0.833873 0.847629
Si Si3 0.935715 0.782444 0.849260
Si Si4 0.733474 0.388191 0.090252
Si Si5 0.685576 0.897266 0.344446
Si Si6 0.545356 0.029304 0.149418
Si Si7 0.422142 0.670069 0.850743
Si Si8 0.788227 0.393409 0.902732
O O1 0.072919 0.950363 0.750000
O O2 0.129086 0.931895 0.597993
O O3 0.994628 0.884590 0.613276
O O4 0.040948 0.129918 0.630794
O O5 0.786775 0.789130 0.750000
O O6 0.858103 0.814962 0.890517
O O7 0.722084 0.732145 0.891092
O O8 0.752608 0.985482 0.851855
O O9 0.931333 0.810612 0.750000
O O10 0.650418 0.351833 0.098028
O O11 0.780355 0.262644 0.123264
O O12 0.753117 0.422072 0.994014
O O13 0.663132 0.853066 0.250000
O O14 0.614207 0.952052 0.391082
O O15 0.744453 0.015386 0.337235
O O16 0.552178 0.024407 0.250000
O O17 0.474604 0.950437 0.119844
O O18 0.543989 0.185955 0.121112
O O19 0.407546 0.666021 0.750000
#
# Coordination Sequence:
#
# PCOD8232049 Si02
#       8
#     8   8   8   8   8   8   8   8
#     4  10  20  37  63  91 120 156 199 250 309 364
#     4  10  21  37  61  91 121 152 202 259 307 358
#     4   9  19  35  58  92 123 148 191 251 305 363
#     4  11  25  39  58  84 123 163 209 255 293 353
#     4  10  19  37  63  88 116 156 201 249 308 362
#     4   9  19  33  58  90 120 151 193 248 306 365
#     4  10  20  37  60  89 121 155 198 252 309 361
#     4  11  23  41  60  80 122 166 208 250 294 359
#
# _framework density 21.857797999999999
#
# number of rings (size 3 to 8) (size 9 to 14) (size 15 to 20)
#    0.000    2.000    2.500    0.750    3.500    2.000 
#    0.000    1.250    0.000    0.000    0.000    0.000 
#    0.000    0.000    0.000    0.000    0.000    0.000 
#
# Total GULP energy -793485.352562 kJ/mol
# GULP energy per Si atom -12398.208634 kJ/mol
# Density = 2.180805 g / cm^3
# Si number density = 21.857798 Si / 1000 Ang^3
#
#
#
# Elastic Constant Matrix: (Units=GPa)
#
#
# Indices 1 2 3 4 5 6 
#
# 1 134.0065 63.1211 20.1428 0.0000 0.0000 0.0000
# 2 63.1211 148.5329 18.3640 0.0000 0.0000 0.0000
# 3 20.1428 18.3640 24.9850 0.0000 0.0000 0.0000
# 4 0.0000 0.0000 0.0000 12.9678 0.0000 0.0000
# 5 0.0000 0.0000 0.0000 0.0000 22.1598 0.0000
# 6 0.0000 0.0000 0.0000 0.0000 0.0000 49.5335
#
#
#
# Elastic Compliance Matrix: (Units=1/GPa)
#
#
# Indices 1 2 3 4 5 6 
#
# 1 0.009952 -0.003561 -0.005406 0.000000 0.000000 0.000000
# 2 -0.003561 0.008680 -0.003509 0.000000 0.000000 0.000000
# 3 -0.005406 -0.003509 0.046961 0.000000 0.000000 0.000000
# 4 0.000000 0.000000 0.000000 0.077114 0.000000 0.000000
# 5 0.000000 0.000000 0.000000 0.000000 0.045127 0.000000
# 6 0.000000 0.000000 0.000000 0.000000 0.000000 0.020188
#
#
# Mechanical properties :
#
#
# Convention : Reuss Voigt Hill
#
# Bulk Modulus (GPa) = 24.60539 56.75337 40.67938
# Shear Modulus (GPa) = 20.28223 30.65865 25.47044
#
# Velocity S-wave (km/s) = 3.04948 3.74925 3.41732
# Velocity P-wave (km/s) = 4.86627 6.69057 5.84997
#
# Compressibility (1/GPa) = 0.04064150
#
# Stress axis : x y z
#
# Youngs Moduli (GPa) = 100.47974 115.21287 21.29415
#
# Poissons Ratio (x) = 0.41027 0.11512
# Poissons Ratio (y) = 0.35780 0.07471
# Poissons Ratio (z) = 0.54321 0.40424
#
# Static dielectric constant tensor:
#      x y z
#    x 4.143140 0.000000 0.000000 
#    y 0.000000 4.135380 0.000000 
#    z 0.000000 0.000000 3.371390 
# 
# 
# High freq. dielectric constant tensor:
#      x y z
#    x 1.867060 0.000000 0.000000 
#    y 0.000000 1.874090 0.000000 
#    z 0.000000 0.000000 1.811280 
# 
# From -- ./inp_files/25622.got.cif
#   From: 2010.03.12/outbox.cif.g09.slc.cpg/sg57_13_cif.got.tgz:25622.got - 2010.04.16 15:48:40.
