data_PCOD8232329
_publ_section_title
;
Structure prediction by ZEFSAII (Michael W. Deem and Ramdas Pophale) SiO2 
 PCOD8232329
Probable space group: P B C M
;
_chemical_formula_sum "Si O2"
_cell_formula_units_Z 64
_cell_length_a 15.315088
_cell_length_b 23.236669
_cell_length_c 8.998199
_cell_angle_alpha 90.000000
_cell_angle_beta 90.000000
_cell_angle_gamma 90.000000
_cell_volume 3202.203750
_symmetry_space_group_name_H-M "P B C M"
_symmetry_group_IT_number 57
_symmetry_cell_setting 'orthorhombic'
loop_
_space_group_symop_operation_xyz
x,y,z
-x,-y,1/2+z
x,1/2-y,-z
-x,1/2+y,1/2-z
-x,-y,-z
x,y,1/2-z
-x,1/2+y,z
x,1/2-y,1/2+z
loop_
_atom_site_type_symbol
_atom_site_label
_atom_site_fract_x
_atom_site_fract_y
_atom_site_fract_z
Si Si1 0.299752 0.126038 0.572960
Si Si2 0.547438 0.808938 0.574966
Si Si3 0.230597 0.811010 0.425718
Si Si4 0.311115 0.998875 0.921270
Si Si5 0.860961 0.013666 0.581941
Si Si6 0.619426 0.118651 0.421950
Si Si7 0.881095 0.882437 0.921991
Si Si8 0.051600 0.629227 0.578022
O O1 0.304058 0.132973 0.750000
O O2 0.361533 0.172700 0.497379
O O3 0.201851 0.138388 0.516822
O O4 0.331073 0.062586 0.513702
O O5 0.515746 0.750000 0.500000
O O6 0.559562 0.800180 0.750000
O O7 0.474919 0.856628 0.536649
O O8 0.246819 0.750000 0.500000
O O9 0.236565 0.804570 0.250000
O O10 0.306414 0.853724 0.476864
O O11 0.136302 0.835278 0.474755
O O12 0.295521 0.009466 0.750000
O O13 0.385134 0.950617 0.952532
O O14 0.221831 0.972624 0.981634
O O15 0.827660 0.020414 0.750000
O O16 0.934069 0.061245 0.547592
O O17 0.897788 0.950209 0.552744
O O18 0.642675 0.130953 0.250000
O O19 0.866206 0.866751 0.750000
O O20 0.967822 0.850548 0.982525
O O21 0.031264 0.641036 0.750000
#
# Coordination Sequence:
#
# PCOD8232329 Si02
#       8
#     8   8   8   8   8   8   8   8
#     4  10  21  39  61  86 119 155 192 239 292 345
#     4  11  24  42  63  87 114 148 194 244 291 344
#     4  11  23  38  57  81 114 155 196 241 289 342
#     4   9  18  33  56  87 121 155 189 229 285 347
#     4   9  17  31  50  79 116 151 188 231 279 337
#     4  10  21  38  61  89 120 151 189 236 287 347
#     4  10  20  33  55  84 114 149 190 236 287 340
#     4  10  20  34  52  78 113 151 192 236 285 339
#
# _framework density 19.986236000000002
#
# number of rings (size 3 to 8) (size 9 to 14) (size 15 to 20)
#    0.000    2.000    1.250    2.250    0.000    5.000 
#    0.000    0.625    0.000    1.500    0.000    0.000 
#    0.000    0.000    0.000    0.000    0.000    0.000 
#
# Total GULP energy -793534.200583 kJ/mol
# GULP energy per Si atom -12398.971884 kJ/mol
# Density = 1.994075 g / cm^3
# Si number density = 19.986236 Si / 1000 Ang^3
#
#
#
# Elastic Constant Matrix: (Units=GPa)
#
#
# Indices 1 2 3 4 5 6 
#
# 1 83.4813 16.8377 31.0136 0.0000 0.0000 0.0000
# 2 16.8377 37.0805 20.0678 0.0000 0.0000 0.0000
# 3 31.0136 20.0678 62.4953 0.0000 0.0000 0.0000
# 4 0.0000 0.0000 0.0000 24.3874 0.0000 0.0000
# 5 0.0000 0.0000 0.0000 0.0000 33.1360 0.0000
# 6 0.0000 0.0000 0.0000 0.0000 0.0000 22.1008
#
#
#
# Elastic Compliance Matrix: (Units=1/GPa)
#
#
# Indices 1 2 3 4 5 6 
#
# 1 0.015027 -0.003374 -0.006374 0.000000 0.000000 0.000000
# 2 -0.003374 0.033398 -0.009050 0.000000 0.000000 0.000000
# 3 -0.006374 -0.009050 0.022070 0.000000 0.000000 0.000000
# 4 0.000000 0.000000 0.000000 0.041005 0.000000 0.000000
# 5 0.000000 0.000000 0.000000 0.000000 0.030179 0.000000
# 6 0.000000 0.000000 0.000000 0.000000 0.000000 0.045247
#
#
# Mechanical properties :
#
#
# Convention : Reuss Voigt Hill
#
# Bulk Modulus (GPa) = 30.39535 35.43280 32.91408
# Shear Modulus (GPa) = 21.23238 23.60069 22.41653
#
# Velocity S-wave (km/s) = 3.26291 3.44007 3.35266
# Velocity P-wave (km/s) = 5.42555 5.79188 5.61171
#
# Compressibility (1/GPa) = 0.03289977
#
# Stress axis : x y z
#
# Youngs Moduli (GPa) = 66.54609 29.94156 45.30966
#
# Poissons Ratio (x) = 0.10103 0.28880
# Poissons Ratio (y) = 0.22453 0.41006
# Poissons Ratio (z) = 0.42416 0.27097
#
# Static dielectric constant tensor:
#      x y z
#    x 3.480290 0.000000 0.000000 
#    y 0.000000 3.721210 0.000000 
#    z 0.000000 0.000000 3.599080 
# 
# 
# High freq. dielectric constant tensor:
#      x y z
#    x 1.773420 0.000000 0.000000 
#    y 0.000000 1.772270 0.000000 
#    z 0.000000 0.000000 1.781440 
# 
# From -- ./inp_files/5699.got.cif
#   From: 2010.03.12/outbox.cif.g09.slc.cpg/sg57_3_cif.got.tgz:5699.got - 2010.04.16 15:48:40.
