data_PCOD8232543
_publ_section_title
;
Structure prediction by ZEFSAII (Michael W. Deem and Ramdas Pophale) SiO2 
 PCOD8232543
Probable space group: P B C M
;
_chemical_formula_sum "Si O2"
_cell_formula_units_Z 56
_cell_length_a 16.571286
_cell_length_b 21.076615
_cell_length_c 8.833001
_cell_angle_alpha 90.000000
_cell_angle_beta 90.000000
_cell_angle_gamma 90.000000
_cell_volume 3085.072360
_symmetry_space_group_name_H-M "P B C M"
_symmetry_group_IT_number 57
_symmetry_cell_setting 'orthorhombic'
loop_
_space_group_symop_operation_xyz
x,y,z
-x,-y,1/2+z
x,1/2-y,-z
-x,1/2+y,1/2-z
-x,-y,-z
x,y,1/2-z
-x,1/2+y,z
x,1/2-y,1/2+z
loop_
_atom_site_type_symbol
_atom_site_label
_atom_site_fract_x
_atom_site_fract_y
_atom_site_fract_z
Si Si1 0.952982 0.183548 0.072436
Si Si2 0.466311 0.590790 0.075067
Si Si3 0.373386 0.476163 0.575213
Si Si4 0.953810 0.559397 0.429271
Si Si5 0.639540 0.183801 0.572751
Si Si6 0.205644 0.023091 0.576235
Si Si7 0.786099 0.376126 0.577028
O O1 0.963399 0.190437 0.250000
O O2 0.860453 0.168361 0.029353
O O3 0.008137 0.125683 0.012683
O O4 0.980084 0.250000 0.000000
O O5 0.441073 0.587235 0.250000
O O6 0.561864 0.580543 0.053993
O O7 0.413404 0.539700 0.986465
O O8 0.443228 0.658712 0.003761
O O9 0.351443 0.486916 0.750000
O O10 0.293675 0.457722 0.484146
O O11 0.961456 0.553424 0.250000
O O12 0.860762 0.560562 0.479773
O O13 0.000000 0.500000 0.500000
O O14 0.663789 0.250000 0.500000
O O15 0.626733 0.190653 0.750000
O O16 0.712299 0.135782 0.536046
O O17 0.199756 0.044309 0.750000
O O18 0.187416 0.948703 0.558390
O O19 0.759220 0.362536 0.750000
#
# Coordination Sequence:
#
# PCOD8232543 Si02
#       7
#     8   8   8   8   8   8   8
#     4  10  22  39  57  80 111 148 189 234 281 336
#     4  10  20  35  54  78 110 143 181 227 270 322
#     4  10  20  34  55  82 109 142 180 222 276 328
#     4  11  22  38  58  83 115 149 191 238 288 343
#     4  12  24  36  53  78 111 151 191 226 275 333
#     4  11  21  35  57  84 117 149 183 233 283 331
#     4  10  20  36  54  79 115 149 185 228 278 332
#
# _framework density 18.151924000000001
#
# number of rings (size 3 to 8) (size 9 to 14) (size 15 to 20)
#    0.000    1.429    2.857    3.429    0.000    5.143 
#    0.000    0.000    0.000    0.857    0.000    4.000 
#    0.000    0.000    0.000    0.000    0.000    0.000 
#
# Total GULP energy -694578.618292 kJ/mol
# GULP energy per Si atom -12403.189612 kJ/mol
# Density = 1.811061 g / cm^3
# Si number density = 18.151924 Si / 1000 Ang^3
#
#
#
# Elastic Constant Matrix: (Units=GPa)
#
#
# Indices 1 2 3 4 5 6 
#
# 1 95.1510 42.3221 26.9262 0.0000 0.0000 0.0000
# 2 42.3221 86.6906 38.7742 0.0000 0.0000 0.0000
# 3 26.9262 38.7742 71.6774 0.0000 0.0000 0.0000
# 4 0.0000 0.0000 0.0000 29.3797 0.0000 0.0000
# 5 0.0000 0.0000 0.0000 0.0000 31.0458 0.0000
# 6 0.0000 0.0000 0.0000 0.0000 0.0000 27.9965
#
#
#
# Elastic Compliance Matrix: (Units=1/GPa)
#
#
# Indices 1 2 3 4 5 6 
#
# 1 0.013640 -0.005761 -0.002008 0.000000 0.000000 0.000000
# 2 -0.005761 0.017650 -0.007384 0.000000 0.000000 0.000000
# 3 -0.002008 -0.007384 0.018700 0.000000 0.000000 0.000000
# 4 0.000000 0.000000 0.000000 0.034037 0.000000 0.000000
# 5 0.000000 0.000000 0.000000 0.000000 0.032211 0.000000
# 6 0.000000 0.000000 0.000000 0.000000 0.000000 0.035719
#
#
# Mechanical properties :
#
#
# Convention : Reuss Voigt Hill
#
# Bulk Modulus (GPa) = 50.79905 52.17377 51.48641
# Shear Modulus (GPa) = 26.47972 27.38417 26.93194
#
# Velocity S-wave (km/s) = 3.82355 3.88830 3.85606
# Velocity P-wave (km/s) = 6.89485 6.99741 6.94632
#
# Compressibility (1/GPa) = 0.01968541
#
# Stress axis : x y z
#
# Youngs Moduli (GPa) = 73.31262 56.65584 53.47641
#
# Poissons Ratio (x) = 0.32641 0.10735
# Poissons Ratio (y) = 0.42237 0.39486
# Poissons Ratio (z) = 0.14718 0.41834
#
# Static dielectric constant tensor:
#      x y z
#    x 3.464360 0.000000 0.000000 
#    y 0.000000 3.357990 0.000000 
#    z 0.000000 0.000000 3.423200 
# 
# 
# High freq. dielectric constant tensor:
#      x y z
#    x 1.703320 0.000000 0.000000 
#    y 0.000000 1.682490 0.000000 
#    z 0.000000 0.000000 1.713630 
# 
# From -- ./inp_files/5234.got.cif
#   From: 2010.03.12/outbox.cif.g09.slc.cpg/sg57_3_cif.got.tgz:5234.got - 2010.04.16 15:48:40.
