data_PCOD8232286
_publ_section_title
;
Structure prediction by ZEFSAII (Michael W. Deem and Ramdas Pophale) SiO2 
 PCOD8232286
Probable space group: P B C M
;
_chemical_formula_sum "Si O2"
_cell_formula_units_Z 64
_cell_length_a 22.915391
_cell_length_b 16.015262
_cell_length_c 8.875111
_cell_angle_alpha 90.000000
_cell_angle_beta 90.000000
_cell_angle_gamma 90.000000
_cell_volume 3257.130154
_symmetry_space_group_name_H-M "P B C M"
_symmetry_group_IT_number 57
_symmetry_cell_setting 'orthorhombic'
loop_
_space_group_symop_operation_xyz
x,y,z
-x,-y,1/2+z
x,1/2-y,-z
-x,1/2+y,1/2-z
-x,-y,-z
x,y,1/2-z
-x,1/2+y,z
x,1/2-y,1/2+z
loop_
_atom_site_type_symbol
_atom_site_label
_atom_site_fract_x
_atom_site_fract_y
_atom_site_fract_z
Si Si1 0.760292 0.509757 0.076654
Si Si2 0.871781 0.081445 0.575474
Si Si3 0.968787 0.333904 0.927497
Si Si4 0.069207 0.427636 0.424312
Si Si5 0.816034 0.665130 0.920083
Si Si6 0.575404 0.663624 0.572724
Si Si7 0.372793 0.999203 0.426175
Si Si8 0.559560 0.335629 0.073394
O O1 0.768610 0.535059 0.250000
O O2 0.803075 0.431199 0.039010
O O3 0.694962 0.481184 0.040615
O O4 0.777067 0.590184 0.981848
O O5 0.882526 0.103006 0.750000
O O6 0.900655 0.154213 0.473703
O O7 0.904374 0.997339 0.530731
O O8 0.977046 0.332367 0.750000
O O9 0.993138 0.250000 0.000000
O O10 0.006691 0.406672 0.004003
O O11 0.061850 0.457756 0.250000
O O12 0.114466 0.350652 0.433542
O O13 0.796553 0.675884 0.750000
O O14 0.798699 0.750000 0.000000
O O15 0.599185 0.750000 0.500000
O O16 0.585381 0.669355 0.750000
O O17 0.609187 0.583500 0.510468
O O18 0.507795 0.652026 0.529900
O O19 0.385681 0.012219 0.250000
O O20 0.406992 0.917785 0.488429
O O21 0.569522 0.326799 0.250000
O O22 0.583941 0.250000 0.000000
#
# Coordination Sequence:
#
# PCOD8232286 Si02
#       8
#     8   8   8   8   8   8   8   8
#     4   9  20  37  56  75 101 138 179 218 261 311
#     4  10  20  37  57  76 101 136 173 211 256 309
#     4  12  24  37  54  78 105 133 167 211 261 314
#     4  10  20  35  55  80 106 134 168 209 257 314
#     4  10  20  33  52  76 105 138 174 215 262 314
#     4  10  20  34  54  83 116 151 184 220 268 325
#     4  10  20  36  57  82 111 145 184 230 275 319
#     4   9  19  35  56  82 113 145 182 226 275 326
#
# _framework density 19.649198999999999
#
# number of rings (size 3 to 8) (size 9 to 14) (size 15 to 20)
#    0.000    2.000    0.000    3.750    0.000    5.000 
#    0.000    0.625    0.000    1.500    0.000    0.000 
#    0.000    0.000    0.000    0.000    0.000    0.000 
#
# Total GULP energy -793511.568139 kJ/mol
# GULP energy per Si atom -12398.618252 kJ/mol
# Density = 1.960448 g / cm^3
# Si number density = 19.649199 Si / 1000 Ang^3
#
#
#
# Elastic Constant Matrix: (Units=GPa)
#
#
# Indices 1 2 3 4 5 6 
#
# 1 91.6649 32.2946 31.6112 0.0000 0.0000 0.0000
# 2 32.2946 82.5625 24.7030 0.0000 0.0000 0.0000
# 3 31.6112 24.7030 75.1773 0.0000 0.0000 0.0000
# 4 0.0000 0.0000 0.0000 34.3419 0.0000 0.0000
# 5 0.0000 0.0000 0.0000 0.0000 23.9517 0.0000
# 6 0.0000 0.0000 0.0000 0.0000 0.0000 12.9505
#
#
#
# Elastic Compliance Matrix: (Units=1/GPa)
#
#
# Indices 1 2 3 4 5 6 
#
# 1 0.013903 -0.004091 -0.004502 0.000000 0.000000 0.000000
# 2 -0.004091 0.014637 -0.003089 0.000000 0.000000 0.000000
# 3 -0.004502 -0.003089 0.016210 0.000000 0.000000 0.000000
# 4 0.000000 0.000000 0.000000 0.029119 0.000000 0.000000
# 5 0.000000 0.000000 0.000000 0.000000 0.041751 0.000000
# 6 0.000000 0.000000 0.000000 0.000000 0.000000 0.077217
#
#
# Mechanical properties :
#
#
# Convention : Reuss Voigt Hill
#
# Bulk Modulus (GPa) = 46.76127 47.40250 47.08189
# Shear Modulus (GPa) = 22.38843 24.96854 23.67849
#
# Velocity S-wave (km/s) = 3.37917 3.56858 3.47517
# Velocity P-wave (km/s) = 6.25098 6.41533 6.33369
#
# Compressibility (1/GPa) = 0.02138522
#
# Stress axis : x y z
#
# Youngs Moduli (GPa) = 71.92596 68.32154 61.69066
#
# Poissons Ratio (x) = 0.27953 0.27771
# Poissons Ratio (y) = 0.29427 0.19057
# Poissons Ratio (z) = 0.32379 0.21106
#
# Static dielectric constant tensor:
#      x y z
#    x 3.748710 0.000000 0.000000 
#    y 0.000000 3.576140 0.000000 
#    z 0.000000 0.000000 3.598770 
# 
# 
# High freq. dielectric constant tensor:
#      x y z
#    x 1.759250 0.000000 0.000000 
#    y 0.000000 1.761340 0.000000 
#    z 0.000000 0.000000 1.769650 
# 
# From -- ./inp_files/9312.got.cif
#   From: 2010.03.12/outbox.cif.g09.slc.cpg/sg57_5_cif.got.tgz:9312.got - 2010.04.16 15:48:40.
