data_PCOD8232479
_publ_section_title
;
Structure prediction by ZEFSAII (Michael W. Deem and Ramdas Pophale) SiO2 
 PCOD8232479
Probable space group: P B C M
;
_chemical_formula_sum "Si O2"
_cell_formula_units_Z 48
_cell_length_a 18.001373
_cell_length_b 15.538984
_cell_length_c 8.993204
_cell_angle_alpha 90.000000
_cell_angle_beta 90.000000
_cell_angle_gamma 90.000000
_cell_volume 2515.606425
_symmetry_space_group_name_H-M "P B C M"
_symmetry_group_IT_number 57
_symmetry_cell_setting 'orthorhombic'
loop_
_space_group_symop_operation_xyz
x,y,z
-x,-y,1/2+z
x,1/2-y,-z
-x,1/2+y,1/2-z
-x,-y,-z
x,y,1/2-z
-x,1/2+y,z
x,1/2-y,1/2+z
loop_
_atom_site_type_symbol
_atom_site_label
_atom_site_fract_x
_atom_site_fract_y
_atom_site_fract_z
Si Si1 0.425530 0.662306 0.074746
Si Si2 0.403127 0.336201 0.923277
Si Si3 0.331783 0.513907 0.574763
Si Si4 0.180106 0.508059 0.080229
Si Si5 0.970664 0.415727 0.922390
Si Si6 0.095820 0.167547 0.923736
O O1 0.412452 0.668435 0.250000
O O2 0.511418 0.648013 0.032795
O O3 0.395871 0.750000 0.000000
O O4 0.381569 0.582163 0.010377
O O5 0.393881 0.321406 0.750000
O O6 0.356344 0.418594 0.977130
O O7 0.371710 0.250000 0.000000
O O8 0.342690 0.526469 0.750000
O O9 0.246444 0.528282 0.531643
O O10 0.209188 0.506805 0.250000
O O11 0.118971 0.584166 0.059888
O O12 0.144719 0.415877 0.039232
O O13 0.993047 0.416979 0.750000
O O14 0.000000 0.500000 0.000000
O O15 0.012761 0.337843 0.004365
O O16 0.086927 0.182205 0.750000
O O17 0.135276 0.250000 0.000000
#
# Coordination Sequence:
#
# PCOD8232479 Si02
#       6
#     8   8   8   8   8   8
#     4  10  20  37  59  80 106 140 181 230 278 326
#     4   9  20  36  55  81 110 143 183 226 272 323
#     4  11  22  35  54  82 113 146 184 224 272 329
#     4   9  20  36  52  74 105 141 176 212 260 316
#     4   9  17  32  53  74  98 129 168 209 250 301
#     4  10  20  34  54  79 106 137 175 217 263 315
#
# _framework density 19.080884000000001
#
# number of rings (size 3 to 8) (size 9 to 14) (size 15 to 20)
#    0.000    2.333    0.000    3.500    0.000    6.667 
#    0.000    4.167    0.000    4.000    0.000    0.000 
#    0.000    0.000    0.000    0.000    0.000    0.000 
#
# Total GULP energy -595114.077214 kJ/mol
# GULP energy per Si atom -12398.209942 kJ/mol
# Density = 1.903746 g / cm^3
# Si number density = 19.080884 Si / 1000 Ang^3
#
#
#
# Elastic Constant Matrix: (Units=GPa)
#
#
# Indices 1 2 3 4 5 6 
#
# 1 61.6575 10.2149 26.7927 0.0000 0.0000 0.0000
# 2 10.2149 51.4436 20.0781 0.0000 0.0000 0.0000
# 3 26.7927 20.0781 81.8707 0.0000 0.0000 0.0000
# 4 0.0000 0.0000 0.0000 37.3725 0.0000 0.0000
# 5 0.0000 0.0000 0.0000 0.0000 30.6755 0.0000
# 6 0.0000 0.0000 0.0000 0.0000 0.0000 12.5332
#
#
#
# Elastic Compliance Matrix: (Units=1/GPa)
#
#
# Indices 1 2 3 4 5 6 
#
# 1 0.019010 -0.001489 -0.005856 0.000000 0.000000 0.000000
# 2 -0.001489 0.021613 -0.004813 0.000000 0.000000 0.000000
# 3 -0.005856 -0.004813 0.015311 0.000000 0.000000 0.000000
# 4 0.000000 0.000000 0.000000 0.026758 0.000000 0.000000
# 5 0.000000 0.000000 0.000000 0.000000 0.032599 0.000000
# 6 0.000000 0.000000 0.000000 0.000000 0.000000 0.079788
#
#
# Mechanical properties :
#
#
# Convention : Reuss Voigt Hill
#
# Bulk Modulus (GPa) = 31.62778 34.34922 32.98850
# Shear Modulus (GPa) = 21.74529 25.30864 23.52696
#
# Velocity S-wave (km/s) = 3.37951 3.64591 3.51524
# Velocity P-wave (km/s) = 5.64267 5.98035 5.81396
#
# Compressibility (1/GPa) = 0.03161778
#
# Stress axis : x y z
#
# Youngs Moduli (GPa) = 52.60393 46.26854 65.31202
#
# Poissons Ratio (x) = 0.06890 0.38246
# Poissons Ratio (y) = 0.07834 0.31435
# Poissons Ratio (z) = 0.30804 0.22269
#
# Static dielectric constant tensor:
#      x y z
#    x 3.564840 0.000000 0.000000 
#    y 0.000000 3.652090 0.000000 
#    z 0.000000 0.000000 3.778590 
# 
# 
# High freq. dielectric constant tensor:
#      x y z
#    x 1.730460 0.000000 0.000000 
#    y 0.000000 1.737640 0.000000 
#    z 0.000000 0.000000 1.751330 
# 
# From -- ./inp_files/6483.got.cif
#   From: 2010.03.12/outbox.cif.g09.slc.cpg/sg57_4_cif.got.tgz:6483.got - 2010.04.16 15:48:40.
