data_PCOD8232773
_publ_section_title
;
Structure prediction by ZEFSAII (Michael W. Deem and Ramdas Pophale) SiO2 
 PCOD8232773
Probable space group: P B C M
;
_chemical_formula_sum "Si O2"
_cell_formula_units_Z 64
_cell_length_a 23.885517
_cell_length_b 15.120385
_cell_length_c 9.196242
_cell_angle_alpha 90.000000
_cell_angle_beta 90.000000
_cell_angle_gamma 90.000000
_cell_volume 3321.298327
_symmetry_space_group_name_H-M "P B C M"
_symmetry_group_IT_number 57
_symmetry_cell_setting 'orthorhombic'
loop_
_space_group_symop_operation_xyz
x,y,z
-x,-y,1/2+z
x,1/2-y,-z
-x,1/2+y,1/2-z
-x,-y,-z
x,y,1/2-z
-x,1/2+y,z
x,1/2-y,1/2+z
loop_
_atom_site_type_symbol
_atom_site_label
_atom_site_fract_x
_atom_site_fract_y
_atom_site_fract_z
Si Si1 0.611231 0.835876 0.918539
Si Si2 0.132546 0.844525 0.921365
Si Si3 0.318363 0.503327 0.582750
Si Si4 0.811053 0.000363 0.582709
Si Si5 0.989128 0.338912 0.915487
Si Si6 0.493053 0.590845 0.081527
Si Si7 0.110717 0.156484 0.420274
Si Si8 0.626894 0.339437 0.577759
O O1 0.622693 0.821057 0.750000
O O2 0.545564 0.846739 0.954144
O O3 0.644905 0.921244 0.973893
O O4 0.634366 0.750000 0.000000
O O5 0.144554 0.832217 0.750000
O O6 0.070020 0.887393 0.949641
O O7 0.139415 0.750000 0.000000
O O8 0.176393 0.912952 0.988153
O O9 0.333504 0.526779 0.750000
O O10 0.253874 0.477229 0.566639
O O11 0.331780 0.585253 0.479399
O O12 0.827496 0.019662 0.750000
O O13 0.844994 0.915548 0.522366
O O14 0.989250 0.309946 0.750000
O O15 0.048424 0.386560 0.951901
O O16 0.988689 0.250000 0.000000
O O17 0.490304 0.566806 0.250000
O O18 0.436803 0.639677 0.030589
O O19 0.500000 0.500000 0.000000
O O20 0.119755 0.250000 0.500000
O O21 0.119599 0.174515 0.250000
O O22 0.645906 0.250000 0.500000
O O23 0.633542 0.329597 0.750000
#
# Coordination Sequence:
#
# PCOD8232773 Si02
#       8
#     8   8   8   8   8   8   8   8
#     4  10  21  37  58  84 113 146 181 221 270 323
#     4  10  20  35  56  81 109 142 180 225 276 330
#     4  10  22  41  59  77 109 149 189 232 275 321
#     4  10  22  38  56  79 108 146 187 228 276 326
#     4   8  15  29  50  77 108 140 174 216 270 328
#     4  10  20  35  58  87 117 148 180 220 272 325
#     4   9  18  34  55  80 111 144 180 223 272 328
#     4  11  23  38  60  88 114 146 185 227 277 330
#
# _framework density 19.269573000000001
#
# number of rings (size 3 to 8) (size 9 to 14) (size 15 to 20)
#    0.000    2.250    1.250    1.125    0.000    4.500 
#    0.000    0.000    0.000    0.000    0.000    0.000 
#    0.000    0.000    0.000    0.000    0.000    0.000 
#
# Total GULP energy -793317.622425 kJ/mol
# GULP energy per Si atom -12395.587850 kJ/mol
# Density = 1.922571 g / cm^3
# Si number density = 19.269573 Si / 1000 Ang^3
#
#
#
# Elastic Constant Matrix: (Units=GPa)
#
#
# Indices 1 2 3 4 5 6 
#
# 1 74.9097 18.5849 19.4681 0.0000 0.0000 0.0000
# 2 18.5849 99.9373 37.7993 0.0000 0.0000 0.0000
# 3 19.4681 37.7993 56.3288 0.0000 0.0000 0.0000
# 4 0.0000 0.0000 0.0000 35.4460 0.0000 0.0000
# 5 0.0000 0.0000 0.0000 0.0000 25.4565 0.0000
# 6 0.0000 0.0000 0.0000 0.0000 0.0000 20.8723
#
#
#
# Elastic Compliance Matrix: (Units=1/GPa)
#
#
# Indices 1 2 3 4 5 6 
#
# 1 0.014755 -0.001092 -0.004367 0.000000 0.000000 0.000000
# 2 -0.001092 0.013491 -0.008675 0.000000 0.000000 0.000000
# 3 -0.004367 -0.008675 0.025084 0.000000 0.000000 0.000000
# 4 0.000000 0.000000 0.000000 0.028212 0.000000 0.000000
# 5 0.000000 0.000000 0.000000 0.000000 0.039283 0.000000
# 6 0.000000 0.000000 0.000000 0.000000 0.000000 0.047910
#
#
# Mechanical properties :
#
#
# Convention : Reuss Voigt Hill
#
# Bulk Modulus (GPa) = 39.90277 42.54225 41.22251
# Shear Modulus (GPa) = 24.34784 26.70986 25.52885
#
# Velocity S-wave (km/s) = 3.55848 3.72710 3.64377
# Velocity P-wave (km/s) = 6.13485 6.37550 6.25633
#
# Compressibility (1/GPa) = 0.02506092
#
# Stress axis : x y z
#
# Youngs Moduli (GPa) = 67.77254 74.12512 39.86661
#
# Poissons Ratio (x) = 0.08097 0.17408
# Poissons Ratio (y) = 0.07403 0.34586
# Poissons Ratio (z) = 0.29594 0.64306
#
# Static dielectric constant tensor:
#      x y z
#    x 4.034700 0.000000 0.000000 
#    y 0.000000 3.349860 0.000000 
#    z 0.000000 0.000000 2.683670 
# 
# 
# High freq. dielectric constant tensor:
#      x y z
#    x 1.758700 0.000000 0.000000 
#    y 0.000000 1.736810 0.000000 
#    z 0.000000 0.000000 1.747310 
# 
# From -- ./inp_files/9354.got.cif
#   From: 2010.03.12/outbox.cif.g09.slc.cpg/sg57_5_cif.got.tgz:9354.got - 2010.04.16 15:48:40.
