data_PCOD8232358
_publ_section_title
;
Structure prediction by ZEFSAII (Michael W. Deem and Ramdas Pophale) SiO2 
 PCOD8232358
Probable space group: P B C M
;
_chemical_formula_sum "Si O2"
_cell_formula_units_Z 64
_cell_length_a 19.755855
_cell_length_b 20.320529
_cell_length_c 8.870293
_cell_angle_alpha 90.000000
_cell_angle_beta 90.000000
_cell_angle_gamma 90.000000
_cell_volume 3560.974020
_symmetry_space_group_name_H-M "P B C M"
_symmetry_group_IT_number 57
_symmetry_cell_setting 'orthorhombic'
loop_
_space_group_symop_operation_xyz
x,y,z
-x,-y,1/2+z
x,1/2-y,-z
-x,1/2+y,1/2-z
-x,-y,-z
x,y,1/2-z
-x,1/2+y,z
x,1/2-y,1/2+z
loop_
_atom_site_type_symbol
_atom_site_label
_atom_site_fract_x
_atom_site_fract_y
_atom_site_fract_z
Si Si1 0.420580 0.318380 0.427428
Si Si2 0.180792 0.071127 0.571520
Si Si3 0.673938 0.428833 0.073306
Si Si4 0.173426 0.933304 0.072278
Si Si5 0.323250 0.423681 0.929564
Si Si6 0.076308 0.817405 0.072255
Si Si7 0.077322 0.182988 0.573124
Si Si8 0.576317 0.317738 0.427189
O O1 0.396386 0.250000 0.500000
O O2 0.407522 0.315311 0.250000
O O3 0.378756 0.376713 0.500277
O O4 0.498575 0.332338 0.467782
O O5 0.191814 0.069926 0.750000
O O6 0.249465 0.094690 0.491687
O O7 0.123279 0.122376 0.521184
O O8 0.156084 0.000077 0.515279
O O9 0.662922 0.427582 0.250000
O O10 0.750784 0.409477 0.031587
O O11 0.658122 0.502493 0.015650
O O12 0.621820 0.376375 0.001515
O O13 0.166553 0.947308 0.250000
O O14 0.122161 0.877594 0.014504
O O15 0.322359 0.417333 0.750000
O O16 0.082548 0.810218 0.250000
O O17 0.999471 0.831366 0.019809
O O18 0.103604 0.750000 0.000000
O O19 0.105108 0.250000 0.500000
O O20 0.080443 0.193006 0.750000
O O21 0.601184 0.250000 0.500000
O O22 0.586965 0.311134 0.250000
#
# Coordination Sequence:
#
# PCOD8232358 Si02
#       8
#     8   8   8   8   8   8   8   8
#     4  10  20  34  52  74 100 130 164 203 245 291
#     4  10  20  34  51  73 101 130 166 210 250 294
#     4   8  16  32  51  71  98 132 164 197 242 292
#     4   9  18  33  52  73 101 135 167 202 247 297
#     4  10  20  35  54  74  99 131 165 203 250 301
#     4   9  18  33  51  73 101 132 167 205 247 295
#     4   9  19  34  51  72  99 130 164 205 249 294
#     4   9  18  33  51  72 100 131 164 202 243 289
#
# _framework density 17.972611000000001
#
# number of rings (size 3 to 8) (size 9 to 14) (size 15 to 20)
#    0.000    2.750    0.000    1.875    0.000    4.000 
#    0.000    4.375    0.000    0.000    0.000    0.000 
#    0.000    0.000    0.000    0.000    0.000    0.000 
#
# Total GULP energy -793603.078589 kJ/mol
# GULP energy per Si atom -12400.048103 kJ/mol
# Density = 1.793170 g / cm^3
# Si number density = 17.972611 Si / 1000 Ang^3
#
#
#
# Elastic Constant Matrix: (Units=GPa)
#
#
# Indices 1 2 3 4 5 6 
#
# 1 107.7583 99.3144 37.4393 0.0000 0.0000 0.0000
# 2 99.3144 152.1863 45.9785 0.0000 0.0000 0.0000
# 3 37.4393 45.9785 48.7662 0.0000 0.0000 0.0000
# 4 0.0000 0.0000 0.0000 32.7449 0.0000 0.0000
# 5 0.0000 0.0000 0.0000 0.0000 20.7104 0.0000
# 6 0.0000 0.0000 0.0000 0.0000 0.0000 9.2611
#
#
#
# Elastic Compliance Matrix: (Units=1/GPa)
#
#
# Indices 1 2 3 4 5 6 
#
# 1 0.024177 -0.014220 -0.005154 0.000000 0.000000 0.000000
# 2 -0.014220 0.017552 -0.005632 0.000000 0.000000 0.000000
# 3 -0.005154 -0.005632 0.029772 0.000000 0.000000 0.000000
# 4 0.000000 0.000000 0.000000 0.030539 0.000000 0.000000
# 5 0.000000 0.000000 0.000000 0.000000 0.048285 0.000000
# 6 0.000000 0.000000 0.000000 0.000000 0.000000 0.107979
#
#
# Mechanical properties :
#
#
# Convention : Reuss Voigt Hill
#
# Bulk Modulus (GPa) = 46.53315 74.90834 60.72074
# Shear Modulus (GPa) = 15.84895 20.94185 18.39540
#
# Velocity S-wave (km/s) = 2.97280 3.41722 3.20273
# Velocity P-wave (km/s) = 6.14253 7.57228 6.89457
#
# Compressibility (1/GPa) = 0.02149006
#
# Stress axis : x y z
#
# Youngs Moduli (GPa) = 41.36242 56.97302 33.58823
#
# Poissons Ratio (x) = 0.81017 0.17311
# Poissons Ratio (y) = 0.58818 0.18915
# Poissons Ratio (z) = 0.21317 0.32085
#
# Static dielectric constant tensor:
#      x y z
#    x 3.467890 0.000000 0.000000 
#    y 0.000000 3.517230 0.000000 
#    z 0.000000 0.000000 3.196430 
# 
# 
# High freq. dielectric constant tensor:
#      x y z
#    x 1.696080 0.000000 0.000000 
#    y 0.000000 1.702760 0.000000 
#    z 0.000000 0.000000 1.685640 
# 
# From -- ./inp_files/7226.got.cif
#   From: 2010.03.12/outbox.cif.g09.slc.cpg/sg57_4_cif.got.tgz:7226.got - 2010.04.16 15:48:40.
