data_PCOD8232792
_publ_section_title
;
Structure prediction by ZEFSAII (Michael W. Deem and Ramdas Pophale) SiO2 
 PCOD8232792
Probable space group: P B C M
;
_chemical_formula_sum "Si O2"
_cell_formula_units_Z 64
_cell_length_a 23.979288
_cell_length_b 15.208442
_cell_length_c 8.686480
_cell_angle_alpha 90.000000
_cell_angle_beta 90.000000
_cell_angle_gamma 90.000000
_cell_volume 3167.851637
_symmetry_space_group_name_H-M "P B C M"
_symmetry_group_IT_number 57
_symmetry_cell_setting 'orthorhombic'
loop_
_space_group_symop_operation_xyz
x,y,z
-x,-y,1/2+z
x,1/2-y,-z
-x,1/2+y,1/2-z
-x,-y,-z
x,y,1/2-z
-x,1/2+y,z
x,1/2-y,1/2+z
loop_
_atom_site_type_symbol
_atom_site_label
_atom_site_fract_x
_atom_site_fract_y
_atom_site_fract_z
Si Si1 0.003277 0.403549 0.067722
Si Si2 0.387005 0.845284 0.068349
Si Si3 0.816314 0.504068 0.570639
Si Si4 0.891330 0.338409 0.931172
Si Si5 0.882257 0.659854 0.431430
Si Si6 0.619549 0.845321 0.570861
Si Si7 0.490025 0.154337 0.568628
Si Si8 0.697704 0.495038 0.430105
O O1 0.004223 0.409983 0.250000
O O2 0.950904 0.347852 0.012088
O O3 0.000000 0.500000 0.000000
O O4 0.058804 0.356707 0.011200
O O5 0.385882 0.834373 0.250000
O O6 0.448851 0.879949 0.017279
O O7 0.342920 0.917229 0.012030
O O8 0.372525 0.750000 0.000000
O O9 0.823450 0.526518 0.750000
O O10 0.851557 0.418639 0.524571
O O11 0.838084 0.584294 0.468957
O O12 0.752534 0.485571 0.531630
O O13 0.899875 0.330513 0.750000
O O14 0.863575 0.250000 0.000000
O O15 0.857530 0.750000 0.500000
O O16 0.890565 0.666702 0.250000
O O17 0.633596 0.750000 0.500000
O O18 0.609901 0.832445 0.750000
O O19 0.563809 0.894698 0.503496
O O20 0.670828 0.910137 0.536276
O O21 0.482240 0.250000 0.500000
O O22 0.483930 0.154736 0.750000
O O23 0.711554 0.484202 0.250000
#
# Coordination Sequence:
#
# PCOD8232792 Si02
#       8
#     8   8   8   8   8   8   8   8
#     4  12  23  39  65  97 132 167 203 246 302 361
#     4   9  19  36  57  83 115 151 191 238 293 354
#     4  11  25  44  64  88 120 157 206 258 302 356
#     4  11  24  42  65  93 126 162 204 251 303 362
#     4  12  25  43  68  95 127 165 203 249 304 361
#     4  10  20  35  56  82 113 150 189 236 291 351
#     4   9  16  29  52  81 113 147 185 233 290 352
#     4  10  23  41  59  81 114 155 198 243 298 357
#
# _framework density 20.202967000000001
#
# number of rings (size 3 to 8) (size 9 to 14) (size 15 to 20)
#    0.000    1.500    1.250    4.875    0.000    5.000 
#    0.000    3.750    0.000    0.000    0.000    0.000 
#    0.000    0.000    0.000    0.000    0.000    0.000 
#
# Total GULP energy -793606.402485 kJ/mol
# GULP energy per Si atom -12400.100039 kJ/mol
# Density = 2.015698 g / cm^3
# Si number density = 20.202967 Si / 1000 Ang^3
#
#
#
# Elastic Constant Matrix: (Units=GPa)
#
#
# Indices 1 2 3 4 5 6 
#
# 1 93.6459 21.4588 25.0406 0.0000 0.0000 0.0000
# 2 21.4588 102.2774 36.1848 0.0000 0.0000 0.0000
# 3 25.0406 36.1848 97.9444 0.0000 0.0000 0.0000
# 4 0.0000 0.0000 0.0000 29.8128 0.0000 0.0000
# 5 0.0000 0.0000 0.0000 0.0000 27.1481 0.0000
# 6 0.0000 0.0000 0.0000 0.0000 0.0000 6.2129
#
#
#
# Elastic Compliance Matrix: (Units=1/GPa)
#
#
# Indices 1 2 3 4 5 6 
#
# 1 0.011687 -0.001605 -0.002395 0.000000 0.000000 0.000000
# 2 -0.001605 0.011468 -0.003826 0.000000 0.000000 0.000000
# 3 -0.002395 -0.003826 0.012236 0.000000 0.000000 0.000000
# 4 0.000000 0.000000 0.000000 0.033543 0.000000 0.000000
# 5 0.000000 0.000000 0.000000 0.000000 0.036835 0.000000
# 6 0.000000 0.000000 0.000000 0.000000 0.000000 0.160956
#
#
# Mechanical properties :
#
#
# Convention : Reuss Voigt Hill
#
# Bulk Modulus (GPa) = 50.66351 51.02626 50.84489
# Shear Modulus (GPa) = 17.30371 26.71365 22.00868
#
# Velocity S-wave (km/s) = 2.92977 3.64024 3.30415
# Velocity P-wave (km/s) = 6.04784 6.55592 6.30700
#
# Compressibility (1/GPa) = 0.01973807
#
# Stress axis : x y z
#
# Youngs Moduli (GPa) = 85.56782 87.20101 81.72718
#
# Poissons Ratio (x) = 0.13993 0.19574
# Poissons Ratio (y) = 0.13731 0.31272
# Poissons Ratio (z) = 0.20494 0.33367
#
# Static dielectric constant tensor:
#      x y z
#    x 3.903140 0.000000 0.000000 
#    y 0.000000 5.514610 0.000000 
#    z 0.000000 0.000000 3.705070 
# 
# 
# High freq. dielectric constant tensor:
#      x y z
#    x 1.792330 0.000000 0.000000 
#    y 0.000000 1.791280 0.000000 
#    z 0.000000 0.000000 1.797020 
# 
# From -- ./inp_files/9348.got.cif
#   From: 2010.03.12/outbox.cif.g09.slc.cpg/sg57_5_cif.got.tgz:9348.got - 2010.04.16 15:48:40.
