data_PCOD8232146
_publ_section_title
;
Structure prediction by ZEFSAII (Michael W. Deem and Ramdas Pophale) SiO2 
 PCOD8232146
Probable space group: P B C M
;
_chemical_formula_sum "Si O2"
_cell_formula_units_Z 56
_cell_length_a 20.984233
_cell_length_b 15.136171
_cell_length_c 8.826403
_cell_angle_alpha 90.000000
_cell_angle_beta 90.000000
_cell_angle_gamma 90.000000
_cell_volume 2803.450409
_symmetry_space_group_name_H-M "P B C M"
_symmetry_group_IT_number 57
_symmetry_cell_setting 'orthorhombic'
loop_
_space_group_symop_operation_xyz
x,y,z
-x,-y,1/2+z
x,1/2-y,-z
-x,1/2+y,1/2-z
-x,-y,-z
x,y,1/2-z
-x,1/2+y,z
x,1/2-y,1/2+z
loop_
_atom_site_type_symbol
_atom_site_label
_atom_site_fract_x
_atom_site_fract_y
_atom_site_fract_z
Si Si1 0.640700 0.081035 0.424682
Si Si2 0.768114 0.000253 0.076035
Si Si3 0.088683 0.505577 0.427270
Si Si4 0.014043 0.349954 0.929833
Si Si5 0.573275 0.922245 0.574075
Si Si6 0.297297 0.161423 0.074230
Si Si7 0.536953 0.333551 0.426952
O O1 0.625670 0.058649 0.250000
O O2 0.717102 0.080087 0.452186
O O3 0.604990 0.168949 0.480546
O O4 0.605260 0.015599 0.540690
O O5 0.766434 0.970584 0.250000
O O6 0.838742 0.030999 0.030068
O O7 0.747591 0.917186 0.979195
O O8 0.078789 0.487644 0.250000
O O9 0.071342 0.413213 0.511516
O O10 0.048586 0.592577 0.476940
O O11 0.019574 0.338153 0.750000
O O12 0.013656 0.250000 0.000000
O O13 0.553357 0.917153 0.750000
O O14 0.628421 0.851716 0.531889
O O15 0.511099 0.913347 0.467488
O O16 0.287554 0.169957 0.250000
O O17 0.271254 0.250000 0.000000
O O18 0.500141 0.250000 0.500000
O O19 0.548630 0.326210 0.250000
#
# Coordination Sequence:
#
# PCOD8232146 Si02
#       7
#     8   8   8   8   8   8   8
#     4  10  20  36  56  77 102 134 171 211 259 314
#     4   9  19  36  57  77 103 140 178 217 261 311
#     4   9  19  37  59  84 114 148 187 228 269 316
#     4  10  20  35  58  87 118 150 184 224 270 319
#     4  10  20  35  54  76 101 132 171 216 266 320
#     4  10  20  32  49  74 105 138 175 219 268 323
#     4  12  24  37  53  74 100 131 170 218 269 317
#
# _framework density 19.975383000000001
#
# number of rings (size 3 to 8) (size 9 to 14) (size 15 to 20)
#    0.000    2.000    0.000    3.857    0.000    5.143 
#    0.000    0.714    0.000    1.714    0.000    0.000 
#    0.000    0.000    0.000    0.000    0.000    0.000 
#
# Total GULP energy -693825.567578 kJ/mol
# GULP energy per Si atom -12389.742278 kJ/mol
# Density = 1.992992 g / cm^3
# Si number density = 19.975383 Si / 1000 Ang^3
#
#
#
# Elastic Constant Matrix: (Units=GPa)
#
#
# Indices 1 2 3 4 5 6 
#
# 1 133.7543 26.7510 47.0614 0.0000 0.0000 0.0000
# 2 26.7510 81.1709 24.4732 0.0000 0.0000 0.0000
# 3 47.0614 24.4732 70.3834 0.0000 0.0000 0.0000
# 4 0.0000 0.0000 0.0000 30.7239 0.0000 0.0000
# 5 0.0000 0.0000 0.0000 0.0000 26.0678 0.0000
# 6 0.0000 0.0000 0.0000 0.0000 0.0000 29.6554
#
#
#
# Elastic Compliance Matrix: (Units=1/GPa)
#
#
# Indices 1 2 3 4 5 6 
#
# 1 0.009920 -0.001418 -0.006140 0.000000 0.000000 0.000000
# 2 -0.001418 0.013965 -0.003908 0.000000 0.000000 0.000000
# 3 -0.006140 -0.003908 0.019672 0.000000 0.000000 0.000000
# 4 0.000000 0.000000 0.000000 0.032548 0.000000 0.000000
# 5 0.000000 0.000000 0.000000 0.000000 0.038361 0.000000
# 6 0.000000 0.000000 0.000000 0.000000 0.000000 0.033721
#
#
# Mechanical properties :
#
#
# Convention : Reuss Voigt Hill
#
# Bulk Modulus (GPa) = 48.48251 53.54220 51.01236
# Shear Modulus (GPa) = 28.09067 29.75763 28.92415
#
# Velocity S-wave (km/s) = 3.75409 3.86387 3.80937
# Velocity P-wave (km/s) = 6.56618 6.83873 6.70384
#
# Compressibility (1/GPa) = 0.02062599
#
# Stress axis : x y z
#
# Youngs Moduli (GPa) = 100.80219 71.60643 50.83322
#
# Poissons Ratio (x) = 0.10155 0.31212
# Poissons Ratio (y) = 0.14295 0.19864
# Poissons Ratio (z) = 0.61894 0.27981
#
# Static dielectric constant tensor:
#      x y z
#    x 3.938610 0.000000 0.000000 
#    y 0.000000 4.008630 0.000000 
#    z 0.000000 0.000000 3.559430 
# 
# 
# High freq. dielectric constant tensor:
#      x y z
#    x 1.776200 0.000000 0.000000 
#    y 0.000000 1.771620 0.000000 
#    z 0.000000 0.000000 1.784320 
# 
# From -- ./inp_files/8164.got.cif
#   From: 2010.03.12/outbox.cif.g09.slc.cpg/sg57_5_cif.got.tgz:8164.got - 2010.04.16 15:48:40.
