data_PCOD8232231
_publ_section_title
;
Structure prediction by ZEFSAII (Michael W. Deem and Ramdas Pophale) SiO2 
 PCOD8232231
Probable space group: P B C M
;
_chemical_formula_sum "Si O2"
_cell_formula_units_Z 40
_cell_length_a 11.272201
_cell_length_b 21.275871
_cell_length_c 9.878711
_cell_angle_alpha 90.000000
_cell_angle_beta 90.000000
_cell_angle_gamma 90.000000
_cell_volume 2369.170701
_symmetry_space_group_name_H-M "P B C M"
_symmetry_group_IT_number 57
_symmetry_cell_setting 'orthorhombic'
loop_
_space_group_symop_operation_xyz
x,y,z
-x,-y,1/2+z
x,1/2-y,-z
-x,1/2+y,1/2-z
-x,-y,-z
x,y,1/2-z
-x,1/2+y,z
x,1/2-y,1/2+z
loop_
_atom_site_type_symbol
_atom_site_label
_atom_site_fract_x
_atom_site_fract_y
_atom_site_fract_z
Si Si1 0.322628 0.980861 0.404629
Si Si2 0.040731 0.190610 0.908366
Si Si3 0.689009 0.799575 0.102462
Si Si4 0.059105 0.554554 0.591521
Si Si5 0.570859 0.927771 0.100446
O O1 0.327826 0.003611 0.250000
O O2 0.200044 0.945772 0.434352
O O3 0.433523 0.935931 0.442402
O O4 0.335036 0.041840 0.498271
O O5 0.015007 0.205468 0.750000
O O6 0.179188 0.178544 0.938393
O O7 0.980130 0.124767 0.952173
O O8 0.995750 0.250000 0.000000
O O9 0.694585 0.767989 0.250000
O O10 0.594838 0.854677 0.100914
O O11 0.635557 0.750000 0.000000
O O12 0.027836 0.542082 0.750000
O O13 0.000000 0.500000 0.500000
O O14 0.592624 0.956665 0.250000
#
# Coordination Sequence:
#
# PCOD8232231 Si02
#       5
#     8   8   8   8   8
#     4   9  18  31  48  70  94 121 152 189 233 277
#     4   9  18  32  48  67  93 125 159 195 236 281
#     4   9  17  29  46  66  88 117 152 189 228 270
#     4  10  20  33  50  73  99 126 160 200 239 282
#     4   9  17  31  49  68  93 122 151 187 232 278
#
# _framework density 16.883544000000001
#
# number of rings (size 3 to 8) (size 9 to 14) (size 15 to 20)
#    0.000    2.800    0.000    1.200    0.000    4.000 
#    0.000    5.000    0.000    0.000    0.000    0.000 
#    0.000    0.000    0.000    0.000    0.000    0.000 
#
# Total GULP energy -495745.621468 kJ/mol
# GULP energy per Si atom -12393.640537 kJ/mol
# Density = 1.684512 g / cm^3
# Si number density = 16.883544 Si / 1000 Ang^3
#
#
#
# Elastic Constant Matrix: (Units=GPa)
#
#
# Indices 1 2 3 4 5 6 
#
# 1 64.9650 41.2742 39.6633 0.0000 0.0000 0.0000
# 2 41.2742 109.3945 63.5831 0.0000 0.0000 0.0000
# 3 39.6633 63.5831 80.8457 0.0000 0.0000 0.0000
# 4 0.0000 0.0000 0.0000 33.9392 0.0000 0.0000
# 5 0.0000 0.0000 0.0000 0.0000 21.3992 0.0000
# 6 0.0000 0.0000 0.0000 0.0000 0.0000 21.5795
#
#
#
# Elastic Compliance Matrix: (Units=1/GPa)
#
#
# Indices 1 2 3 4 5 6 
#
# 1 0.022834 -0.003876 -0.008154 0.000000 0.000000 0.000000
# 2 -0.003876 0.017496 -0.011859 0.000000 0.000000 0.000000
# 3 -0.008154 -0.011859 0.025697 0.000000 0.000000 0.000000
# 4 0.000000 0.000000 0.000000 0.029464 0.000000 0.000000
# 5 0.000000 0.000000 0.000000 0.000000 0.046731 0.000000
# 6 0.000000 0.000000 0.000000 0.000000 0.000000 0.046340
#
#
# Mechanical properties :
#
#
# Convention : Reuss Voigt Hill
#
# Bulk Modulus (GPa) = 54.79813 60.47183 57.63498
# Shear Modulus (GPa) = 20.62516 22.76255 21.69385
#
# Velocity S-wave (km/s) = 3.49895 3.67578 3.58845
# Velocity P-wave (km/s) = 6.98932 7.34234 7.16800
#
# Compressibility (1/GPa) = 0.01824880
#
# Stress axis : x y z
#
# Youngs Moduli (GPa) = 43.79504 57.15521 38.91579
#
# Poissons Ratio (x) = 0.22151 0.31733
# Poissons Ratio (y) = 0.16973 0.46150
# Poissons Ratio (z) = 0.35712 0.67780
#
# Static dielectric constant tensor:
#      x y z
#    x 3.153140 0.000000 0.000000 
#    y 0.000000 3.071670 0.000000 
#    z 0.000000 0.000000 3.410560 
# 
# 
# High freq. dielectric constant tensor:
#      x y z
#    x 1.645600 0.000000 0.000000 
#    y 0.000000 1.636360 0.000000 
#    z 0.000000 0.000000 1.658150 
# 
# From -- ./inp_files/2867.got.cif
#   From: 2010.03.12/outbox.cif.g09.slc.cpg/sg57_2_cif.got.tgz:2867.got - 2010.04.16 15:48:40.
