data_PCOD8232735
_publ_section_title
;
Structure prediction by ZEFSAII (Michael W. Deem and Ramdas Pophale) SiO2 
 PCOD8232735
Probable space group: P B C M
;
_chemical_formula_sum "Si O2"
_cell_formula_units_Z 64
_cell_length_a 11.756212
_cell_length_b 30.894848
_cell_length_c 9.393707
_cell_angle_alpha 90.000000
_cell_angle_beta 90.000000
_cell_angle_gamma 90.000000
_cell_volume 3411.854341
_symmetry_space_group_name_H-M "P B C M"
_symmetry_group_IT_number 57
_symmetry_cell_setting 'orthorhombic'
loop_
_space_group_symop_operation_xyz
x,y,z
-x,-y,1/2+z
x,1/2-y,-z
-x,1/2+y,1/2-z
-x,-y,-z
x,y,1/2-z
-x,1/2+y,z
x,1/2-y,1/2+z
loop_
_atom_site_type_symbol
_atom_site_label
_atom_site_fract_x
_atom_site_fract_y
_atom_site_fract_z
Si Si1 0.619982 0.360002 0.413514
Si Si2 0.001333 0.203793 0.418741
Si Si3 0.325344 0.492795 0.908449
Si Si4 0.526774 0.938909 0.091303
Si Si5 0.118065 0.628036 0.913509
Si Si6 0.087108 0.969500 0.418363
Si Si7 0.249925 0.207801 0.089920
Si Si8 0.494240 0.205976 0.415030
O O1 0.595821 0.347159 0.250000
O O2 0.531433 0.395866 0.468482
O O3 0.747030 0.377117 0.430250
O O4 0.598321 0.319970 0.517025
O O5 0.984069 0.250000 0.500000
O O6 0.973997 0.209925 0.250000
O O7 0.921482 0.166913 0.484928
O O8 0.129627 0.184181 0.442135
O O9 0.301109 0.475830 0.750000
O O10 0.429978 0.525144 0.910966
O O11 0.212937 0.516048 0.968756
O O12 0.361580 0.451214 0.001032
O O13 0.571880 0.931568 0.250000
O O14 0.085802 0.639096 0.750000
O O15 0.066770 0.581167 0.958175
O O16 0.072258 0.975678 0.250000
O O17 0.000000 0.000000 0.500000
O O18 0.247210 0.224771 0.250000
O O19 0.369454 0.181916 0.065506
O O20 0.253126 0.250000 0.000000
O O21 0.487659 0.250000 0.500000
O O22 0.522448 0.214236 0.250000
#
# Coordination Sequence:
#
# PCOD8232735 Si02
#       8
#     8   8   8   8   8   8   8   8
#     4  10  20  36  56  77 107 145 183 225 274 326
#     4  10  20  36  59  86 114 147 189 233 278 329
#     4   9  17  33  56  80 105 138 175 218 272 323
#     4   9  17  32  55  80 105 135 175 221 267 320
#     4  10  21  39  59  79 110 150 190 232 279 332
#     4  10  21  39  60  81 111 150 189 231 283 335
#     4   8  16  32  53  75 102 135 171 216 267 318
#     4  10  20  35  55  80 110 144 181 221 270 326
#
# _framework density 18.758126000000001
#
# number of rings (size 3 to 8) (size 9 to 14) (size 15 to 20)
#    0.000    2.500    1.250    0.750    0.000    3.500 
#    2.250    0.000    0.000    0.000    0.000    0.000 
#    0.000    0.000    0.000    0.000    0.000    0.000 
#
# Total GULP energy -792841.411325 kJ/mol
# GULP energy per Si atom -12388.147052 kJ/mol
# Density = 1.871543 g / cm^3
# Si number density = 18.758126 Si / 1000 Ang^3
#
#
#
# Elastic Constant Matrix: (Units=GPa)
#
#
# Indices 1 2 3 4 5 6 
#
# 1 56.2714 37.6490 34.9214 0.0000 0.0000 0.0000
# 2 37.6490 91.4215 49.8677 0.0000 0.0000 0.0000
# 3 34.9214 49.8677 82.8908 0.0000 0.0000 0.0000
# 4 0.0000 0.0000 0.0000 30.9187 0.0000 0.0000
# 5 0.0000 0.0000 0.0000 0.0000 27.6648 0.0000
# 6 0.0000 0.0000 0.0000 0.0000 0.0000 30.7244
#
#
#
# Elastic Compliance Matrix: (Units=1/GPa)
#
#
# Indices 1 2 3 4 5 6 
#
# 1 0.026990 -0.007312 -0.006972 0.000000 0.000000 0.000000
# 2 -0.007312 0.018262 -0.007906 0.000000 0.000000 0.000000
# 3 -0.006972 -0.007906 0.019758 0.000000 0.000000 0.000000
# 4 0.000000 0.000000 0.000000 0.032343 0.000000 0.000000
# 5 0.000000 0.000000 0.000000 0.000000 0.036147 0.000000
# 6 0.000000 0.000000 0.000000 0.000000 0.000000 0.032547
#
#
# Mechanical properties :
#
#
# Convention : Reuss Voigt Hill
#
# Bulk Modulus (GPa) = 48.47348 52.82888 50.65118
# Shear Modulus (GPa) = 23.00935 25.07127 24.04031
#
# Velocity S-wave (km/s) = 3.50613 3.65986 3.58382
# Velocity P-wave (km/s) = 6.50293 6.78850 6.64725
#
# Compressibility (1/GPa) = 0.02062984
#
# Stress axis : x y z
#
# Youngs Moduli (GPa) = 37.05114 54.75811 50.61358
#
# Poissons Ratio (x) = 0.40039 0.35286
# Poissons Ratio (y) = 0.27092 0.40016
# Poissons Ratio (z) = 0.25831 0.43292
#
# Static dielectric constant tensor:
#      x y z
#    x 3.801350 0.000000 0.000000 
#    y 0.000000 3.247480 0.000000 
#    z 0.000000 0.000000 3.565290 
# 
# 
# High freq. dielectric constant tensor:
#      x y z
#    x 1.731280 0.000000 0.000000 
#    y 0.000000 1.707320 0.000000 
#    z 0.000000 0.000000 1.729440 
# 
# From -- ./inp_files/3775.got.cif
#   From: 2010.03.12/outbox.cif.g09.slc.cpg/sg57_2_cif.got.tgz:3775.got - 2010.04.16 15:48:40.
