data_PCOD8232118
_publ_section_title
;
Structure prediction by ZEFSAII (Michael W. Deem and Ramdas Pophale) SiO2 
 PCOD8232118
Probable space group: P B C M
;
_chemical_formula_sum "Si O2"
_cell_formula_units_Z 64
_cell_length_a 22.205526
_cell_length_b 20.181162
_cell_length_c 8.991950
_cell_angle_alpha 90.000000
_cell_angle_beta 90.000000
_cell_angle_gamma 90.000000
_cell_volume 4029.592384
_symmetry_space_group_name_H-M "P B C M"
_symmetry_group_IT_number 57
_symmetry_cell_setting 'orthorhombic'
loop_
_space_group_symop_operation_xyz
x,y,z
-x,-y,1/2+z
x,1/2-y,-z
-x,1/2+y,1/2-z
-x,-y,-z
x,y,1/2-z
-x,1/2+y,z
x,1/2-y,1/2+z
loop_
_atom_site_type_symbol
_atom_site_label
_atom_site_fract_x
_atom_site_fract_y
_atom_site_fract_z
Si Si1 0.181523 0.562437 0.425238
Si Si2 0.910256 0.976767 0.584827
Si Si3 0.695570 0.440529 0.081458
Si Si4 0.111941 0.680338 0.927124
Si Si5 0.482566 0.895937 0.580800
Si Si6 0.609906 0.183583 0.578292
Si Si7 0.000701 0.600029 0.585581
Si Si8 0.419421 0.011365 0.419392
O O1 0.172524 0.570722 0.250000
O O2 0.145095 0.497693 0.480012
O O3 0.251183 0.552347 0.463860
O O4 0.159050 0.627948 0.508533
O O5 0.886040 0.960645 0.750000
O O6 0.943446 0.911081 0.521324
O O7 0.958258 0.035184 0.591248
O O8 0.721006 0.436371 0.250000
O O9 0.657071 0.374781 0.044133
O O10 0.652954 0.505678 0.062729
O O11 0.119881 0.682889 0.750000
O O12 0.043384 0.659928 0.970882
O O13 0.127477 0.750000 0.000000
O O14 0.469131 0.876108 0.750000
O O15 0.457023 0.836362 0.480218
O O16 0.554120 0.913670 0.557062
O O17 0.448567 0.963893 0.541832
O O18 0.633489 0.250000 0.500000
O O19 0.604011 0.198968 0.750000
O O20 0.975758 0.615545 0.750000
O O21 0.435687 0.987382 0.250000
#
# Coordination Sequence:
#
# PCOD8232118 Si02
#       8
#     8   8   8   8   8   8   8   8
#     4  11  21  31  44  62  86 116 149 182 216 253
#     4   9  16  27  44  63  83 108 138 174 216 257
#     4   9  18  32  45  59  84 115 148 182 214 250
#     4  10  20  33  47  63  86 116 148 181 215 252
#     4   9  15  25  43  64  84 106 135 172 215 259
#     4  10  20  32  45  61  84 115 148 182 216 252
#     4   8  15  27  43  63  84 106 135 173 216 257
#     4   8  15  27  43  62  83 108 136 171 215 258
#
# _framework density 15.8825
#
# number of rings (size 3 to 8) (size 9 to 14) (size 15 to 20)
#    0.000    2.750    0.000    4.125    0.000    7.000 
#    0.000    1.250    0.000    0.000    0.000    0.000 
#    0.000    1.000    0.000    7.250    0.000    4.000 
#
# Total GULP energy -793073.158729 kJ/mol
# GULP energy per Si atom -12391.768105 kJ/mol
# Density = 1.584635 g / cm^3
# Si number density = 15.882500 Si / 1000 Ang^3
#
#
#
# Elastic Constant Matrix: (Units=GPa)
#
#
# Indices 1 2 3 4 5 6 
#
# 1 85.0987 33.1040 45.5283 0.0000 0.0000 0.0000
# 2 33.1040 14.9415 17.9467 0.0000 0.0000 0.0000
# 3 45.5283 17.9467 92.4869 0.0000 0.0000 0.0000
# 4 0.0000 0.0000 0.0000 21.3461 0.0000 0.0000
# 5 0.0000 0.0000 0.0000 0.0000 25.3883 0.0000
# 6 0.0000 0.0000 0.0000 0.0000 0.0000 15.6910
#
#
#
# Elastic Compliance Matrix: (Units=1/GPa)
#
#
# Indices 1 2 3 4 5 6 
#
# 1 0.088608 -0.187667 -0.007203 0.000000 0.000000 0.000000
# 2 -0.187667 0.484732 -0.001678 0.000000 0.000000 0.000000
# 3 -0.007203 -0.001678 0.014684 0.000000 0.000000 0.000000
# 4 0.000000 0.000000 0.000000 0.046847 0.000000 0.000000
# 5 0.000000 0.000000 0.000000 0.000000 0.039388 0.000000
# 6 0.000000 0.000000 0.000000 0.000000 0.000000 0.063731
#
#
# Mechanical properties :
#
#
# Convention : Reuss Voigt Hill
#
# Bulk Modulus (GPa) = 5.13007 42.85390 23.99199
# Shear Modulus (GPa) = 4.18038 18.88161 11.53100
#
# Velocity S-wave (km/s) = 1.62413 3.45168 2.69740
# Velocity P-wave (km/s) = 2.59886 6.55179 4.98397
#
# Compressibility (1/GPa) = 0.19492895
#
# Stress axis : x y z
#
# Youngs Moduli (GPa) = 11.28561 2.06299 68.10204
#
# Poissons Ratio (x) = 0.38715 0.49055
# Poissons Ratio (y) = 2.11793 0.11429
# Poissons Ratio (z) = 0.08129 0.00346
#
# Static dielectric constant tensor:
#      x y z
#    x 3.027400 0.000000 0.000000 
#    y 0.000000 2.864970 0.000000 
#    z 0.000000 0.000000 3.159430 
# 
# 
# High freq. dielectric constant tensor:
#      x y z
#    x 1.591290 0.000000 0.000000 
#    y 0.000000 1.566270 0.000000 
#    z 0.000000 0.000000 1.624820 
# 
# From -- ./inp_files/8740.got.cif
#   From: 2010.03.12/outbox.cif.g09.slc.cpg/sg57_5_cif.got.tgz:8740.got - 2010.04.16 15:48:40.
