data_PCOD8232768
_publ_section_title
;
Structure prediction by ZEFSAII (Michael W. Deem and Ramdas Pophale) SiO2 
 PCOD8232768
Probable space group: P B C M
;
_chemical_formula_sum "Si O2"
_cell_formula_units_Z 56
_cell_length_a 14.752631
_cell_length_b 22.547470
_cell_length_c 8.902075
_cell_angle_alpha 90.000000
_cell_angle_beta 90.000000
_cell_angle_gamma 90.000000
_cell_volume 2961.137310
_symmetry_space_group_name_H-M "P B C M"
_symmetry_group_IT_number 57
_symmetry_cell_setting 'orthorhombic'
loop_
_space_group_symop_operation_xyz
x,y,z
-x,-y,1/2+z
x,1/2-y,-z
-x,1/2+y,1/2-z
-x,-y,-z
x,y,1/2-z
-x,1/2+y,z
x,1/2-y,1/2+z
loop_
_atom_site_type_symbol
_atom_site_label
_atom_site_fract_x
_atom_site_fract_y
_atom_site_fract_z
Si Si1 0.571652 0.078265 0.924823
Si Si2 0.306678 0.689934 0.572305
Si Si3 0.905753 0.483526 0.427571
Si Si4 0.113819 0.649543 0.572087
Si Si5 0.792027 0.917669 0.426969
Si Si6 0.613920 0.555258 0.424237
Si Si7 0.919875 0.690090 0.927555
O O1 0.545160 0.083707 0.750000
O O2 0.635945 0.132269 0.976835
O O3 0.621259 0.015467 0.954358
O O4 0.482070 0.081407 0.024951
O O5 0.347442 0.750000 0.500000
O O6 0.309076 0.696401 0.750000
O O7 0.203345 0.682811 0.511908
O O8 0.915033 0.488495 0.250000
O O9 0.879358 0.418067 0.480617
O O10 0.826679 0.525140 0.485658
O O11 0.000000 0.500000 0.500000
O O12 0.110531 0.652215 0.750000
O O13 0.021100 0.677873 0.507568
O O14 0.798826 0.927913 0.250000
O O15 0.688575 0.909488 0.478598
O O16 0.852020 0.861761 0.477481
O O17 0.628370 0.569786 0.250000
O O18 0.921395 0.696552 0.750000
O O19 0.882030 0.750000 0.000000
#
# Coordination Sequence:
#
# PCOD8232768 Si02
#       7
#     8   8   8   8   8   8   8
#     4   9  19  37  58  83 114 146 176 220 284 338
#     4  10  20  35  56  80 111 149 186 225 274 327
#     4  11  20  34  55  81 113 147 185 229 280 333
#     4   9  18  35  55  77 111 148 181 224 278 328
#     4  11  22  37  55  81 115 148 182 227 279 330
#     4  10  20  36  61  88 109 139 182 229 280 337
#     4  10  21  37  54  74 105 146 188 228 271 319
#
# _framework density 18.911653000000001
#
# number of rings (size 3 to 8) (size 9 to 14) (size 15 to 20)
#    0.000    2.000    1.429    2.571    0.000    4.571 
#    0.000    3.571    0.000    0.000    0.000    0.000 
#    0.000    0.000    0.000    0.000    0.000    0.000 
#
# Total GULP energy -694462.176243 kJ/mol
# GULP energy per Si atom -12401.110290 kJ/mol
# Density = 1.886861 g / cm^3
# Si number density = 18.911653 Si / 1000 Ang^3
#
#
#
# Elastic Constant Matrix: (Units=GPa)
#
#
# Indices 1 2 3 4 5 6 
#
# 1 105.4665 53.2362 28.5703 0.0000 0.0000 0.0000
# 2 53.2362 119.8463 33.6959 0.0000 0.0000 0.0000
# 3 28.5703 33.6959 46.6225 0.0000 0.0000 0.0000
# 4 0.0000 0.0000 0.0000 30.0887 0.0000 0.0000
# 5 0.0000 0.0000 0.0000 0.0000 30.8548 0.0000
# 6 0.0000 0.0000 0.0000 0.0000 0.0000 24.2807
#
#
#
# Elastic Compliance Matrix: (Units=1/GPa)
#
#
# Indices 1 2 3 4 5 6 
#
# 1 0.013014 -0.004441 -0.004765 0.000000 0.000000 0.000000
# 2 -0.004441 0.011988 -0.005942 0.000000 0.000000 0.000000
# 3 -0.004765 -0.005942 0.028664 0.000000 0.000000 0.000000
# 4 0.000000 0.000000 0.000000 0.033235 0.000000 0.000000
# 5 0.000000 0.000000 0.000000 0.000000 0.032410 0.000000
# 6 0.000000 0.000000 0.000000 0.000000 0.000000 0.041185
#
#
# Mechanical properties :
#
#
# Convention : Reuss Voigt Hill
#
# Bulk Modulus (GPa) = 42.79356 55.88224 49.33790
# Shear Modulus (GPa) = 25.17840 27.47369 26.32604
#
# Velocity S-wave (km/s) = 3.65275 3.81562 3.73507
# Velocity P-wave (km/s) = 6.36140 7.00180 6.68927
#
# Compressibility (1/GPa) = 0.02336800
#
# Stress axis : x y z
#
# Youngs Moduli (GPa) = 76.83805 83.41982 34.88713
#
# Poissons Ratio (x) = 0.37049 0.16625
# Poissons Ratio (y) = 0.34125 0.20731
# Poissons Ratio (z) = 0.36616 0.49571
#
# Static dielectric constant tensor:
#      x y z
#    x 3.744870 0.000000 0.000000 
#    y 0.000000 3.434180 0.000000 
#    z 0.000000 0.000000 3.219350 
# 
# 
# High freq. dielectric constant tensor:
#      x y z
#    x 1.738100 0.000000 0.000000 
#    y 0.000000 1.733600 0.000000 
#    z 0.000000 0.000000 1.722060 
# 
# From -- ./inp_files/5133.got.cif
#   From: 2010.03.12/outbox.cif.g09.slc.cpg/sg57_3_cif.got.tgz:5133.got - 2010.04.16 15:48:40.
