data_PCOD8232503
_publ_section_title
;
Structure prediction by ZEFSAII (Michael W. Deem and Ramdas Pophale) SiO2 
 PCOD8232503
Probable space group: P B C M
;
_chemical_formula_sum "Si O2"
_cell_formula_units_Z 48
_cell_length_a 16.363530
_cell_length_b 17.856568
_cell_length_c 8.867113
_cell_angle_alpha 90.000000
_cell_angle_beta 90.000000
_cell_angle_gamma 90.000000
_cell_volume 2590.939261
_symmetry_space_group_name_H-M "P B C M"
_symmetry_group_IT_number 57
_symmetry_cell_setting 'orthorhombic'
loop_
_space_group_symop_operation_xyz
x,y,z
-x,-y,1/2+z
x,1/2-y,-z
-x,1/2+y,1/2-z
-x,-y,-z
x,y,1/2-z
-x,1/2+y,z
x,1/2-y,1/2+z
loop_
_atom_site_type_symbol
_atom_site_label
_atom_site_fract_x
_atom_site_fract_y
_atom_site_fract_z
Si Si1 0.255742 0.051648 0.578636
Si Si2 0.664694 0.172220 0.928504
Si Si3 0.816525 0.106929 0.423944
Si Si4 0.996896 0.080568 0.426489
Si Si5 0.847190 0.829746 0.926915
Si Si6 0.418954 0.968774 0.926183
O O1 0.242344 0.078062 0.750000
O O2 0.229997 0.118602 0.468843
O O3 0.199686 0.980132 0.542214
O O4 0.349902 0.031562 0.548403
O O5 0.655723 0.175134 0.750000
O O6 0.634968 0.250000 0.000000
O O7 0.759542 0.158245 0.971750
O O8 0.606576 0.107966 0.993804
O O9 0.794719 0.125005 0.250000
O O10 0.911255 0.122472 0.462281
O O11 0.007070 0.067359 0.250000
O O12 0.069430 0.132692 0.489789
O O13 0.000000 0.000000 0.500000
O O14 0.851223 0.819148 0.750000
O O15 0.834444 0.750000 0.000000
O O16 0.431922 0.952354 0.750000
O O17 0.500000 0.000000 0.000000
#
# Coordination Sequence:
#
# PCOD8232503 Si02
#       6
#     8   8   8   8   8   8
#     4   9  18  35  58  80 109 144 178 224 275 327
#     4  11  22  37  58  85 118 153 189 234 287 339
#     4   9  18  34  55  80 111 146 186 231 281 337
#     4  10  20  34  54  80 110 147 192 238 283 334
#     4  11  23  36  53  78 110 148 192 236 282 331
#     4  10  21  39  63  91 119 148 185 227 278 341
#
# _framework density 18.5261
#
# number of rings (size 3 to 8) (size 9 to 14) (size 15 to 20)
#    0.000    2.000    1.667    3.500    0.000    5.333 
#    0.000    2.500    0.000    4.000    0.000    0.000 
#    0.000    0.000    0.000    0.000    0.000    0.000 
#
# Total GULP energy -595315.150134 kJ/mol
# GULP energy per Si atom -12402.398961 kJ/mol
# Density = 1.848393 g / cm^3
# Si number density = 18.526100 Si / 1000 Ang^3
#
#
#
# Elastic Constant Matrix: (Units=GPa)
#
#
# Indices 1 2 3 4 5 6 
#
# 1 105.3254 54.3086 49.3302 0.0000 0.0000 0.0000
# 2 54.3086 114.9082 58.4984 0.0000 0.0000 0.0000
# 3 49.3302 58.4984 106.7693 0.0000 0.0000 0.0000
# 4 0.0000 0.0000 0.0000 33.0969 0.0000 0.0000
# 5 0.0000 0.0000 0.0000 0.0000 30.8627 0.0000
# 6 0.0000 0.0000 0.0000 0.0000 0.0000 18.0606
#
#
#
# Elastic Compliance Matrix: (Units=1/GPa)
#
#
# Indices 1 2 3 4 5 6 
#
# 1 0.013596 -0.004476 -0.003829 0.000000 0.000000 0.000000
# 2 -0.004476 0.013543 -0.005352 0.000000 0.000000 0.000000
# 3 -0.003829 -0.005352 0.014067 0.000000 0.000000 0.000000
# 4 0.000000 0.000000 0.000000 0.030214 0.000000 0.000000
# 5 0.000000 0.000000 0.000000 0.000000 0.032402 0.000000
# 6 0.000000 0.000000 0.000000 0.000000 0.000000 0.055369
#
#
# Mechanical properties :
#
#
# Convention : Reuss Voigt Hill
#
# Bulk Modulus (GPa) = 71.98663 72.36414 72.17538
# Shear Modulus (GPa) = 26.15934 27.39509 26.77721
#
# Velocity S-wave (km/s) = 3.76177 3.84960 3.80594
# Velocity P-wave (km/s) = 7.60323 7.67494 7.63917
#
# Compressibility (1/GPa) = 0.01389147
#
# Stress axis : x y z
#
# Youngs Moduli (GPa) = 73.55135 73.83972 71.08667
#
# Poissons Ratio (x) = 0.33054 0.27219
# Poissons Ratio (y) = 0.32925 0.38044
# Poissons Ratio (z) = 0.28163 0.39518
#
# Static dielectric constant tensor:
#      x y z
#    x 3.539170 0.000000 0.000000 
#    y 0.000000 3.282560 0.000000 
#    z 0.000000 0.000000 3.396460 
# 
# 
# High freq. dielectric constant tensor:
#      x y z
#    x 1.716430 0.000000 0.000000 
#    y 0.000000 1.710240 0.000000 
#    z 0.000000 0.000000 1.722450 
# 
# From -- ./inp_files/4593.got.cif
#   From: 2010.03.12/outbox.cif.g09.slc.cpg/sg57_3_cif.got.tgz:4593.got - 2010.04.16 15:48:40.
