data_PCOD8232799
_publ_section_title
;
Structure prediction by ZEFSAII (Michael W. Deem and Ramdas Pophale) SiO2 
 PCOD8232799
Probable space group: P B C M
;
_chemical_formula_sum "Si O2"
_cell_formula_units_Z 48
_cell_length_a 9.719543
_cell_length_b 17.224997
_cell_length_c 15.358952
_cell_angle_alpha 90.000000
_cell_angle_beta 90.000000
_cell_angle_gamma 90.000000
_cell_volume 2571.381906
_symmetry_space_group_name_H-M "P B C M"
_symmetry_group_IT_number 57
_symmetry_cell_setting 'orthorhombic'
loop_
_space_group_symop_operation_xyz
x,y,z
-x,-y,1/2+z
x,1/2-y,-z
-x,1/2+y,1/2-z
-x,-y,-z
x,y,1/2-z
-x,1/2+y,z
x,1/2-y,1/2+z
loop_
_atom_site_type_symbol
_atom_site_label
_atom_site_fract_x
_atom_site_fract_y
_atom_site_fract_z
Si Si1 0.422705 0.476917 0.087410
Si Si2 0.843988 0.440660 0.650002
Si Si3 0.668862 0.550570 0.154359
Si Si4 0.083967 0.943446 0.151731
Si Si5 0.300877 0.339271 0.502374
Si Si6 0.973939 0.162033 0.003583
O O1 0.301765 0.537335 0.108639
O O2 0.541046 0.489375 0.159711
O O3 0.365248 0.388478 0.078903
O O4 0.500000 0.500000 0.000000
O O5 0.828687 0.411099 0.750000
O O6 0.915246 0.374360 0.592295
O O7 0.934694 0.518106 0.647662
O O8 0.695230 0.584908 0.250000
O O9 0.804005 0.506196 0.121068
O O10 0.641620 0.623400 0.091454
O O11 0.115219 0.913240 0.250000
O O12 0.091673 0.874584 0.082902
O O13 0.350494 0.250000 0.500000
O O14 0.137435 0.345672 0.500363
O O15 0.925355 0.250000 0.000000
#
# Coordination Sequence:
#
# PCOD8232799 Si02
#       6
#     8   8   8   8   8   8
#     4  10  20  36  59  83 111 148 191 236 277 338
#     4  11  21  36  59  85 115 151 197 241 283 340
#     4  10  20  37  58  81 111 149 191 232 282 341
#     4  10  20  36  59  83 111 148 192 239 283 341
#     4  10  20  35  56  83 114 145 184 235 289 348
#     4  11  21  35  57  85 118 150 189 242 300 345
#
# _framework density 18.667005
#
# number of rings (size 3 to 8) (size 9 to 14) (size 15 to 20)
#    0.000    1.667    3.333    3.000    0.000    0.667 
#    0.000   11.667    0.000    2.000    0.000    0.000 
#    0.000    0.000    0.000    0.000    0.000    0.000 
#
# Total GULP energy -594959.447387 kJ/mol
# GULP energy per Si atom -12394.988487 kJ/mol
# Density = 1.862452 g / cm^3
# Si number density = 18.667005 Si / 1000 Ang^3
#
#
#
# Elastic Constant Matrix: (Units=GPa)
#
#
# Indices 1 2 3 4 5 6 
#
# 1 88.8818 29.0518 28.1229 0.0000 0.0000 0.0000
# 2 29.0518 124.2212 72.7235 0.0000 0.0000 0.0000
# 3 28.1229 72.7235 114.5172 0.0000 0.0000 0.0000
# 4 0.0000 0.0000 0.0000 17.7576 0.0000 0.0000
# 5 0.0000 0.0000 0.0000 0.0000 25.8123 0.0000
# 6 0.0000 0.0000 0.0000 0.0000 0.0000 23.2694
#
#
#
# Elastic Compliance Matrix: (Units=1/GPa)
#
#
# Indices 1 2 3 4 5 6 
#
# 1 0.012442 -0.001785 -0.001922 0.000000 0.000000 0.000000
# 2 -0.001785 0.013070 -0.007862 0.000000 0.000000 0.000000
# 3 -0.001922 -0.007862 0.014197 0.000000 0.000000 0.000000
# 4 0.000000 0.000000 0.000000 0.056314 0.000000 0.000000
# 5 0.000000 0.000000 0.000000 0.000000 0.038741 0.000000
# 6 0.000000 0.000000 0.000000 0.000000 0.000000 0.042975
#
#
# Mechanical properties :
#
#
# Convention : Reuss Voigt Hill
#
# Bulk Modulus (GPa) = 60.34230 65.26853 62.80542
# Shear Modulus (GPa) = 24.22468 26.54933 25.38700
#
# Velocity S-wave (km/s) = 3.60631 3.77538 3.69181
# Velocity P-wave (km/s) = 7.05241 7.35154 7.20353
#
# Compressibility (1/GPa) = 0.01657212
#
# Stress axis : x y z
#
# Youngs Moduli (GPa) = 80.37016 76.51040 70.43727
#
# Poissons Ratio (x) = 0.13654 0.13540
# Poissons Ratio (y) = 0.14342 0.55377
# Poissons Ratio (z) = 0.15450 0.60151
#
# Static dielectric constant tensor:
#      x y z
#    x 3.803640 0.000000 0.000000 
#    y 0.000000 3.332890 0.000000 
#    z 0.000000 0.000000 3.889040 
# 
# 
# High freq. dielectric constant tensor:
#      x y z
#    x 1.735000 0.000000 0.000000 
#    y 0.000000 1.696320 0.000000 
#    z 0.000000 0.000000 1.732010 
# 
# From -- ./inp_files/16372.got.cif
#   From: 2010.03.12/outbox.cif.g09.slc.cpg/sg57_9_cif.got.tgz:16372.got - 2010.04.16 15:48:40.
