data_PCOD8232624
_publ_section_title
;
Structure prediction by ZEFSAII (Michael W. Deem and Ramdas Pophale) SiO2 
 PCOD8232624
Probable space group: P B C M
;
_chemical_formula_sum "Si O2"
_cell_formula_units_Z 40
_cell_length_a 17.798205
_cell_length_b 5.146165
_cell_length_c 19.257874
_cell_angle_alpha 90.000000
_cell_angle_beta 90.000000
_cell_angle_gamma 90.000000
_cell_volume 1763.876817
_symmetry_space_group_name_H-M "P B C M"
_symmetry_group_IT_number 57
_symmetry_cell_setting 'orthorhombic'
loop_
_space_group_symop_operation_xyz
x,y,z
-x,-y,1/2+z
x,1/2-y,-z
-x,1/2+y,1/2-z
-x,-y,-z
x,y,1/2-z
-x,1/2+y,z
x,1/2-y,1/2+z
loop_
_atom_site_type_symbol
_atom_site_label
_atom_site_fract_x
_atom_site_fract_y
_atom_site_fract_z
Si Si1 0.804246 0.596795 0.750000
Si Si2 0.324372 0.097883 0.111343
Si Si3 0.732203 0.250000 0.000000
Si Si4 0.547525 0.610133 0.830245
Si Si5 0.290373 0.608044 0.750000
Si Si6 0.948420 0.750000 0.500000
Si Si7 0.174871 0.103740 0.897709
O O1 0.732348 0.408277 0.750000
O O2 0.851231 0.519831 0.680180
O O3 0.777338 0.897248 0.750000
O O4 0.383340 0.335696 0.116147
O O5 0.238840 0.187442 0.115928
O O6 0.326043 0.944365 0.038313
O O7 0.340792 0.922053 0.180071
O O8 0.789258 0.377297 0.944559
O O9 0.574444 0.631924 0.750000
O O10 0.515972 0.325900 0.846712
O O11 0.895877 0.756993 0.432548
O O12 0.000000 0.500000 0.500000
#
# Coordination Sequence:
#
# PCOD8232624 Si02
#       7
#     4   8   4   8   4   4   8
#     4  10  22  38  66 100 134 166 225 293 326 396
#     4  11  22  39  66  99 133 178 233 292 331 411
#     4  12  21  38  70  95 142 170 240 286 339 406
#     4  10  23  41  63  95 138 182 226 282 354 416
#     4  10  20  34  60  98 130 164 219 291 346 366
#     4  12  27  46  72 101 144 184 218 270 351 430
#     4  11  24  43  69 105 136 182 236 283 346 411
#
# _framework density 22.677320999999999
#
# number of rings (size 3 to 8) (size 9 to 14) (size 15 to 20)
#    0.000    1.200    5.000    0.600    2.800    0.000 
#    0.000    2.000    0.000    0.000    0.000    0.000 
#    0.000    0.000    0.000    0.000    0.000    0.000 
#
# Total GULP energy -495686.196963 kJ/mol
# GULP energy per Si atom -12392.154924 kJ/mol
# Density = 2.262571 g / cm^3
# Si number density = 22.677321 Si / 1000 Ang^3
#
#
#
# Elastic Constant Matrix: (Units=GPa)
#
#
# Indices 1 2 3 4 5 6 
#
# 1 68.7939 -1.6153 17.4369 0.0000 0.0000 0.0000
# 2 -1.6153 58.7522 9.8704 0.0000 0.0000 0.0000
# 3 17.4369 9.8704 157.3430 0.0000 0.0000 0.0000
# 4 0.0000 0.0000 0.0000 28.9744 0.0000 0.0000
# 5 0.0000 0.0000 0.0000 0.0000 25.5560 0.0000
# 6 0.0000 0.0000 0.0000 0.0000 0.0000 27.7062
#
#
#
# Elastic Compliance Matrix: (Units=1/GPa)
#
#
# Indices 1 2 3 4 5 6 
#
# 1 0.014985 0.000698 -0.001704 0.000000 0.000000 0.000000
# 2 0.000698 0.017234 -0.001159 0.000000 0.000000 0.000000
# 3 -0.001704 -0.001159 0.006617 0.000000 0.000000 0.000000
# 4 0.000000 0.000000 0.000000 0.034513 0.000000 0.000000
# 5 0.000000 0.000000 0.000000 0.000000 0.039130 0.000000
# 6 0.000000 0.000000 0.000000 0.000000 0.000000 0.036093
#
#
# Mechanical properties :
#
#
# Convention : Reuss Voigt Hill
#
# Bulk Modulus (GPa) = 28.97974 37.36369 33.17172
# Shear Modulus (GPa) = 30.41295 33.72713 32.07004
#
# Velocity S-wave (km/s) = 3.66610 3.86069 3.76465
# Velocity P-wave (km/s) = 5.54322 6.03202 5.79278
#
# Compressibility (1/GPa) = 0.03450687
#
# Stress axis : x y z
#
# Youngs Moduli (GPa) = 66.73529 58.02328 151.12358
#
# Poissons Ratio (x) = -0.04052 0.25758
# Poissons Ratio (y) = -0.04660 0.17508
# Poissons Ratio (z) = 0.11374 0.06722
#
# Static dielectric constant tensor:
#      x y z
#    x 3.796690 0.000000 0.000000 
#    y 0.000000 4.063680 0.000000 
#    z 0.000000 0.000000 5.532650 
# 
# 
# High freq. dielectric constant tensor:
#      x y z
#    x 1.850780 0.000000 0.000000 
#    y 0.000000 1.902310 0.000000 
#    z 0.000000 0.000000 1.907510 
# 
# From -- ./inp_files/25553.got.cif
#   From: 2010.03.12/outbox.cif.g09.slc.cpg/sg57_13_cif.got.tgz:25553.got - 2010.04.16 15:48:40.
