data_PCOD8232583
_publ_section_title
;
Structure prediction by ZEFSAII (Michael W. Deem and Ramdas Pophale) SiO2 
 PCOD8232583
Probable space group: P B C M
;
_chemical_formula_sum "Si O2"
_cell_formula_units_Z 56
_cell_length_a 21.539910
_cell_length_b 14.340613
_cell_length_c 8.890585
_cell_angle_alpha 90.000000
_cell_angle_beta 90.000000
_cell_angle_gamma 90.000000
_cell_volume 2746.261818
_symmetry_space_group_name_H-M "P B C M"
_symmetry_group_IT_number 57
_symmetry_cell_setting 'orthorhombic'
loop_
_space_group_symop_operation_xyz
x,y,z
-x,-y,1/2+z
x,1/2-y,-z
-x,1/2+y,1/2-z
-x,-y,-z
x,y,1/2-z
-x,1/2+y,z
x,1/2-y,1/2+z
loop_
_atom_site_type_symbol
_atom_site_label
_atom_site_fract_x
_atom_site_fract_y
_atom_site_fract_z
Si Si1 0.589825 0.526310 0.926809
Si Si2 0.831913 0.849413 0.926193
Si Si3 0.066538 0.492624 0.574328
Si Si4 0.878545 0.337442 0.915436
Si Si5 0.529277 0.147310 0.572152
Si Si6 0.266049 0.838830 0.582972
Si Si7 0.714888 0.968278 0.571838
O O1 0.595006 0.510254 0.750000
O O2 0.537333 0.601929 0.966863
O O3 0.579474 0.424533 0.002887
O O4 0.652892 0.571011 0.992848
O O5 0.824687 0.837543 0.750000
O O6 0.897973 0.896936 0.966436
O O7 0.773949 0.909719 0.987423
O O8 0.830605 0.750000 0.000000
O O9 0.057789 0.504716 0.750000
O O10 0.111411 0.572576 0.515780
O O11 0.000000 0.500000 0.500000
O O12 0.909461 0.348875 0.750000
O O13 0.806279 0.319245 0.896387
O O14 0.910243 0.250000 0.000000
O O15 0.534569 0.250000 0.500000
O O16 0.540148 0.155468 0.750000
O O17 0.297295 0.750000 0.500000
O O18 0.295586 0.853062 0.750000
O O19 0.276987 0.925760 0.476691
O O20 0.708043 0.962104 0.750000
#
# Coordination Sequence:
#
# PCOD8232583 Si02
#       7
#     8   8   8   8   8   8   8
#     4  10  22  39  60  90 123 159 205 251 299 357
#     4  10  24  43  64  88 120 159 202 250 301 358
#     4  11  23  41  62  88 120 156 201 252 305 362
#     4  10  20  35  58  86 114 149 188 235 293 355
#     4  10  21  39  63  89 122 162 203 252 303 356
#     4  10  20  34  56  85 116 151 191 237 293 357
#     4  11  22  39  61  88 123 160 200 250 304 358
#
# _framework density 20.391355000000001
#
# number of rings (size 3 to 8) (size 9 to 14) (size 15 to 20)
#    0.000    1.714    1.429    2.571    0.000    6.857 
#    0.000    7.143    0.000    0.000    0.000    0.000 
#    0.000    0.000    0.000    0.000    0.000    0.000 
#
# Total GULP energy -694389.500746 kJ/mol
# GULP energy per Si atom -12399.812513 kJ/mol
# Density = 2.034494 g / cm^3
# Si number density = 20.391355 Si / 1000 Ang^3
#
#
#
# Elastic Constant Matrix: (Units=GPa)
#
#
# Indices 1 2 3 4 5 6 
#
# 1 91.8114 28.5177 50.2216 0.0000 0.0000 0.0000
# 2 28.5177 113.6773 45.3267 0.0000 0.0000 0.0000
# 3 50.2216 45.3267 90.7142 0.0000 0.0000 0.0000
# 4 0.0000 0.0000 0.0000 39.0367 0.0000 0.0000
# 5 0.0000 0.0000 0.0000 0.0000 32.8150 0.0000
# 6 0.0000 0.0000 0.0000 0.0000 0.0000 13.4264
#
#
#
# Elastic Compliance Matrix: (Units=1/GPa)
#
#
# Indices 1 2 3 4 5 6 
#
# 1 0.015655 -0.000589 -0.008373 0.000000 0.000000 0.000000
# 2 -0.000589 0.011008 -0.005174 0.000000 0.000000 0.000000
# 3 -0.008373 -0.005174 0.018244 0.000000 0.000000 0.000000
# 4 0.000000 0.000000 0.000000 0.025617 0.000000 0.000000
# 5 0.000000 0.000000 0.000000 0.000000 0.030474 0.000000
# 6 0.000000 0.000000 0.000000 0.000000 0.000000 0.074480
#
#
# Mechanical properties :
#
#
# Convention : Reuss Voigt Hill
#
# Bulk Modulus (GPa) = 60.11259 60.48163 60.29711
# Shear Modulus (GPa) = 23.88989 28.53142 26.21066
#
# Velocity S-wave (km/s) = 3.42653 3.74464 3.58911
# Velocity P-wave (km/s) = 6.72297 6.95853 6.84176
#
# Compressibility (1/GPa) = 0.01663545
#
# Stress axis : x y z
#
# Youngs Moduli (GPa) = 63.87873 90.84603 54.81181
#
# Poissons Ratio (x) = 0.05349 0.45892
# Poissons Ratio (y) = 0.03761 0.28360
# Poissons Ratio (z) = 0.53483 0.47005
#
# Static dielectric constant tensor:
#      x y z
#    x 3.828290 0.000000 0.000000 
#    y 0.000000 3.638250 0.000000 
#    z 0.000000 0.000000 3.904330 
# 
# 
# High freq. dielectric constant tensor:
#      x y z
#    x 1.794860 0.000000 0.000000 
#    y 0.000000 1.795210 0.000000 
#    z 0.000000 0.000000 1.810610 
# 
# From -- ./inp_files/8189.got.cif
#   From: 2010.03.12/outbox.cif.g09.slc.cpg/sg57_5_cif.got.tgz:8189.got - 2010.04.16 15:48:40.
