data_PCOD8232558
_publ_section_title
;
Structure prediction by ZEFSAII (Michael W. Deem and Ramdas Pophale) SiO2 
 PCOD8232558
Probable space group: P B C M
;
_chemical_formula_sum "Si O2"
_cell_formula_units_Z 64
_cell_length_a 20.511090
_cell_length_b 9.151454
_cell_length_c 17.277958
_cell_angle_alpha 90.000000
_cell_angle_beta 90.000000
_cell_angle_gamma 90.000000
_cell_volume 3243.181509
_symmetry_space_group_name_H-M "P B C M"
_symmetry_group_IT_number 57
_symmetry_cell_setting 'orthorhombic'
loop_
_space_group_symop_operation_xyz
x,y,z
-x,-y,1/2+z
x,1/2-y,-z
-x,1/2+y,1/2-z
-x,-y,-z
x,y,1/2-z
-x,1/2+y,z
x,1/2-y,1/2+z
loop_
_atom_site_type_symbol
_atom_site_label
_atom_site_fract_x
_atom_site_fract_y
_atom_site_fract_z
Si Si1 0.441995 0.613652 0.157463
Si Si2 0.057732 0.518522 0.159969
Si Si3 0.201357 0.016804 0.835483
Si Si4 0.433680 0.940589 0.160940
Si Si5 0.325846 0.439604 0.419328
Si Si6 0.050404 0.208108 0.410716
Si Si7 0.821286 0.860161 0.837128
Si Si8 0.685723 0.897671 0.597668
O O1 0.433832 0.606027 0.250000
O O2 0.437557 0.778573 0.124252
O O3 0.510464 0.546992 0.127226
O O4 0.386115 0.520094 0.117982
O O5 0.041268 0.548402 0.250000
O O6 0.133138 0.559637 0.141118
O O7 0.044924 0.348930 0.143463
O O8 0.014312 0.614261 0.102630
O O9 0.222657 0.964852 0.750000
O O10 0.259304 0.977598 0.894158
O O11 0.189768 0.188663 0.835461
O O12 0.449112 0.919807 0.250000
O O13 0.362873 0.011375 0.151269
O O14 0.326661 0.273685 0.388914
O O15 0.329132 0.446628 0.511039
O O16 0.057325 0.250000 0.500000
O O17 0.112931 0.109526 0.385986
O O18 0.828703 0.922500 0.750000
O O19 0.759880 0.937730 0.878941
#
# Coordination Sequence:
#
# PCOD8232558 Si02
#       8
#     8   8   8   8   8   8   8   8
#     4  10  21  37  60  83 111 147 188 235 284 342
#     4  10  20  37  58  82 114 155 197 240 294 353
#     4   8  16  31  55  79 107 145 189 231 276 341
#     4  10  21  38  58  83 111 146 190 236 284 341
#     4  10  20  34  55  84 111 145 188 230 290 339
#     4  11  22  35  58  87 119 152 195 249 295 349
#     4   9  18  33  55  81 110 150 189 233 287 342
#     4  10  21  34  56  83 114 146 184 239 283 341
#
# _framework density 19.733709000000001
#
# number of rings (size 3 to 8) (size 9 to 14) (size 15 to 20)
#    0.000    2.250    0.000    3.750    5.250    3.500 
#    0.000    1.250    0.000    3.000    0.000    0.000 
#    0.000    0.000    0.000    0.000    0.000    0.000 
#
# Total GULP energy -793527.511223 kJ/mol
# GULP energy per Si atom -12398.867363 kJ/mol
# Density = 1.968879 g / cm^3
# Si number density = 19.733709 Si / 1000 Ang^3
#
#
#
# Elastic Constant Matrix: (Units=GPa)
#
#
# Indices 1 2 3 4 5 6 
#
# 1 153.8630 49.2689 45.7585 0.0000 0.0000 0.0000
# 2 49.2689 60.6212 26.4253 0.0000 0.0000 0.0000
# 3 45.7585 26.4253 69.2653 0.0000 0.0000 0.0000
# 4 0.0000 0.0000 0.0000 19.7367 0.0000 0.0000
# 5 0.0000 0.0000 0.0000 0.0000 17.4186 0.0000
# 6 0.0000 0.0000 0.0000 0.0000 0.0000 31.8791
#
#
#
# Elastic Compliance Matrix: (Units=1/GPa)
#
#
# Indices 1 2 3 4 5 6 
#
# 1 0.009652 -0.006075 -0.004058 0.000000 0.000000 0.000000
# 2 -0.006075 0.023610 -0.004994 0.000000 0.000000 0.000000
# 3 -0.004058 -0.004994 0.019024 0.000000 0.000000 0.000000
# 4 0.000000 0.000000 0.000000 0.050667 0.000000 0.000000
# 5 0.000000 0.000000 0.000000 0.000000 0.057410 0.000000
# 6 0.000000 0.000000 0.000000 0.000000 0.000000 0.031369
#
#
# Mechanical properties :
#
#
# Convention : Reuss Voigt Hill
#
# Bulk Modulus (GPa) = 45.39216 58.51722 51.95469
# Shear Modulus (GPa) = 21.80268 24.62666 23.21467
#
# Velocity S-wave (km/s) = 3.32753 3.53646 3.43358
# Velocity P-wave (km/s) = 6.14943 6.81126 6.48879
#
# Compressibility (1/GPa) = 0.02203024
#
# Stress axis : x y z
#
# Youngs Moduli (GPa) = 103.61019 42.35439 52.56613
#
# Poissons Ratio (x) = 0.25731 0.21333
# Poissons Ratio (y) = 0.62944 0.26252
# Poissons Ratio (z) = 0.42049 0.21153
#
# Static dielectric constant tensor:
#      x y z
#    x 3.904670 0.000000 0.000000 
#    y 0.000000 3.367280 0.000000 
#    z 0.000000 0.000000 3.524600 
# 
# 
# High freq. dielectric constant tensor:
#      x y z
#    x 1.785850 0.000000 0.000000 
#    y 0.000000 1.736040 0.000000 
#    z 0.000000 0.000000 1.765110 
# 
# From -- ./inp_files/23050.got.cif
#   From: 2010.03.12/outbox.cif.g09.slc.cpg/sg57_12_cif.got.tgz:23050.got - 2010.04.16 15:48:40.
