data_PCOD8232708
_publ_section_title
;
Structure prediction by ZEFSAII (Michael W. Deem and Ramdas Pophale) SiO2 
 PCOD8232708
Probable space group: P B C M
;
_chemical_formula_sum "Si O2"
_cell_formula_units_Z 56
_cell_length_a 17.922797
_cell_length_b 18.880243
_cell_length_c 9.190732
_cell_angle_alpha 90.000000
_cell_angle_beta 90.000000
_cell_angle_gamma 90.000000
_cell_volume 3110.022047
_symmetry_space_group_name_H-M "P B C M"
_symmetry_group_IT_number 57
_symmetry_cell_setting 'orthorhombic'
loop_
_space_group_symop_operation_xyz
x,y,z
-x,-y,1/2+z
x,1/2-y,-z
-x,1/2+y,1/2-z
-x,-y,-z
x,y,1/2-z
-x,1/2+y,z
x,1/2-y,1/2+z
loop_
_atom_site_type_symbol
_atom_site_label
_atom_site_fract_x
_atom_site_fract_y
_atom_site_fract_z
Si Si1 0.799705 0.928381 0.081553
Si Si2 0.969039 0.567380 0.582022
Si Si3 0.528265 0.821942 0.916794
Si Si4 0.776327 0.091492 0.081078
Si Si5 0.309969 0.174743 0.078749
Si Si6 0.903813 0.324350 0.079685
Si Si7 0.632616 0.324087 0.919356
O O1 0.787156 0.908649 0.250000
O O2 0.884970 0.915746 0.033299
O O3 0.776332 0.008540 0.049538
O O4 0.750531 0.878726 0.981282
O O5 0.970728 0.546140 0.750000
O O6 0.000000 0.500000 0.500000
O O7 0.018182 0.636450 0.549072
O O8 0.529124 0.800662 0.750000
O O9 0.607259 0.860106 0.953537
O O10 0.449115 0.860597 0.953832
O O11 0.526200 0.750000 0.000000
O O12 0.794150 0.107379 0.250000
O O13 0.695473 0.120323 0.032738
O O14 0.837570 0.128315 0.981953
O O15 0.296718 0.185846 0.250000
O O16 0.301603 0.250000 0.000000
O O17 0.890067 0.312004 0.250000
O O18 0.906403 0.250000 0.000000
O O19 0.640161 0.306676 0.750000
O O20 0.644754 0.250000 0.000000
#
# Coordination Sequence:
#
# PCOD8232708 Si02
#       7
#     8   8   8   8   8   8   8
#     4  10  21  37  56  79 109 142 178 217 266 325
#     4  10  21  38  59  80 105 140 181 221 265 320
#     4   8  15  29  49  73 102 135 175 219 264 315
#     4  10  20  35  55  78 109 146 179 218 266 318
#     4  10  20  35  56  80 106 138 177 225 273 317
#     4  11  23  37  56  82 110 141 179 223 269 317
#     4   9  17  30  50  76 104 139 179 219 265 313
#
# _framework density 18.006302999999999
#
# number of rings (size 3 to 8) (size 9 to 14) (size 15 to 20)
#    0.000    2.286    1.429    1.286    0.000    4.571 
#    0.000    2.143    0.000    0.000    0.000    0.000 
#    0.000    0.000    0.000    0.000    0.000    0.000 
#
# Total GULP energy -694010.538497 kJ/mol
# GULP energy per Si atom -12393.045330 kJ/mol
# Density = 1.796532 g / cm^3
# Si number density = 18.006303 Si / 1000 Ang^3
#
#
#
# Elastic Constant Matrix: (Units=GPa)
#
#
# Indices 1 2 3 4 5 6 
#
# 1 188.1972 71.3262 64.4992 0.0000 0.0000 0.0000
# 2 71.3262 87.4558 47.6029 0.0000 0.0000 0.0000
# 3 64.4992 47.6029 70.9201 0.0000 0.0000 0.0000
# 4 0.0000 0.0000 0.0000 28.8751 0.0000 0.0000
# 5 0.0000 0.0000 0.0000 0.0000 27.5496 0.0000
# 6 0.0000 0.0000 0.0000 0.0000 0.0000 38.2251
#
#
#
# Elastic Compliance Matrix: (Units=1/GPa)
#
#
# Indices 1 2 3 4 5 6 
#
# 1 0.008667 -0.004377 -0.004944 0.000000 0.000000 0.000000
# 2 -0.004377 0.020228 -0.009596 0.000000 0.000000 0.000000
# 3 -0.004944 -0.009596 0.025038 0.000000 0.000000 0.000000
# 4 0.000000 0.000000 0.000000 0.034632 0.000000 0.000000
# 5 0.000000 0.000000 0.000000 0.000000 0.036298 0.000000
# 6 0.000000 0.000000 0.000000 0.000000 0.000000 0.026161
#
#
# Mechanical properties :
#
#
# Convention : Reuss Voigt Hill
#
# Bulk Modulus (GPa) = 62.12196 79.26995 70.69595
# Shear Modulus (GPa) = 25.74339 29.80630 27.77485
#
# Velocity S-wave (km/s) = 3.78522 4.07298 3.93174
# Velocity P-wave (km/s) = 7.32659 8.13867 7.74328
#
# Compressibility (1/GPa) = 0.01609737
#
# Stress axis : x y z
#
# Youngs Moduli (GPa) = 115.37897 49.43726 39.93942
#
# Poissons Ratio (x) = 0.21641 0.19747
# Poissons Ratio (y) = 0.50507 0.38326
# Poissons Ratio (z) = 0.57045 0.47440
#
# Static dielectric constant tensor:
#      x y z
#    x 3.946710 0.000000 0.000000 
#    y 0.000000 3.065050 0.000000 
#    z 0.000000 0.000000 3.373450 
# 
# 
# High freq. dielectric constant tensor:
#      x y z
#    x 1.723020 0.000000 0.000000 
#    y 0.000000 1.671600 0.000000 
#    z 0.000000 0.000000 1.701190 
# 
# From -- ./inp_files/5187.got.cif
#   From: 2010.03.12/outbox.cif.g09.slc.cpg/sg57_3_cif.got.tgz:5187.got - 2010.04.16 15:48:40.
