data_PCOD8232035
_publ_section_title
;
Structure prediction by ZEFSAII (Michael W. Deem and Ramdas Pophale) SiO2 
 PCOD8232035
Probable space group: P B C M
;
_chemical_formula_sum "Si O2"
_cell_formula_units_Z 64
_cell_length_a 7.988896
_cell_length_b 14.164232
_cell_length_c 27.252972
_cell_angle_alpha 90.000000
_cell_angle_beta 90.000000
_cell_angle_gamma 90.000000
_cell_volume 3083.853007
_symmetry_space_group_name_H-M "P B C M"
_symmetry_group_IT_number 57
_symmetry_cell_setting 'orthorhombic'
loop_
_space_group_symop_operation_xyz
x,y,z
-x,-y,1/2+z
x,1/2-y,-z
-x,1/2+y,1/2-z
-x,-y,-z
x,y,1/2-z
-x,1/2+y,z
x,1/2-y,1/2+z
loop_
_atom_site_type_symbol
_atom_site_label
_atom_site_fract_x
_atom_site_fract_y
_atom_site_fract_z
Si Si1 0.392996 0.083427 0.899026
Si Si2 0.252449 0.146517 0.501313
Si Si3 0.891003 0.196970 0.805391
Si Si4 0.089387 0.333162 0.861810
Si Si5 0.042964 0.683798 0.561906
Si Si6 0.594235 0.904685 0.901847
Si Si7 0.642089 0.257890 0.107041
Si Si8 0.047730 0.461094 0.361119
O O1 0.322211 0.082561 0.954439
O O2 0.470018 0.185249 0.888342
O O3 0.246051 0.061712 0.860421
O O4 0.545957 0.011875 0.891470
O O5 0.340440 0.250000 0.500000
O O6 0.049628 0.163608 0.509793
O O7 0.294915 0.093662 0.451392
O O8 0.824333 0.204077 0.750000
O O9 0.746045 0.230542 0.842747
O O10 0.044072 0.270714 0.814095
O O11 0.957473 0.090188 0.814783
O O12 0.060989 0.266777 0.909894
O O13 0.283246 0.365318 0.859348
O O14 0.974445 0.426668 0.862148
O O15 0.036085 0.585191 0.591077
O O16 0.239314 0.713050 0.560377
O O17 0.418649 0.848626 0.903014
#
# Coordination Sequence:
#
# PCOD8232035 Si02
#       8
#     8   8   8   8   8   8   8   8
#     4  11  21  37  58  86 119 153 197 242 293 335
#     4  11  20  38  53  79 118 159 197 239 274 333
#     4  10  22  40  62  87 113 148 193 238 293 366
#     4  10  19  37  61  84 112 157 192 230 288 353
#     4   9  19  36  55  77 113 155 197 230 279 340
#     4  12  21  36  61  86 121 155 195 246 290 333
#     4  10  20  38  59  84 114 150 187 244 303 341
#     4   9  19  38  61  83 114 154 193 229 289 352
#
# _framework density 20.753259
#
# number of rings (size 3 to 8) (size 9 to 14) (size 15 to 20)
#    0.000    2.000    2.500    4.875    0.000    0.500 
#    2.250    8.125    0.000    3.000    0.000    0.000 
#    0.000    0.000    0.000    0.000    0.000    0.000 
#
# Total GULP energy -793087.062215 kJ/mol
# GULP energy per Si atom -12391.985347 kJ/mol
# Density = 2.070602 g / cm^3
# Si number density = 20.753259 Si / 1000 Ang^3
#
#
#
# Elastic Constant Matrix: (Units=GPa)
#
#
# Indices 1 2 3 4 5 6 
#
# 1 98.5640 1.0987 23.0267 0.0000 0.0000 0.0000
# 2 1.0987 73.3827 4.3006 0.0000 0.0000 0.0000
# 3 23.0267 4.3006 82.2726 0.0000 0.0000 0.0000
# 4 0.0000 0.0000 0.0000 15.4528 0.0000 0.0000
# 5 0.0000 0.0000 0.0000 0.0000 19.0317 0.0000
# 6 0.0000 0.0000 0.0000 0.0000 0.0000 40.0587
#
#
#
# Elastic Compliance Matrix: (Units=1/GPa)
#
#
# Indices 1 2 3 4 5 6 
#
# 1 0.010856 0.000016 -0.003039 0.000000 0.000000 0.000000
# 2 0.000016 0.013669 -0.000719 0.000000 0.000000 0.000000
# 3 -0.003039 -0.000719 0.013043 0.000000 0.000000 0.000000
# 4 0.000000 0.000000 0.000000 0.064713 0.000000 0.000000
# 5 0.000000 0.000000 0.000000 0.000000 0.052544 0.000000
# 6 0.000000 0.000000 0.000000 0.000000 0.000000 0.024963
#
#
# Mechanical properties :
#
#
# Convention : Reuss Voigt Hill
#
# Bulk Modulus (GPa) = 33.24169 34.56348 33.90259
# Shear Modulus (GPa) = 25.34207 29.96153 27.65180
#
# Velocity S-wave (km/s) = 3.49823 3.80373 3.65418
# Velocity P-wave (km/s) = 5.68939 5.99848 5.84598
#
# Compressibility (1/GPa) = 0.03008270
#
# Stress axis : x y z
#
# Youngs Moduli (GPa) = 92.11912 73.15783 76.67021
#
# Poissons Ratio (x) = -0.00114 0.23301
# Poissons Ratio (y) = -0.00143 0.05512
# Poissons Ratio (z) = 0.27996 0.05259
#
# Static dielectric constant tensor:
#      x y z
#    x 3.902790 0.000000 0.000000 
#    y 0.000000 3.823400 0.000000 
#    z 0.000000 0.000000 3.311980 
# 
# 
# High freq. dielectric constant tensor:
#      x y z
#    x 1.817560 0.000000 0.000000 
#    y 0.000000 1.826300 0.000000 
#    z 0.000000 0.000000 1.754590 
# 
# From -- ./inp_files/29651.got.cif
#   From: 2010.03.12/outbox.cif.g09.slc.cpg/sg57_15_cif.got.tgz:29651.got - 2010.04.16 15:48:40.
