data_PCOD8232033
_publ_section_title
;
Structure prediction by ZEFSAII (Michael W. Deem and Ramdas Pophale) SiO2 
 PCOD8232033
Probable space group: P B C M
;
_chemical_formula_sum "Si O2"
_cell_formula_units_Z 64
_cell_length_a 12.301670
_cell_length_b 14.746747
_cell_length_c 17.753864
_cell_angle_alpha 90.000000
_cell_angle_beta 90.000000
_cell_angle_gamma 90.000000
_cell_volume 3220.721636
_symmetry_space_group_name_H-M "P B C M"
_symmetry_group_IT_number 57
_symmetry_cell_setting 'orthorhombic'
loop_
_space_group_symop_operation_xyz
x,y,z
-x,-y,1/2+z
x,1/2-y,-z
-x,1/2+y,1/2-z
-x,-y,-z
x,y,1/2-z
-x,1/2+y,z
x,1/2-y,1/2+z
loop_
_atom_site_type_symbol
_atom_site_label
_atom_site_fract_x
_atom_site_fract_y
_atom_site_fract_z
Si Si1 0.262481 0.986309 0.578699
Si Si2 0.872668 0.359666 0.337174
Si Si3 0.489272 0.700197 0.336151
Si Si4 0.268306 0.012828 0.098501
Si Si5 0.717380 0.274380 0.914651
Si Si6 0.495814 0.987769 0.587905
Si Si7 0.270409 0.289739 0.663521
Si Si8 0.123197 0.125537 0.661655
O O1 0.255659 0.879825 0.597101
O O2 0.377666 0.027925 0.611904
O O3 0.249754 0.000418 0.489850
O O4 0.164706 0.035516 0.620553
O O5 0.857759 0.335513 0.250000
O O6 0.818852 0.456697 0.354277
O O7 0.821464 0.281170 0.387636
O O8 0.998242 0.363183 0.359898
O O9 0.470282 0.668653 0.250000
O O10 0.386815 0.759432 0.364777
O O11 0.491956 0.617605 0.393587
O O12 0.606112 0.749743 0.343667
O O13 0.390180 0.975452 0.122517
O O14 0.254029 0.118712 0.116365
O O15 0.690230 0.250000 0.000000
O O16 0.500000 0.000000 0.500000
O O17 0.243723 0.313155 0.750000
O O18 0.188897 0.213487 0.632142
O O19 0.141348 0.112158 0.750000
#
# Coordination Sequence:
#
# PCOD8232033 Si02
#       8
#     8   8   8   8   8   8   8   8
#     4  10  21  39  61  88 120 158 192 244 307 358
#     4  11  24  41  62  87 117 160 212 251 292 355
#     4   9  18  34  60  89 116 155 204 245 297 371
#     4  10  19  37  60  92 120 152 196 245 301 358
#     4  11  22  41  60  88 125 159 190 252 311 361
#     4   8  17  33  57  87 125 153 187 237 303 367
#     4   9  19  39  60  85 123 158 194 248 302 353
#     4  10  24  43  59  85 120 159 209 252 291 355
#
# _framework density 19.871321999999999
#
# number of rings (size 3 to 8) (size 9 to 14) (size 15 to 20)
#    0.000    2.250    1.250    0.750    0.000    6.000 
#    9.000    3.750    0.000    0.000    0.000    0.000 
#    0.000    0.000    0.000    0.000    0.000    0.000 
#
# Total GULP energy -793091.602840 kJ/mol
# GULP energy per Si atom -12392.056294 kJ/mol
# Density = 1.982609 g / cm^3
# Si number density = 19.871322 Si / 1000 Ang^3
#
#
#
# Elastic Constant Matrix: (Units=GPa)
#
#
# Indices 1 2 3 4 5 6 
#
# 1 156.6927 58.1597 50.1349 0.0000 0.0000 0.0000
# 2 58.1597 95.6785 32.2736 0.0000 0.0000 0.0000
# 3 50.1349 32.2736 53.8810 0.0000 0.0000 0.0000
# 4 0.0000 0.0000 0.0000 28.7541 0.0000 0.0000
# 5 0.0000 0.0000 0.0000 0.0000 26.8502 0.0000
# 6 0.0000 0.0000 0.0000 0.0000 0.0000 30.9403
#
#
#
# Elastic Compliance Matrix: (Units=1/GPa)
#
#
# Indices 1 2 3 4 5 6 
#
# 1 0.010032 -0.003696 -0.007121 0.000000 0.000000 0.000000
# 2 -0.003696 0.014460 -0.005222 0.000000 0.000000 0.000000
# 3 -0.007121 -0.005222 0.028313 0.000000 0.000000 0.000000
# 4 0.000000 0.000000 0.000000 0.034778 0.000000 0.000000
# 5 0.000000 0.000000 0.000000 0.000000 0.037244 0.000000
# 6 0.000000 0.000000 0.000000 0.000000 0.000000 0.032320
#
#
# Mechanical properties :
#
#
# Convention : Reuss Voigt Hill
#
# Bulk Modulus (GPa) = 48.24575 65.26538 56.75556
# Shear Modulus (GPa) = 25.49286 28.35452 26.92369
#
# Velocity S-wave (km/s) = 3.58564 3.78154 3.68489
# Velocity P-wave (km/s) = 6.44005 7.20986 6.83580
#
# Compressibility (1/GPa) = 0.02072722
#
# Stress axis : x y z
#
# Youngs Moduli (GPa) = 99.67910 69.15655 35.31973
#
# Poissons Ratio (x) = 0.25563 0.25150
# Poissons Ratio (y) = 0.36845 0.18443
# Poissons Ratio (z) = 0.70978 0.36113
#
# Static dielectric constant tensor:
#      x y z
#    x 4.067540 0.000000 0.000000 
#    y 0.000000 3.415150 0.000000 
#    z 0.000000 0.000000 3.526390 
# 
# 
# High freq. dielectric constant tensor:
#      x y z
#    x 1.788000 0.000000 0.000000 
#    y 0.000000 1.759610 0.000000 
#    z 0.000000 0.000000 1.770370 
# 
# From -- ./inp_files/21989.got.cif
#   From: 2010.03.12/outbox.cif.g09.slc.cpg/sg57_11_cif.got.tgz:21989.got - 2010.04.16 15:48:40.
