data_PCOD8232401
_publ_section_title
;
Structure prediction by ZEFSAII (Michael W. Deem and Ramdas Pophale) SiO2 
 PCOD8232401
Probable space group: P B C M
;
_chemical_formula_sum "Si O2"
_cell_formula_units_Z 64
_cell_length_a 19.890594
_cell_length_b 20.210659
_cell_length_c 8.537540
_cell_angle_alpha 90.000000
_cell_angle_beta 90.000000
_cell_angle_gamma 90.000000
_cell_volume 3432.108263
_symmetry_space_group_name_H-M "P B C M"
_symmetry_group_IT_number 57
_symmetry_cell_setting 'orthorhombic'
loop_
_space_group_symop_operation_xyz
x,y,z
-x,-y,1/2+z
x,1/2-y,-z
-x,1/2+y,1/2-z
-x,-y,-z
x,y,1/2-z
-x,1/2+y,z
x,1/2-y,1/2+z
loop_
_atom_site_type_symbol
_atom_site_label
_atom_site_fract_x
_atom_site_fract_y
_atom_site_fract_z
Si Si1 0.421257 0.320520 0.435218
Si Si2 0.174816 0.075978 0.567091
Si Si3 0.675177 0.427926 0.066101
Si Si4 0.173764 0.932865 0.064900
Si Si5 0.318841 0.424389 0.934673
Si Si6 0.071728 0.679253 0.934986
Si Si7 0.073300 0.320034 0.566399
Si Si8 0.574758 0.319774 0.434969
O O1 0.396984 0.250000 0.500000
O O2 0.410631 0.323465 0.250000
O O3 0.378060 0.375792 0.520043
O O4 0.498126 0.333755 0.485562
O O5 0.163069 0.087153 0.750000
O O6 0.250773 0.095533 0.523083
O O7 0.126504 0.123723 0.470913
O O8 0.156702 0.000965 0.522209
O O9 0.665886 0.423586 0.250000
O O10 0.751280 0.408996 0.018771
O O11 0.658936 0.502336 0.009676
O O12 0.622248 0.376649 0.989784
O O13 0.168273 0.945852 0.250000
O O14 0.122834 0.876907 0.004771
O O15 0.304348 0.422813 0.750000
O O16 0.072544 0.683054 0.750000
O O17 0.095398 0.750000 0.000000
O O18 0.997779 0.659922 0.991773
O O19 0.099191 0.250000 0.500000
O O20 0.063129 0.312687 0.750000
O O21 0.600256 0.250000 0.500000
O O22 0.580714 0.317281 0.250000
#
# Coordination Sequence:
#
# PCOD8232401 Si02
#       8
#     8   8   8   8   8   8   8   8
#     4  10  20  34  52  76 105 137 175 217 261 309
#     4  11  22  37  57  81 108 137 174 219 265 314
#     4   8  16  33  54  75 103 139 174 212 260 309
#     4   9  19  36  56  78 108 145 181 218 263 314
#     4  10  20  36  56  77 104 138 174 213 262 316
#     4  10  20  35  55  80 110 143 180 221 265 312
#     4  11  22  38  58  80 108 140 176 217 263 315
#     4   9  18  33  52  75 105 139 175 216 260 308
#
# _framework density 18.647431999999998
#
# number of rings (size 3 to 8) (size 9 to 14) (size 15 to 20)
#    0.000    2.250    0.000    4.875    0.000    3.500 
#    0.000    5.625    0.000    0.000    0.000    0.000 
#    0.000    0.000    0.000    0.000    0.000    0.000 
#
# Total GULP energy -793675.572861 kJ/mol
# GULP energy per Si atom -12401.180826 kJ/mol
# Density = 1.860499 g / cm^3
# Si number density = 18.647432 Si / 1000 Ang^3
#
#
#
# Elastic Constant Matrix: (Units=GPa)
#
#
# Indices 1 2 3 4 5 6 
#
# 1 103.4602 87.9219 10.3562 0.0000 0.0000 0.0000
# 2 87.9219 118.3187 16.7631 0.0000 0.0000 0.0000
# 3 10.3562 16.7631 42.1328 0.0000 0.0000 0.0000
# 4 0.0000 0.0000 0.0000 29.9087 0.0000 0.0000
# 5 0.0000 0.0000 0.0000 0.0000 18.2027 0.0000
# 6 0.0000 0.0000 0.0000 0.0000 0.0000 44.4078
#
#
#
# Elastic Compliance Matrix: (Units=1/GPa)
#
#
# Indices 1 2 3 4 5 6 
#
# 1 0.026305 -0.019744 0.001390 0.000000 0.000000 0.000000
# 2 -0.019744 0.023776 -0.004607 0.000000 0.000000 0.000000
# 3 0.001390 -0.004607 0.025226 0.000000 0.000000 0.000000
# 4 0.000000 0.000000 0.000000 0.033435 0.000000 0.000000
# 5 0.000000 0.000000 0.000000 0.000000 0.054937 0.000000
# 6 0.000000 0.000000 0.000000 0.000000 0.000000 0.022519
#
#
# Mechanical properties :
#
#
# Convention : Reuss Voigt Hill
#
# Bulk Modulus (GPa) = 34.03096 54.88823 44.45959
# Shear Modulus (GPa) = 20.66841 28.42856 24.54848
#
# Velocity S-wave (km/s) = 3.33284 3.90876 3.63223
# Velocity P-wave (km/s) = 5.75324 7.06186 6.44087
#
# Compressibility (1/GPa) = 0.02938501
#
# Stress axis : x y z
#
# Youngs Moduli (GPa) = 38.01500 42.05874 39.64212
#
# Poissons Ratio (x) = 0.83042 -0.05509
# Poissons Ratio (y) = 0.75058 0.18262
# Poissons Ratio (z) = -0.05283 0.19375
#
# Static dielectric constant tensor:
#      x y z
#    x 3.561520 0.000000 0.000000 
#    y 0.000000 3.609760 0.000000 
#    z 0.000000 0.000000 3.334130 
# 
# 
# High freq. dielectric constant tensor:
#      x y z
#    x 1.725500 0.000000 0.000000 
#    y 0.000000 1.730550 0.000000 
#    z 0.000000 0.000000 1.720670 
# 
# From -- ./inp_files/7227.got.cif
#   From: 2010.03.12/outbox.cif.g09.slc.cpg/sg57_4_cif.got.tgz:7227.got - 2010.04.16 15:48:40.
