data_PCOD8232818
_publ_section_title
;
Structure prediction by ZEFSAII (Michael W. Deem and Ramdas Pophale) SiO2 
 PCOD8232818
Probable space group: P B C M
;
_chemical_formula_sum "Si O2"
_cell_formula_units_Z 64
_cell_length_a 13.525985
_cell_length_b 13.007882
_cell_length_c 17.549365
_cell_angle_alpha 90.000000
_cell_angle_beta 90.000000
_cell_angle_gamma 90.000000
_cell_volume 3087.712790
_symmetry_space_group_name_H-M "P B C M"
_symmetry_group_IT_number 57
_symmetry_cell_setting 'orthorhombic'
loop_
_space_group_symop_operation_xyz
x,y,z
-x,-y,1/2+z
x,1/2-y,-z
-x,1/2+y,1/2-z
-x,-y,-z
x,y,1/2-z
-x,1/2+y,z
x,1/2-y,1/2+z
loop_
_atom_site_type_symbol
_atom_site_label
_atom_site_fract_x
_atom_site_fract_y
_atom_site_fract_z
Si Si1 0.757278 0.788693 0.661325
Si Si2 0.978159 0.544153 0.916994
Si Si3 0.114227 0.728811 0.915660
Si Si4 0.965364 0.640367 0.337749
Si Si5 0.607344 0.107244 0.159694
Si Si6 0.605844 0.957804 0.658904
Si Si7 0.229181 0.442698 0.160618
Si Si8 0.686609 0.324189 0.340295
O O1 0.763911 0.814956 0.750000
O O2 0.723703 0.670990 0.647637
O O3 0.867270 0.806182 0.627158
O O4 0.679515 0.869941 0.625640
O O5 0.041594 0.481058 0.854048
O O6 0.863310 0.544119 0.894852
O O7 0.017179 0.658911 0.914747
O O8 0.000000 0.500000 0.000000
O O9 0.069764 0.831637 0.878384
O O10 0.200561 0.678676 0.866752
O O11 0.154988 0.750000 0.000000
O O12 0.976322 0.668207 0.250000
O O13 0.602294 0.109786 0.250000
O O14 0.630735 0.222085 0.128528
O O15 0.502717 0.068980 0.126563
O O16 0.691607 0.027298 0.133872
O O17 0.605700 0.956781 0.750000
O O18 0.636192 0.071191 0.628441
O O19 0.199352 0.455925 0.250000
O O20 0.684893 0.324679 0.250000
#
# Coordination Sequence:
#
# PCOD8232818 Si02
#       8
#     8   8   8   8   8   8   8   8
#     4   9  18  32  53  83 116 151 194 247 303 358
#     4  12  24  38  58  87 125 165 206 247 301 370
#     4  12  24  40  59  86 123 167 208 252 312 375
#     4  11  22  38  61  89 121 158 204 258 306 364
#     4   9  19  33  56  88 121 154 195 255 314 363
#     4   9  18  33  56  88 121 155 197 253 316 369
#     4  10  20  35  56  86 121 160 205 254 305 363
#     4  10  21  37  59  90 122 157 204 253 308 375
#
# _framework density 20.727315999999998
#
# number of rings (size 3 to 8) (size 9 to 14) (size 15 to 20)
#    0.000    1.750    2.500    2.250    1.750    3.500 
#    0.000    0.000    0.000    0.750    0.000    0.000 
#    0.000    0.000    0.000    0.000    0.000    0.000 
#
# Total GULP energy -793388.391134 kJ/mol
# GULP energy per Si atom -12396.693611 kJ/mol
# Density = 2.068014 g / cm^3
# Si number density = 20.727316 Si / 1000 Ang^3
#
#
#
# Elastic Constant Matrix: (Units=GPa)
#
#
# Indices 1 2 3 4 5 6 
#
# 1 146.7067 70.6137 28.1122 0.0000 0.0000 0.0000
# 2 70.6137 153.0756 23.2579 0.0000 0.0000 0.0000
# 3 28.1122 23.2579 28.7691 0.0000 0.0000 0.0000
# 4 0.0000 0.0000 0.0000 17.9341 0.0000 0.0000
# 5 0.0000 0.0000 0.0000 0.0000 11.3967 0.0000
# 6 0.0000 0.0000 0.0000 0.0000 0.0000 39.9955
#
#
#
# Elastic Compliance Matrix: (Units=1/GPa)
#
#
# Indices 1 2 3 4 5 6 
#
# 1 0.009789 -0.003491 -0.006743 0.000000 0.000000 0.000000
# 2 -0.003491 0.008693 -0.003616 0.000000 0.000000 0.000000
# 3 -0.006743 -0.003616 0.044272 0.000000 0.000000 0.000000
# 4 0.000000 0.000000 0.000000 0.055760 0.000000 0.000000
# 5 0.000000 0.000000 0.000000 0.000000 0.087744 0.000000
# 6 0.000000 0.000000 0.000000 0.000000 0.000000 0.025003
#
#
# Mechanical properties :
#
#
# Convention : Reuss Voigt Hill
#
# Bulk Modulus (GPa) = 28.52819 63.61324 46.07071
# Shear Modulus (GPa) = 18.47442 27.63643 23.05542
#
# Velocity S-wave (km/s) = 2.98872 3.65545 3.33877
# Velocity P-wave (km/s) = 5.06985 6.96947 6.09413
#
# Compressibility (1/GPa) = 0.03505305
#
# Stress axis : x y z
#
# Youngs Moduli (GPa) = 102.15821 115.04116 22.58774
#
# Poissons Ratio (x) = 0.40161 0.15231
# Poissons Ratio (y) = 0.35664 0.08168
# Poissons Ratio (z) = 0.68885 0.41599
#
# Static dielectric constant tensor:
#      x y z
#    x 3.772390 0.000000 0.000000 
#    y 0.000000 6.920650 0.000000 
#    z 0.000000 0.000000 3.287080 
# 
# 
# High freq. dielectric constant tensor:
#      x y z
#    x 1.810050 0.000000 0.000000 
#    y 0.000000 1.834380 0.000000 
#    z 0.000000 0.000000 1.759080 
# 
# From -- ./inp_files/22100.got.cif
#   From: 2010.03.12/outbox.cif.g09.slc.cpg/sg57_12_cif.got.tgz:22100.got - 2010.04.16 15:48:40.
