data_PCOD8232133
_publ_section_title
;
Structure prediction by ZEFSAII (Michael W. Deem and Ramdas Pophale) SiO2 
 PCOD8232133
Probable space group: P B C M
;
_chemical_formula_sum "Si O2"
_cell_formula_units_Z 56
_cell_length_a 23.653909
_cell_length_b 9.037759
_cell_length_c 14.416927
_cell_angle_alpha 90.000000
_cell_angle_beta 90.000000
_cell_angle_gamma 90.000000
_cell_volume 3082.026563
_symmetry_space_group_name_H-M "P B C M"
_symmetry_group_IT_number 57
_symmetry_cell_setting 'orthorhombic'
loop_
_space_group_symop_operation_xyz
x,y,z
-x,-y,1/2+z
x,1/2-y,-z
-x,1/2+y,1/2-z
-x,-y,-z
x,y,1/2-z
-x,1/2+y,z
x,1/2-y,1/2+z
loop_
_atom_site_type_symbol
_atom_site_label
_atom_site_fract_x
_atom_site_fract_y
_atom_site_fract_z
Si Si1 0.056310 0.423831 0.144785
Si Si2 0.639957 0.077547 0.357653
Si Si3 0.264518 0.918666 0.500000
Si Si4 0.439309 0.073532 0.500000
Si Si5 0.639958 0.422453 0.357653
Si Si6 0.146464 0.423884 0.500000
Si Si7 0.056310 0.076165 0.144785
O O1 0.066531 0.473042 0.250000
O O2 0.047466 0.249998 0.133383
O O3 0.999999 0.499997 0.104557
O O4 0.111496 0.478228 0.089621
O O5 0.644630 0.032305 0.250000
O O6 0.699531 0.044628 0.407646
O O7 0.623871 0.250000 0.369648
O O8 0.592182 0.979433 0.406702
O O9 0.245226 0.750000 0.500000
O O10 0.300468 0.955373 0.407647
O O11 0.208897 0.014618 0.500001
O O12 0.443948 0.250000 0.500000
O O13 0.500000 0.000000 0.500000
O O14 0.407818 0.020568 0.406702
O O15 0.644630 0.467696 0.250000
O O16 0.152984 0.250000 0.500000
O O17 0.111497 0.478230 0.589620
O O18 0.066533 0.026955 0.250000
#
# Coordination Sequence:
#
# PCOD8232133 Si02
#       7
#     8   8   8   8   8   8   8
#     4   9  18  32  48  67  92 122 158 201 249 301
#     4   9  19  38  60  79 105 142 180 220 265 308
#     4   9  19  34  52  77 104 131 170 216 257 302
#     4  11  22  36  56  84 116 145 177 217 259 308
#     4   9  19  38  60  79 105 142 180 220 265 308
#     4  10  20  32  47  69  98 130 161 199 250 304
#     4   9  18  32  48  67  92 122 158 201 249 301
#
# _framework density 18.169862999999999
#
# number of rings (size 3 to 8) (size 9 to 14) (size 15 to 20)
#    0.000    2.571    0.000    2.571    0.000    5.714 
#    0.000    0.000    0.000    0.000    0.000    0.000 
#    0.000    0.000    0.000    0.000    0.000    0.000 
#
# Total GULP energy -694355.876833 kJ/mol
# GULP energy per Si atom -12399.212086 kJ/mol
# Density = 1.812851 g / cm^3
# Si number density = 18.169863 Si / 1000 Ang^3
#
#
#
# Elastic Constant Matrix: (Units=GPa)
#
#
# Indices 1 2 3 4 5 6 
#
# 1 156.6840 62.7525 77.4359 0.0000 0.0000 0.0000
# 2 62.7525 68.4559 48.2717 0.0000 0.0000 0.0000
# 3 77.4359 48.2717 151.1020 0.0000 0.0000 0.0000
# 4 0.0000 0.0000 0.0000 19.6093 0.0000 0.0000
# 5 0.0000 0.0000 0.0000 0.0000 18.4289 0.0000
# 6 0.0000 0.0000 0.0000 0.0000 0.0000 39.4876
#
#
#
# Elastic Compliance Matrix: (Units=1/GPa)
#
#
# Indices 1 2 3 4 5 6 
#
# 1 0.011142 -0.007986 -0.003159 0.000000 0.000000 0.000000
# 2 -0.007986 0.024580 -0.003760 0.000000 0.000000 0.000000
# 3 -0.003159 -0.003760 0.009438 0.000000 0.000000 0.000000
# 4 0.000000 0.000000 0.000000 0.050996 0.000000 0.000000
# 5 0.000000 0.000000 0.000000 0.000000 0.054263 0.000000
# 6 0.000000 0.000000 0.000000 0.000000 0.000000 0.025324
#
#
# Mechanical properties :
#
#
# Convention : Reuss Voigt Hill
#
# Bulk Modulus (GPa) = 65.14411 83.68467 74.41439
# Shear Modulus (GPa) = 23.73394 28.02394 25.87894
#
# Velocity S-wave (km/s) = 3.61810 3.93151 3.77806
# Velocity P-wave (km/s) = 7.30649 8.17104 7.75083
#
# Compressibility (1/GPa) = 0.01535058
#
# Stress axis : x y z
#
# Youngs Moduli (GPa) = 89.75199 40.68359 105.95683
#
# Poissons Ratio (x) = 0.32491 0.33467
# Poissons Ratio (y) = 0.71678 0.39836
# Poissons Ratio (z) = 0.28349 0.15296
#
# Static dielectric constant tensor:
#      x y z
#    x 3.364730 0.000000 0.000000 
#    y 0.000000 3.112340 0.000000 
#    z 0.000000 0.000000 3.699800 
# 
# 
# High freq. dielectric constant tensor:
#      x y z
#    x 1.702840 0.000000 0.000000 
#    y 0.000000 1.695440 0.000000 
#    z 0.000000 0.000000 1.713940 
# 
# From -- ./inp_files/19366.got.cif
#   From: 2010.03.12/outbox.cif.g09.slc.cpg/sg57_10_cif.got.tgz:19366.got - 2010.04.16 15:48:40.
