data_PCOD8232751
_publ_section_title
;
Structure prediction by ZEFSAII (Michael W. Deem and Ramdas Pophale) SiO2 
 PCOD8232751
Probable space group: P B C M
;
_chemical_formula_sum "Si O2"
_cell_formula_units_Z 48
_cell_length_a 28.962703
_cell_length_b 8.616647
_cell_length_c 9.628294
_cell_angle_alpha 90.000000
_cell_angle_beta 90.000000
_cell_angle_gamma 90.000000
_cell_volume 2402.850414
_symmetry_space_group_name_H-M "P B C M"
_symmetry_group_IT_number 57
_symmetry_cell_setting 'orthorhombic'
loop_
_space_group_symop_operation_xyz
x,y,z
-x,-y,1/2+z
x,1/2-y,-z
-x,1/2+y,1/2-z
-x,-y,-z
x,y,1/2-z
-x,1/2+y,z
x,1/2-y,1/2+z
loop_
_atom_site_type_symbol
_atom_site_label
_atom_site_fract_x
_atom_site_fract_y
_atom_site_fract_z
Si Si1 0.536843 0.429080 0.250000
Si Si2 0.561574 0.432646 0.750000
Si Si3 0.861089 0.098851 0.907622
Si Si4 0.598938 0.933212 0.519778
Si Si5 0.688299 0.103508 0.593144
Si Si6 0.036281 0.904079 0.087491
Si Si7 0.774664 0.901883 0.587742
O O1 0.482120 0.452660 0.250000
O O2 0.547302 0.246627 0.250000
O O3 0.557059 0.512183 0.384468
O O4 0.594060 0.471241 0.621161
O O5 0.851272 0.152094 0.750000
O O6 0.912314 0.022649 0.918373
O O7 0.824808 0.968275 0.953663
O O8 0.854853 0.250000 0.000000
O O9 0.595586 0.750000 0.500000
O O10 0.648290 0.974488 0.585217
O O11 0.676032 0.250000 0.500000
O O12 0.692167 0.163876 0.750000
O O13 0.736427 0.028150 0.545317
O O14 0.020937 0.881028 0.250000
O O15 0.039794 0.750000 0.000000
O O16 0.000000 0.000000 0.000000
O O17 0.764960 0.750000 0.500000
O O18 0.771417 0.859705 0.750000
#
# Coordination Sequence:
#
# PCOD8232751 Si02
#       7
#     4   4   8   8   8   8   8
#     4  12  24  46  64  96 128 160 214 248 305 362
#     4  12  26  42  70  92 126 170 202 256 301 362
#     4   9  19  36  58  83 115 152 199 249 301 362
#     4  12  25  43  65  94 127 163 203 253 306 359
#     4  11  24  42  65  92 123 157 200 247 298 363
#     4  10  20  35  55  82 115 156 200 251 306 366
#     4  10  22  40  60  88 122 156 198 247 299 358
#
# _framework density 19.976272999999999
#
# number of rings (size 3 to 8) (size 9 to 14) (size 15 to 20)
#    0.000    1.333    0.833    5.000    1.167    2.667 
#    0.000    1.667    0.000    0.000    0.000    0.000 
#    0.000    0.000    0.000    0.000    0.000    0.000 
#
# Total GULP energy -595257.749785 kJ/mol
# GULP energy per Si atom -12401.203121 kJ/mol
# Density = 1.993081 g / cm^3
# Si number density = 19.976273 Si / 1000 Ang^3
#
#
#
# Elastic Constant Matrix: (Units=GPa)
#
#
# Indices 1 2 3 4 5 6 
#
# 1 105.6147 27.6143 28.6088 0.0000 0.0000 0.0000
# 2 27.6143 113.3147 35.3038 0.0000 0.0000 0.0000
# 3 28.6088 35.3038 103.9424 0.0000 0.0000 0.0000
# 4 0.0000 0.0000 0.0000 38.7962 0.0000 0.0000
# 5 0.0000 0.0000 0.0000 0.0000 31.4790 0.0000
# 6 0.0000 0.0000 0.0000 0.0000 0.0000 30.2650
#
#
#
# Elastic Compliance Matrix: (Units=1/GPa)
#
#
# Indices 1 2 3 4 5 6 
#
# 1 0.010573 -0.001868 -0.002276 0.000000 0.000000 0.000000
# 2 -0.001868 0.010199 -0.002950 0.000000 0.000000 0.000000
# 3 -0.002276 -0.002950 0.011249 0.000000 0.000000 0.000000
# 4 0.000000 0.000000 0.000000 0.025776 0.000000 0.000000
# 5 0.000000 0.000000 0.000000 0.000000 0.031767 0.000000
# 6 0.000000 0.000000 0.000000 0.000000 0.000000 0.033041
#
#
# Mechanical properties :
#
#
# Convention : Reuss Voigt Hill
#
# Bulk Modulus (GPa) = 56.07121 56.21396 56.14258
# Shear Modulus (GPa) = 35.02929 35.53104 35.28016
#
# Velocity S-wave (km/s) = 4.19208 4.22199 4.20706
# Velocity P-wave (km/s) = 7.18061 7.20891 7.19478
#
# Compressibility (1/GPa) = 0.01783446
#
# Stress axis : x y z
#
# Youngs Moduli (GPa) = 94.57914 98.04665 88.89602
#
# Poissons Ratio (x) = 0.18311 0.20231
# Poissons Ratio (y) = 0.17664 0.26225
# Poissons Ratio (z) = 0.21524 0.28925
#
# Static dielectric constant tensor:
#      x y z
#    x 6.401390 0.000000 0.000000 
#    y 0.000000 3.444600 0.000000 
#    z 0.000000 0.000000 3.819080 
# 
# 
# High freq. dielectric constant tensor:
#      x y z
#    x 1.795990 0.000000 0.000000 
#    y 0.000000 1.770790 0.000000 
#    z 0.000000 0.000000 1.793010 
# 
# From -- ./inp_files/10102.got.cif
#   From: 2010.03.12/outbox.cif.g09.slc.cpg/sg57_6_cif.got.tgz:10102.got - 2010.04.16 15:48:40.
