data_PCOD8232480
_publ_section_title
;
Structure prediction by ZEFSAII (Michael W. Deem and Ramdas Pophale) SiO2 
 PCOD8232480
Probable space group: P B C M
;
_chemical_formula_sum "Si O2"
_cell_formula_units_Z 64
_cell_length_a 11.007156
_cell_length_b 33.772311
_cell_length_c 8.984584
_cell_angle_alpha 90.000000
_cell_angle_beta 90.000000
_cell_angle_gamma 90.000000
_cell_volume 3339.903162
_symmetry_space_group_name_H-M "P B C M"
_symmetry_group_IT_number 57
_symmetry_cell_setting 'orthorhombic'
loop_
_space_group_symop_operation_xyz
x,y,z
-x,-y,1/2+z
x,1/2-y,-z
-x,1/2+y,1/2-z
-x,-y,-z
x,y,1/2-z
-x,1/2+y,z
x,1/2-y,1/2+z
loop_
_atom_site_type_symbol
_atom_site_label
_atom_site_fract_x
_atom_site_fract_y
_atom_site_fract_z
Si Si1 0.141249 0.868337 0.574941
Si Si2 0.345987 0.133145 0.924265
Si Si3 0.206206 0.477579 0.923715
Si Si4 0.249860 0.791232 0.073529
Si Si5 0.529157 0.789377 0.424115
Si Si6 0.726210 0.052229 0.421740
Si Si7 0.544173 0.937165 0.921286
Si Si8 0.905826 0.595556 0.926585
O O1 0.127840 0.860183 0.750000
O O2 0.174911 0.827704 0.493494
O O3 0.241301 0.902243 0.542248
O O4 0.015793 0.883895 0.509261
O O5 0.362068 0.131433 0.750000
O O6 0.382536 0.176267 0.984478
O O7 0.209826 0.122248 0.971871
O O8 0.443658 0.102927 0.987843
O O9 0.175167 0.474899 0.750000
O O10 0.345928 0.466602 0.960564
O O11 0.190074 0.522610 0.980926
O O12 0.114642 0.448891 0.012180
O O13 0.228217 0.789128 0.250000
O O14 0.390237 0.798457 0.031356
O O15 0.204828 0.750000 0.000000
O O16 0.578080 0.750000 0.500000
O O17 0.540700 0.783456 0.250000
O O18 0.752375 0.042494 0.250000
O O19 0.585536 0.044038 0.463356
O O20 0.547137 0.925093 0.750000
O O21 0.927304 0.593831 0.750000
#
# Coordination Sequence:
#
# PCOD8232480 Si02
#       8
#     8   8   8   8   8   8   8   8
#     4  11  23  38  56  79 107 140 183 227 263 308
#     4   9  18  33  53  76 102 135 174 215 261 314
#     4  10  20  34  54  79 106 137 176 221 267 319
#     4  10  20  36  59  85 113 142 171 208 258 313
#     4   9  18  32  52  81 112 137 165 204 254 314
#     4  10  21  35  52  77 109 142 175 216 267 321
#     4   9  18  32  51  77 106 135 170 214 266 322
#     4  10  21  38  57  74 101 142 183 224 269 315
#
# _framework density 19.162231999999999
#
# number of rings (size 3 to 8) (size 9 to 14) (size 15 to 20)
#    0.000    2.250    0.000    2.625    0.000    4.000 
#    0.000    0.625    0.000    1.500    0.000    0.000 
#    0.000    0.000    0.000    0.000    0.000    0.000 
#
# Total GULP energy -793623.051083 kJ/mol
# GULP energy per Si atom -12400.360173 kJ/mol
# Density = 1.911862 g / cm^3
# Si number density = 19.162232 Si / 1000 Ang^3
#
#
#
# Elastic Constant Matrix: (Units=GPa)
#
#
# Indices 1 2 3 4 5 6 
#
# 1 49.1575 24.4910 27.9738 0.0000 0.0000 0.0000
# 2 24.4910 113.3562 41.6816 0.0000 0.0000 0.0000
# 3 27.9738 41.6816 58.3281 0.0000 0.0000 0.0000
# 4 0.0000 0.0000 0.0000 38.4255 0.0000 0.0000
# 5 0.0000 0.0000 0.0000 0.0000 24.0178 0.0000
# 6 0.0000 0.0000 0.0000 0.0000 0.0000 9.8147
#
#
#
# Elastic Compliance Matrix: (Units=1/GPa)
#
#
# Indices 1 2 3 4 5 6 
#
# 1 0.028170 -0.001517 -0.012426 0.000000 0.000000 0.000000
# 2 -0.001517 0.012048 -0.007882 0.000000 0.000000 0.000000
# 3 -0.012426 -0.007882 0.028736 0.000000 0.000000 0.000000
# 4 0.000000 0.000000 0.000000 0.026024 0.000000 0.000000
# 5 0.000000 0.000000 0.000000 0.000000 0.041636 0.000000
# 6 0.000000 0.000000 0.000000 0.000000 0.000000 0.101888
#
#
# Mechanical properties :
#
#
# Convention : Reuss Voigt Hill
#
# Bulk Modulus (GPa) = 39.51938 45.45939 42.48938
# Shear Modulus (GPa) = 17.20660 22.89796 20.05228
#
# Velocity S-wave (km/s) = 2.99982 3.46056 3.23839
# Velocity P-wave (km/s) = 5.71550 6.30414 6.01702
#
# Compressibility (1/GPa) = 0.02530404
#
# Stress axis : x y z
#
# Youngs Moduli (GPa) = 35.49899 83.00351 34.79932
#
# Poissons Ratio (x) = 0.12592 0.43242
# Poissons Ratio (y) = 0.05386 0.27428
# Poissons Ratio (z) = 0.44111 0.65421
#
# Static dielectric constant tensor:
#      x y z
#    x 3.524280 0.000000 0.000000 
#    y 0.000000 3.765530 0.000000 
#    z 0.000000 0.000000 3.473680 
# 
# 
# High freq. dielectric constant tensor:
#      x y z
#    x 1.735370 0.000000 0.000000 
#    y 0.000000 1.749910 0.000000 
#    z 0.000000 0.000000 1.749040 
# 
# From -- ./inp_files/3907.got.cif
#   From: 2010.03.12/outbox.cif.g09.slc.cpg/sg57_2_cif.got.tgz:3907.got - 2010.04.16 15:48:40.
