data_PCOD8232317
_publ_section_title
;
Structure prediction by ZEFSAII (Michael W. Deem and Ramdas Pophale) SiO2 
 PCOD8232317
Probable space group: P B C M
;
_chemical_formula_sum "Si O2"
_cell_formula_units_Z 56
_cell_length_a 17.705828
_cell_length_b 19.507949
_cell_length_c 8.769970
_cell_angle_alpha 90.000000
_cell_angle_beta 90.000000
_cell_angle_gamma 90.000000
_cell_volume 3029.186135
_symmetry_space_group_name_H-M "P B C M"
_symmetry_group_IT_number 57
_symmetry_cell_setting 'orthorhombic'
loop_
_space_group_symop_operation_xyz
x,y,z
-x,-y,1/2+z
x,1/2-y,-z
-x,1/2+y,1/2-z
-x,-y,-z
x,y,1/2-z
-x,1/2+y,z
x,1/2-y,1/2+z
loop_
_atom_site_type_symbol
_atom_site_label
_atom_site_fract_x
_atom_site_fract_y
_atom_site_fract_z
Si Si1 0.139483 0.932824 0.568368
Si Si2 0.532376 0.068970 0.432131
Si Si3 0.271553 0.396786 0.078064
Si Si4 0.578980 0.822991 0.069224
Si Si5 0.881307 0.922468 0.928707
Si Si6 0.984070 0.174720 0.429957
Si Si7 0.696346 0.447059 0.921778
O O1 0.141833 0.940825 0.750000
O O2 0.089657 0.868111 0.516720
O O3 0.224764 0.922211 0.500416
O O4 0.104927 0.004142 0.507650
O O5 0.532507 0.063128 0.250000
O O6 0.482663 0.130876 0.488379
O O7 0.618558 0.081028 0.495084
O O8 0.500000 0.000000 0.500000
O O9 0.244354 0.380828 0.250000
O O10 0.336011 0.344450 0.023915
O O11 0.308916 0.471143 0.069761
O O12 0.200001 0.390177 0.967587
O O13 0.567569 0.825560 0.250000
O O14 0.563302 0.750000 0.000000
O O15 0.888736 0.934231 0.750000
O O16 0.943359 0.867986 0.986893
O O17 0.982564 0.250000 0.500000
O O18 0.985257 0.183270 0.250000
O O19 0.699462 0.420272 0.750000
#
# Coordination Sequence:
#
# PCOD8232317 Si02
#       7
#     8   8   8   8   8   8   8
#     4   9  18  36  58  79 106 143 181 222 273 323
#     4  11  20  34  57  84 112 145 184 229 273 325
#     4   9  18  35  55  76 106 143 178 217 271 331
#     4  11  23  39  55  78 111 149 189 228 279 337
#     4  10  20  33  53  84 112 136 178 228 271 321
#     4  10  22  37  54  77 108 144 183 224 271 326
#     4   8  15  31  55  80 104 134 175 219 267 320
#
# _framework density 18.486813999999999
#
# number of rings (size 3 to 8) (size 9 to 14) (size 15 to 20)
#    0.000    2.286    1.429    2.571    0.000    3.429 
#    0.000    4.286    0.000    1.714    0.000    0.000 
#    0.000    0.000    0.000    0.000    0.000    0.000 
#
# Total GULP energy -694137.804710 kJ/mol
# GULP energy per Si atom -12395.317941 kJ/mol
# Density = 1.844474 g / cm^3
# Si number density = 18.486814 Si / 1000 Ang^3
#
#
#
# Elastic Constant Matrix: (Units=GPa)
#
#
# Indices 1 2 3 4 5 6 
#
# 1 149.3567 84.9118 41.7811 0.0000 0.0000 0.0000
# 2 84.9118 130.2362 32.4064 0.0000 0.0000 0.0000
# 3 41.7811 32.4064 47.8545 0.0000 0.0000 0.0000
# 4 0.0000 0.0000 0.0000 29.0684 0.0000 0.0000
# 5 0.0000 0.0000 0.0000 0.0000 25.8941 0.0000
# 6 0.0000 0.0000 0.0000 0.0000 0.0000 29.3038
#
#
#
# Elastic Compliance Matrix: (Units=1/GPa)
#
#
# Indices 1 2 3 4 5 6 
#
# 1 0.012008 -0.006278 -0.006233 0.000000 0.000000 0.000000
# 2 -0.006278 0.012517 -0.002995 0.000000 0.000000 0.000000
# 3 -0.006233 -0.002995 0.028366 0.000000 0.000000 0.000000
# 4 0.000000 0.000000 0.000000 0.034402 0.000000 0.000000
# 5 0.000000 0.000000 0.000000 0.000000 0.038619 0.000000
# 6 0.000000 0.000000 0.000000 0.000000 0.000000 0.034125
#
#
# Mechanical properties :
#
#
# Convention : Reuss Voigt Hill
#
# Bulk Modulus (GPa) = 45.70382 71.73845 58.72114
# Shear Modulus (GPa) = 25.20901 28.07647 26.64274
#
# Velocity S-wave (km/s) = 3.69673 3.90132 3.80040
# Velocity P-wave (km/s) = 6.55722 7.69306 7.14774
#
# Compressibility (1/GPa) = 0.02188001
#
# Stress axis : x y z
#
# Youngs Moduli (GPa) = 83.27635 79.89207 35.25314
#
# Poissons Ratio (x) = 0.50159 0.21972
# Poissons Ratio (y) = 0.52283 0.10557
# Poissons Ratio (z) = 0.51903 0.23926
#
# Static dielectric constant tensor:
#      x y z
#    x 3.937720 0.000000 0.000000 
#    y 0.000000 3.484200 0.000000 
#    z 0.000000 0.000000 3.211650 
# 
# 
# High freq. dielectric constant tensor:
#      x y z
#    x 1.736920 0.000000 0.000000 
#    y 0.000000 1.700150 0.000000 
#    z 0.000000 0.000000 1.701310 
# 
# From -- ./inp_files/7026.got.cif
#   From: 2010.03.12/outbox.cif.g09.slc.cpg/sg57_4_cif.got.tgz:7026.got - 2010.04.16 15:48:40.
