data_PCOD8232865
_publ_section_title
;
Structure prediction by ZEFSAII (Michael W. Deem and Ramdas Pophale) SiO2 
 PCOD8232865
Probable space group: P B C M
;
_chemical_formula_sum "Si O2"
_cell_formula_units_Z 64
_cell_length_a 14.732909
_cell_length_b 23.585380
_cell_length_c 8.953472
_cell_angle_alpha 90.000000
_cell_angle_beta 90.000000
_cell_angle_gamma 90.000000
_cell_volume 3111.163707
_symmetry_space_group_name_H-M "P B C M"
_symmetry_group_IT_number 57
_symmetry_cell_setting 'orthorhombic'
loop_
_space_group_symop_operation_xyz
x,y,z
-x,-y,1/2+z
x,1/2-y,-z
-x,1/2+y,1/2-z
-x,-y,-z
x,y,1/2-z
-x,1/2+y,z
x,1/2-y,1/2+z
loop_
_atom_site_type_symbol
_atom_site_label
_atom_site_fract_x
_atom_site_fract_y
_atom_site_fract_z
Si Si1 0.177673 0.870146 0.921650
Si Si2 0.455350 0.346152 0.079840
Si Si3 0.632797 0.309726 0.577655
Si Si4 0.983556 0.190743 0.924914
Si Si5 0.715130 0.805193 0.926291
Si Si6 0.782415 0.006468 0.426007
Si Si7 0.413596 0.475835 0.418550
Si Si8 0.151226 0.113160 0.924090
O O1 0.145192 0.867375 0.750000
O O2 0.279308 0.848368 0.939398
O O3 0.174513 0.934735 0.985575
O O4 0.113617 0.830077 0.018591
O O5 0.462112 0.324079 0.250000
O O6 0.414955 0.408562 0.074380
O O7 0.553132 0.343945 0.003246
O O8 0.387540 0.306581 0.986958
O O9 0.650538 0.250000 0.500000
O O10 0.607638 0.299619 0.750000
O O11 0.977875 0.201754 0.750000
O O12 0.055624 0.141678 0.965865
O O13 0.011824 0.250000 0.000000
O O14 0.715966 0.799689 0.750000
O O15 0.762760 0.750000 0.000000
O O16 0.769956 0.860175 0.976578
O O17 0.769880 0.011870 0.250000
O O18 0.681258 0.996359 0.493543
O O19 0.849703 0.953949 0.464351
O O20 0.500000 0.500000 0.500000
O O21 0.419356 0.498110 0.250000
O O22 0.175244 0.122433 0.750000
#
# Coordination Sequence:
#
# PCOD8232865 Si02
#       8
#     8   8   8   8   8   8   8   8
#     4  10  22  40  65  91 122 162 203 252 308 369
#     4  11  22  38  59  85 119 161 202 249 306 363
#     4  11  23  39  59  86 120 159 207 259 310 367
#     4  11  24  41  65  93 123 159 203 257 309 369
#     4  12  24  38  59  87 121 159 201 250 299 360
#     4   9  18  38  63  88 122 164 201 242 303 367
#     4  10  20  35  58  84 118 161 204 248 295 354
#     4  10  21  41  65  90 124 162 202 247 303 366
#
# _framework density 20.571082000000001
#
# number of rings (size 3 to 8) (size 9 to 14) (size 15 to 20)
#    0.000    1.500    1.250    4.125    0.000    6.500 
#    0.000    1.250    0.000    0.000    0.000    0.000 
#    0.000    0.000    0.000    0.000    0.000    0.000 
#
# Total GULP energy -793735.372008 kJ/mol
# GULP energy per Si atom -12402.115188 kJ/mol
# Density = 2.052426 g / cm^3
# Si number density = 20.571082 Si / 1000 Ang^3
#
#
#
# Elastic Constant Matrix: (Units=GPa)
#
#
# Indices 1 2 3 4 5 6 
#
# 1 81.9381 28.4180 38.2334 0.0000 0.0000 0.0000
# 2 28.4180 97.9569 37.2435 0.0000 0.0000 0.0000
# 3 38.2334 37.2435 107.6800 0.0000 0.0000 0.0000
# 4 0.0000 0.0000 0.0000 24.9760 0.0000 0.0000
# 5 0.0000 0.0000 0.0000 0.0000 27.5913 0.0000
# 6 0.0000 0.0000 0.0000 0.0000 0.0000 36.2299
#
#
#
# Elastic Compliance Matrix: (Units=1/GPa)
#
#
# Indices 1 2 3 4 5 6 
#
# 1 0.015232 -0.002720 -0.004468 0.000000 0.000000 0.000000
# 2 -0.002720 0.012240 -0.003268 0.000000 0.000000 0.000000
# 3 -0.004468 -0.003268 0.012003 0.000000 0.000000 0.000000
# 4 0.000000 0.000000 0.000000 0.040038 0.000000 0.000000
# 5 0.000000 0.000000 0.000000 0.000000 0.036243 0.000000
# 6 0.000000 0.000000 0.000000 0.000000 0.000000 0.027601
#
#
# Mechanical properties :
#
#
# Convention : Reuss Voigt Hill
#
# Bulk Modulus (GPa) = 53.86600 55.04054 54.45327
# Shear Modulus (GPa) = 29.33263 30.00477 29.66870
#
# Velocity S-wave (km/s) = 3.78023 3.82329 3.80182
# Velocity P-wave (km/s) = 6.73020 6.80474 6.76757
#
# Compressibility (1/GPa) = 0.01856459
#
# Stress axis : x y z
#
# Youngs Moduli (GPa) = 65.64911 81.69839 83.31092
#
# Poissons Ratio (x) = 0.22226 0.37220
# Poissons Ratio (y) = 0.17860 0.27223
# Poissons Ratio (z) = 0.29329 0.26696
#
# Static dielectric constant tensor:
#      x y z
#    x 3.683030 0.000000 0.000000 
#    y 0.000000 4.190000 0.000000 
#    z 0.000000 0.000000 3.653500 
# 
# 
# High freq. dielectric constant tensor:
#      x y z
#    x 1.804940 0.000000 0.000000 
#    y 0.000000 1.820050 0.000000 
#    z 0.000000 0.000000 1.789670 
# 
# From -- ./inp_files/5722.got.cif
#   From: 2010.03.12/outbox.cif.g09.slc.cpg/sg57_3_cif.got.tgz:5722.got - 2010.04.16 15:48:40.
