data_PCOD8232444
_publ_section_title
;
Structure prediction by ZEFSAII (Michael W. Deem and Ramdas Pophale) SiO2 
 PCOD8232444
Probable space group: P B C M
;
_chemical_formula_sum "Si O2"
_cell_formula_units_Z 48
_cell_length_a 30.519624
_cell_length_b 9.560907
_cell_length_c 8.852033
_cell_angle_alpha 90.000000
_cell_angle_beta 90.000000
_cell_angle_gamma 90.000000
_cell_volume 2582.981507
_symmetry_space_group_name_H-M "P B C M"
_symmetry_group_IT_number 57
_symmetry_cell_setting 'orthorhombic'
loop_
_space_group_symop_operation_xyz
x,y,z
-x,-y,1/2+z
x,1/2-y,-z
-x,1/2+y,1/2-z
-x,-y,-z
x,y,1/2-z
-x,1/2+y,z
x,1/2-y,1/2+z
loop_
_atom_site_type_symbol
_atom_site_label
_atom_site_fract_x
_atom_site_fract_y
_atom_site_fract_z
Si Si1 0.202184 0.098160 0.928536
Si Si2 0.717015 0.097479 0.427811
Si Si3 0.967232 0.394889 0.424625
Si Si4 0.535103 0.400759 0.425705
Si Si5 0.368479 0.899970 0.074513
Si Si6 0.866422 0.101295 0.926177
O O1 0.196783 0.113230 0.750000
O O2 0.243861 0.004792 0.973585
O O3 0.208060 0.250000 0.000000
O O4 0.159543 0.023831 0.995598
O O5 0.725087 0.250000 0.500000
O O6 0.713132 0.116307 0.250000
O O7 0.672298 0.023975 0.491618
O O8 0.978006 0.250000 0.500000
O O9 0.978163 0.383988 0.250000
O O10 0.916994 0.437683 0.453036
O O11 0.000000 0.500000 0.500000
O O12 0.531758 0.250000 0.500000
O O13 0.500000 0.500000 0.500000
O O14 0.524630 0.383482 0.250000
O O15 0.583635 0.469936 0.449587
O O16 0.357077 0.886090 0.250000
O O17 0.371641 0.750000 0.000000
O O18 0.854544 0.110841 0.750000
O O19 0.854082 0.250000 0.000000
#
# Coordination Sequence:
#
# PCOD8232444 Si02
#       6
#     8   8   8   8   8   8
#     4  11  24  39  56  80 110 144 180 221 271 322
#     4  10  20  34  55  81 105 135 175 217 263 315
#     4  10  21  37  58  84 113 146 183 224 270 319
#     4  10  20  34  53  78 107 140 178 220 266 316
#     4   9  17  30  51  77 103 134 173 216 261 310
#     4  10  21  38  60  84 110 143 184 226 267 316
#
# _framework density 18.583176000000002
#
# number of rings (size 3 to 8) (size 9 to 14) (size 15 to 20)
#    0.000    2.000    0.000    4.500    0.000    8.667 
#    0.000    0.833    0.000    2.000    0.000    0.000 
#    0.000    0.000    0.000    0.000    0.000    0.000 
#
# Total GULP energy -595070.310964 kJ/mol
# GULP energy per Si atom -12397.298145 kJ/mol
# Density = 1.854088 g / cm^3
# Si number density = 18.583176 Si / 1000 Ang^3
#
#
#
# Elastic Constant Matrix: (Units=GPa)
#
#
# Indices 1 2 3 4 5 6 
#
# 1 141.0272 84.4351 83.1184 0.0000 0.0000 0.0000
# 2 84.4351 108.4807 71.8923 0.0000 0.0000 0.0000
# 3 83.1184 71.8923 133.4145 0.0000 0.0000 0.0000
# 4 0.0000 0.0000 0.0000 34.7728 0.0000 0.0000
# 5 0.0000 0.0000 0.0000 0.0000 32.6905 0.0000
# 6 0.0000 0.0000 0.0000 0.0000 0.0000 29.6793
#
#
#
# Elastic Compliance Matrix: (Units=1/GPa)
#
#
# Indices 1 2 3 4 5 6 
#
# 1 0.014991 -0.008522 -0.004747 0.000000 0.000000 0.000000
# 2 -0.008522 0.019183 -0.005028 0.000000 0.000000 0.000000
# 3 -0.004747 -0.005028 0.013162 0.000000 0.000000 0.000000
# 4 0.000000 0.000000 0.000000 0.028758 0.000000 0.000000
# 5 0.000000 0.000000 0.000000 0.000000 0.030590 0.000000
# 6 0.000000 0.000000 0.000000 0.000000 0.000000 0.033693
#
#
# Mechanical properties :
#
#
# Convention : Reuss Voigt Hill
#
# Bulk Modulus (GPa) = 93.09014 95.75712 94.42363
# Shear Modulus (GPa) = 27.69256 28.99364 28.34310
#
# Velocity S-wave (km/s) = 3.86449 3.95423 3.90962
# Velocity P-wave (km/s) = 8.37347 8.51403 8.44404
#
# Compressibility (1/GPa) = 0.01074228
#
# Stress axis : x y z
#
# Youngs Moduli (GPa) = 66.70629 52.12842 75.97362
#
# Poissons Ratio (x) = 0.44424 0.36067
# Poissons Ratio (y) = 0.56847 0.38199
# Poissons Ratio (z) = 0.31668 0.26210
#
# Static dielectric constant tensor:
#      x y z
#    x 3.994940 0.000000 0.000000 
#    y 0.000000 3.177230 0.000000 
#    z 0.000000 0.000000 3.638800 
# 
# 
# High freq. dielectric constant tensor:
#      x y z
#    x 1.741670 0.000000 0.000000 
#    y 0.000000 1.692960 0.000000 
#    z 0.000000 0.000000 1.743540 
# 
# From -- ./inp_files/9932.got.cif
#   From: 2010.03.12/outbox.cif.g09.slc.cpg/sg57_5_cif.got.tgz:9932.got - 2010.04.16 15:48:40.
