data_PCOD8232088
_publ_section_title
;
Structure prediction by ZEFSAII (Michael W. Deem and Ramdas Pophale) SiO2 
 PCOD8232088
Probable space group: P B C M
;
_chemical_formula_sum "Si O2"
_cell_formula_units_Z 32
_cell_length_a 9.744979
_cell_length_b 9.706585
_cell_length_c 17.277721
_cell_angle_alpha 90.000000
_cell_angle_beta 90.000000
_cell_angle_gamma 90.000000
_cell_volume 1634.307698
_symmetry_space_group_name_H-M "P B C M"
_symmetry_group_IT_number 57
_symmetry_cell_setting 'orthorhombic'
loop_
_space_group_symop_operation_xyz
x,y,z
-x,-y,1/2+z
x,1/2-y,-z
-x,1/2+y,1/2-z
-x,-y,-z
x,y,1/2-z
-x,1/2+y,z
x,1/2-y,1/2+z
loop_
_atom_site_type_symbol
_atom_site_label
_atom_site_fract_x
_atom_site_fract_y
_atom_site_fract_z
Si Si1 0.684283 0.611214 0.461999
Si Si2 0.617312 0.361096 0.934742
Si Si3 0.131464 0.703896 0.160731
Si Si4 0.051762 0.515884 0.587561
O O1 0.742537 0.750000 0.500000
O O2 0.544436 0.639902 0.413543
O O3 0.657140 0.510890 0.534229
O O4 0.796537 0.549632 0.403821
O O5 0.709006 0.321057 0.860946
O O6 0.650907 0.250000 0.000000
O O7 0.124728 0.744600 0.250000
O O8 0.049711 0.562916 0.145239
O O9 0.060383 0.824331 0.110720
O O10 0.000000 0.500000 0.500000
#
# Coordination Sequence:
#
# PCOD8232088 Si02
#       4
#     8   8   8   8
#     4  10  20  34  66  95 113 149 216 260 290 348
#     4  10  19  39  63  90 119 156 207 257 298 365
#     4  12  25  41  59  90 130 163 198 260 325 369
#     4  12  22  41  66  91 118 166 212 257 302 376
#
# _framework density 19.580154
#
# number of rings (size 3 to 8) (size 9 to 14) (size 15 to 20)
#    0.000    1.000    5.000    3.000    0.000    0.000 
#    0.000    2.500    0.000    0.000    0.000    0.000 
#    0.000    0.000    0.000    0.000    0.000    0.000 
#
# Total GULP energy -396879.991824 kJ/mol
# GULP energy per Si atom -12402.499744 kJ/mol
# Density = 1.953559 g / cm^3
# Si number density = 19.580154 Si / 1000 Ang^3
#
#
#
# Elastic Constant Matrix: (Units=GPa)
#
#
# Indices 1 2 3 4 5 6 
#
# 1 115.3847 17.0116 37.1730 0.0000 0.0000 0.0000
# 2 17.0116 100.1954 15.9809 0.0000 0.0000 0.0000
# 3 37.1730 15.9809 91.1910 0.0000 0.0000 0.0000
# 4 0.0000 0.0000 0.0000 23.2851 0.0000 0.0000
# 5 0.0000 0.0000 0.0000 0.0000 23.0004 0.0000
# 6 0.0000 0.0000 0.0000 0.0000 0.0000 32.0290
#
#
#
# Elastic Compliance Matrix: (Units=1/GPa)
#
#
# Indices 1 2 3 4 5 6 
#
# 1 0.010091 -0.001088 -0.003923 0.000000 0.000000 0.000000
# 2 -0.001088 0.010385 -0.001377 0.000000 0.000000 0.000000
# 3 -0.003923 -0.001377 0.012806 0.000000 0.000000 0.000000
# 4 0.000000 0.000000 0.000000 0.042946 0.000000 0.000000
# 5 0.000000 0.000000 0.000000 0.000000 0.043477 0.000000
# 6 0.000000 0.000000 0.000000 0.000000 0.000000 0.031222
#
#
# Mechanical properties :
#
#
# Convention : Reuss Voigt Hill
#
# Bulk Modulus (GPa) = 48.76155 49.67801 49.21978
# Shear Modulus (GPa) = 29.31919 31.43661 30.37790
#
# Velocity S-wave (km/s) = 3.87381 4.01126 3.94314
# Velocity P-wave (km/s) = 6.70568 6.84692 6.77667
#
# Compressibility (1/GPa) = 0.02050796
#
# Stress axis : x y z
#
# Youngs Moduli (GPa) = 99.10017 96.29544 78.08652
#
# Poissons Ratio (x) = 0.10473 0.30632
# Poissons Ratio (y) = 0.10778 0.10749
# Poissons Ratio (z) = 0.38875 0.13255
#
# Static dielectric constant tensor:
#      x y z
#    x 4.015010 0.000000 0.000000 
#    y 0.000000 3.807410 0.000000 
#    z 0.000000 0.000000 3.150880 
# 
# 
# High freq. dielectric constant tensor:
#      x y z
#    x 1.782630 0.000000 0.000000 
#    y 0.000000 1.785700 0.000000 
#    z 0.000000 0.000000 1.707480 
# 
# From -- ./inp_files/17176.got.cif
#   From: 2010.03.12/outbox.cif.g09.slc.cpg/sg57_9_cif.got.tgz:17176.got - 2010.04.16 15:48:40.
