data_PCOD8232261
_publ_section_title
;
Structure prediction by ZEFSAII (Michael W. Deem and Ramdas Pophale) SiO2 
 PCOD8232261
Probable space group: P B C M
;
_chemical_formula_sum "Si O2"
_cell_formula_units_Z 64
_cell_length_a 11.478871
_cell_length_b 33.058912
_cell_length_c 9.111776
_cell_angle_alpha 90.000000
_cell_angle_beta 90.000000
_cell_angle_gamma 90.000000
_cell_volume 3457.727519
_symmetry_space_group_name_H-M "P B C M"
_symmetry_group_IT_number 57
_symmetry_cell_setting 'orthorhombic'
loop_
_space_group_symop_operation_xyz
x,y,z
-x,-y,1/2+z
x,1/2-y,-z
-x,1/2+y,1/2-z
-x,-y,-z
x,y,1/2-z
-x,1/2+y,z
x,1/2-y,1/2+z
loop_
_atom_site_type_symbol
_atom_site_label
_atom_site_fract_x
_atom_site_fract_y
_atom_site_fract_z
Si Si1 0.472541 0.056281 0.415185
Si Si2 0.735428 0.063915 0.079345
Si Si3 0.653265 0.641198 0.415889
Si Si4 0.786819 0.292155 0.924031
Si Si5 0.143019 0.394742 0.422800
Si Si6 0.519671 0.290726 0.578092
Si Si7 0.886012 0.369655 0.424327
Si Si8 0.264829 0.474852 0.080850
O O1 0.476836 0.039581 0.250000
O O2 0.602779 0.060636 0.475785
O O3 0.415089 0.099798 0.424470
O O4 0.393099 0.025503 0.507786
O O5 0.742843 0.077707 0.250000
O O6 0.792339 0.019197 0.056824
O O7 0.796579 0.096343 0.976847
O O8 0.688679 0.651947 0.250000
O O9 0.771339 0.638944 0.509692
O O10 0.566944 0.674943 0.481693
O O11 0.809731 0.289384 0.750000
O O12 0.652467 0.302503 0.960207
O O13 0.822848 0.250000 0.000000
O O14 0.864165 0.327355 0.994813
O O15 0.154343 0.391965 0.250000
O O16 0.178588 0.439858 0.480678
O O17 0.012835 0.385102 0.473611
O O18 0.480956 0.250000 0.500000
O O19 0.506240 0.284416 0.750000
O O20 0.874868 0.363808 0.250000
O O21 0.288448 0.466518 0.250000
#
# Coordination Sequence:
#
# PCOD8232261 Si02
#       8
#     8   8   8   8   8   8   8   8
#     4   9  17  30  49  74 103 132 166 212 264 318
#     4  10  20  33  51  76 106 138 172 214 264 314
#     4   9  17  31  51  73  98 131 168 204 250 307
#     4  10  20  37  60  84 111 138 166 205 255 309
#     4   9  20  37  52  70 100 136 176 222 261 297
#     4   9  18  32  52  80 110 134 159 198 249 306
#     4  11  23  37  53  75 104 139 181 222 258 300
#     4   9  18  33  52  74 102 137 174 214 264 315
#
# _framework density 18.509267000000001
#
# number of rings (size 3 to 8) (size 9 to 14) (size 15 to 20)
#    0.000    2.500    0.000    1.875    0.000    5.500 
#    0.000    3.125    0.000    1.500    0.000    0.000 
#    0.000    0.000    0.000    0.000    0.000    0.000 
#
# Total GULP energy -793524.411437 kJ/mol
# GULP energy per Si atom -12398.818929 kJ/mol
# Density = 1.846714 g / cm^3
# Si number density = 18.509267 Si / 1000 Ang^3
#
#
#
# Elastic Constant Matrix: (Units=GPa)
#
#
# Indices 1 2 3 4 5 6 
#
# 1 99.9223 60.5069 40.1999 0.0000 0.0000 0.0000
# 2 60.5069 89.1437 39.8427 0.0000 0.0000 0.0000
# 3 40.1999 39.8427 50.9722 0.0000 0.0000 0.0000
# 4 0.0000 0.0000 0.0000 31.3598 0.0000 0.0000
# 5 0.0000 0.0000 0.0000 0.0000 28.0212 0.0000
# 6 0.0000 0.0000 0.0000 0.0000 0.0000 25.9873
#
#
#
# Elastic Compliance Matrix: (Units=1/GPa)
#
#
# Indices 1 2 3 4 5 6 
#
# 1 0.018645 -0.009350 -0.007396 0.000000 0.000000 0.000000
# 2 -0.009350 0.021930 -0.009768 0.000000 0.000000 0.000000
# 3 -0.007396 -0.009768 0.033087 0.000000 0.000000 0.000000
# 4 0.000000 0.000000 0.000000 0.031888 0.000000 0.000000
# 5 0.000000 0.000000 0.000000 0.000000 0.035687 0.000000
# 6 0.000000 0.000000 0.000000 0.000000 0.000000 0.038480
#
#
# Mechanical properties :
#
#
# Convention : Reuss Voigt Hill
#
# Bulk Modulus (GPa) = 48.46388 57.90411 53.18399
# Shear Modulus (GPa) = 20.86614 23.70623 22.28618
#
# Velocity S-wave (km/s) = 3.36122 3.58268 3.47371
# Velocity P-wave (km/s) = 6.42683 6.96174 6.69963
#
# Compressibility (1/GPa) = 0.02063392
#
# Stress axis : x y z
#
# Youngs Moduli (GPa) = 53.63366 45.60040 30.22346
#
# Poissons Ratio (x) = 0.42635 0.22355
# Poissons Ratio (y) = 0.50145 0.29521
# Poissons Ratio (z) = 0.39670 0.44541
#
# Static dielectric constant tensor:
#      x y z
#    x 3.446680 0.000000 0.000000 
#    y 0.000000 3.528680 0.000000 
#    z 0.000000 0.000000 3.425050 
# 
# 
# High freq. dielectric constant tensor:
#      x y z
#    x 1.707460 0.000000 0.000000 
#    y 0.000000 1.724080 0.000000 
#    z 0.000000 0.000000 1.712250 
# 
# From -- ./inp_files/3794.got.cif
#   From: 2010.03.12/outbox.cif.g09.slc.cpg/sg57_2_cif.got.tgz:3794.got - 2010.04.16 15:48:40.
