data_PCOD8232775
_publ_section_title
;
Structure prediction by ZEFSAII (Michael W. Deem and Ramdas Pophale) SiO2 
 PCOD8232775
Probable space group: P B C M
;
_chemical_formula_sum "Si O2"
_cell_formula_units_Z 48
_cell_length_a 13.342698
_cell_length_b 18.564785
_cell_length_c 9.763778
_cell_angle_alpha 90.000000
_cell_angle_beta 90.000000
_cell_angle_gamma 90.000000
_cell_volume 2418.529987
_symmetry_space_group_name_H-M "P B C M"
_symmetry_group_IT_number 57
_symmetry_cell_setting 'orthorhombic'
loop_
_space_group_symop_operation_xyz
x,y,z
-x,-y,1/2+z
x,1/2-y,-z
-x,1/2+y,1/2-z
-x,-y,-z
x,y,1/2-z
-x,1/2+y,z
x,1/2-y,1/2+z
loop_
_atom_site_type_symbol
_atom_site_label
_atom_site_fract_x
_atom_site_fract_y
_atom_site_fract_z
Si Si1 0.608268 0.578407 0.093176
Si Si2 0.005858 0.689060 0.097177
Si Si3 0.083617 0.534958 0.094523
Si Si4 0.424036 0.821184 0.908727
Si Si5 0.220935 0.186930 0.405223
Si Si6 0.689976 0.038698 0.409027
O O1 0.589436 0.553893 0.250000
O O2 0.524520 0.635921 0.048256
O O3 0.716282 0.614897 0.074585
O O4 0.610368 0.508084 0.996423
O O5 0.005523 0.720657 0.250000
O O6 0.892876 0.667989 0.052040
O O7 0.076098 0.620585 0.085715
O O8 0.051523 0.750000 0.000000
O O9 0.065038 0.508276 0.250000
O O10 0.196745 0.518270 0.046393
O O11 0.000000 0.500000 0.000000
O O12 0.429630 0.797098 0.750000
O O13 0.331750 0.876410 0.933826
O O14 0.410175 0.750000 0.000000
O O15 0.264810 0.250000 0.500000
O O16 0.228302 0.214958 0.250000
O O17 0.672222 0.020205 0.250000
#
# Coordination Sequence:
#
# PCOD8232775 Si02
#       6
#     8   8   8   8   8   8
#     4  10  20  35  56  81 109 143 183 225 271 325
#     4   9  18  32  49  71 101 135 173 219 268 318
#     4  10  21  37  56  79 109 144 183 229 277 326
#     4  10  22  39  58  83 114 147 184 224 269 323
#     4   9  17  29  47  73 103 135 174 220 268 318
#     4  10  22  38  56  81 112 144 181 227 276 326
#
# _framework density 19.846765000000001
#
# number of rings (size 3 to 8) (size 9 to 14) (size 15 to 20)
#    0.000    2.333    0.000    2.000    0.000    5.333 
#    0.000    3.333    0.000    0.000    0.000    0.000 
#    0.000    0.000    0.000    0.000    0.000    0.000 
#
# Total GULP energy -595147.136590 kJ/mol
# GULP energy per Si atom -12398.898679 kJ/mol
# Density = 1.980159 g / cm^3
# Si number density = 19.846765 Si / 1000 Ang^3
#
#
#
# Elastic Constant Matrix: (Units=GPa)
#
#
# Indices 1 2 3 4 5 6 
#
# 1 82.0164 31.3385 41.8490 0.0000 0.0000 0.0000
# 2 31.3385 93.2480 62.3967 0.0000 0.0000 0.0000
# 3 41.8490 62.3967 89.5443 0.0000 0.0000 0.0000
# 4 0.0000 0.0000 0.0000 43.0985 0.0000 0.0000
# 5 0.0000 0.0000 0.0000 0.0000 23.5904 0.0000
# 6 0.0000 0.0000 0.0000 0.0000 0.0000 25.9599
#
#
#
# Elastic Compliance Matrix: (Units=1/GPa)
#
#
# Indices 1 2 3 4 5 6 
#
# 1 0.016035 -0.000701 -0.007005 0.000000 0.000000 0.000000
# 2 -0.000701 0.020124 -0.013695 0.000000 0.000000 0.000000
# 3 -0.007005 -0.013695 0.023985 0.000000 0.000000 0.000000
# 4 0.000000 0.000000 0.000000 0.023203 0.000000 0.000000
# 5 0.000000 0.000000 0.000000 0.000000 0.042390 0.000000
# 6 0.000000 0.000000 0.000000 0.000000 0.000000 0.038521
#
#
# Mechanical properties :
#
#
# Convention : Reuss Voigt Hill
#
# Bulk Modulus (GPa) = 57.66967 59.55302 58.61135
# Shear Modulus (GPa) = 23.49172 27.14472 25.31822
#
# Velocity S-wave (km/s) = 3.44416 3.70228 3.57555
# Velocity P-wave (km/s) = 6.70350 6.95323 6.82950
#
# Compressibility (1/GPa) = 0.01734014
#
# Stress axis : x y z
#
# Youngs Moduli (GPa) = 62.36279 49.69251 41.69333
#
# Poissons Ratio (x) = 0.03486 0.29208
# Poissons Ratio (y) = 0.04374 0.57099
# Poissons Ratio (z) = 0.43688 0.68054
#
# Static dielectric constant tensor:
#      x y z
#    x 3.644370 0.000000 0.000000 
#    y 0.000000 3.423810 0.000000 
#    z 0.000000 0.000000 3.558200 
# 
# 
# High freq. dielectric constant tensor:
#      x y z
#    x 1.778850 0.000000 0.000000 
#    y 0.000000 1.763970 0.000000 
#    z 0.000000 0.000000 1.768900 
# 
# From -- ./inp_files/4707.got.cif
#   From: 2010.03.12/outbox.cif.g09.slc.cpg/sg57_3_cif.got.tgz:4707.got - 2010.04.16 15:48:40.
