data_PCOD8232808
_publ_section_title
;
Structure prediction by ZEFSAII (Michael W. Deem and Ramdas Pophale) SiO2 
 PCOD8232808
Probable space group: P B C M
;
_chemical_formula_sum "Si O2"
_cell_formula_units_Z 64
_cell_length_a 19.414315
_cell_length_b 20.273929
_cell_length_c 8.808165
_cell_angle_alpha 90.000000
_cell_angle_beta 90.000000
_cell_angle_gamma 90.000000
_cell_volume 3466.932887
_symmetry_space_group_name_H-M "P B C M"
_symmetry_group_IT_number 57
_symmetry_cell_setting 'orthorhombic'
loop_
_space_group_symop_operation_xyz
x,y,z
-x,-y,1/2+z
x,1/2-y,-z
-x,1/2+y,1/2-z
-x,-y,-z
x,y,1/2-z
-x,1/2+y,z
x,1/2-y,1/2+z
loop_
_atom_site_type_symbol
_atom_site_label
_atom_site_fract_x
_atom_site_fract_y
_atom_site_fract_z
Si Si1 0.435047 0.320258 0.425630
Si Si2 0.181250 0.560913 0.571892
Si Si3 0.662894 0.040162 0.925646
Si Si4 0.473278 0.932300 0.929156
Si Si5 0.689803 0.592528 0.922761
Si Si6 0.101828 0.818640 0.572132
Si Si7 0.844493 0.576818 0.926684
Si Si8 0.941863 0.681997 0.426339
O O1 0.445800 0.250000 0.500000
O O2 0.455895 0.316964 0.250000
O O3 0.484080 0.371364 0.508734
O O4 0.355243 0.341756 0.445894
O O5 0.168202 0.553204 0.750000
O O6 0.262121 0.569077 0.535005
O O7 0.143819 0.624519 0.509094
O O8 0.150448 0.496925 0.490309
O O9 0.644292 0.048612 0.750000
O O10 0.606431 0.078879 0.024632
O O11 0.660486 0.962695 0.964886
O O12 0.480849 0.936292 0.750000
O O13 0.500000 0.000000 0.000000
O O14 0.682972 0.565887 0.750000
O O15 0.769347 0.608235 0.959943
O O16 0.126455 0.750000 0.500000
O O17 0.117965 0.818165 0.750000
O O18 0.021693 0.830464 0.537872
O O19 0.861657 0.574652 0.750000
O O20 0.901095 0.620587 0.007826
O O21 0.915994 0.750000 0.500000
O O22 0.926717 0.687587 0.250000
#
# Coordination Sequence:
#
# PCOD8232808 Si02
#       8
#     8   8   8   8   8   8   8   8
#     4  11  23  39  57  82 116 152 190 236 286 338
#     4  10  21  37  58  86 117 148 186 234 283 337
#     4  10  20  35  58  86 113 144 185 230 278 334
#     4  12  23  37  60  87 113 148 191 235 281 335
#     4   9  19  35  55  79 110 148 187 227 276 333
#     4  10  21  38  60  83 110 147 190 236 288 346
#     4  10  20  35  56  84 116 151 190 234 282 332
#     4  10  21  37  56  80 110 148 192 236 285 341
#
# _framework density 18.46012
#
# number of rings (size 3 to 8) (size 9 to 14) (size 15 to 20)
#    0.000    1.750    1.250    3.375    0.000    5.000 
#    0.000    1.875    0.000    3.000    0.000    0.000 
#    0.000    0.000    0.000    0.000    0.000    0.000 
#
# Total GULP energy -793837.395911 kJ/mol
# GULP energy per Si atom -12403.709311 kJ/mol
# Density = 1.841810 g / cm^3
# Si number density = 18.460120 Si / 1000 Ang^3
#
#
#
# Elastic Constant Matrix: (Units=GPa)
#
#
# Indices 1 2 3 4 5 6 
#
# 1 88.4748 71.4905 56.9674 0.0000 0.0000 0.0000
# 2 71.4905 136.7616 63.9835 0.0000 0.0000 0.0000
# 3 56.9674 63.9835 116.5773 0.0000 0.0000 0.0000
# 4 0.0000 0.0000 0.0000 38.2343 0.0000 0.0000
# 5 0.0000 0.0000 0.0000 0.0000 28.5287 0.0000
# 6 0.0000 0.0000 0.0000 0.0000 0.0000 29.1527
#
#
#
# Elastic Compliance Matrix: (Units=1/GPa)
#
#
# Indices 1 2 3 4 5 6 
#
# 1 0.022362 -0.008849 -0.006071 0.000000 0.000000 0.000000
# 2 -0.008849 0.013340 -0.002997 0.000000 0.000000 0.000000
# 3 -0.006071 -0.002997 0.013190 0.000000 0.000000 0.000000
# 4 0.000000 0.000000 0.000000 0.026155 0.000000 0.000000
# 5 0.000000 0.000000 0.000000 0.000000 0.035052 0.000000
# 6 0.000000 0.000000 0.000000 0.000000 0.000000 0.034302
#
#
# Mechanical properties :
#
#
# Convention : Reuss Voigt Hill
#
# Bulk Modulus (GPa) = 76.58647 80.74407 78.66527
# Shear Modulus (GPa) = 27.08737 29.14130 28.11433
#
# Velocity S-wave (km/s) = 3.83475 3.97748 3.90677
# Velocity P-wave (km/s) = 7.82206 8.05782 7.94082
#
# Compressibility (1/GPa) = 0.01305714
#
# Stress axis : x y z
#
# Youngs Moduli (GPa) = 44.71874 74.96134 75.81725
#
# Poissons Ratio (x) = 0.66336 0.46026
# Poissons Ratio (y) = 0.39573 0.22725
# Poissons Ratio (z) = 0.27147 0.22469
#
# Static dielectric constant tensor:
#      x y z
#    x 3.603680 0.000000 0.000000 
#    y 0.000000 3.292300 0.000000 
#    z 0.000000 0.000000 3.569200 
# 
# 
# High freq. dielectric constant tensor:
#      x y z
#    x 1.721680 0.000000 0.000000 
#    y 0.000000 1.704180 0.000000 
#    z 0.000000 0.000000 1.734540 
# 
# From -- ./inp_files/8462.got.cif
#   From: 2010.03.12/outbox.cif.g09.slc.cpg/sg57_5_cif.got.tgz:8462.got - 2010.04.16 15:48:40.
