data_PCOD8232706
_publ_section_title
;
Structure prediction by ZEFSAII (Michael W. Deem and Ramdas Pophale) SiO2 
 PCOD8232706
Probable space group: P B C M
;
_chemical_formula_sum "Si O2"
_cell_formula_units_Z 48
_cell_length_a 19.140515
_cell_length_b 14.193280
_cell_length_c 8.814732
_cell_angle_alpha 90.000000
_cell_angle_beta 90.000000
_cell_angle_gamma 90.000000
_cell_volume 2394.669055
_symmetry_space_group_name_H-M "P B C M"
_symmetry_group_IT_number 57
_symmetry_cell_setting 'orthorhombic'
loop_
_space_group_symop_operation_xyz
x,y,z
-x,-y,1/2+z
x,1/2-y,-z
-x,1/2+y,1/2-z
-x,-y,-z
x,y,1/2-z
-x,1/2+y,z
x,1/2-y,1/2+z
loop_
_atom_site_type_symbol
_atom_site_label
_atom_site_fract_x
_atom_site_fract_y
_atom_site_fract_z
Si Si1 0.475404 0.147087 0.928079
Si Si2 0.176103 0.147386 0.070557
Si Si3 0.024894 0.149645 0.073586
Si Si4 0.605526 0.481952 0.072119
Si Si5 0.874643 0.352420 0.570864
Si Si6 0.749701 0.481926 0.570029
O O1 0.462187 0.155496 0.750000
O O2 0.549562 0.099064 0.965596
O O3 0.473070 0.250000 0.000000
O O4 0.415031 0.081873 0.998368
O O5 0.189154 0.151555 0.250000
O O6 0.099129 0.101410 0.029766
O O7 0.182044 0.250000 0.000000
O O8 0.235808 0.086362 0.991343
O O9 0.025287 0.168603 0.250000
O O10 0.950961 0.099543 0.027982
O O11 0.022963 0.250000 0.000000
O O12 0.614077 0.497687 0.250000
O O13 0.677410 0.445123 0.999680
O O14 0.867035 0.250000 0.500000
O O15 0.867435 0.342132 0.750000
O O16 0.812139 0.416253 0.507411
O O17 0.744777 0.482167 0.750000
#
# Coordination Sequence:
#
# PCOD8232706 Si02
#       6
#     8   8   8   8   8   8
#     4  10  21  39  65  92 116 145 180 219 266 320
#     4  10  20  35  55  78 106 142 186 234 283 334
#     4   8  15  30  51  74 101 136 181 232 281 327
#     4  10  22  40  60  85 117 148 183 225 265 315
#     4   9  19  35  54  77 107 144 186 232 280 329
#     4  11  23  37  54  80 115 150 184 225 274 327
#
# _framework density 20.044523000000002
#
# number of rings (size 3 to 8) (size 9 to 14) (size 15 to 20)
#    0.000    2.333    0.000    2.000    0.000    6.000 
#    0.000    6.667    0.000    0.000    0.000    0.000 
#    0.000    0.000    0.000    0.000    0.000    0.000 
#
# Total GULP energy -594836.717642 kJ/mol
# GULP energy per Si atom -12392.431618 kJ/mol
# Density = 1.999890 g / cm^3
# Si number density = 20.044523 Si / 1000 Ang^3
#
#
#
# Elastic Constant Matrix: (Units=GPa)
#
#
# Indices 1 2 3 4 5 6 
#
# 1 87.4485 -0.6334 19.5819 0.0000 0.0000 0.0000
# 2 -0.6334 50.7443 10.7818 0.0000 0.0000 0.0000
# 3 19.5819 10.7818 54.7414 0.0000 0.0000 0.0000
# 4 0.0000 0.0000 0.0000 28.5686 0.0000 0.0000
# 5 0.0000 0.0000 0.0000 0.0000 36.4801 0.0000
# 6 0.0000 0.0000 0.0000 0.0000 0.0000 24.0632
#
#
#
# Elastic Compliance Matrix: (Units=1/GPa)
#
#
# Indices 1 2 3 4 5 6 
#
# 1 0.012495 0.001154 -0.004697 0.000000 0.000000 0.000000
# 2 0.001154 0.020674 -0.004485 0.000000 0.000000 0.000000
# 3 -0.004697 -0.004485 0.020831 0.000000 0.000000 0.000000
# 4 0.000000 0.000000 0.000000 0.035003 0.000000 0.000000
# 5 0.000000 0.000000 0.000000 0.000000 0.027412 0.000000
# 6 0.000000 0.000000 0.000000 0.000000 0.000000 0.041557
#
#
# Mechanical properties :
#
#
# Convention : Reuss Voigt Hill
#
# Bulk Modulus (GPa) = 26.35397 28.04386 27.19892
# Shear Modulus (GPa) = 26.78416 28.70264 27.74340
#
# Velocity S-wave (km/s) = 3.65942 3.78821 3.72437
# Velocity P-wave (km/s) = 5.57058 5.75805 5.66509
#
# Compressibility (1/GPa) = 0.03794495
#
# Stress axis : x y z
#
# Youngs Moduli (GPa) = 80.02906 48.37015 48.00485
#
# Poissons Ratio (x) = -0.05582 0.22548
# Poissons Ratio (y) = -0.09235 0.21529
# Poissons Ratio (z) = 0.37590 0.21692
#
# Static dielectric constant tensor:
#      x y z
#    x 4.140050 0.000000 0.000000 
#    y 0.000000 3.395370 0.000000 
#    z 0.000000 0.000000 3.548540 
# 
# 
# High freq. dielectric constant tensor:
#      x y z
#    x 1.798560 0.000000 0.000000 
#    y 0.000000 1.763150 0.000000 
#    z 0.000000 0.000000 1.788300 
# 
# From -- ./inp_files/6515.got.cif
#   From: 2010.03.12/outbox.cif.g09.slc.cpg/sg57_4_cif.got.tgz:6515.got - 2010.04.16 15:48:40.
