data_PCOD8232615
_publ_section_title
;
Structure prediction by ZEFSAII (Michael W. Deem and Ramdas Pophale) SiO2 
 PCOD8232615
Probable space group: P B C M
;
_chemical_formula_sum "Si O2"
_cell_formula_units_Z 48
_cell_length_a 11.962670
_cell_length_b 11.838384
_cell_length_c 17.404281
_cell_angle_alpha 90.000000
_cell_angle_beta 90.000000
_cell_angle_gamma 90.000000
_cell_volume 2464.771321
_symmetry_space_group_name_H-M "P B C M"
_symmetry_group_IT_number 57
_symmetry_cell_setting 'orthorhombic'
loop_
_space_group_symop_operation_xyz
x,y,z
-x,-y,1/2+z
x,1/2-y,-z
-x,1/2+y,1/2-z
-x,-y,-z
x,y,1/2-z
-x,1/2+y,z
x,1/2-y,1/2+z
loop_
_atom_site_type_symbol
_atom_site_label
_atom_site_fract_x
_atom_site_fract_y
_atom_site_fract_z
Si Si1 0.333163 0.767382 0.911362
Si Si2 0.840137 0.100143 0.658988
Si Si3 0.226265 0.143699 0.341455
Si Si4 0.289003 0.000661 0.837793
Si Si5 0.436945 0.281039 0.162046
Si Si6 0.914311 0.649914 0.658643
O O1 0.242543 0.699789 0.862521
O O2 0.323373 0.899020 0.892532
O O3 0.456025 0.722495 0.892087
O O4 0.307624 0.750000 0.000000
O O5 0.847302 0.091179 0.750000
O O6 0.963008 0.126138 0.624502
O O7 0.796741 0.980733 0.624721
O O8 0.221811 0.144303 0.250000
O O9 0.349028 0.186193 0.366901
O O10 0.131924 0.230230 0.373211
O O11 0.281326 0.957836 0.750000
O O12 0.383292 0.095854 0.844959
O O13 0.169591 0.049388 0.865703
O O14 0.472913 0.256875 0.250000
O O15 0.917423 0.656040 0.750000
#
# Coordination Sequence:
#
# PCOD8232615 Si02
#       6
#     8   8   8   8   8   8
#     4  12  26  38  52  81 120 154 189 228 275 338
#     4  10  20  34  59  87 111 143 186 233 279 330
#     4   8  16  32  56  87 112 135 178 236 287 330
#     4   9  19  38  63  85 109 144 187 236 286 333
#     4   9  19  38  61  82 107 144 191 238 283 327
#     4   8  16  32  59  90 112 137 179 235 288 329
#
# _framework density 19.474423999999999
#
# number of rings (size 3 to 8) (size 9 to 14) (size 15 to 20)
#    0.000    2.667    0.000    3.500    4.667    0.667 
#    0.000    0.833    0.000    0.000    0.000    0.000 
#    0.000    0.000    0.000    0.000    0.000    0.000 
#
# Total GULP energy -595164.635908 kJ/mol
# GULP energy per Si atom -12399.263248 kJ/mol
# Density = 1.943010 g / cm^3
# Si number density = 19.474424 Si / 1000 Ang^3
#
#
#
# Elastic Constant Matrix: (Units=GPa)
#
#
# Indices 1 2 3 4 5 6 
#
# 1 137.4027 44.5223 11.4119 0.0000 0.0000 0.0000
# 2 44.5223 91.5346 10.6810 0.0000 0.0000 0.0000
# 3 11.4119 10.6810 14.3907 0.0000 0.0000 0.0000
# 4 0.0000 0.0000 0.0000 5.2843 0.0000 0.0000
# 5 0.0000 0.0000 0.0000 0.0000 1.0356 0.0000
# 6 0.0000 0.0000 0.0000 0.0000 0.0000 23.2119
#
#
#
# Elastic Compliance Matrix: (Units=1/GPa)
#
#
# Indices 1 2 3 4 5 6 
#
# 1 0.008865 -0.003823 -0.004193 0.000000 0.000000 0.000000
# 2 -0.003823 0.013609 -0.007070 0.000000 0.000000 0.000000
# 3 -0.004193 -0.007070 0.078061 0.000000 0.000000 0.000000
# 4 0.000000 0.000000 0.000000 0.189238 0.000000 0.000000
# 5 0.000000 0.000000 0.000000 0.000000 0.965642 0.000000
# 6 0.000000 0.000000 0.000000 0.000000 0.000000 0.043081
#
#
# Mechanical properties :
#
#
# Convention : Reuss Voigt Hill
#
# Bulk Modulus (GPa) = 14.21152 41.83982 28.02567
# Shear Modulus (GPa) = 3.69789 17.68723 10.69256
#
# Velocity S-wave (km/s) = 1.37948 3.01695 2.34574
# Velocity P-wave (km/s) = 3.13858 5.80234 4.66464
#
# Compressibility (1/GPa) = 0.07036545
#
# Stress axis : x y z
#
# Youngs Moduli (GPa) = 112.80701 73.48054 12.81049
#
# Poissons Ratio (x) = 0.28088 0.05371
# Poissons Ratio (y) = 0.43121 0.09056
# Poissons Ratio (z) = 0.47295 0.51947
#
# Static dielectric constant tensor:
#      x y z
#    x 3.777230 0.000000 0.000000 
#    y 0.000000 3.771410 0.000000 
#    z 0.000000 0.000000 3.027290 
# 
# 
# High freq. dielectric constant tensor:
#      x y z
#    x 1.770490 0.000000 0.000000 
#    y 0.000000 1.768770 0.000000 
#    z 0.000000 0.000000 1.702700 
# 
# From -- ./inp_files/21778.got.cif
#   From: 2010.03.12/outbox.cif.g09.slc.cpg/sg57_11_cif.got.tgz:21778.got - 2010.04.16 15:48:40.
