data_PCOD8232811
_publ_section_title
;
Structure prediction by ZEFSAII (Michael W. Deem and Ramdas Pophale) SiO2 
 PCOD8232811
Probable space group: P B C M
;
_chemical_formula_sum "Si O2"
_cell_formula_units_Z 64
_cell_length_a 11.798869
_cell_length_b 30.106081
_cell_length_c 8.665718
_cell_angle_alpha 90.000000
_cell_angle_beta 90.000000
_cell_angle_gamma 90.000000
_cell_volume 3078.216467
_symmetry_space_group_name_H-M "P B C M"
_symmetry_group_IT_number 57
_symmetry_cell_setting 'orthorhombic'
loop_
_space_group_symop_operation_xyz
x,y,z
-x,-y,1/2+z
x,1/2-y,-z
-x,1/2+y,1/2-z
-x,-y,-z
x,y,1/2-z
-x,1/2+y,z
x,1/2-y,1/2+z
loop_
_atom_site_type_symbol
_atom_site_label
_atom_site_fract_x
_atom_site_fract_y
_atom_site_fract_z
Si Si1 0.612334 0.647328 0.076263
Si Si2 0.563900 0.558395 0.570898
Si Si3 0.674492 0.475540 0.431558
Si Si4 0.176520 0.202121 0.069457
Si Si5 0.013743 0.865959 0.931875
Si Si6 0.592559 0.291832 0.575140
Si Si7 0.928373 0.040799 0.933456
Si Si8 0.170305 0.703910 0.930486
O O1 0.644426 0.631713 0.250000
O O2 0.698460 0.685606 0.021187
O O3 0.485724 0.665521 0.073310
O O4 0.615489 0.606582 0.959571
O O5 0.569361 0.546685 0.750000
O O6 0.647540 0.525458 0.482239
O O7 0.432508 0.554780 0.511474
O O8 0.683037 0.473504 0.250000
O O9 0.797550 0.460423 0.497215
O O10 0.163180 0.208028 0.250000
O O11 0.091528 0.163908 0.009450
O O12 0.148833 0.250000 0.000000
O O13 0.010995 0.874091 0.750000
O O14 0.012264 0.913659 0.013908
O O15 0.124369 0.838837 0.980311
O O16 0.525278 0.250000 0.500000
O O17 0.634143 0.281692 0.750000
O O18 0.696470 0.299042 0.459638
O O19 0.930685 0.037727 0.750000
O O20 0.000000 0.000000 0.000000
O O21 0.141696 0.701203 0.750000
O O22 0.119850 0.750000 0.000000
#
# Coordination Sequence:
#
# PCOD8232811 Si02
#       8
#     8   8   8   8   8   8   8   8
#     4  10  22  38  58  87 123 160 198 246 306 365
#     4  10  21  37  62  94 120 155 202 250 302 365
#     4   9  21  42  63  86 123 161 198 248 311 365
#     4  10  23  42  64  89 123 163 206 256 310 366
#     4  11  24  42  64  92 123 161 208 256 310 372
#     4  10  20  35  56  84 118 157 197 241 296 358
#     4  11  25  44  66  93 127 166 207 258 311 369
#     4  11  22  38  61  89 124 162 203 254 308 366
#
# _framework density 20.791260000000001
#
# number of rings (size 3 to 8) (size 9 to 14) (size 15 to 20)
#    0.000    1.750    0.000    4.125    3.500    5.000 
#    0.000    0.000    0.000    0.000    0.000    0.000 
#    0.000    0.000    0.000    0.000    0.000    0.000 
#
# Total GULP energy -793479.247804 kJ/mol
# GULP energy per Si atom -12398.113247 kJ/mol
# Density = 2.074394 g / cm^3
# Si number density = 20.791260 Si / 1000 Ang^3
#
#
#
# Elastic Constant Matrix: (Units=GPa)
#
#
# Indices 1 2 3 4 5 6 
#
# 1 91.9301 53.5160 27.2968 0.0000 0.0000 0.0000
# 2 53.5160 147.7416 27.6456 0.0000 0.0000 0.0000
# 3 27.2968 27.6456 42.4738 0.0000 0.0000 0.0000
# 4 0.0000 0.0000 0.0000 40.2242 0.0000 0.0000
# 5 0.0000 0.0000 0.0000 0.0000 24.8837 0.0000
# 6 0.0000 0.0000 0.0000 0.0000 0.0000 27.2811
#
#
#
# Elastic Compliance Matrix: (Units=1/GPa)
#
#
# Indices 1 2 3 4 5 6 
#
# 1 0.015495 -0.004269 -0.007179 0.000000 0.000000 0.000000
# 2 -0.004269 0.008884 -0.003038 0.000000 0.000000 0.000000
# 3 -0.007179 -0.003038 0.030136 0.000000 0.000000 0.000000
# 4 0.000000 0.000000 0.000000 0.024861 0.000000 0.000000
# 5 0.000000 0.000000 0.000000 0.000000 0.040187 0.000000
# 6 0.000000 0.000000 0.000000 0.000000 0.000000 0.036655
#
#
# Mechanical properties :
#
#
# Convention : Reuss Voigt Hill
#
# Bulk Modulus (GPa) = 39.15438 55.45135 47.30286
# Shear Modulus (GPa) = 25.81252 30.05695 27.93474
#
# Velocity S-wave (km/s) = 3.52733 3.80630 3.66947
# Velocity P-wave (km/s) = 5.95503 6.78569 6.38389
#
# Compressibility (1/GPa) = 0.02553992
#
# Stress axis : x y z
#
# Youngs Moduli (GPa) = 64.53742 112.56732 33.18336
#
# Poissons Ratio (x) = 0.48058 0.23824
# Poissons Ratio (y) = 0.27553 0.10083
# Poissons Ratio (z) = 0.46334 0.34203
#
# Static dielectric constant tensor:
#      x y z
#    x 3.995410 0.000000 0.000000 
#    y 0.000000 3.791210 0.000000 
#    z 0.000000 0.000000 3.740200 
# 
# 
# High freq. dielectric constant tensor:
#      x y z
#    x 1.817860 0.000000 0.000000 
#    y 0.000000 1.816940 0.000000 
#    z 0.000000 0.000000 1.810140 
# 
# From -- ./inp_files/3768.got.cif
#   From: 2010.03.12/outbox.cif.g09.slc.cpg/sg57_2_cif.got.tgz:3768.got - 2010.04.16 15:48:40.
