data_PCOD8232062
_publ_section_title
;
Structure prediction by ZEFSAII (Michael W. Deem and Ramdas Pophale) SiO2 
 PCOD8232062
Probable space group: P B C M
;
_chemical_formula_sum "Si O2"
_cell_formula_units_Z 56
_cell_length_a 15.102630
_cell_length_b 8.635200
_cell_length_c 21.045072
_cell_angle_alpha 90.000000
_cell_angle_beta 90.000000
_cell_angle_gamma 90.000000
_cell_volume 2744.576872
_symmetry_space_group_name_H-M "P B C M"
_symmetry_group_IT_number 57
_symmetry_cell_setting 'orthorhombic'
loop_
_space_group_symop_operation_xyz
x,y,z
-x,-y,1/2+z
x,1/2-y,-z
-x,1/2+y,1/2-z
-x,-y,-z
x,y,1/2-z
-x,1/2+y,z
x,1/2-y,1/2+z
loop_
_atom_site_type_symbol
_atom_site_label
_atom_site_fract_x
_atom_site_fract_y
_atom_site_fract_z
Si Si1 0.128595 0.082844 0.492014
Si Si2 0.383948 0.274210 0.927807
Si Si3 0.961729 0.411534 0.900686
Si Si4 0.245252 0.508090 0.613499
Si Si5 0.919881 0.113382 0.677087
Si Si6 0.472855 0.984874 0.871181
Si Si7 0.381974 0.803547 0.320221
O O1 0.174609 0.250000 0.500000
O O2 0.040379 0.119724 0.450753
O O3 0.112607 0.004616 0.560167
O O4 0.196526 0.971714 0.454357
O O5 0.303271 0.349521 0.886784
O O6 0.470284 0.386100 0.922654
O O7 0.405429 0.103012 0.903674
O O8 0.355369 0.250000 0.000000
O O9 0.918239 0.256693 0.872283
O O10 0.994822 0.510600 0.840457
O O11 0.168567 0.508776 0.667416
O O12 0.308975 0.654062 0.626665
O O13 0.927340 0.167617 0.750000
O O14 0.413251 0.870882 0.829689
O O15 0.536318 0.078174 0.823954
O O16 0.340161 0.818893 0.250000
#
# Coordination Sequence:
#
# PCOD8232062 Si02
#       7
#     8   8   8   8   8   8   8
#     4  10  19  38  62  89 120 148 196 249 298 366
#     4  10  19  38  58  87 124 159 194 251 298 362
#     4  10  21  37  65  88 112 152 199 250 302 355
#     4  10  23  36  57  85 123 161 190 246 311 348
#     4  11  22  41  60  86 119 158 203 249 303 362
#     4   9  20  35  62  89 112 155 211 239 298 351
#     4  10  19  38  58  85 118 155 201 250 293 354
#
# _framework density 20.403873999999998
#
# number of rings (size 3 to 8) (size 9 to 14) (size 15 to 20)
#    0.000    2.000    1.429    2.143    0.000    0.000 
#    7.714    2.143    0.000    0.000    0.000    0.000 
#    0.000    0.000    0.000    0.000    0.000    0.000 
#
# Total GULP energy -694124.028503 kJ/mol
# GULP energy per Si atom -12395.071938 kJ/mol
# Density = 2.035743 g / cm^3
# Si number density = 20.403874 Si / 1000 Ang^3
#
#
#
# Elastic Constant Matrix: (Units=GPa)
#
#
# Indices 1 2 3 4 5 6 
#
# 1 93.3414 49.2144 48.8791 0.0000 0.0000 0.0000
# 2 49.2144 128.8878 54.1461 0.0000 0.0000 0.0000
# 3 48.8791 54.1461 115.6548 0.0000 0.0000 0.0000
# 4 0.0000 0.0000 0.0000 26.0535 0.0000 0.0000
# 5 0.0000 0.0000 0.0000 0.0000 18.9259 0.0000
# 6 0.0000 0.0000 0.0000 0.0000 0.0000 10.6204
#
#
#
# Elastic Compliance Matrix: (Units=1/GPa)
#
#
# Indices 1 2 3 4 5 6 
#
# 1 0.015154 -0.003854 -0.004600 0.000000 0.000000 0.000000
# 2 -0.003854 0.010638 -0.003352 0.000000 0.000000 0.000000
# 3 -0.004600 -0.003352 0.012160 0.000000 0.000000 0.000000
# 4 0.000000 0.000000 0.000000 0.038383 0.000000 0.000000
# 5 0.000000 0.000000 0.000000 0.000000 0.052838 0.000000
# 6 0.000000 0.000000 0.000000 0.000000 0.000000 0.094158
#
#
# Mechanical properties :
#
#
# Convention : Reuss Voigt Hill
#
# Bulk Modulus (GPa) = 69.73283 71.37368 70.55325
# Shear Modulus (GPa) = 19.86308 23.49626 21.67967
#
# Velocity S-wave (km/s) = 3.12347 3.39714 3.26318
# Velocity P-wave (km/s) = 6.87449 7.10238 6.98936
#
# Compressibility (1/GPa) = 0.01434045
#
# Stress axis : x y z
#
# Youngs Moduli (GPa) = 65.98747 93.99950 82.23756
#
# Poissons Ratio (x) = 0.36226 0.37833
# Poissons Ratio (y) = 0.25431 0.27564
# Poissons Ratio (z) = 0.30357 0.31507
#
# Static dielectric constant tensor:
#      x y z
#    x 3.712170 0.000000 0.000000 
#    y 0.000000 3.713700 0.000000 
#    z 0.000000 0.000000 3.581590 
# 
# 
# High freq. dielectric constant tensor:
#      x y z
#    x 1.791930 0.000000 0.000000 
#    y 0.000000 1.796130 0.000000 
#    z 0.000000 0.000000 1.784770 
# 
# From -- ./inp_files/25388.got.cif
#   From: 2010.03.12/outbox.cif.g09.slc.cpg/sg57_13_cif.got.tgz:25388.got - 2010.04.16 15:48:40.
