data_PCOD8232264
_publ_section_title
;
Structure prediction by ZEFSAII (Michael W. Deem and Ramdas Pophale) SiO2 
 PCOD8232264
Probable space group: P B C M
;
_chemical_formula_sum "Si O2"
_cell_formula_units_Z 64
_cell_length_a 21.325703
_cell_length_b 18.836189
_cell_length_c 8.850633
_cell_angle_alpha 90.000000
_cell_angle_beta 90.000000
_cell_angle_gamma 90.000000
_cell_volume 3555.254777
_symmetry_space_group_name_H-M "P B C M"
_symmetry_group_IT_number 57
_symmetry_cell_setting 'orthorhombic'
loop_
_space_group_symop_operation_xyz
x,y,z
-x,-y,1/2+z
x,1/2-y,-z
-x,1/2+y,1/2-z
-x,-y,-z
x,y,1/2-z
-x,1/2+y,z
x,1/2-y,1/2+z
loop_
_atom_site_type_symbol
_atom_site_label
_atom_site_fract_x
_atom_site_fract_y
_atom_site_fract_z
Si Si1 0.987801 0.576313 0.429174
Si Si2 0.611968 0.679360 0.426270
Si Si3 0.729730 0.633689 0.583431
Si Si4 0.190827 0.924411 0.927411
Si Si5 0.140497 0.079102 0.573111
Si Si6 0.678684 0.476149 0.583505
Si Si7 0.906345 0.327003 0.429323
Si Si8 0.437284 0.028417 0.072749
O O1 0.995978 0.572381 0.250000
O O2 0.918350 0.602927 0.472747
O O3 0.000000 0.500000 0.500000
O O4 0.036480 0.631166 0.497337
O O5 0.581780 0.750000 0.500000
O O6 0.603720 0.685833 0.250000
O O7 0.685983 0.675964 0.466694
O O8 0.576840 0.608532 0.486818
O O9 0.722030 0.668452 0.750000
O O10 0.802538 0.633288 0.532416
O O11 0.709648 0.552635 0.593374
O O12 0.181894 0.908484 0.750000
O O13 0.265182 0.924106 0.969649
O O14 0.158426 0.998765 0.969905
O O15 0.159303 0.863943 0.028177
O O16 0.124081 0.084362 0.750000
O O17 0.654154 0.453896 0.750000
O O18 0.619885 0.475772 0.469977
O O19 0.906098 0.250000 0.500000
O O20 0.914189 0.323637 0.250000
O O21 0.445353 0.028045 0.250000
O O22 0.500000 0.000000 0.000000
#
# Coordination Sequence:
#
# PCOD8232264 Si02
#       8
#     8   8   8   8   8   8   8   8
#     4  12  23  36  55  80 108 141 184 231 277 332
#     4  10  20  33  51  76 106 142 182 223 265 317
#     4   8  15  29  49  74 103 135 167 207 256 307
#     4   9  17  32  55  80 106 135 171 217 266 320
#     4   9  17  31  53  79 106 135 173 219 266 316
#     4   8  15  29  51  78 106 136 167 207 258 306
#     4  12  25  40  57  78 106 142 180 228 285 339
#     4  10  20  33  52  80 112 146 184 226 268 316
#
# _framework density 18.001522000000001
#
# number of rings (size 3 to 8) (size 9 to 14) (size 15 to 20)
#    0.000    2.250    1.250    4.500    0.000    2.500 
#    0.000    3.125    0.000    3.750    0.000    3.500 
#    0.000    0.000    0.000    0.000    0.000    0.000 
#
# Total GULP energy -793373.978740 kJ/mol
# GULP energy per Si atom -12396.468418 kJ/mol
# Density = 1.796055 g / cm^3
# Si number density = 18.001522 Si / 1000 Ang^3
#
#
#
# Elastic Constant Matrix: (Units=GPa)
#
#
# Indices 1 2 3 4 5 6 
#
# 1 132.3704 49.2251 54.1865 0.0000 0.0000 0.0000
# 2 49.2251 85.2425 44.5342 0.0000 0.0000 0.0000
# 3 54.1865 44.5342 100.4573 0.0000 0.0000 0.0000
# 4 0.0000 0.0000 0.0000 25.2219 0.0000 0.0000
# 5 0.0000 0.0000 0.0000 0.0000 33.3238 0.0000
# 6 0.0000 0.0000 0.0000 0.0000 0.0000 17.6162
#
#
#
# Elastic Compliance Matrix: (Units=1/GPa)
#
#
# Indices 1 2 3 4 5 6 
#
# 1 0.010702 -0.004118 -0.003947 0.000000 0.000000 0.000000
# 2 -0.004118 0.016852 -0.005249 0.000000 0.000000 0.000000
# 3 -0.003947 -0.005249 0.014411 0.000000 0.000000 0.000000
# 4 0.000000 0.000000 0.000000 0.039648 0.000000 0.000000
# 5 0.000000 0.000000 0.000000 0.000000 0.030009 0.000000
# 6 0.000000 0.000000 0.000000 0.000000 0.000000 0.056766
#
#
# Mechanical properties :
#
#
# Convention : Reuss Voigt Hill
#
# Bulk Modulus (GPa) = 65.20831 68.21799 66.71315
# Shear Modulus (GPa) = 24.98419 26.57400 25.77909
#
# Velocity S-wave (km/s) = 3.72949 3.84631 3.78835
# Velocity P-wave (km/s) = 7.40593 7.59628 7.50171
#
# Compressibility (1/GPa) = 0.01533547
#
# Stress axis : x y z
#
# Youngs Moduli (GPa) = 93.44442 59.34127 69.39338
#
# Poissons Ratio (x) = 0.24436 0.27389
# Poissons Ratio (y) = 0.38479 0.36428
# Poissons Ratio (z) = 0.36882 0.31151
#
# Static dielectric constant tensor:
#      x y z
#    x 3.516200 0.000000 0.000000 
#    y 0.000000 3.375500 0.000000 
#    z 0.000000 0.000000 3.389270 
# 
# 
# High freq. dielectric constant tensor:
#      x y z
#    x 1.697020 0.000000 0.000000 
#    y 0.000000 1.667490 0.000000 
#    z 0.000000 0.000000 1.698050 
# 
# From -- ./inp_files/8471.got.cif
#   From: 2010.03.12/outbox.cif.g09.slc.cpg/sg57_5_cif.got.tgz:8471.got - 2010.04.16 15:48:40.
