data_PCOD8232092
_publ_section_title
;
Structure prediction by ZEFSAII (Michael W. Deem and Ramdas Pophale) SiO2 
 PCOD8232092
Probable space group: P B C M
;
_chemical_formula_sum "Si O2"
_cell_formula_units_Z 48
_cell_length_a 14.405815
_cell_length_b 9.256719
_cell_length_c 16.774018
_cell_angle_alpha 90.000000
_cell_angle_beta 90.000000
_cell_angle_gamma 90.000000
_cell_volume 2236.825053
_symmetry_space_group_name_H-M "P B C M"
_symmetry_group_IT_number 57
_symmetry_cell_setting 'orthorhombic'
loop_
_space_group_symop_operation_xyz
x,y,z
-x,-y,1/2+z
x,1/2-y,-z
-x,1/2+y,1/2-z
-x,-y,-z
x,y,1/2-z
-x,1/2+y,z
x,1/2-y,1/2+z
loop_
_atom_site_type_symbol
_atom_site_label
_atom_site_fract_x
_atom_site_fract_y
_atom_site_fract_z
Si Si1 0.250665 0.692253 0.658970
Si Si2 0.051052 0.187175 0.657417
Si Si3 0.889553 0.996562 0.589999
Si Si4 0.187246 0.521541 0.413746
Si Si5 0.628014 0.892545 0.462486
Si Si6 0.428830 0.639738 0.929853
O O1 0.236866 0.732128 0.750000
O O2 0.205144 0.537644 0.636729
O O3 0.192636 0.810089 0.608214
O O4 0.361104 0.683731 0.642359
O O5 0.026035 0.213346 0.750000
O O6 0.075788 0.339235 0.616368
O O7 0.136343 0.074794 0.652636
O O8 0.964938 0.118071 0.610875
O O9 0.867874 0.998297 0.496071
O O10 0.294149 0.472748 0.412649
O O11 0.673640 0.750000 0.500000
O O12 0.538261 0.856016 0.406300
O O13 0.594026 0.980464 0.539500
O O14 0.406465 0.750000 0.000000
#
# Coordination Sequence:
#
# PCOD8232092 Si02
#       6
#     8   8   8   8   8   8
#     4  12  24  42  65  94 132 173 216 277 337 386
#     4  12  26  44  65  99 136 170 210 274 346 397
#     4  12  25  46  69  93 127 177 222 271 323 411
#     4  12  24  43  68  98 127 173 229 273 317 396
#     4  10  20  36  67  97 125 164 217 269 312 375
#     4  10  19  39  66  94 126 169 219 264 315 390
#
# _framework density 21.458987
#
# number of rings (size 3 to 8) (size 9 to 14) (size 15 to 20)
#    0.000    0.667    3.333    5.500    0.000    1.333 
#    0.000    1.667    0.000    0.000    0.000    0.000 
#    0.000    0.000    0.000    0.000    0.000    0.000 
#
# Total GULP energy -595165.213454 kJ/mol
# GULP energy per Si atom -12399.275280 kJ/mol
# Density = 2.141015 g / cm^3
# Si number density = 21.458987 Si / 1000 Ang^3
#
#
#
# Elastic Constant Matrix: (Units=GPa)
#
#
# Indices 1 2 3 4 5 6 
#
# 1 115.5748 35.0141 40.0154 0.0000 0.0000 0.0000
# 2 35.0141 108.7231 31.4451 0.0000 0.0000 0.0000
# 3 40.0154 31.4451 95.1461 0.0000 0.0000 0.0000
# 4 0.0000 0.0000 0.0000 27.5566 0.0000 0.0000
# 5 0.0000 0.0000 0.0000 0.0000 15.2658 0.0000
# 6 0.0000 0.0000 0.0000 0.0000 0.0000 36.2987
#
#
#
# Elastic Compliance Matrix: (Units=1/GPa)
#
#
# Indices 1 2 3 4 5 6 
#
# 1 0.010648 -0.002359 -0.003698 0.000000 0.000000 0.000000
# 2 -0.002359 0.010693 -0.002542 0.000000 0.000000 0.000000
# 3 -0.003698 -0.002542 0.012905 0.000000 0.000000 0.000000
# 4 0.000000 0.000000 0.000000 0.036289 0.000000 0.000000
# 5 0.000000 0.000000 0.000000 0.000000 0.065506 0.000000
# 6 0.000000 0.000000 0.000000 0.000000 0.000000 0.027549
#
#
# Mechanical properties :
#
#
# Convention : Reuss Voigt Hill
#
# Bulk Modulus (GPa) = 58.66049 59.15481 58.90765
# Shear Modulus (GPa) = 26.81387 30.02219 28.41803
#
# Velocity S-wave (km/s) = 3.53872 3.74445 3.64303
# Velocity P-wave (km/s) = 6.64019 6.80594 6.72358
#
# Compressibility (1/GPa) = 0.01704725
#
# Stress axis : x y z
#
# Youngs Moduli (GPa) = 93.91727 93.52269 77.48641
#
# Poissons Ratio (x) = 0.22066 0.28657
# Poissons Ratio (y) = 0.22159 0.19693
# Poissons Ratio (z) = 0.34733 0.23769
#
# Static dielectric constant tensor:
#      x y z
#    x 4.252620 0.000000 0.000000 
#    y 0.000000 4.172920 0.000000 
#    z 0.000000 0.000000 3.568990 
# 
# 
# High freq. dielectric constant tensor:
#      x y z
#    x 1.863120 0.000000 0.000000 
#    y 0.000000 1.862140 0.000000 
#    z 0.000000 0.000000 1.804760 
# 
# From -- ./inp_files/22446.got.cif
#   From: 2010.03.12/outbox.cif.g09.slc.cpg/sg57_12_cif.got.tgz:22446.got - 2010.04.16 15:48:40.
