data_PCOD8232879
_publ_section_title
;
Structure prediction by ZEFSAII (Michael W. Deem and Ramdas Pophale) SiO2 
 PCOD8232879
Probable space group: P B C M
;
_chemical_formula_sum "Si O2"
_cell_formula_units_Z 48
_cell_length_a 10.628738
_cell_length_b 12.936974
_cell_length_c 18.143712
_cell_angle_alpha 90.000000
_cell_angle_beta 90.000000
_cell_angle_gamma 90.000000
_cell_volume 2494.827662
_symmetry_space_group_name_H-M "P B C M"
_symmetry_group_IT_number 57
_symmetry_cell_setting 'orthorhombic'
loop_
_space_group_symop_operation_xyz
x,y,z
-x,-y,1/2+z
x,1/2-y,-z
-x,1/2+y,1/2-z
-x,-y,-z
x,y,1/2-z
-x,1/2+y,z
x,1/2-y,1/2+z
loop_
_atom_site_type_symbol
_atom_site_label
_atom_site_fract_x
_atom_site_fract_y
_atom_site_fract_z
Si Si1 0.693022 0.806594 0.573196
Si Si2 0.469933 0.550584 0.423382
Si Si3 0.113338 0.021316 0.443969
Si Si4 0.917650 0.458246 0.834379
Si Si5 0.221587 0.643910 0.461536
Si Si6 0.686631 0.892494 0.166713
O O1 0.641320 0.750000 0.500000
O O2 0.593592 0.889978 0.605358
O O3 0.824154 0.864547 0.553607
O O4 0.710961 0.720584 0.634877
O O5 0.500000 0.500000 0.500000
O O6 0.361898 0.638075 0.429233
O O7 0.425169 0.457981 0.370422
O O8 0.056315 0.003445 0.361506
O O9 0.217589 0.940592 0.471992
O O10 0.000000 0.000000 0.500000
O O11 0.925024 0.417114 0.750000
O O12 0.875196 0.369816 0.892769
O O13 0.819749 0.551093 0.841603
O O14 0.188291 0.750000 0.500000
O O15 0.644085 0.879312 0.250000
#
# Coordination Sequence:
#
# PCOD8232879 Si02
#       6
#     8   8   8   8   8   8
#     4  12  21  35  64  88 116 153 201 242 293 356
#     4  11  20  37  62  87 118 151 192 241 292 347
#     4  10  21  35  54  85 117 147 195 244 289 333
#     4   9  20  40  59  79 117 157 194 240 296 347
#     4  10  20  35  58  86 116 149 193 239 289 345
#     4  10  23  41  60  87 119 158 197 241 296 356
#
# _framework density 19.239806000000002
#
# number of rings (size 3 to 8) (size 9 to 14) (size 15 to 20)
#    0.000    1.667    3.333    2.500    0.000    6.667 
#    0.000    2.500    0.000    0.000    0.000    0.000 
#    0.000    0.000    0.000    0.000    0.000    0.000 
#
# Total GULP energy -594846.816935 kJ/mol
# GULP energy per Si atom -12392.642019 kJ/mol
# Density = 1.919602 g / cm^3
# Si number density = 19.239806 Si / 1000 Ang^3
#
#
#
# Elastic Constant Matrix: (Units=GPa)
#
#
# Indices 1 2 3 4 5 6 
#
# 1 83.1914 36.4466 37.6651 0.0000 0.0000 0.0000
# 2 36.4466 126.9500 66.5122 0.0000 0.0000 0.0000
# 3 37.6651 66.5122 142.2385 0.0000 0.0000 0.0000
# 4 0.0000 0.0000 0.0000 33.5785 0.0000 0.0000
# 5 0.0000 0.0000 0.0000 0.0000 26.9588 0.0000
# 6 0.0000 0.0000 0.0000 0.0000 0.0000 20.8244
#
#
#
# Elastic Compliance Matrix: (Units=1/GPa)
#
#
# Indices 1 2 3 4 5 6 
#
# 1 0.014385 -0.002827 -0.002487 0.000000 0.000000 0.000000
# 2 -0.002827 0.010989 -0.004390 0.000000 0.000000 0.000000
# 3 -0.002487 -0.004390 0.009742 0.000000 0.000000 0.000000
# 4 0.000000 0.000000 0.000000 0.029781 0.000000 0.000000
# 5 0.000000 0.000000 0.000000 0.000000 0.037094 0.000000
# 6 0.000000 0.000000 0.000000 0.000000 0.000000 0.048021
#
#
# Mechanical properties :
#
#
# Convention : Reuss Voigt Hill
#
# Bulk Modulus (GPa) = 63.66337 70.40306 67.03321
# Shear Modulus (GPa) = 28.62797 30.38941 29.50869
#
# Velocity S-wave (km/s) = 3.86159 3.97861 3.92054
# Velocity P-wave (km/s) = 7.28311 7.60116 7.44383
#
# Compressibility (1/GPa) = 0.01570762
#
# Stress axis : x y z
#
# Youngs Moduli (GPa) = 69.51675 91.00344 102.64957
#
# Poissons Ratio (x) = 0.25723 0.25533
# Poissons Ratio (y) = 0.19650 0.45062
# Poissons Ratio (z) = 0.17292 0.39949
#
# Static dielectric constant tensor:
#      x y z
#    x 4.010540 0.000000 0.000000 
#    y 0.000000 3.131990 0.000000 
#    z 0.000000 0.000000 5.493120 
# 
# 
# High freq. dielectric constant tensor:
#      x y z
#    x 1.754030 0.000000 0.000000 
#    y 0.000000 1.738670 0.000000 
#    z 0.000000 0.000000 1.738240 
# 
# From -- ./inp_files/21787.got.cif
#   From: 2010.03.12/outbox.cif.g09.slc.cpg/sg57_11_cif.got.tgz:21787.got - 2010.04.16 15:48:40.
