data_PCOD8232397
_publ_section_title
;
Structure prediction by ZEFSAII (Michael W. Deem and Ramdas Pophale) SiO2 
 PCOD8232397
Probable space group: P B C M
;
_chemical_formula_sum "Si O2"
_cell_formula_units_Z 40
_cell_length_a 15.512259
_cell_length_b 13.624815
_cell_length_c 9.015374
_cell_angle_alpha 90.000000
_cell_angle_beta 90.000000
_cell_angle_gamma 90.000000
_cell_volume 1905.414252
_symmetry_space_group_name_H-M "P B C M"
_symmetry_group_IT_number 57
_symmetry_cell_setting 'orthorhombic'
loop_
_space_group_symop_operation_xyz
x,y,z
-x,-y,1/2+z
x,1/2-y,-z
-x,1/2+y,1/2-z
-x,-y,-z
x,y,1/2-z
-x,1/2+y,z
x,1/2-y,1/2+z
loop_
_atom_site_type_symbol
_atom_site_label
_atom_site_fract_x
_atom_site_fract_y
_atom_site_fract_z
Si Si1 0.199332 0.557156 0.073724
Si Si2 0.962559 0.406679 0.081252
Si Si3 0.144999 0.341958 0.415685
Si Si4 0.546802 0.854213 0.076594
Si Si5 0.628471 0.034826 0.923202
O O1 0.202470 0.570086 0.250000
O O2 0.177091 0.446094 0.020534
O O3 0.123656 0.627486 0.007357
O O4 0.289720 0.586890 0.000141
O O5 0.937064 0.432349 0.250000
O O6 0.040736 0.328865 0.078040
O O7 0.000000 0.500000 0.000000
O O8 0.187457 0.250000 0.500000
O O9 0.179744 0.334875 0.250000
O O10 0.568664 0.846386 0.250000
O O11 0.449822 0.890886 0.049603
O O12 0.559398 0.750000 0.000000
O O13 0.612482 0.930762 0.002524
O O14 0.644881 0.016434 0.750000
#
# Coordination Sequence:
#
# PCOD8232397 Si02
#       5
#     8   8   8   8   8
#     4  10  20  34  52  76 104 136 175 218 264 317
#     4   9  17  31  49  70  96 129 169 209 252 304
#     4   9  19  32  48  72 101 133 171 214 260 311
#     4  10  21  38  60  84 111 144 182 224 274 333
#     4  10  21  37  58  84 112 144 182 226 276 329
#
# _framework density 20.992809000000001
#
# number of rings (size 3 to 8) (size 9 to 14) (size 15 to 20)
#    0.000    2.400    0.000    3.600    0.000    8.000 
#    0.000    3.000    0.000    0.000    0.000    0.000 
#    0.000    0.000    0.000    0.000    0.000    0.000 
#
# Total GULP energy -495823.449605 kJ/mol
# GULP energy per Si atom -12395.586240 kJ/mol
# Density = 2.094503 g / cm^3
# Si number density = 20.992809 Si / 1000 Ang^3
#
#
#
# Elastic Constant Matrix: (Units=GPa)
#
#
# Indices 1 2 3 4 5 6 
#
# 1 82.3249 -24.4496 25.0651 0.0000 0.0000 0.0000
# 2 -24.4496 30.3121 6.9841 0.0000 0.0000 0.0000
# 3 25.0651 6.9841 115.6366 0.0000 0.0000 0.0000
# 4 0.0000 0.0000 0.0000 27.9459 0.0000 0.0000
# 5 0.0000 0.0000 0.0000 0.0000 37.8399 0.0000
# 6 0.0000 0.0000 0.0000 0.0000 0.0000 11.0963
#
#
#
# Elastic Compliance Matrix: (Units=1/GPa)
#
#
# Indices 1 2 3 4 5 6 
#
# 1 0.018403 0.015985 -0.004954 0.000000 0.000000 0.000000
# 2 0.015985 0.047341 -0.006324 0.000000 0.000000 0.000000
# 3 -0.004954 -0.006324 0.010104 0.000000 0.000000 0.000000
# 4 0.000000 0.000000 0.000000 0.035783 0.000000 0.000000
# 5 0.000000 0.000000 0.000000 0.000000 0.026427 0.000000
# 6 0.000000 0.000000 0.000000 0.000000 0.000000 0.090120
#
#
# Mechanical properties :
#
#
# Convention : Reuss Voigt Hill
#
# Bulk Modulus (GPa) = 11.72873 27.05251 19.39062
# Shear Modulus (GPa) = 20.22779 30.08803 25.15791
#
# Velocity S-wave (km/s) = 3.10749 3.78994 3.46556
# Velocity P-wave (km/s) = 4.29820 5.66269 5.02696
#
# Compressibility (1/GPa) = 0.08526071
#
# Stress axis : x y z
#
# Youngs Moduli (GPa) = 54.33931 21.12339 98.97412
#
# Poissons Ratio (x) = -0.33766 0.49036
# Poissons Ratio (y) = -0.86863 0.62593
# Poissons Ratio (z) = 0.26922 0.13359
#
# Static dielectric constant tensor:
#      x y z
#    x 3.983620 0.000000 0.000000 
#    y 0.000000 3.420380 0.000000 
#    z 0.000000 0.000000 3.952150 
# 
# 
# High freq. dielectric constant tensor:
#      x y z
#    x 1.827670 0.000000 0.000000 
#    y 0.000000 1.788630 0.000000 
#    z 0.000000 0.000000 1.832960 
# 
# From -- ./inp_files/4267.got.cif
#   From: 2010.03.12/outbox.cif.g09.slc.cpg/sg57_3_cif.got.tgz:4267.got - 2010.04.16 15:48:40.
