data_PCOD8232150
_publ_section_title
;
Structure prediction by ZEFSAII (Michael W. Deem and Ramdas Pophale) SiO2 
 PCOD8232150
Probable space group: P B C M
;
_chemical_formula_sum "Si O2"
_cell_formula_units_Z 48
_cell_length_a 11.773312
_cell_length_b 26.408730
_cell_length_c 8.846549
_cell_angle_alpha 90.000000
_cell_angle_beta 90.000000
_cell_angle_gamma 90.000000
_cell_volume 2750.553249
_symmetry_space_group_name_H-M "P B C M"
_symmetry_group_IT_number 57
_symmetry_cell_setting 'orthorhombic'
loop_
_space_group_symop_operation_xyz
x,y,z
-x,-y,1/2+z
x,1/2-y,-z
-x,1/2+y,1/2-z
-x,-y,-z
x,y,1/2-z
-x,1/2+y,z
x,1/2-y,1/2+z
loop_
_atom_site_type_symbol
_atom_site_label
_atom_site_fract_x
_atom_site_fract_y
_atom_site_fract_z
Si Si1 0.225311 0.065706 0.425116
Si Si2 0.842070 0.304881 0.429982
Si Si3 0.537223 0.946816 0.429983
Si Si4 0.992378 0.621516 0.076240
Si Si5 0.334089 0.615799 0.581485
Si Si6 0.865275 0.040519 0.919248
O O1 0.261198 0.060480 0.250000
O O2 0.337029 0.070687 0.525803
O O3 0.143153 0.114334 0.450934
O O4 0.152669 0.016671 0.475029
O O5 0.835062 0.250000 0.500000
O O6 0.839753 0.302106 0.250000
O O7 0.959737 0.332264 0.476446
O O8 0.735157 0.337688 0.496339
O O9 0.526799 0.951619 0.250000
O O10 0.453242 0.902018 0.492858
O O11 0.500000 0.000000 0.500000
O O12 0.017846 0.634004 0.250000
O O13 0.052264 0.568562 0.035229
O O14 0.359965 0.634546 0.750000
O O15 0.257894 0.565840 0.580636
O O16 0.917492 0.043130 0.750000
#
# Coordination Sequence:
#
# PCOD8232150 Si02
#       6
#     8   8   8   8   8   8
#     4  10  20  33  47  69 106 144 176 212 251 296
#     4  10  20  37  59  79 101 128 163 213 270 319
#     4  11  20  32  50  73 104 143 182 214 252 304
#     4  10  20  32  49  75 104 133 172 215 257 308
#     4   8  16  31  50  72 102 135 166 208 259 300
#     4   9  16  30  48  67 102 141 172 210 254 296
#
# _framework density 17.451035999999998
#
# number of rings (size 3 to 8) (size 9 to 14) (size 15 to 20)
#    0.000    2.333    1.667    3.000    0.000    2.000 
#    0.000    2.500    0.000    1.000    0.000    4.667 
#    0.000    0.000    0.000    0.000    0.000    0.000 
#
# Total GULP energy -594841.332753 kJ/mol
# GULP energy per Si atom -12392.527766 kJ/mol
# Density = 1.741132 g / cm^3
# Si number density = 17.451036 Si / 1000 Ang^3
#
#
#
# Elastic Constant Matrix: (Units=GPa)
#
#
# Indices 1 2 3 4 5 6 
#
# 1 103.0995 55.0033 40.1240 0.0000 0.0000 0.0000
# 2 55.0033 110.3518 34.9798 0.0000 0.0000 0.0000
# 3 40.1240 34.9798 63.8145 0.0000 0.0000 0.0000
# 4 0.0000 0.0000 0.0000 24.0949 0.0000 0.0000
# 5 0.0000 0.0000 0.0000 0.0000 28.0276 0.0000
# 6 0.0000 0.0000 0.0000 0.0000 0.0000 13.3681
#
#
#
# Elastic Compliance Matrix: (Units=1/GPa)
#
#
# Indices 1 2 3 4 5 6 
#
# 1 0.015170 -0.005492 -0.006528 0.000000 0.000000 0.000000
# 2 -0.005492 0.012956 -0.003649 0.000000 0.000000 0.000000
# 3 -0.006528 -0.003649 0.021775 0.000000 0.000000 0.000000
# 4 0.000000 0.000000 0.000000 0.041503 0.000000 0.000000
# 5 0.000000 0.000000 0.000000 0.000000 0.035679 0.000000
# 6 0.000000 0.000000 0.000000 0.000000 0.000000 0.074805
#
#
# Mechanical properties :
#
#
# Convention : Reuss Voigt Hill
#
# Bulk Modulus (GPa) = 53.86826 59.71999 56.79413
# Shear Modulus (GPa) = 20.88454 22.90871 21.89662
#
# Velocity S-wave (km/s) = 3.46316 3.62711 3.54608
# Velocity P-wave (km/s) = 6.85030 7.19979 7.02722
#
# Compressibility (1/GPa) = 0.01856381
#
# Stress axis : x y z
#
# Youngs Moduli (GPa) = 65.92057 77.18505 45.92472
#
# Poissons Ratio (x) = 0.42390 0.29978
# Poissons Ratio (y) = 0.36203 0.16756
# Poissons Ratio (z) = 0.43031 0.28162
#
# Static dielectric constant tensor:
#      x y z
#    x 3.364340 0.000000 0.000000 
#    y 0.000000 3.114150 0.000000 
#    z 0.000000 0.000000 3.145620 
# 
# 
# High freq. dielectric constant tensor:
#      x y z
#    x 1.673890 0.000000 0.000000 
#    y 0.000000 1.647000 0.000000 
#    z 0.000000 0.000000 1.665150 
# 
# From -- ./inp_files/3325.got.cif
#   From: 2010.03.12/outbox.cif.g09.slc.cpg/sg57_2_cif.got.tgz:3325.got - 2010.04.16 15:48:40.
