data_PCOD8232562
_publ_section_title
;
Structure prediction by ZEFSAII (Michael W. Deem and Ramdas Pophale) SiO2 
 PCOD8232562
Probable space group: P B C M
;
_chemical_formula_sum "Si O2"
_cell_formula_units_Z 56
_cell_length_a 20.625369
_cell_length_b 15.390628
_cell_length_c 9.064459
_cell_angle_alpha 90.000000
_cell_angle_beta 90.000000
_cell_angle_gamma 90.000000
_cell_volume 2877.398131
_symmetry_space_group_name_H-M "P B C M"
_symmetry_group_IT_number 57
_symmetry_cell_setting 'orthorhombic'
loop_
_space_group_symop_operation_xyz
x,y,z
-x,-y,1/2+z
x,1/2-y,-z
-x,1/2+y,1/2-z
-x,-y,-z
x,y,1/2-z
-x,1/2+y,z
x,1/2-y,1/2+z
loop_
_atom_site_type_symbol
_atom_site_label
_atom_site_fract_x
_atom_site_fract_y
_atom_site_fract_z
Si Si1 0.024741 0.085068 0.078722
Si Si2 0.288408 0.014870 0.577178
Si Si3 0.842950 0.989624 0.582043
Si Si4 0.370095 0.337977 0.921484
Si Si5 0.508576 0.409564 0.579813
Si Si6 0.643974 0.162656 0.077409
Si Si7 0.084258 0.832245 0.077547
O O1 0.004991 0.083014 0.250000
O O2 0.103021 0.086363 0.062125
O O3 0.987763 0.163155 0.996508
O O4 0.000000 0.000000 0.000000
O O5 0.295750 0.033051 0.750000
O O6 0.214813 0.031243 0.528876
O O7 0.335119 0.079709 0.491600
O O8 0.308148 0.916408 0.536707
O O9 0.817082 0.990281 0.750000
O O10 0.873442 0.083042 0.542757
O O11 0.351727 0.332599 0.750000
O O12 0.446920 0.348149 0.945688
O O13 0.346526 0.250000 0.000000
O O14 0.500000 0.500000 0.500000
O O15 0.519351 0.432509 0.750000
O O16 0.571865 0.360088 0.518330
O O17 0.643313 0.180940 0.250000
O O18 0.669544 0.250000 0.000000
O O19 0.075854 0.816547 0.250000
O O20 0.119402 0.750000 0.000000
#
# Coordination Sequence:
#
# PCOD8232562 Si02
#       7
#     8   8   8   8   8   8   8
#     4   9  17  32  54  79 107 139 176 221 268 321
#     4  11  23  39  59  83 116 155 197 244 287 343
#     4   9  20  37  56  79 110 148 189 228 275 335
#     4  11  23  39  62  87 113 150 191 240 297 350
#     4  10  20  36  59  86 115 147 186 236 293 348
#     4  10  22  38  56  83 116 150 191 236 286 344
#     4  10  20  34  55  84 116 148 184 230 278 332
#
# _framework density 19.462026999999999
#
# number of rings (size 3 to 8) (size 9 to 14) (size 15 to 20)
#    0.000    2.000    1.429    3.000    0.000    6.286 
#    0.000    3.571    0.000    3.429    0.000    0.000 
#    0.000    0.000    0.000    0.000    0.000    0.000 
#
# Total GULP energy -694354.998753 kJ/mol
# GULP energy per Si atom -12399.196406 kJ/mol
# Density = 1.941773 g / cm^3
# Si number density = 19.462027 Si / 1000 Ang^3
#
#
#
# Elastic Constant Matrix: (Units=GPa)
#
#
# Indices 1 2 3 4 5 6 
#
# 1 72.7783 -4.9533 30.4629 0.0000 0.0000 0.0000
# 2 -4.9533 58.3018 29.0365 0.0000 0.0000 0.0000
# 3 30.4629 29.0365 95.0796 0.0000 0.0000 0.0000
# 4 0.0000 0.0000 0.0000 38.0629 0.0000 0.0000
# 5 0.0000 0.0000 0.0000 0.0000 29.9805 0.0000
# 6 0.0000 0.0000 0.0000 0.0000 0.0000 15.7773
#
#
#
# Elastic Compliance Matrix: (Units=1/GPa)
#
#
# Indices 1 2 3 4 5 6 
#
# 1 0.016976 0.004896 -0.006934 0.000000 0.000000 0.000000
# 2 0.004896 0.021641 -0.008177 0.000000 0.000000 0.000000
# 3 -0.006934 -0.008177 0.015236 0.000000 0.000000 0.000000
# 4 0.000000 0.000000 0.000000 0.026272 0.000000 0.000000
# 5 0.000000 0.000000 0.000000 0.000000 0.033355 0.000000
# 6 0.000000 0.000000 0.000000 0.000000 0.000000 0.063382
#
#
# Mechanical properties :
#
#
# Convention : Reuss Voigt Hill
#
# Bulk Modulus (GPa) = 29.92083 37.25021 33.58552
# Shear Modulus (GPa) = 23.98828 28.20504 26.09666
#
# Velocity S-wave (km/s) = 3.51460 3.81101 3.66580
# Velocity P-wave (km/s) = 5.64599 6.20859 5.93396
#
# Compressibility (1/GPa) = 0.03342154
#
# Stress axis : x y z
#
# Youngs Moduli (GPa) = 58.90669 46.20907 65.63188
#
# Poissons Ratio (x) = -0.22623 0.45510
# Poissons Ratio (y) = -0.28839 0.53670
# Poissons Ratio (z) = 0.40847 0.37787
#
# Static dielectric constant tensor:
#      x y z
#    x 3.681960 0.000000 0.000000 
#    y 0.000000 3.569740 0.000000 
#    z 0.000000 0.000000 3.910100 
# 
# 
# High freq. dielectric constant tensor:
#      x y z
#    x 1.751200 0.000000 0.000000 
#    y 0.000000 1.752110 0.000000 
#    z 0.000000 0.000000 1.764510 
# 
# From -- ./inp_files/8174.got.cif
#   From: 2010.03.12/outbox.cif.g09.slc.cpg/sg57_5_cif.got.tgz:8174.got - 2010.04.16 15:48:40.
