data_PCOD8232857
_publ_section_title
;
Structure prediction by ZEFSAII (Michael W. Deem and Ramdas Pophale) SiO2 
 PCOD8232857
Probable space group: P B C M
;
_chemical_formula_sum "Si O2"
_cell_formula_units_Z 64
_cell_length_a 14.843451
_cell_length_b 23.829278
_cell_length_c 9.098052
_cell_angle_alpha 90.000000
_cell_angle_beta 90.000000
_cell_angle_gamma 90.000000
_cell_volume 3218.060331
_symmetry_space_group_name_H-M "P B C M"
_symmetry_group_IT_number 57
_symmetry_cell_setting 'orthorhombic'
loop_
_space_group_symop_operation_xyz
x,y,z
-x,-y,1/2+z
x,1/2-y,-z
-x,1/2+y,1/2-z
-x,-y,-z
x,y,1/2-z
-x,1/2+y,z
x,1/2-y,1/2+z
loop_
_atom_site_type_symbol
_atom_site_label
_atom_site_fract_x
_atom_site_fract_y
_atom_site_fract_z
Si Si1 0.906092 0.003947 0.579586
Si Si2 0.009046 0.690646 0.578026
Si Si3 0.860828 0.619575 0.081957
Si Si4 0.357842 0.604294 0.077392
Si Si5 0.545559 0.632094 0.577326
Si Si6 0.588619 0.512786 0.583594
Si Si7 0.306734 0.304775 0.578813
Si Si8 0.181578 0.618404 0.921567
O O1 0.926851 0.013056 0.750000
O O2 0.850717 0.946802 0.549232
O O3 0.851868 0.057753 0.520155
O O4 0.000000 0.000000 0.500000
O O5 0.997443 0.750000 0.500000
O O6 0.993714 0.699551 0.750000
O O7 0.107409 0.665617 0.544128
O O8 0.935191 0.646681 0.522637
O O9 0.891254 0.630062 0.250000
O O10 0.763497 0.645483 0.051151
O O11 0.365912 0.617975 0.250000
O O12 0.340504 0.536965 0.046472
O O13 0.447947 0.625157 0.996448
O O14 0.271443 0.635757 0.010140
O O15 0.532806 0.644860 0.750000
O O16 0.612054 0.577777 0.551077
O O17 0.597495 0.682334 0.497504
O O18 0.500000 0.500000 0.500000
O O19 0.559574 0.506383 0.750000
O O20 0.265940 0.250000 0.500000
O O21 0.322614 0.293130 0.750000
O O22 0.205224 0.615804 0.750000
#
# Coordination Sequence:
#
# PCOD8232857 Si02
#       8
#     8   8   8   8   8   8   8   8
#     4  10  20  37  59  88 124 160 197 243 300 361
#     4  11  23  40  62  86 115 154 199 247 294 348
#     4  10  22  39  62  90 121 156 196 243 299 359
#     4  10  20  35  57  86 118 154 196 241 290 350
#     4  10  20  37  59  83 114 152 193 241 293 347
#     4   8  16  30  49  77 109 142 181 225 277 334
#     4  11  24  41  60  86 117 154 199 248 298 355
#     4  10  22  38  57  86 124 161 198 243 299 357
#
# _framework density 19.887758000000002
#
# number of rings (size 3 to 8) (size 9 to 14) (size 15 to 20)
#    0.000    2.000    1.250    1.875    1.750    4.500 
#    0.000    0.625    0.000    1.500    0.000    0.000 
#    0.000    0.000    0.000    0.000    0.000    0.000 
#
# Total GULP energy -793262.598746 kJ/mol
# GULP energy per Si atom -12394.728105 kJ/mol
# Density = 1.984249 g / cm^3
# Si number density = 19.887758 Si / 1000 Ang^3
#
#
#
# Elastic Constant Matrix: (Units=GPa)
#
#
# Indices 1 2 3 4 5 6 
#
# 1 82.2001 9.1981 41.9915 0.0000 0.0000 0.0000
# 2 9.1981 63.5269 23.4564 0.0000 0.0000 0.0000
# 3 41.9915 23.4564 86.0771 0.0000 0.0000 0.0000
# 4 0.0000 0.0000 0.0000 26.8428 0.0000 0.0000
# 5 0.0000 0.0000 0.0000 0.0000 34.0172 0.0000
# 6 0.0000 0.0000 0.0000 0.0000 0.0000 24.4273
#
#
#
# Elastic Compliance Matrix: (Units=1/GPa)
#
#
# Indices 1 2 3 4 5 6 
#
# 1 0.016227 0.000638 -0.008090 0.000000 0.000000 0.000000
# 2 0.000638 0.017527 -0.005087 0.000000 0.000000 0.000000
# 3 -0.008090 -0.005087 0.016950 0.000000 0.000000 0.000000
# 4 0.000000 0.000000 0.000000 0.037254 0.000000 0.000000
# 5 0.000000 0.000000 0.000000 0.000000 0.029397 0.000000
# 6 0.000000 0.000000 0.000000 0.000000 0.000000 0.040938
#
#
# Mechanical properties :
#
#
# Convention : Reuss Voigt Hill
#
# Bulk Modulus (GPa) = 39.02372 42.34402 40.68387
# Shear Modulus (GPa) = 26.05335 27.53466 26.79400
#
# Velocity S-wave (km/s) = 3.62335 3.72493 3.67449
# Velocity P-wave (km/s) = 6.09667 6.31172 6.20513
#
# Compressibility (1/GPa) = 0.02562544
#
# Stress axis : x y z
#
# Youngs Moduli (GPa) = 61.62694 57.05321 58.99616
#
# Poissons Ratio (x) = -0.03637 0.47726
# Poissons Ratio (y) = -0.03929 0.30013
# Poissons Ratio (z) = 0.49854 0.29025
#
# Static dielectric constant tensor:
#      x y z
#    x 3.384510 0.000000 0.000000 
#    y 0.000000 3.839120 0.000000 
#    z 0.000000 0.000000 3.627220 
# 
# 
# High freq. dielectric constant tensor:
#      x y z
#    x 1.765650 0.000000 0.000000 
#    y 0.000000 1.774990 0.000000 
#    z 0.000000 0.000000 1.782100 
# 
# From -- ./inp_files/5571.got.cif
#   From: 2010.03.12/outbox.cif.g09.slc.cpg/sg57_3_cif.got.tgz:5571.got - 2010.04.16 15:48:40.
