data_PCOD8232398
_publ_section_title
;
Structure prediction by ZEFSAII (Michael W. Deem and Ramdas Pophale) SiO2 
 PCOD8232398
Probable space group: P B C M
;
_chemical_formula_sum "Si O2"
_cell_formula_units_Z 40
_cell_length_a 15.430121
_cell_length_b 13.354675
_cell_length_c 9.017868
_cell_angle_alpha 90.000000
_cell_angle_beta 90.000000
_cell_angle_gamma 90.000000
_cell_volume 1858.260217
_symmetry_space_group_name_H-M "P B C M"
_symmetry_group_IT_number 57
_symmetry_cell_setting 'orthorhombic'
loop_
_space_group_symop_operation_xyz
x,y,z
-x,-y,1/2+z
x,1/2-y,-z
-x,1/2+y,1/2-z
-x,-y,-z
x,y,1/2-z
-x,1/2+y,z
x,1/2-y,1/2+z
loop_
_atom_site_type_symbol
_atom_site_label
_atom_site_fract_x
_atom_site_fract_y
_atom_site_fract_z
Si Si1 0.622989 0.060141 0.923725
Si Si2 0.036183 0.904335 0.418124
Si Si3 0.457599 0.350264 0.923835
Si Si4 0.851384 0.843131 0.415143
Si Si5 0.199211 0.936861 0.926442
O O1 0.625886 0.084945 0.750000
O O2 0.608741 0.941610 0.951872
O O3 0.548208 0.124935 0.998418
O O4 0.710809 0.096338 0.001803
O O5 0.063343 0.930602 0.250000
O O6 0.121779 0.866903 0.507547
O O7 0.955981 0.827158 0.418823
O O8 0.000000 0.000000 0.500000
O O9 0.473049 0.332660 0.750000
O O10 0.419107 0.250000 0.000000
O O11 0.808021 0.750000 0.500000
O O12 0.815128 0.837152 0.250000
O O13 0.821338 0.949677 0.480782
O O14 0.201684 0.925264 0.750000
#
# Coordination Sequence:
#
# PCOD8232398 Si02
#       5
#     8   8   8   8   8
#     4  10  21  37  58  84 112 145 184 226 275 330
#     4   9  17  31  49  70  96 130 170 209 253 306
#     4  10  21  38  60  84 112 146 182 224 275 332
#     4   9  19  32  48  72 102 135 172 215 262 313
#     4  10  20  34  52  76 104 136 175 219 266 317
#
# _framework density 21.525511000000002
#
# number of rings (size 3 to 8) (size 9 to 14) (size 15 to 20)
#    0.000    2.400    0.000    3.600    0.000    8.000 
#    0.000    5.000    0.000    2.400    0.000    0.000 
#    0.000    0.000    0.000    0.000    0.000    0.000 
#
# Total GULP energy -495795.015690 kJ/mol
# GULP energy per Si atom -12394.875392 kJ/mol
# Density = 2.147652 g / cm^3
# Si number density = 21.525511 Si / 1000 Ang^3
#
#
#
# Elastic Constant Matrix: (Units=GPa)
#
#
# Indices 1 2 3 4 5 6 
#
# 1 76.0474 -29.7707 23.0303 0.0000 0.0000 0.0000
# 2 -29.7707 32.4467 9.6126 0.0000 0.0000 0.0000
# 3 23.0303 9.6126 123.0835 0.0000 0.0000 0.0000
# 4 0.0000 0.0000 0.0000 31.5522 0.0000 0.0000
# 5 0.0000 0.0000 0.0000 0.0000 35.7066 0.0000
# 6 0.0000 0.0000 0.0000 0.0000 0.0000 10.2604
#
#
#
# Elastic Compliance Matrix: (Units=1/GPa)
#
#
# Indices 1 2 3 4 5 6 
#
# 1 0.024817 0.024718 -0.006574 0.000000 0.000000 0.000000
# 2 0.024718 0.056169 -0.009012 0.000000 0.000000 0.000000
# 3 -0.006574 -0.009012 0.010058 0.000000 0.000000 0.000000
# 4 0.000000 0.000000 0.000000 0.031694 0.000000 0.000000
# 5 0.000000 0.000000 0.000000 0.000000 0.028006 0.000000
# 6 0.000000 0.000000 0.000000 0.000000 0.000000 0.097462
#
#
# Mechanical properties :
#
#
# Convention : Reuss Voigt Hill
#
# Bulk Modulus (GPa) = 9.14842 26.36911 17.75876
# Shear Modulus (GPa) = 18.77035 30.75088 24.76061
#
# Velocity S-wave (km/s) = 2.95618 3.78375 3.39527
# Velocity P-wave (km/s) = 3.98889 5.60052 4.86195
#
# Compressibility (1/GPa) = 0.10930854
#
# Stress axis : x y z
#
# Youngs Moduli (GPa) = 40.29500 17.80349 99.41915
#
# Poissons Ratio (x) = -0.44006 0.65358
# Poissons Ratio (y) = -0.99600 0.89593
# Poissons Ratio (z) = 0.26490 0.16044
#
# Static dielectric constant tensor:
#      x y z
#    x 3.909150 0.000000 0.000000 
#    y 0.000000 3.610940 0.000000 
#    z 0.000000 0.000000 4.075180 
# 
# 
# High freq. dielectric constant tensor:
#      x y z
#    x 1.839760 0.000000 0.000000 
#    y 0.000000 1.819720 0.000000 
#    z 0.000000 0.000000 1.854650 
# 
# From -- ./inp_files/4294.got.cif
#   From: 2010.03.12/outbox.cif.g09.slc.cpg/sg57_3_cif.got.tgz:4294.got - 2010.04.16 15:48:40.
