data_PCOD8232063
_publ_section_title
;
Structure prediction by ZEFSAII (Michael W. Deem and Ramdas Pophale) SiO2 
 PCOD8232063
Probable space group: P B C M
;
_chemical_formula_sum "Si O2"
_cell_formula_units_Z 56
_cell_length_a 5.410042
_cell_length_b 28.732463
_cell_length_c 16.766585
_cell_angle_alpha 90.000000
_cell_angle_beta 90.000000
_cell_angle_gamma 90.000000
_cell_volume 2606.262215
_symmetry_space_group_name_H-M "P B C M"
_symmetry_group_IT_number 57
_symmetry_cell_setting 'orthorhombic'
loop_
_space_group_symop_operation_xyz
x,y,z
-x,-y,1/2+z
x,1/2-y,-z
-x,1/2+y,1/2-z
-x,-y,-z
x,y,1/2-z
-x,1/2+y,z
x,1/2-y,1/2+z
loop_
_atom_site_type_symbol
_atom_site_label
_atom_site_fract_x
_atom_site_fract_y
_atom_site_fract_z
Si Si1 0.266359 0.705071 0.057309
Si Si2 0.936527 0.485143 0.658744
Si Si3 0.896946 0.416640 0.163108
Si Si4 0.553501 0.537225 0.067838
Si Si5 0.255917 0.333981 0.337175
Si Si6 0.227535 0.263277 0.592660
Si Si7 0.423018 0.618998 0.967102
O O1 0.516808 0.708764 0.111031
O O2 0.015293 0.705263 0.109916
O O3 0.256839 0.750000 0.000000
O O4 0.248637 0.655625 0.012299
O O5 0.964301 0.468914 0.750000
O O6 0.687738 0.462102 0.624869
O O7 0.906364 0.541427 0.652044
O O8 0.189252 0.471350 0.613218
O O9 0.764251 0.423713 0.250000
O O10 0.712608 0.419024 0.088730
O O11 0.014152 0.365703 0.161519
O O12 0.500000 0.500000 0.000000
O O13 0.581293 0.588664 0.029278
O O14 0.385538 0.339554 0.250000
O O15 0.189009 0.280453 0.349584
O O16 0.420824 0.348163 0.410578
O O17 0.237844 0.250000 0.500000
#
# Coordination Sequence:
#
# PCOD8232063 Si02
#       7
#     8   8   8   8   8   8   8
#     4  10  20  36  61  86 117 160 210 256 307 380
#     4  11  25  47  67  93 137 187 223 280 343 400
#     4  10  22  37  60  92 134 173 210 266 345 407
#     4  12  25  42  69 103 136 170 234 280 332 403
#     4  11  23  38  61  97 134 171 209 271 348 409
#     4  10  19  38  58  85 123 159 212 249 306 386
#     4  12  23  37  66  95 133 167 221 277 329 394
#
# _framework density 21.486709999999999
#
# number of rings (size 3 to 8) (size 9 to 14) (size 15 to 20)
#    0.000    1.143    4.286    3.857    2.000    0.000 
#    0.000    0.000    0.000    5.143    0.000    0.000 
#    0.000    0.000    0.000    0.000    0.000    0.000 
#
# Total GULP energy -693888.599163 kJ/mol
# GULP energy per Si atom -12390.867842 kJ/mol
# Density = 2.143781 g / cm^3
# Si number density = 21.486710 Si / 1000 Ang^3
#
#
#
# Elastic Constant Matrix: (Units=GPa)
#
#
# Indices 1 2 3 4 5 6 
#
# 1 150.4930 20.9970 40.9076 0.0000 0.0000 0.0000
# 2 20.9970 79.8696 42.2158 0.0000 0.0000 0.0000
# 3 40.9076 42.2158 87.8502 0.0000 0.0000 0.0000
# 4 0.0000 0.0000 0.0000 34.7993 0.0000 0.0000
# 5 0.0000 0.0000 0.0000 0.0000 21.4793 0.0000
# 6 0.0000 0.0000 0.0000 0.0000 0.0000 22.2444
#
#
#
# Elastic Compliance Matrix: (Units=1/GPa)
#
#
# Indices 1 2 3 4 5 6 
#
# 1 0.007610 -0.000171 -0.003461 0.000000 0.000000 0.000000
# 2 -0.000171 0.016787 -0.007987 0.000000 0.000000 0.000000
# 3 -0.003461 -0.007987 0.016833 0.000000 0.000000 0.000000
# 4 0.000000 0.000000 0.000000 0.028736 0.000000 0.000000
# 5 0.000000 0.000000 0.000000 0.000000 0.046556 0.000000
# 6 0.000000 0.000000 0.000000 0.000000 0.000000 0.044955
#
#
# Mechanical properties :
#
#
# Convention : Reuss Voigt Hill
#
# Bulk Modulus (GPa) = 55.58469 58.49485 57.03977
# Shear Modulus (GPa) = 26.21738 29.97745 28.09741
#
# Velocity S-wave (km/s) = 3.49688 3.73924 3.62009
# Velocity P-wave (km/s) = 6.49844 6.77683 6.63909
#
# Compressibility (1/GPa) = 0.01799057
#
# Stress axis : x y z
#
# Youngs Moduli (GPa) = 131.41430 59.56946 59.40725
#
# Poissons Ratio (x) = 0.01019 0.20562
# Poissons Ratio (y) = 0.02247 0.47450
# Poissons Ratio (z) = 0.45485 0.47580
#
# Static dielectric constant tensor:
#      x y z
#    x 4.675860 0.000000 0.000000 
#    y 0.000000 3.865050 0.000000 
#    z 0.000000 0.000000 5.535880 
# 
# 
# High freq. dielectric constant tensor:
#      x y z
#    x 1.843020 0.000000 0.000000 
#    y 0.000000 1.836820 0.000000 
#    z 0.000000 0.000000 1.824920 
# 
# From -- ./inp_files/15259.got.cif
#   From: 2010.03.12/outbox.cif.g09.slc.cpg/sg57_8_cif.got.tgz:15259.got - 2010.04.16 15:48:40.
