data_PCOD8232785
_publ_section_title
;
Structure prediction by ZEFSAII (Michael W. Deem and Ramdas Pophale) SiO2 
 PCOD8232785
Probable space group: P B C M
;
_chemical_formula_sum "Si O2"
_cell_formula_units_Z 64
_cell_length_a 20.954287
_cell_length_b 18.558297
_cell_length_c 8.821978
_cell_angle_alpha 90.000000
_cell_angle_beta 90.000000
_cell_angle_gamma 90.000000
_cell_volume 3430.654472
_symmetry_space_group_name_H-M "P B C M"
_symmetry_group_IT_number 57
_symmetry_cell_setting 'orthorhombic'
loop_
_space_group_symop_operation_xyz
x,y,z
-x,-y,1/2+z
x,1/2-y,-z
-x,1/2+y,1/2-z
-x,-y,-z
x,y,1/2-z
-x,1/2+y,z
x,1/2-y,1/2+z
loop_
_atom_site_type_symbol
_atom_site_label
_atom_site_fract_x
_atom_site_fract_y
_atom_site_fract_z
Si Si1 0.805958 0.027756 0.075167
Si Si2 0.504953 0.577148 0.927441
Si Si3 0.388329 0.824055 0.071444
Si Si4 0.254114 0.675923 0.072520
Si Si5 0.118384 0.326628 0.927793
Si Si6 0.940058 0.538365 0.572692
Si Si7 0.623266 0.828221 0.429610
Si Si8 0.746959 0.895951 0.573416
O O1 0.790307 0.010714 0.250000
O O2 0.795059 0.111678 0.037090
O O3 0.879149 0.011443 0.036437
O O4 0.759077 0.978561 0.974530
O O5 0.512396 0.567614 0.750000
O O6 0.439869 0.616576 0.971870
O O7 0.565707 0.621516 0.989739
O O8 0.500000 0.500000 0.000000
O O9 0.379924 0.814479 0.250000
O O10 0.413136 0.750000 0.000000
O O11 0.321391 0.846925 0.998970
O O12 0.263431 0.688640 0.250000
O O13 0.227744 0.750000 0.000000
O O14 0.106241 0.323355 0.750000
O O15 0.190755 0.348988 0.966042
O O16 0.103424 0.250000 0.000000
O O17 0.069162 0.383365 0.999049
O O18 0.951286 0.548367 0.750000
O O19 0.000000 0.500000 0.500000
O O20 0.614599 0.750000 0.500000
O O21 0.621960 0.820106 0.250000
O O22 0.689619 0.863236 0.478231
O O23 0.729830 0.893188 0.750000
#
# Coordination Sequence:
#
# PCOD8232785 Si02
#       8
#     8   8   8   8   8   8   8   8
#     4   9  20  37  57  81 113 149 184 227 277 327
#     4  10  24  40  55  77 106 140 182 227 275 328
#     4  10  20  36  56  79 103 136 179 225 274 328
#     4  10  20  35  56  82 109 141 180 226 278 328
#     4  10  20  35  56  84 115 148 188 230 276 329
#     4  10  20  37  59  83 114 152 190 230 274 325
#     4  11  23  39  57  80 110 145 183 225 276 333
#     4  10  21  35  56  85 114 146 183 228 278 331
#
# _framework density 18.655332000000001
#
# number of rings (size 3 to 8) (size 9 to 14) (size 15 to 20)
#    0.000    2.000    0.000    3.750    1.750    6.000 
#    0.000    0.625    0.000    1.500    0.000    0.000 
#    0.000    0.000    0.000    0.000    0.000    0.000 
#
# Total GULP energy -793810.319362 kJ/mol
# GULP energy per Si atom -12403.286240 kJ/mol
# Density = 1.861287 g / cm^3
# Si number density = 18.655332 Si / 1000 Ang^3
#
#
#
# Elastic Constant Matrix: (Units=GPa)
#
#
# Indices 1 2 3 4 5 6 
#
# 1 96.4813 85.4475 50.7738 0.0000 0.0000 0.0000
# 2 85.4475 170.5365 63.5546 0.0000 0.0000 0.0000
# 3 50.7738 63.5546 89.2658 0.0000 0.0000 0.0000
# 4 0.0000 0.0000 0.0000 37.5001 0.0000 0.0000
# 5 0.0000 0.0000 0.0000 0.0000 29.3081 0.0000
# 6 0.0000 0.0000 0.0000 0.0000 0.0000 27.5128
#
#
#
# Elastic Compliance Matrix: (Units=1/GPa)
#
#
# Indices 1 2 3 4 5 6 
#
# 1 0.020745 -0.008163 -0.005988 0.000000 0.000000 0.000000
# 2 -0.008163 0.011194 -0.003327 0.000000 0.000000 0.000000
# 3 -0.005988 -0.003327 0.016977 0.000000 0.000000 0.000000
# 4 0.000000 0.000000 0.000000 0.026667 0.000000 0.000000
# 5 0.000000 0.000000 0.000000 0.000000 0.034120 0.000000
# 6 0.000000 0.000000 0.000000 0.000000 0.000000 0.036347
#
#
# Mechanical properties :
#
#
# Convention : Reuss Voigt Hill
#
# Bulk Modulus (GPa) = 71.62897 83.98172 77.80535
# Shear Modulus (GPa) = 26.93128 29.29805 28.11466
#
# Velocity S-wave (km/s) = 3.80363 3.96724 3.88630
# Velocity P-wave (km/s) = 7.60062 8.13023 7.86988
#
# Compressibility (1/GPa) = 0.01396083
#
# Stress axis : x y z
#
# Youngs Moduli (GPa) = 48.20373 89.33718 58.90365
#
# Poissons Ratio (x) = 0.72924 0.35272
# Poissons Ratio (y) = 0.39348 0.19594
# Poissons Ratio (z) = 0.28865 0.29718
#
# Static dielectric constant tensor:
#      x y z
#    x 3.371000 0.000000 0.000000 
#    y 0.000000 3.468230 0.000000 
#    z 0.000000 0.000000 3.518910 
# 
# 
# High freq. dielectric constant tensor:
#      x y z
#    x 1.716560 0.000000 0.000000 
#    y 0.000000 1.733900 0.000000 
#    z 0.000000 0.000000 1.736030 
# 
# From -- ./inp_files/8546.got.cif
#   From: 2010.03.12/outbox.cif.g09.slc.cpg/sg57_5_cif.got.tgz:8546.got - 2010.04.16 15:48:40.
