data_PCOD8232852
_publ_section_title
;
Structure prediction by ZEFSAII (Michael W. Deem and Ramdas Pophale) SiO2 
 PCOD8232852
Probable space group: P B C M
;
_chemical_formula_sum "Si O2"
_cell_formula_units_Z 64
_cell_length_a 11.535356
_cell_length_b 18.526537
_cell_length_c 15.360336
_cell_angle_alpha 90.000000
_cell_angle_beta 90.000000
_cell_angle_gamma 90.000000
_cell_volume 3282.660475
_symmetry_space_group_name_H-M "P B C M"
_symmetry_group_IT_number 57
_symmetry_cell_setting 'orthorhombic'
loop_
_space_group_symop_operation_xyz
x,y,z
-x,-y,1/2+z
x,1/2-y,-z
-x,1/2+y,1/2-z
-x,-y,-z
x,y,1/2-z
-x,1/2+y,z
x,1/2-y,1/2+z
loop_
_atom_site_type_symbol
_atom_site_label
_atom_site_fract_x
_atom_site_fract_y
_atom_site_fract_z
Si Si1 0.418416 0.569057 0.002017
Si Si2 0.890802 0.202733 0.651942
Si Si3 0.478478 0.205325 0.086973
Si Si4 0.740375 0.870045 0.847364
Si Si5 0.198608 0.487707 0.520428
Si Si6 0.005682 0.908550 0.033901
Si Si7 0.630234 0.328953 0.348162
Si Si8 0.001722 0.644822 0.346278
O O1 0.457069 0.628584 0.072467
O O2 0.290282 0.539908 0.027406
O O3 0.500000 0.500000 0.000000
O O4 0.420171 0.607162 0.907504
O O5 0.909346 0.173274 0.750000
O O6 0.759997 0.189510 0.619776
O O7 0.981152 0.165437 0.586000
O O8 0.915462 0.286831 0.647500
O O9 0.353531 0.190564 0.128574
O O10 0.556096 0.255185 0.149192
O O11 0.457536 0.250000 0.000000
O O12 0.716202 0.897995 0.750000
O O13 0.866455 0.832656 0.854798
O O14 0.731335 0.939550 0.910038
O O15 0.126647 0.436886 0.452720
O O16 0.101285 0.535517 0.570841
O O17 0.031746 0.904595 0.929297
O O18 0.629551 0.358058 0.250000
O O19 0.020962 0.607858 0.250000
#
# Coordination Sequence:
#
# PCOD8232852 Si02
#       8
#     8   8   8   8   8   8   8   8
#     4  11  21  39  59  85 118 150 194 243 283 345
#     4  10  20  35  57  86 112 145 190 233 286 348
#     4  10  22  36  59  86 113 155 192 236 287 346
#     4  10  20  37  57  80 112 148 192 241 283 339
#     4  10  21  35  54  84 108 147 192 228 284 345
#     4  10  20  35  58  81 112 151 183 235 289 345
#     4  10  22  39  60  86 115 149 194 242 287 340
#     4   9  20  35  55  84 111 144 190 237 285 343
#
# _framework density 19.496382000000001
#
# number of rings (size 3 to 8) (size 9 to 14) (size 15 to 20)
#    0.000    2.000    2.500    0.750    1.750    4.000 
#    0.000    1.875    0.000    2.250    0.000    0.000 
#    0.000    0.000    0.000    0.000    0.000    0.000 
#
# Total GULP energy -793231.198928 kJ/mol
# GULP energy per Si atom -12394.237483 kJ/mol
# Density = 1.945201 g / cm^3
# Si number density = 19.496382 Si / 1000 Ang^3
#
#
#
# Elastic Constant Matrix: (Units=GPa)
#
#
# Indices 1 2 3 4 5 6 
#
# 1 95.0254 41.4584 23.5557 0.0000 0.0000 0.0000
# 2 41.4584 89.6643 23.1750 0.0000 0.0000 0.0000
# 3 23.5557 23.1750 56.4494 0.0000 0.0000 0.0000
# 4 0.0000 0.0000 0.0000 14.3428 0.0000 0.0000
# 5 0.0000 0.0000 0.0000 0.0000 24.3773 0.0000
# 6 0.0000 0.0000 0.0000 0.0000 0.0000 47.6202
#
#
#
# Elastic Compliance Matrix: (Units=1/GPa)
#
#
# Indices 1 2 3 4 5 6 
#
# 1 0.013776 -0.005464 -0.003506 0.000000 0.000000 0.000000
# 2 -0.005464 0.014644 -0.003732 0.000000 0.000000 0.000000
# 3 -0.003506 -0.003732 0.020710 0.000000 0.000000 0.000000
# 4 0.000000 0.000000 0.000000 0.069721 0.000000 0.000000
# 5 0.000000 0.000000 0.000000 0.000000 0.041022 0.000000
# 6 0.000000 0.000000 0.000000 0.000000 0.000000 0.020999
#
#
# Mechanical properties :
#
#
# Convention : Reuss Voigt Hill
#
# Bulk Modulus (GPa) = 42.14542 46.39082 44.26812
# Shear Modulus (GPa) = 23.34446 27.46474 25.40460
#
# Velocity S-wave (km/s) = 3.46406 3.75735 3.61368
# Velocity P-wave (km/s) = 6.13707 6.53221 6.33772
#
# Compressibility (1/GPa) = 0.02372737
#
# Stress axis : x y z
#
# Youngs Moduli (GPa) = 72.58880 68.28957 48.28600
#
# Poissons Ratio (x) = 0.37311 0.16927
# Poissons Ratio (y) = 0.39660 0.18020
# Poissons Ratio (z) = 0.25447 0.25485
#
# Static dielectric constant tensor:
#      x y z
#    x 3.698400 0.000000 0.000000 
#    y 0.000000 3.531410 0.000000 
#    z 0.000000 0.000000 3.539240 
# 
# 
# High freq. dielectric constant tensor:
#      x y z
#    x 1.765360 0.000000 0.000000 
#    y 0.000000 1.757380 0.000000 
#    z 0.000000 0.000000 1.741650 
# 
# From -- ./inp_files/17964.got.cif
#   From: 2010.03.12/outbox.cif.g09.slc.cpg/sg57_9_cif.got.tgz:17964.got - 2010.04.16 15:48:40.
