data_PCOD8232190
_publ_section_title
;
Structure prediction by ZEFSAII (Michael W. Deem and Ramdas Pophale) SiO2 
 PCOD8232190
Probable space group: P B C M
;
_chemical_formula_sum "Si O2"
_cell_formula_units_Z 64
_cell_length_a 23.204436
_cell_length_b 15.595073
_cell_length_c 9.005638
_cell_angle_alpha 90.000000
_cell_angle_beta 90.000000
_cell_angle_gamma 90.000000
_cell_volume 3258.914111
_symmetry_space_group_name_H-M "P B C M"
_symmetry_group_IT_number 57
_symmetry_cell_setting 'orthorhombic'
loop_
_space_group_symop_operation_xyz
x,y,z
-x,-y,1/2+z
x,1/2-y,-z
-x,1/2+y,1/2-z
-x,-y,-z
x,y,1/2-z
-x,1/2+y,z
x,1/2-y,1/2+z
loop_
_atom_site_type_symbol
_atom_site_label
_atom_site_fract_x
_atom_site_fract_y
_atom_site_fract_z
Si Si1 0.042890 0.616219 0.418419
Si Si2 0.626672 0.160783 0.072417
Si Si3 0.804214 0.513504 0.419900
Si Si4 0.073062 0.051437 0.420323
Si Si5 0.687833 0.988404 0.074954
Si Si6 0.148028 0.670676 0.921276
Si Si7 0.391018 0.336283 0.080066
Si Si8 0.513837 0.089536 0.922991
O O1 0.062262 0.635015 0.250000
O O2 0.055566 0.517384 0.456510
O O3 0.080767 0.674192 0.527871
O O4 0.973007 0.629827 0.436507
O O5 0.622983 0.170299 0.250000
O O6 0.670173 0.084401 0.023094
O O7 0.648437 0.250000 0.000000
O O8 0.564167 0.138061 0.009136
O O9 0.783951 0.515193 0.250000
O O10 0.859465 0.576741 0.446587
O O11 0.750503 0.540414 0.518991
O O12 0.823125 0.418031 0.468727
O O13 0.069306 0.013745 0.250000
O O14 0.687707 0.986167 0.250000
O O15 0.642048 0.919174 0.012500
O O16 0.151471 0.687635 0.750000
O O17 0.180881 0.750000 0.000000
O O18 0.373291 0.325440 0.250000
O O19 0.458901 0.349265 0.061176
O O20 0.370752 0.250000 0.000000
O O21 0.529641 0.074606 0.750000
O O22 0.500000 0.000000 0.000000
#
# Coordination Sequence:
#
# PCOD8232190 Si02
#       8
#     8   8   8   8   8   8   8   8
#     4   9  15  25  45  70  96 127 162 203 256 312
#     4  11  23  40  58  83 118 154 193 237 285 343
#     4   9  19  34  52  75 102 136 182 227 269 321
#     4   8  15  28  45  69  99 126 159 208 257 311
#     4  10  22  40  57  78 114 150 189 240 286 334
#     4  10  20  33  48  71 105 139 177 224 270 325
#     4  10  22  40  60  86 114 144 183 231 284 336
#     4  11  21  37  61  88 120 153 186 229 284 344
#
# _framework density 19.638444
#
# number of rings (size 3 to 8) (size 9 to 14) (size 15 to 20)
#    0.000    2.250    1.250    2.625    0.000    7.000 
#    0.000    2.500    0.000    0.750    0.000    1.750 
#    0.000    0.000    0.000    0.000    0.000    0.000 
#
# Total GULP energy -793087.800693 kJ/mol
# GULP energy per Si atom -12391.996886 kJ/mol
# Density = 1.959375 g / cm^3
# Si number density = 19.638444 Si / 1000 Ang^3
#
#
#
# Elastic Constant Matrix: (Units=GPa)
#
#
# Indices 1 2 3 4 5 6 
#
# 1 97.3066 11.7941 21.6748 0.0000 0.0000 0.0000
# 2 11.7941 69.3613 23.5249 0.0000 0.0000 0.0000
# 3 21.6748 23.5249 55.9608 0.0000 0.0000 0.0000
# 4 0.0000 0.0000 0.0000 30.1029 0.0000 0.0000
# 5 0.0000 0.0000 0.0000 0.0000 30.9449 0.0000
# 6 0.0000 0.0000 0.0000 0.0000 0.0000 12.3377
#
#
#
# Elastic Compliance Matrix: (Units=1/GPa)
#
#
# Indices 1 2 3 4 5 6 
#
# 1 0.011262 -0.000508 -0.004149 0.000000 0.000000 0.000000
# 2 -0.000508 0.016838 -0.006881 0.000000 0.000000 0.000000
# 3 -0.004149 -0.006881 0.022369 0.000000 0.000000 0.000000
# 4 0.000000 0.000000 0.000000 0.033219 0.000000 0.000000
# 5 0.000000 0.000000 0.000000 0.000000 0.032315 0.000000
# 6 0.000000 0.000000 0.000000 0.000000 0.000000 0.081052
#
#
# Mechanical properties :
#
#
# Convention : Reuss Voigt Hill
#
# Bulk Modulus (GPa) = 36.50536 37.40180 36.95358
# Shear Modulus (GPa) = 21.80894 25.71944 23.76419
#
# Velocity S-wave (km/s) = 3.33607 3.62283 3.48240
# Velocity P-wave (km/s) = 5.78517 6.04867 5.91839
#
# Compressibility (1/GPa) = 0.02739324
#
# Stress axis : x y z
#
# Youngs Moduli (GPa) = 88.79048 59.39097 44.70400
#
# Poissons Ratio (x) = 0.03017 0.18546
# Poissons Ratio (y) = 0.04510 0.30763
# Poissons Ratio (z) = 0.36836 0.40870
#
# Static dielectric constant tensor:
#      x y z
#    x 3.724810 0.000000 0.000000 
#    y 0.000000 3.647220 0.000000 
#    z 0.000000 0.000000 3.548120 
# 
# 
# High freq. dielectric constant tensor:
#      x y z
#    x 1.764220 0.000000 0.000000 
#    y 0.000000 1.738390 0.000000 
#    z 0.000000 0.000000 1.766490 
# 
# From -- ./inp_files/9325.got.cif
#   From: 2010.03.12/outbox.cif.g09.slc.cpg/sg57_5_cif.got.tgz:9325.got - 2010.04.16 15:48:40.
