data_PCOD8232579
_publ_section_title
;
Structure prediction by ZEFSAII (Michael W. Deem and Ramdas Pophale) SiO2 
 PCOD8232579
Probable space group: P B C M
;
_chemical_formula_sum "Si O2"
_cell_formula_units_Z 56
_cell_length_a 17.016128
_cell_length_b 19.771616
_cell_length_c 8.992307
_cell_angle_alpha 90.000000
_cell_angle_beta 90.000000
_cell_angle_gamma 90.000000
_cell_volume 3025.338933
_symmetry_space_group_name_H-M "P B C M"
_symmetry_group_IT_number 57
_symmetry_cell_setting 'orthorhombic'
loop_
_space_group_symop_operation_xyz
x,y,z
-x,-y,1/2+z
x,1/2-y,-z
-x,1/2+y,1/2-z
-x,-y,-z
x,y,1/2-z
-x,1/2+y,z
x,1/2-y,1/2+z
loop_
_atom_site_type_symbol
_atom_site_label
_atom_site_fract_x
_atom_site_fract_y
_atom_site_fract_z
Si Si1 0.173353 0.818958 0.076018
Si Si2 0.380486 0.182095 0.076082
Si Si3 0.269079 0.439665 0.924336
Si Si4 0.559943 0.181269 0.424754
Si Si5 0.320223 0.911685 0.078465
Si Si6 0.954805 0.097547 0.424110
Si Si7 0.894587 0.949337 0.076106
O O1 0.160675 0.807436 0.250000
O O2 0.238901 0.874712 0.041798
O O3 0.201616 0.750000 0.000000
O O4 0.091708 0.842318 0.003712
O O5 0.374564 0.193699 0.250000
O O6 0.328376 0.118922 0.025176
O O7 0.470101 0.167742 0.027542
O O8 0.348049 0.250000 0.000000
O O9 0.248259 0.437039 0.750000
O O10 0.310577 0.510159 0.964822
O O11 0.190509 0.429083 0.017661
O O12 0.591677 0.250000 0.500000
O O13 0.569937 0.189604 0.250000
O O14 0.610003 0.117648 0.479080
O O15 0.343488 0.902355 0.250000
O O16 0.959675 0.112392 0.250000
O O17 0.042196 0.096548 0.490617
O O18 0.910365 0.027694 0.459762
O O19 0.901125 0.934018 0.250000
#
# Coordination Sequence:
#
# PCOD8232579 Si02
#       7
#     8   8   8   8   8   8   8
#     4  11  22  36  54  79 113 151 188 229 279 331
#     4   9  20  38  59  81 108 144 184 229 280 334
#     4  10  20  37  58  82 113 146 183 229 282 334
#     4  10  20  35  55  79 109 147 189 229 274 329
#     4  10  21  35  54  81 112 147 185 228 278 333
#     4  10  20  35  56  80 108 144 184 225 272 326
#     4  10  20  34  56  84 111 140 180 227 274 326
#
# _framework density 18.510321999999999
#
# number of rings (size 3 to 8) (size 9 to 14) (size 15 to 20)
#    0.000    2.000    1.429    2.143    0.000    5.714 
#    0.000    0.714    0.000    1.714    0.000    0.000 
#    0.000    0.000    0.000    0.000    0.000    0.000 
#
# Total GULP energy -694704.778368 kJ/mol
# GULP energy per Si atom -12405.442471 kJ/mol
# Density = 1.846819 g / cm^3
# Si number density = 18.510322 Si / 1000 Ang^3
#
#
#
# Elastic Constant Matrix: (Units=GPa)
#
#
# Indices 1 2 3 4 5 6 
#
# 1 105.9336 61.9537 51.9349 0.0000 0.0000 0.0000
# 2 61.9537 123.9078 50.3525 0.0000 0.0000 0.0000
# 3 51.9349 50.3525 79.6512 0.0000 0.0000 0.0000
# 4 0.0000 0.0000 0.0000 30.8573 0.0000 0.0000
# 5 0.0000 0.0000 0.0000 0.0000 32.6003 0.0000
# 6 0.0000 0.0000 0.0000 0.0000 0.0000 27.8066
#
#
#
# Elastic Compliance Matrix: (Units=1/GPa)
#
#
# Indices 1 2 3 4 5 6 
#
# 1 0.015908 -0.005032 -0.007192 0.000000 0.000000 0.000000
# 2 -0.005032 0.012452 -0.004591 0.000000 0.000000 0.000000
# 3 -0.007192 -0.004591 0.020146 0.000000 0.000000 0.000000
# 4 0.000000 0.000000 0.000000 0.032407 0.000000 0.000000
# 5 0.000000 0.000000 0.000000 0.000000 0.030675 0.000000
# 6 0.000000 0.000000 0.000000 0.000000 0.000000 0.035963
#
#
# Mechanical properties :
#
#
# Convention : Reuss Voigt Hill
#
# Bulk Modulus (GPa) = 67.21450 70.88609 69.05030
# Shear Modulus (GPa) = 26.86160 27.93628 27.39894
#
# Velocity S-wave (km/s) = 3.81355 3.88909 3.85151
# Velocity P-wave (km/s) = 7.46871 7.65149 7.56065
#
# Compressibility (1/GPa) = 0.01487774
#
# Stress axis : x y z
#
# Youngs Moduli (GPa) = 62.85965 80.30901 49.63689
#
# Poissons Ratio (x) = 0.40408 0.35699
# Poissons Ratio (y) = 0.31628 0.22788
# Poissons Ratio (z) = 0.45209 0.36869
#
# Static dielectric constant tensor:
#      x y z
#    x 3.389890 0.000000 0.000000 
#    y 0.000000 3.376290 0.000000 
#    z 0.000000 0.000000 3.385320 
# 
# 
# High freq. dielectric constant tensor:
#      x y z
#    x 1.719520 0.000000 0.000000 
#    y 0.000000 1.709700 0.000000 
#    z 0.000000 0.000000 1.723950 
# 
# From -- ./inp_files/5288.got.cif
#   From: 2010.03.12/outbox.cif.g09.slc.cpg/sg57_3_cif.got.tgz:5288.got - 2010.04.16 15:48:40.
