data_PCOD8232403
_publ_section_title
;
Structure prediction by ZEFSAII (Michael W. Deem and Ramdas Pophale) SiO2 
 PCOD8232403
Probable space group: P B C M
;
_chemical_formula_sum "Si O2"
_cell_formula_units_Z 56
_cell_length_a 16.520014
_cell_length_b 21.142772
_cell_length_c 9.074049
_cell_angle_alpha 90.000000
_cell_angle_beta 90.000000
_cell_angle_gamma 90.000000
_cell_volume 3169.373757
_symmetry_space_group_name_H-M "P B C M"
_symmetry_group_IT_number 57
_symmetry_cell_setting 'orthorhombic'
loop_
_space_group_symop_operation_xyz
x,y,z
-x,-y,1/2+z
x,1/2-y,-z
-x,1/2+y,1/2-z
-x,-y,-z
x,y,1/2-z
-x,1/2+y,z
x,1/2-y,1/2+z
loop_
_atom_site_type_symbol
_atom_site_label
_atom_site_fract_x
_atom_site_fract_y
_atom_site_fract_z
Si Si1 0.784025 0.013697 0.420544
Si Si2 0.464623 0.407536 0.419687
Si Si3 0.633684 0.687065 0.418087
Si Si4 0.042234 0.941336 0.578972
Si Si5 0.044551 0.184997 0.078565
Si Si6 0.797593 0.886082 0.583115
Si Si7 0.377281 0.978552 0.420223
O O1 0.759043 0.011215 0.250000
O O2 0.808905 0.943776 0.472165
O O3 0.861198 0.058629 0.446853
O O4 0.709180 0.041770 0.514042
O O5 0.439079 0.401855 0.250000
O O6 0.445339 0.342484 0.503712
O O7 0.411399 0.462518 0.490604
O O8 0.560397 0.420369 0.436349
O O9 0.660042 0.750000 0.500000
O O10 0.612122 0.702292 0.250000
O O11 0.707228 0.638779 0.433335
O O12 0.020210 0.948575 0.750000
O O13 0.009221 0.873991 0.519521
O O14 0.000000 0.000000 0.500000
O O15 0.028992 0.195988 0.250000
O O16 0.138394 0.168847 0.043830
O O17 0.019542 0.250000 0.000000
O O18 0.813636 0.909882 0.750000
O O19 0.367177 0.998845 0.250000
#
# Coordination Sequence:
#
# PCOD8232403 Si02
#       7
#     8   8   8   8   8   8   8
#     4  11  21  32  53  82 110 141 180 224 270 322
#     4  10  20  34  53  77 104 136 177 219 260 314
#     4  11  22  34  51  76 109 147 182 216 263 319
#     4  10  21  36  55  81 110 143 182 228 276 326
#     4  10  21  37  55  77 109 145 184 226 270 326
#     4  10  20  34  52  76 109 146 178 216 266 322
#     4  10  20  34  53  77 106 138 171 214 269 319
#
# _framework density 17.669105999999999
#
# number of rings (size 3 to 8) (size 9 to 14) (size 15 to 20)
#    0.000    1.714    2.857    2.143    0.000    4.000 
#    0.000    0.000    0.000    0.857    0.000    4.000 
#    0.000    0.000    0.000    0.000    0.000    0.000 
#
# Total GULP energy -694467.558693 kJ/mol
# GULP energy per Si atom -12401.206405 kJ/mol
# Density = 1.762889 g / cm^3
# Si number density = 17.669106 Si / 1000 Ang^3
#
#
#
# Elastic Constant Matrix: (Units=GPa)
#
#
# Indices 1 2 3 4 5 6 
#
# 1 96.6356 42.1014 46.8987 0.0000 0.0000 0.0000
# 2 42.1014 88.9851 43.3945 0.0000 0.0000 0.0000
# 3 46.8987 43.3945 106.1603 0.0000 0.0000 0.0000
# 4 0.0000 0.0000 0.0000 31.0288 0.0000 0.0000
# 5 0.0000 0.0000 0.0000 0.0000 27.6183 0.0000
# 6 0.0000 0.0000 0.0000 0.0000 0.0000 23.5694
#
#
#
# Elastic Compliance Matrix: (Units=1/GPa)
#
#
# Indices 1 2 3 4 5 6 
#
# 1 0.014591 -0.004696 -0.004526 0.000000 0.000000 0.000000
# 2 -0.004696 0.015547 -0.004281 0.000000 0.000000 0.000000
# 3 -0.004526 -0.004281 0.013169 0.000000 0.000000 0.000000
# 4 0.000000 0.000000 0.000000 0.032228 0.000000 0.000000
# 5 0.000000 0.000000 0.000000 0.000000 0.036208 0.000000
# 6 0.000000 0.000000 0.000000 0.000000 0.000000 0.042428
#
#
# Mechanical properties :
#
#
# Convention : Reuss Voigt Hill
#
# Bulk Modulus (GPa) = 61.34481 61.84113 61.59297
# Shear Modulus (GPa) = 26.79385 27.06906 26.93146
#
# Velocity S-wave (km/s) = 3.89835 3.91832 3.90835
# Velocity P-wave (km/s) = 7.42004 7.45296 7.43651
#
# Compressibility (1/GPa) = 0.01630130
#
# Stress axis : x y z
#
# Youngs Moduli (GPa) = 68.53676 64.32067 75.93603
#
# Poissons Ratio (x) = 0.30205 0.34370
# Poissons Ratio (y) = 0.32185 0.32504
# Poissons Ratio (z) = 0.31021 0.27533
#
# Static dielectric constant tensor:
#      x y z
#    x 3.459880 0.000000 0.000000 
#    y 0.000000 3.161470 0.000000 
#    z 0.000000 0.000000 3.397460 
# 
# 
# High freq. dielectric constant tensor:
#      x y z
#    x 1.684700 0.000000 0.000000 
#    y 0.000000 1.658820 0.000000 
#    z 0.000000 0.000000 1.693700 
# 
# From -- ./inp_files/5199.got.cif
#   From: 2010.03.12/outbox.cif.g09.slc.cpg/sg57_3_cif.got.tgz:5199.got - 2010.04.16 15:48:40.
