data_PCOD8232930
_publ_section_title
;
Structure prediction by ZEFSAII (Michael W. Deem and Ramdas Pophale) SiO2 
 PCOD8232930
Probable space group: P B C M
;
_chemical_formula_sum "Si O2"
_cell_formula_units_Z 56
_cell_length_a 14.626841
_cell_length_b 22.563510
_cell_length_c 8.928342
_cell_angle_alpha 90.000000
_cell_angle_beta 90.000000
_cell_angle_gamma 90.000000
_cell_volume 2946.646363
_symmetry_space_group_name_H-M "P B C M"
_symmetry_group_IT_number 57
_symmetry_cell_setting 'orthorhombic'
loop_
_space_group_symop_operation_xyz
x,y,z
-x,-y,1/2+z
x,1/2-y,-z
-x,1/2+y,1/2-z
-x,-y,-z
x,y,1/2-z
-x,1/2+y,z
x,1/2-y,1/2+z
loop_
_atom_site_type_symbol
_atom_site_label
_atom_site_fract_x
_atom_site_fract_y
_atom_site_fract_z
Si Si1 0.590783 0.977450 0.421270
Si Si2 0.288349 0.591632 0.080637
Si Si3 0.806836 0.810007 0.071838
Si Si4 0.430085 0.688681 0.072967
Si Si5 0.880034 0.453900 0.425088
Si Si6 0.084304 0.426321 0.074738
Si Si7 0.372000 0.143152 0.427981
O O1 0.568538 0.959489 0.250000
O O2 0.634090 0.923327 0.511467
O O3 0.500000 0.000000 0.500000
O O4 0.666391 0.027681 0.426379
O O5 0.262104 0.608377 0.250000
O O6 0.358822 0.639619 0.013919
O O7 0.196161 0.591623 0.983843
O O8 0.801921 0.803978 0.250000
O O9 0.871049 0.864653 0.021708
O O10 0.848348 0.750000 0.000000
O O11 0.705680 0.818034 0.005898
O O12 0.425817 0.693930 0.250000
O O13 0.531393 0.670527 0.021713
O O14 0.400742 0.750000 0.000000
O O15 0.869656 0.461371 0.250000
O O16 0.865747 0.518777 0.495811
O O17 0.977648 0.425904 0.469886
O O18 0.098806 0.435624 0.250000
O O19 0.359095 0.143287 0.250000
#
# Coordination Sequence:
#
# PCOD8232930 Si02
#       7
#     8   8   8   8   8   8   8
#     4  11  21  35  55  81 114 149 186 230 283 334
#     4  10  21  38  55  78 114 149 179 224 281 331
#     4  11  23  39  58  83 114 153 192 234 285 339
#     4  10  22  39  55  74 105 146 187 227 271 321
#     4  10  20  35  60  90 112 140 185 232 278 337
#     4   9  20  39  59  82 116 148 178 225 287 342
#     4  11  22  38  57  82 115 149 189 234 280 338
#
# _framework density 19.004656000000001
#
# number of rings (size 3 to 8) (size 9 to 14) (size 15 to 20)
#    0.000    1.714    1.429    3.000    0.000    9.143 
#    0.000    0.714    0.000    3.429    0.000    0.000 
#    0.000    0.000    0.000    0.000    0.000    0.000 
#
# Total GULP energy -694630.668460 kJ/mol
# GULP energy per Si atom -12404.119080 kJ/mol
# Density = 1.896140 g / cm^3
# Si number density = 19.004656 Si / 1000 Ang^3
#
#
#
# Elastic Constant Matrix: (Units=GPa)
#
#
# Indices 1 2 3 4 5 6 
#
# 1 113.8345 57.0308 41.4846 0.0000 0.0000 0.0000
# 2 57.0308 132.2043 40.0167 0.0000 0.0000 0.0000
# 3 41.4846 40.0167 58.6986 0.0000 0.0000 0.0000
# 4 0.0000 0.0000 0.0000 34.7919 0.0000 0.0000
# 5 0.0000 0.0000 0.0000 0.0000 32.0632 0.0000
# 6 0.0000 0.0000 0.0000 0.0000 0.0000 26.6344
#
#
#
# Elastic Compliance Matrix: (Units=1/GPa)
#
#
# Indices 1 2 3 4 5 6 
#
# 1 0.013048 -0.003575 -0.006784 0.000000 0.000000 0.000000
# 2 -0.003575 0.010510 -0.004638 0.000000 0.000000 0.000000
# 3 -0.006784 -0.004638 0.024993 0.000000 0.000000 0.000000
# 4 0.000000 0.000000 0.000000 0.028742 0.000000 0.000000
# 5 0.000000 0.000000 0.000000 0.000000 0.031188 0.000000
# 6 0.000000 0.000000 0.000000 0.000000 0.000000 0.037545
#
#
# Mechanical properties :
#
#
# Convention : Reuss Voigt Hill
#
# Bulk Modulus (GPa) = 53.89209 64.64464 59.26837
# Shear Modulus (GPa) = 27.44094 29.77824 28.60959
#
# Velocity S-wave (km/s) = 3.80400 3.96269 3.88416
# Velocity P-wave (km/s) = 6.90744 7.41797 7.16725
#
# Compressibility (1/GPa) = 0.01855560
#
# Stress axis : x y z
#
# Youngs Moduli (GPa) = 76.63826 95.14406 40.01093
#
# Poissons Ratio (x) = 0.34017 0.27145
# Poissons Ratio (y) = 0.27400 0.18559
# Poissons Ratio (z) = 0.51994 0.44132
#
# Static dielectric constant tensor:
#      x y z
#    x 3.460960 0.000000 0.000000 
#    y 0.000000 3.483780 0.000000 
#    z 0.000000 0.000000 3.505820 
# 
# 
# High freq. dielectric constant tensor:
#      x y z
#    x 1.739520 0.000000 0.000000 
#    y 0.000000 1.737550 0.000000 
#    z 0.000000 0.000000 1.742270 
# 
# From -- ./inp_files/5185.got.cif
#   From: 2010.03.12/outbox.cif.g09.slc.cpg/sg57_3_cif.got.tgz:5185.got - 2010.04.16 15:48:40.
