data_PCOD8232254
_publ_section_title
;
Structure prediction by ZEFSAII (Michael W. Deem and Ramdas Pophale) SiO2 
 PCOD8232254
Probable space group: P B C M
;
_chemical_formula_sum "Si O2"
_cell_formula_units_Z 48
_cell_length_a 18.132032
_cell_length_b 16.298946
_cell_length_c 9.306710
_cell_angle_alpha 90.000000
_cell_angle_beta 90.000000
_cell_angle_gamma 90.000000
_cell_volume 2750.440024
_symmetry_space_group_name_H-M "P B C M"
_symmetry_group_IT_number 57
_symmetry_cell_setting 'orthorhombic'
loop_
_space_group_symop_operation_xyz
x,y,z
-x,-y,1/2+z
x,1/2-y,-z
-x,1/2+y,1/2-z
-x,-y,-z
x,y,1/2-z
-x,1/2+y,z
x,1/2-y,1/2+z
loop_
_atom_site_type_symbol
_atom_site_label
_atom_site_fract_x
_atom_site_fract_y
_atom_site_fract_z
Si Si1 0.924171 0.007121 0.582829
Si Si2 0.575802 0.989287 0.419171
Si Si3 0.805579 0.575403 0.591286
Si Si4 0.665404 0.668768 0.918678
Si Si5 0.167024 0.670495 0.917336
Si Si6 0.287435 0.589178 0.091095
O O1 0.937368 0.991023 0.750000
O O2 0.889404 0.096377 0.553743
O O3 0.870690 0.935532 0.523833
O O4 0.000000 0.000000 0.500000
O O5 0.561501 0.987452 0.250000
O O6 0.612370 0.904343 0.471021
O O7 0.500000 0.000000 0.500000
O O8 0.629588 0.066021 0.458390
O O9 0.839334 0.593333 0.750000
O O10 0.750896 0.648390 0.542747
O O11 0.756899 0.494635 0.601403
O O12 0.657056 0.682860 0.750000
O O13 0.640201 0.750000 0.000000
O O14 0.174404 0.690191 0.750000
O O15 0.135481 0.750000 0.000000
O O16 0.248620 0.649806 0.978020
O O17 0.288001 0.630453 0.250000
#
# Coordination Sequence:
#
# PCOD8232254 Si02
#       6
#     8   8   8   8   8   8
#     4  10  20  33  51  75 100 128 163 199 239 290
#     4   9  18  32  50  73 100 131 166 202 243 292
#     4   8  15  30  50  69  92 123 158 196 236 282
#     4   9  18  32  50  73  99 127 162 203 246 291
#     4  10  20  33  51  75  99 125 161 203 245 290
#     4   8  15  30  50  69  92 124 160 197 238 283
#
# _framework density 17.451753
#
# number of rings (size 3 to 8) (size 9 to 14) (size 15 to 20)
#    0.000    3.000    0.000    3.000    0.000    4.000 
#    0.000    5.000    0.000    2.000    0.000    0.000 
#    0.000    0.000    0.000    0.000    0.000    0.000 
#
# Total GULP energy -594994.002235 kJ/mol
# GULP energy per Si atom -12395.708380 kJ/mol
# Density = 1.741203 g / cm^3
# Si number density = 17.451753 Si / 1000 Ang^3
#
#
#
# Elastic Constant Matrix: (Units=GPa)
#
#
# Indices 1 2 3 4 5 6 
#
# 1 123.3959 35.8329 68.3036 0.0000 0.0000 0.0000
# 2 35.8329 72.4760 47.3337 0.0000 0.0000 0.0000
# 3 68.3036 47.3337 103.1507 0.0000 0.0000 0.0000
# 4 0.0000 0.0000 0.0000 29.8441 0.0000 0.0000
# 5 0.0000 0.0000 0.0000 0.0000 34.2364 0.0000
# 6 0.0000 0.0000 0.0000 0.0000 0.0000 16.8258
#
#
#
# Elastic Compliance Matrix: (Units=1/GPa)
#
#
# Indices 1 2 3 4 5 6 
#
# 1 0.012858 -0.001137 -0.007993 0.000000 0.000000 0.000000
# 2 -0.001137 0.019803 -0.008334 0.000000 0.000000 0.000000
# 3 -0.007993 -0.008334 0.018811 0.000000 0.000000 0.000000
# 4 0.000000 0.000000 0.000000 0.033508 0.000000 0.000000
# 5 0.000000 0.000000 0.000000 0.000000 0.029209 0.000000
# 6 0.000000 0.000000 0.000000 0.000000 0.000000 0.059433
#
#
# Mechanical properties :
#
#
# Convention : Reuss Voigt Hill
#
# Bulk Modulus (GPa) = 60.44228 66.88478 63.66353
# Shear Modulus (GPa) = 23.35746 26.01808 24.68777
#
# Velocity S-wave (km/s) = 3.66239 3.86535 3.76524
# Velocity P-wave (km/s) = 7.25212 7.63741 7.44725
#
# Compressibility (1/GPa) = 0.01654471
#
# Stress axis : x y z
#
# Youngs Moduli (GPa) = 77.76996 50.49762 53.15953
#
# Poissons Ratio (x) = 0.05744 0.42488
# Poissons Ratio (y) = 0.08846 0.44303
# Poissons Ratio (z) = 0.62158 0.42085
#
# Static dielectric constant tensor:
#      x y z
#    x 3.266220 0.000000 0.000000 
#    y 0.000000 3.191780 0.000000 
#    z 0.000000 0.000000 3.326910 
# 
# 
# High freq. dielectric constant tensor:
#      x y z
#    x 1.664600 0.000000 0.000000 
#    y 0.000000 1.655360 0.000000 
#    z 0.000000 0.000000 1.676620 
# 
# From -- ./inp_files/6576.got.cif
#   From: 2010.03.12/outbox.cif.g09.slc.cpg/sg57_4_cif.got.tgz:6576.got - 2010.04.16 15:48:40.
