data_PCOD8232475
_publ_section_title
;
Structure prediction by ZEFSAII (Michael W. Deem and Ramdas Pophale) SiO2 
 PCOD8232475
Probable space group: P B C M
;
_chemical_formula_sum "Si O2"
_cell_formula_units_Z 40
_cell_length_a 25.161894
_cell_length_b 9.954027
_cell_length_c 8.773382
_cell_angle_alpha 90.000000
_cell_angle_beta 90.000000
_cell_angle_gamma 90.000000
_cell_volume 2197.400314
_symmetry_space_group_name_H-M "P B C M"
_symmetry_group_IT_number 57
_symmetry_cell_setting 'orthorhombic'
loop_
_space_group_symop_operation_xyz
x,y,z
-x,-y,1/2+z
x,1/2-y,-z
-x,1/2+y,1/2-z
-x,-y,-z
x,y,1/2-z
-x,1/2+y,z
x,1/2-y,1/2+z
loop_
_atom_site_type_symbol
_atom_site_label
_atom_site_fract_x
_atom_site_fract_y
_atom_site_fract_z
Si Si1 0.463700 0.388942 0.073109
Si Si2 0.659397 0.608365 0.571625
Si Si3 0.959878 0.396285 0.573002
Si Si4 0.262231 0.601284 0.569337
Si Si5 0.842413 0.105639 0.073062
O O1 0.475730 0.381204 0.250000
O O2 0.402282 0.420101 0.039307
O O3 0.481323 0.250000 0.000000
O O4 0.500000 0.500000 0.000000
O O5 0.677105 0.750000 0.500000
O O6 0.672741 0.610741 0.750000
O O7 0.689789 0.488499 0.489486
O O8 0.966302 0.250000 0.500000
O O9 0.972842 0.379795 0.750000
O O10 0.900596 0.460120 0.549524
O O11 0.000000 0.500000 0.500000
O O12 0.267790 0.750000 0.500000
O O13 0.263868 0.609716 0.750000
O O14 0.206413 0.532220 0.513813
O O15 0.827361 0.116708 0.250000
O O16 0.847484 0.250000 0.000000
#
# Coordination Sequence:
#
# PCOD8232475 Si02
#       5
#     8   8   8   8   8
#     4  10  21  37  58  81 108 141 177 217 262 311
#     4  10  21  38  57  79 108 142 176 214 263 317
#     4  10  20  34  54  78 106 139 175 216 263 313
#     4  11  21  34  55  81 107 138 176 220 262 307
#     4   9  17  31  51  75 103 136 173 215 262 312
#
# _framework density 18.203329
#
# number of rings (size 3 to 8) (size 9 to 14) (size 15 to 20)
#    0.000    2.000    0.000    5.400    0.000    5.600 
#    0.000    1.000    0.000    4.800    0.000    0.000 
#    0.000    0.000    0.000    0.000    0.000    0.000 
#
# Total GULP energy -495869.530288 kJ/mol
# GULP energy per Si atom -12396.738257 kJ/mol
# Density = 1.816190 g / cm^3
# Si number density = 18.203329 Si / 1000 Ang^3
#
#
#
# Elastic Constant Matrix: (Units=GPa)
#
#
# Indices 1 2 3 4 5 6 
#
# 1 113.7519 78.6537 79.5225 0.0000 0.0000 0.0000
# 2 78.6537 106.6765 71.9192 0.0000 0.0000 0.0000
# 3 79.5225 71.9192 157.1700 0.0000 0.0000 0.0000
# 4 0.0000 0.0000 0.0000 34.9895 0.0000 0.0000
# 5 0.0000 0.0000 0.0000 0.0000 33.9977 0.0000
# 6 0.0000 0.0000 0.0000 0.0000 0.0000 24.7401
#
#
#
# Elastic Compliance Matrix: (Units=1/GPa)
#
#
# Indices 1 2 3 4 5 6 
#
# 1 0.020284 -0.011622 -0.004945 0.000000 0.000000 0.000000
# 2 -0.011622 0.020215 -0.003370 0.000000 0.000000 0.000000
# 3 -0.004945 -0.003370 0.010407 0.000000 0.000000 0.000000
# 4 0.000000 0.000000 0.000000 0.028580 0.000000 0.000000
# 5 0.000000 0.000000 0.000000 0.000000 0.029414 0.000000
# 6 0.000000 0.000000 0.000000 0.000000 0.000000 0.040420
#
#
# Mechanical properties :
#
#
# Convention : Reuss Voigt Hill
#
# Bulk Modulus (GPa) = 90.64451 93.08771 91.86611
# Shear Modulus (GPa) = 25.92422 28.57899 27.25161
#
# Velocity S-wave (km/s) = 3.77788 3.96660 3.87339
# Velocity P-wave (km/s) = 8.30262 8.49867 8.40122
#
# Compressibility (1/GPa) = 0.01103211
#
# Stress axis : x y z
#
# Youngs Moduli (GPa) = 49.30027 49.46844 96.09326
#
# Poissons Ratio (x) = 0.57491 0.47518
# Poissons Ratio (y) = 0.57295 0.32383
# Poissons Ratio (z) = 0.24379 0.16671
#
# Static dielectric constant tensor:
#      x y z
#    x 3.956850 0.000000 0.000000 
#    y 0.000000 3.090100 0.000000 
#    z 0.000000 0.000000 3.586530 
# 
# 
# High freq. dielectric constant tensor:
#      x y z
#    x 1.719990 0.000000 0.000000 
#    y 0.000000 1.678760 0.000000 
#    z 0.000000 0.000000 1.729550 
# 
# From -- ./inp_files/8914.got.cif
#   From: 2010.03.12/outbox.cif.g09.slc.cpg/sg57_5_cif.got.tgz:8914.got - 2010.04.16 15:48:40.
