data_PCOD8232893
_publ_section_title
;
Structure prediction by ZEFSAII (Michael W. Deem and Ramdas Pophale) SiO2 
 PCOD8232893
Probable space group: P B C M
;
_chemical_formula_sum "Si O2"
_cell_formula_units_Z 64
_cell_length_a 23.819103
_cell_length_b 15.239161
_cell_length_c 8.991458
_cell_angle_alpha 90.000000
_cell_angle_beta 90.000000
_cell_angle_gamma 90.000000
_cell_volume 3263.747707
_symmetry_space_group_name_H-M "P B C M"
_symmetry_group_IT_number 57
_symmetry_cell_setting 'orthorhombic'
loop_
_space_group_symop_operation_xyz
x,y,z
-x,-y,1/2+z
x,1/2-y,-z
-x,1/2+y,1/2-z
-x,-y,-z
x,y,1/2-z
-x,1/2+y,z
x,1/2-y,1/2+z
loop_
_atom_site_type_symbol
_atom_site_label
_atom_site_fract_x
_atom_site_fract_y
_atom_site_fract_z
Si Si1 0.232785 0.834801 0.918966
Si Si2 0.118577 0.417673 0.922307
Si Si3 0.578484 0.495298 0.924943
Si Si4 0.494692 0.651118 0.926977
Si Si5 0.706167 0.995743 0.073590
Si Si6 0.997381 0.662206 0.421915
Si Si7 0.884832 0.092507 0.079425
Si Si8 0.781043 0.663357 0.573621
O O1 0.251942 0.827305 0.750000
O O2 0.263004 0.918634 0.992282
O O3 0.165049 0.837227 0.932145
O O4 0.256379 0.750000 0.000000
O O5 0.133000 0.405318 0.750000
O O6 0.052052 0.406950 0.952984
O O7 0.135315 0.513348 0.977327
O O8 0.155364 0.348977 0.015338
O O9 0.573334 0.475879 0.750000
O O10 0.548231 0.588241 0.964157
O O11 0.642084 0.508199 0.979433
O O12 0.556444 0.407791 0.009201
O O13 0.487674 0.664390 0.750000
O O14 0.499028 0.750000 0.000000
O O15 0.710401 0.996110 0.250000
O O16 0.740290 0.912603 0.013241
O O17 0.977933 0.750000 0.500000
O O18 0.005363 0.682853 0.250000
O O19 0.056961 0.629749 0.486657
O O20 0.892573 0.060353 0.250000
O O21 0.755608 0.750000 0.500000
O O22 0.782125 0.670887 0.750000
#
# Coordination Sequence:
#
# PCOD8232893 Si02
#       8
#     8   8   8   8   8   8   8   8
#     4  10  20  36  57  81 108 145 186 229 284 339
#     4  11  22  36  55  81 108 141 186 233 283 344
#     4   9  19  37  60  85 116 155 198 241 282 331
#     4  10  20  35  58  88 121 157 193 235 284 335
#     4   9  19  38  60  82 114 153 191 234 287 334
#     4  10  22  36  52  77 107 138 179 228 284 344
#     4  10  20  37  57  77 105 142 181 229 288 344
#     4  11  22  39  60  83 113 150 190 236 287 343
#
# _framework density 19.609359000000001
#
# number of rings (size 3 to 8) (size 9 to 14) (size 15 to 20)
#    0.000    2.000    1.250    2.250    0.000    4.500 
#    0.000    3.125    0.000    0.000    0.000    0.000 
#    0.000    0.000    0.000    0.000    0.000    0.000 
#
# Total GULP energy -793363.882215 kJ/mol
# GULP energy per Si atom -12396.310660 kJ/mol
# Density = 1.956473 g / cm^3
# Si number density = 19.609359 Si / 1000 Ang^3
#
#
#
# Elastic Constant Matrix: (Units=GPa)
#
#
# Indices 1 2 3 4 5 6 
#
# 1 123.8101 51.3604 34.0409 0.0000 0.0000 0.0000
# 2 51.3604 156.5184 50.9453 0.0000 0.0000 0.0000
# 3 34.0409 50.9453 64.2226 0.0000 0.0000 0.0000
# 4 0.0000 0.0000 0.0000 35.4979 0.0000 0.0000
# 5 0.0000 0.0000 0.0000 0.0000 21.4306 0.0000
# 6 0.0000 0.0000 0.0000 0.0000 0.0000 17.3474
#
#
#
# Elastic Compliance Matrix: (Units=1/GPa)
#
#
# Indices 1 2 3 4 5 6 
#
# 1 0.009935 -0.002084 -0.003613 0.000000 0.000000 0.000000
# 2 -0.002084 0.009050 -0.006074 0.000000 0.000000 0.000000
# 3 -0.003613 -0.006074 0.022304 0.000000 0.000000 0.000000
# 4 0.000000 0.000000 0.000000 0.028171 0.000000 0.000000
# 5 0.000000 0.000000 0.000000 0.000000 0.046662 0.000000
# 6 0.000000 0.000000 0.000000 0.000000 0.000000 0.057645
#
#
# Mechanical properties :
#
#
# Convention : Reuss Voigt Hill
#
# Bulk Modulus (GPa) = 56.34808 68.58268 62.46538
# Shear Modulus (GPa) = 24.60325 28.73549 26.66937
#
# Velocity S-wave (km/s) = 3.54597 3.83220 3.69186
# Velocity P-wave (km/s) = 6.75003 7.39131 7.07794
#
# Compressibility (1/GPa) = 0.01774683
#
# Stress axis : x y z
#
# Youngs Moduli (GPa) = 100.65713 110.49624 44.83450
#
# Poissons Ratio (x) = 0.23029 0.16197
# Poissons Ratio (y) = 0.20978 0.27234
# Poissons Ratio (z) = 0.36363 0.67120
#
# Static dielectric constant tensor:
#      x y z
#    x 3.653290 0.000000 0.000000 
#    y 0.000000 3.676650 0.000000 
#    z 0.000000 0.000000 3.407450 
# 
# 
# High freq. dielectric constant tensor:
#      x y z
#    x 1.763620 0.000000 0.000000 
#    y 0.000000 1.769410 0.000000 
#    z 0.000000 0.000000 1.748750 
# 
# From -- ./inp_files/9300.got.cif
#   From: 2010.03.12/outbox.cif.g09.slc.cpg/sg57_5_cif.got.tgz:9300.got - 2010.04.16 15:48:40.
