data_PCOD8232939
_publ_section_title
;
Structure prediction by ZEFSAII (Michael W. Deem and Ramdas Pophale) SiO2 
 PCOD8232939
Probable space group: P B C M
;
_chemical_formula_sum "Si O2"
_cell_formula_units_Z 56
_cell_length_a 14.610925
_cell_length_b 22.589109
_cell_length_c 8.791893
_cell_angle_alpha 90.000000
_cell_angle_beta 90.000000
_cell_angle_gamma 90.000000
_cell_volume 2901.744744
_symmetry_space_group_name_H-M "P B C M"
_symmetry_group_IT_number 57
_symmetry_cell_setting 'orthorhombic'
loop_
_space_group_symop_operation_xyz
x,y,z
-x,-y,1/2+z
x,1/2-y,-z
-x,1/2+y,1/2-z
-x,-y,-z
x,y,1/2-z
-x,1/2+y,z
x,1/2-y,1/2+z
loop_
_atom_site_type_symbol
_atom_site_label
_atom_site_fract_x
_atom_site_fract_y
_atom_site_fract_z
Si Si1 0.205335 0.582902 0.572475
Si Si2 0.095233 0.481144 0.071053
Si Si3 0.411988 0.427173 0.927750
Si Si4 0.072674 0.810158 0.071388
Si Si5 0.308807 0.189168 0.073798
Si Si6 0.111113 0.356580 0.927558
Si Si7 0.380132 0.550420 0.426453
O O1 0.196776 0.567959 0.750000
O O2 0.171349 0.528481 0.471540
O O3 0.146378 0.640124 0.529911
O O4 0.310578 0.591815 0.522568
O O5 0.082396 0.475924 0.250000
O O6 0.127933 0.419061 0.006054
O O7 0.000000 0.500000 0.000000
O O8 0.389831 0.437065 0.750000
O O9 0.364636 0.367385 0.990999
O O10 0.520146 0.422593 0.957781
O O11 0.371618 0.482652 0.018868
O O12 0.059239 0.803200 0.250000
O O13 0.111590 0.750000 0.000000
O O14 0.974806 0.823660 0.999215
O O15 0.330625 0.193982 0.250000
O O16 0.200969 0.182300 0.041629
O O17 0.344121 0.250000 0.000000
O O18 0.093181 0.366598 0.750000
O O19 0.354478 0.552968 0.250000
#
# Coordination Sequence:
#
# PCOD8232939 Si02
#       7
#     8   8   8   8   8   8   8
#     4  11  23  39  58  83 116 153 191 237 289 343
#     4  12  23  36  57  86 118 152 191 236 288 342
#     4   9  19  38  60  85 119 151 185 233 293 353
#     4  11  24  40  58  78 108 151 197 241 288 341
#     4  10  22  38  57  83 115 154 193 236 288 343
#     4  11  22  37  59  85 117 154 193 238 290 345
#     4  10  20  35  61  91 115 147 189 238 292 349
#
# _framework density 19.298735000000001
#
# number of rings (size 3 to 8) (size 9 to 14) (size 15 to 20)
#    0.000    1.429    1.429    4.286    0.000    6.286 
#    0.000    0.714    0.000    3.429    0.000    0.000 
#    0.000    0.000    0.000    0.000    0.000    0.000 
#
# Total GULP energy -694647.436499 kJ/mol
# GULP energy per Si atom -12404.418509 kJ/mol
# Density = 1.925481 g / cm^3
# Si number density = 19.298735 Si / 1000 Ang^3
#
#
#
# Elastic Constant Matrix: (Units=GPa)
#
#
# Indices 1 2 3 4 5 6 
#
# 1 100.0117 45.3725 36.5675 0.0000 0.0000 0.0000
# 2 45.3725 118.0944 49.4638 0.0000 0.0000 0.0000
# 3 36.5675 49.4638 81.0370 0.0000 0.0000 0.0000
# 4 0.0000 0.0000 0.0000 35.1649 0.0000 0.0000
# 5 0.0000 0.0000 0.0000 0.0000 30.2086 0.0000
# 6 0.0000 0.0000 0.0000 0.0000 0.0000 20.6690
#
#
#
# Elastic Compliance Matrix: (Units=1/GPa)
#
#
# Indices 1 2 3 4 5 6 
#
# 1 0.012909 -0.003385 -0.003759 0.000000 0.000000 0.000000
# 2 -0.003385 0.012264 -0.005958 0.000000 0.000000 0.000000
# 3 -0.003759 -0.005958 0.017673 0.000000 0.000000 0.000000
# 4 0.000000 0.000000 0.000000 0.028437 0.000000 0.000000
# 5 0.000000 0.000000 0.000000 0.000000 0.033103 0.000000
# 6 0.000000 0.000000 0.000000 0.000000 0.000000 0.048382
#
#
# Mechanical properties :
#
#
# Convention : Reuss Voigt Hill
#
# Bulk Modulus (GPa) = 60.09098 62.43897 61.26497
# Shear Modulus (GPa) = 27.09734 28.39111 27.74423
#
# Velocity S-wave (km/s) = 3.75120 3.83970 3.79571
# Velocity P-wave (km/s) = 7.06872 7.21678 7.14313
#
# Compressibility (1/GPa) = 0.01664143
#
# Stress axis : x y z
#
# Youngs Moduli (GPa) = 77.46536 81.53912 56.58373
#
# Poissons Ratio (x) = 0.27604 0.21268
# Poissons Ratio (y) = 0.26225 0.33714
# Poissons Ratio (z) = 0.29117 0.48582
#
# Static dielectric constant tensor:
#      x y z
#    x 3.779500 0.000000 0.000000 
#    y 0.000000 3.590210 0.000000 
#    z 0.000000 0.000000 3.595150 
# 
# 
# High freq. dielectric constant tensor:
#      x y z
#    x 1.755200 0.000000 0.000000 
#    y 0.000000 1.747810 0.000000 
#    z 0.000000 0.000000 1.759090 
# 
# From -- ./inp_files/5259.got.cif
#   From: 2010.03.12/outbox.cif.g09.slc.cpg/sg57_3_cif.got.tgz:5259.got - 2010.04.16 15:48:40.
