data_PCOD8232526
_publ_section_title
;
Structure prediction by ZEFSAII (Michael W. Deem and Ramdas Pophale) SiO2 
 PCOD8232526
Probable space group: P B C M
;
_chemical_formula_sum "Si O2"
_cell_formula_units_Z 64
_cell_length_a 20.589316
_cell_length_b 18.533535
_cell_length_c 8.815271
_cell_angle_alpha 90.000000
_cell_angle_beta 90.000000
_cell_angle_gamma 90.000000
_cell_volume 3363.844020
_symmetry_space_group_name_H-M "P B C M"
_symmetry_group_IT_number 57
_symmetry_cell_setting 'orthorhombic'
loop_
_space_group_symop_operation_xyz
x,y,z
-x,-y,1/2+z
x,1/2-y,-z
-x,1/2+y,1/2-z
-x,-y,-z
x,y,1/2-z
-x,1/2+y,z
x,1/2-y,1/2+z
loop_
_atom_site_type_symbol
_atom_site_label
_atom_site_fract_x
_atom_site_fract_y
_atom_site_fract_z
Si Si1 0.999648 0.827928 0.572691
Si Si2 0.620114 0.096655 0.570852
Si Si3 0.245123 0.908705 0.575871
Si Si4 0.499717 0.326109 0.570364
Si Si5 0.383938 0.431199 0.573145
Si Si6 0.748486 0.921424 0.077867
Si Si7 0.126730 0.829139 0.070540
Si Si8 0.143274 0.172400 0.426168
O O1 0.996219 0.750000 0.500000
O O2 0.015390 0.822779 0.750000
O O3 0.060090 0.867880 0.490105
O O4 0.928504 0.862385 0.542422
O O5 0.623801 0.108128 0.750000
O O6 0.688229 0.119505 0.497071
O O7 0.567366 0.149676 0.500869
O O8 0.602382 0.014178 0.528001
O O9 0.241357 0.882951 0.750000
O O10 0.186642 0.877166 0.479604
O O11 0.240676 0.994056 0.561804
O O12 0.478520 0.250000 0.500000
O O13 0.506927 0.319273 0.750000
O O14 0.445810 0.384698 0.523865
O O15 0.368827 0.424374 0.750000
O O16 0.321874 0.399678 0.485740
O O17 0.752375 0.894907 0.250000
O O18 0.804559 0.883599 0.984463
O O19 0.124679 0.823541 0.250000
O O20 0.133958 0.750000 0.000000
O O21 0.152934 0.250000 0.500000
O O22 0.153800 0.184714 0.250000
#
# Coordination Sequence:
#
# PCOD8232526 Si02
#       8
#     8   8   8   8   8   8   8   8
#     4   9  17  31  51  76 105 140 179 221 267 319
#     4  10  20  37  60  83 106 139 180 221 266 320
#     4  10  21  38  57  80 110 143 180 223 267 319
#     4  11  23  38  56  82 113 144 176 218 267 314
#     4   9  20  38  59  80 107 143 182 220 263 318
#     4  10  21  36  57  82 110 143 180 223 271 319
#     4  11  21  34  55  81 108 141 179 223 271 322
#     4  10  20  34  55  80 109 143 182 225 270 321
#
# _framework density 19.025852
#
# number of rings (size 3 to 8) (size 9 to 14) (size 15 to 20)
#    0.000    2.000    0.000    4.500    0.000    5.500 
#    0.000    4.375    0.000    0.000    0.000    0.000 
#    0.000    0.000    0.000    0.000    0.000    0.000 
#
# Total GULP energy -793597.775619 kJ/mol
# GULP energy per Si atom -12399.965244 kJ/mol
# Density = 1.898255 g / cm^3
# Si number density = 19.025852 Si / 1000 Ang^3
#
#
#
# Elastic Constant Matrix: (Units=GPa)
#
#
# Indices 1 2 3 4 5 6 
#
# 1 127.9985 29.3334 56.6933 0.0000 0.0000 0.0000
# 2 29.3334 34.6916 24.6895 0.0000 0.0000 0.0000
# 3 56.6933 24.6895 117.0105 0.0000 0.0000 0.0000
# 4 0.0000 0.0000 0.0000 29.8082 0.0000 0.0000
# 5 0.0000 0.0000 0.0000 0.0000 21.8596 0.0000
# 6 0.0000 0.0000 0.0000 0.0000 0.0000 28.8770
#
#
#
# Elastic Compliance Matrix: (Units=1/GPa)
#
#
# Indices 1 2 3 4 5 6 
#
# 1 0.011075 -0.006525 -0.003989 0.000000 0.000000 0.000000
# 2 -0.006525 0.037764 -0.004807 0.000000 0.000000 0.000000
# 3 -0.003989 -0.004807 0.011493 0.000000 0.000000 0.000000
# 4 0.000000 0.000000 0.000000 0.033548 0.000000 0.000000
# 5 0.000000 0.000000 0.000000 0.000000 0.045746 0.000000
# 6 0.000000 0.000000 0.000000 0.000000 0.000000 0.034630
#
#
# Mechanical properties :
#
#
# Convention : Reuss Voigt Hill
#
# Bulk Modulus (GPa) = 33.68170 55.68146 44.68158
# Shear Modulus (GPa) = 23.27808 27.37460 25.32634
#
# Velocity S-wave (km/s) = 3.50165 3.79728 3.65246
# Velocity P-wave (km/s) = 5.83869 6.96818 6.42829
#
# Compressibility (1/GPa) = 0.02968972
#
# Stress axis : x y z
#
# Youngs Moduli (GPa) = 90.29470 26.48043 87.00792
#
# Poissons Ratio (x) = 0.17279 0.34708
# Poissons Ratio (y) = 0.58921 0.41821
# Poissons Ratio (z) = 0.36019 0.12728
#
# Static dielectric constant tensor:
#      x y z
#    x 3.985180 0.000000 0.000000 
#    y 0.000000 3.252110 0.000000 
#    z 0.000000 0.000000 3.658330 
# 
# 
# High freq. dielectric constant tensor:
#      x y z
#    x 1.759320 0.000000 0.000000 
#    y 0.000000 1.713170 0.000000 
#    z 0.000000 0.000000 1.756980 
# 
# From -- ./inp_files/7204.got.cif
#   From: 2010.03.12/outbox.cif.g09.slc.cpg/sg57_4_cif.got.tgz:7204.got - 2010.04.16 15:48:40.
