data_PCOD8232749
_publ_section_title
;
Structure prediction by ZEFSAII (Michael W. Deem and Ramdas Pophale) SiO2 
 PCOD8232749
Probable space group: P B C M
;
_chemical_formula_sum "Si O2"
_cell_formula_units_Z 48
_cell_length_a 29.034319
_cell_length_b 8.904124
_cell_length_c 9.707784
_cell_angle_alpha 90.000000
_cell_angle_beta 90.000000
_cell_angle_gamma 90.000000
_cell_volume 2509.706573
_symmetry_space_group_name_H-M "P B C M"
_symmetry_group_IT_number 57
_symmetry_cell_setting 'orthorhombic'
loop_
_space_group_symop_operation_xyz
x,y,z
-x,-y,1/2+z
x,1/2-y,-z
-x,1/2+y,1/2-z
-x,-y,-z
x,y,1/2-z
-x,1/2+y,z
x,1/2-y,1/2+z
loop_
_atom_site_type_symbol
_atom_site_label
_atom_site_fract_x
_atom_site_fract_y
_atom_site_fract_z
Si Si1 0.719253 0.605015 0.090496
Si Si2 0.533931 0.100509 0.588056
Si Si3 0.940537 0.936063 0.250000
Si Si4 0.802475 0.108525 0.906214
Si Si5 0.038085 0.419335 0.750000
Si Si6 0.904454 0.072317 0.517114
Si Si7 0.363130 0.606480 0.906015
O O1 0.717158 0.649737 0.250000
O O2 0.765551 0.516203 0.054609
O O3 0.673903 0.514648 0.045547
O O4 0.720364 0.750000 0.000000
O O5 0.534334 0.250000 0.500000
O O6 0.518488 0.121234 0.750000
O O7 0.585748 0.034075 0.583848
O O8 0.500000 0.000000 0.500000
O O9 0.953886 0.760120 0.250000
O O10 0.908502 0.979151 0.377506
O O11 0.984028 0.047448 0.250000
O O12 0.796169 0.162422 0.750000
O O13 0.792860 0.250000 0.000000
O O14 0.853453 0.042750 0.926287
O O15 0.058489 0.499205 0.616987
O O16 0.914412 0.250000 0.500000
O O17 0.353003 0.658396 0.750000
O O18 0.357352 0.750000 0.000000
#
# Coordination Sequence:
#
# PCOD8232749 Si02
#       7
#     8   8   4   8   4   8   8
#     4  10  22  39  57  86 120 153 191 240 290 344
#     4  10  20  35  55  82 114 153 196 246 299 356
#     4  12  26  40  66  90 120 166 194 246 297 348
#     4  10  22  40  64  89 117 151 192 236 285 347
#     4  12  24  44  62  92 126 154 204 242 295 352
#     4  11  23  42  64  91 121 156 199 246 293 351
#     4   9  19  36  58  82 112 149 197 244 291 351
#
# _framework density 19.125741999999999
#
# number of rings (size 3 to 8) (size 9 to 14) (size 15 to 20)
#    0.000    1.667    0.833    3.500    3.500    4.000 
#    0.000    1.667    0.000    0.000    0.000    0.000 
#    0.000    0.000    0.000    0.000    0.000    0.000 
#
# Total GULP energy -595132.387797 kJ/mol
# GULP energy per Si atom -12398.591412 kJ/mol
# Density = 1.908221 g / cm^3
# Si number density = 19.125742 Si / 1000 Ang^3
#
#
#
# Elastic Constant Matrix: (Units=GPa)
#
#
# Indices 1 2 3 4 5 6 
#
# 1 106.2340 55.2992 40.5267 0.0000 0.0000 0.0000
# 2 55.2992 108.4349 44.3981 0.0000 0.0000 0.0000
# 3 40.5267 44.3981 106.1581 0.0000 0.0000 0.0000
# 4 0.0000 0.0000 0.0000 43.4317 0.0000 0.0000
# 5 0.0000 0.0000 0.0000 0.0000 33.0222 0.0000
# 6 0.0000 0.0000 0.0000 0.0000 0.0000 17.5451
#
#
#
# Elastic Compliance Matrix: (Units=1/GPa)
#
#
# Indices 1 2 3 4 5 6 
#
# 1 0.013441 -0.005736 -0.002732 0.000000 0.000000 0.000000
# 2 -0.005736 0.013575 -0.003488 0.000000 0.000000 0.000000
# 3 -0.002732 -0.003488 0.011922 0.000000 0.000000 0.000000
# 4 0.000000 0.000000 0.000000 0.023025 0.000000 0.000000
# 5 0.000000 0.000000 0.000000 0.000000 0.030283 0.000000
# 6 0.000000 0.000000 0.000000 0.000000 0.000000 0.056996
#
#
# Mechanical properties :
#
#
# Convention : Reuss Voigt Hill
#
# Bulk Modulus (GPa) = 66.55109 66.80831 66.67970
# Shear Modulus (GPa) = 28.06418 30.84001 29.45210
#
# Velocity S-wave (km/s) = 3.83476 4.01993 3.92844
# Velocity P-wave (km/s) = 7.38101 7.52020 7.45093
#
# Compressibility (1/GPa) = 0.01502605
#
# Stress axis : x y z
#
# Youngs Moduli (GPa) = 74.39713 73.66254 83.88048
#
# Poissons Ratio (x) = 0.42253 0.22920
# Poissons Ratio (y) = 0.42674 0.29256
# Poissons Ratio (z) = 0.20328 0.25692
#
# Static dielectric constant tensor:
#      x y z
#    x 3.930990 0.000000 0.000000 
#    y 0.000000 3.288540 0.000000 
#    z 0.000000 0.000000 3.533020 
# 
# 
# High freq. dielectric constant tensor:
#      x y z
#    x 1.759640 0.000000 0.000000 
#    y 0.000000 1.734120 0.000000 
#    z 0.000000 0.000000 1.761640 
# 
# From -- ./inp_files/10162.got.cif
#   From: 2010.03.12/outbox.cif.g09.slc.cpg/sg57_6_cif.got.tgz:10162.got - 2010.04.16 15:48:40.
