data_PCOD8232129
_publ_section_title
;
Structure prediction by ZEFSAII (Michael W. Deem and Ramdas Pophale) SiO2 
 PCOD8232129
Probable space group: P B C M
;
_chemical_formula_sum "Si O2"
_cell_formula_units_Z 64
_cell_length_a 20.259638
_cell_length_b 19.328121
_cell_length_c 9.651060
_cell_angle_alpha 90.000000
_cell_angle_beta 90.000000
_cell_angle_gamma 90.000000
_cell_volume 3779.169165
_symmetry_space_group_name_H-M "P B C M"
_symmetry_group_IT_number 57
_symmetry_cell_setting 'orthorhombic'
loop_
_space_group_symop_operation_xyz
x,y,z
-x,-y,1/2+z
x,1/2-y,-z
-x,1/2+y,1/2-z
-x,-y,-z
x,y,1/2-z
-x,1/2+y,z
x,1/2-y,1/2+z
loop_
_atom_site_type_symbol
_atom_site_label
_atom_site_fract_x
_atom_site_fract_y
_atom_site_fract_z
Si Si1 0.760019 0.444570 0.412161
Si Si2 0.382804 0.180313 0.589051
Si Si3 0.473905 0.684887 0.905487
Si Si4 0.045370 0.412502 0.091551
Si Si5 0.330467 0.819375 0.089202
Si Si6 0.268370 0.077685 0.588750
Si Si7 0.907844 0.036535 0.908868
Si Si8 0.155678 0.314551 0.407504
O O1 0.747949 0.459456 0.250000
O O2 0.721837 0.376108 0.461572
O O3 0.732448 0.508965 0.497707
O O4 0.837218 0.430283 0.444982
O O5 0.373646 0.250000 0.500000
O O6 0.370354 0.199633 0.750000
O O7 0.456313 0.145678 0.567347
O O8 0.331005 0.122856 0.540274
O O9 0.474378 0.713337 0.750000
O O10 0.404064 0.645819 0.931894
O O11 0.473616 0.750000 0.000000
O O12 0.058635 0.434514 0.250000
O O13 0.080171 0.338674 0.062545
O O14 0.966719 0.408080 0.060881
O O15 0.080909 0.469020 0.998709
O O16 0.318712 0.800201 0.250000
O O17 0.321121 0.750000 0.000000
O O18 0.273361 0.057116 0.750000
O O19 0.202638 0.121133 0.557712
O O20 0.909760 0.012366 0.750000
O O21 0.175283 0.250000 0.500000
O O22 0.165271 0.290472 0.250000
#
# Coordination Sequence:
#
# PCOD8232129 Si02
#       8
#     8   8   8   8   8   8   8   8
#     4  10  20  33  50  73  98 126 159 197 239 286
#     4   9  17  29  47  70  95 126 164 202 239 279
#     4   8  14  27  47  68  91 121 157 197 237 281
#     4   9  17  31  49  69  92 119 155 197 236 275
#     4   9  18  33  52  73  96 122 156 197 243 291
#     4  10  20  33  47  68  98 130 163 198 238 284
#     4   9  17  30  50  71  91 119 155 194 234 278
#     4  10  20  32  47  68  97 130 160 195 237 281
#
# _framework density 16.934940000000001
#
# number of rings (size 3 to 8) (size 9 to 14) (size 15 to 20)
#    0.000    2.750    1.250    0.375    0.000    2.000 
#    0.000    1.250    0.000    0.000    0.000    0.000 
#    0.000    0.000    0.000    0.000    0.000    0.000 
#
# Total GULP energy -792976.591674 kJ/mol
# GULP energy per Si atom -12390.259245 kJ/mol
# Density = 1.689639 g / cm^3
# Si number density = 16.934940 Si / 1000 Ang^3
#
#
#
# Elastic Constant Matrix: (Units=GPa)
#
#
# Indices 1 2 3 4 5 6 
#
# 1 143.6327 62.0253 42.6776 0.0000 0.0000 0.0000
# 2 62.0253 89.1696 44.3954 0.0000 0.0000 0.0000
# 3 42.6776 44.3954 53.2236 0.0000 0.0000 0.0000
# 4 0.0000 0.0000 0.0000 27.2662 0.0000 0.0000
# 5 0.0000 0.0000 0.0000 0.0000 20.1483 0.0000
# 6 0.0000 0.0000 0.0000 0.0000 0.0000 23.6849
#
#
#
# Elastic Compliance Matrix: (Units=1/GPa)
#
#
# Indices 1 2 3 4 5 6 
#
# 1 0.010415 -0.005279 -0.003948 0.000000 0.000000 0.000000
# 2 -0.005279 0.021855 -0.013997 0.000000 0.000000 0.000000
# 3 -0.003948 -0.013997 0.033630 0.000000 0.000000 0.000000
# 4 0.000000 0.000000 0.000000 0.036676 0.000000 0.000000
# 5 0.000000 0.000000 0.000000 0.000000 0.049632 0.000000
# 6 0.000000 0.000000 0.000000 0.000000 0.000000 0.042221
#
#
# Mechanical properties :
#
#
# Convention : Reuss Voigt Hill
#
# Bulk Modulus (GPa) = 51.40893 64.91360 58.16127
# Shear Modulus (GPa) = 20.21335 23.34837 21.78086
#
# Velocity S-wave (km/s) = 3.45858 3.71713 3.59018
# Velocity P-wave (km/s) = 6.80968 7.53904 7.18362
#
# Compressibility (1/GPa) = 0.01945187
#
# Stress axis : x y z
#
# Youngs Moduli (GPa) = 96.01684 45.75510 29.73538
#
# Poissons Ratio (x) = 0.24154 0.11739
# Poissons Ratio (y) = 0.50686 0.41622
# Poissons Ratio (z) = 0.37907 0.64045
#
# Static dielectric constant tensor:
#      x y z
#    x 3.922640 0.000000 0.000000 
#    y 0.000000 0.669540 0.000000 
#    z 0.000000 0.000000 3.213580 
# 
# 
# High freq. dielectric constant tensor:
#      x y z
#    x 1.677160 0.000000 0.000000 
#    y 0.000000 1.608510 0.000000 
#    z 0.000000 0.000000 1.656600 
# 
# From -- ./inp_files/8626.got.cif
#   From: 2010.03.12/outbox.cif.g09.slc.cpg/sg57_5_cif.got.tgz:8626.got - 2010.04.16 15:48:40.
