data_PCOD8232897
_publ_section_title
;
Structure prediction by ZEFSAII (Michael W. Deem and Ramdas Pophale) SiO2 
 PCOD8232897
Probable space group: P B C M
;
_chemical_formula_sum "Si O2"
_cell_formula_units_Z 56
_cell_length_a 22.324167
_cell_length_b 14.012804
_cell_length_c 8.785425
_cell_angle_alpha 90.000000
_cell_angle_beta 90.000000
_cell_angle_gamma 90.000000
_cell_volume 2748.293342
_symmetry_space_group_name_H-M "P B C M"
_symmetry_group_IT_number 57
_symmetry_cell_setting 'orthorhombic'
loop_
_space_group_symop_operation_xyz
x,y,z
-x,-y,1/2+z
x,1/2-y,-z
-x,1/2+y,1/2-z
-x,-y,-z
x,y,1/2-z
-x,1/2+y,z
x,1/2-y,1/2+z
loop_
_atom_site_type_symbol
_atom_site_label
_atom_site_fract_x
_atom_site_fract_y
_atom_site_fract_z
Si Si1 0.901128 0.156962 0.579063
Si Si2 0.303329 0.645886 0.429635
Si Si3 0.187569 0.529031 0.427616
Si Si4 0.849983 0.847652 0.570471
Si Si5 0.028076 0.091205 0.921968
Si Si6 0.524471 0.649129 0.429276
Si Si7 0.586420 0.046210 0.570782
O O1 0.873578 0.250000 0.500000
O O2 0.875392 0.148664 0.750000
O O3 0.877418 0.067009 0.481989
O O4 0.972901 0.165414 0.581306
O O5 0.311737 0.750000 0.500000
O O6 0.312508 0.652967 0.250000
O O7 0.238396 0.604501 0.473865
O O8 0.349972 0.570621 0.498263
O O9 0.187103 0.508704 0.250000
O O10 0.196128 0.428781 0.513865
O O11 0.825679 0.750000 0.500000
O O12 0.849464 0.841097 0.750000
O O13 0.917885 0.865237 0.516977
O O14 0.050047 0.069027 0.750000
O O15 0.000000 0.000000 0.000000
O O16 0.546320 0.750000 0.500000
O O17 0.516678 0.662200 0.250000
O O18 0.571708 0.564610 0.467597
O O19 0.461128 0.619286 0.499656
O O20 0.587483 0.063797 0.750000
#
# Coordination Sequence:
#
# PCOD8232897 Si02
#       7
#     8   8   8   8   8   8   8
#     4  11  23  37  57  85 115 150 187 232 289 349
#     4  11  24  41  63  90 120 157 198 244 296 351
#     4  11  24  42  63  86 115 151 195 245 295 350
#     4  12  25  42  64  88 116 153 196 243 297 357
#     4  11  22  37  59  87 118 151 190 235 292 354
#     4  10  20  35  58  89 125 164 204 248 299 351
#     4  10  21  37  59  88 123 164 206 249 297 350
#
# _framework density 20.376280999999999
#
# number of rings (size 3 to 8) (size 9 to 14) (size 15 to 20)
#    0.000    1.143    1.429    5.143    0.000    8.000 
#    0.000    0.714    0.000    1.714    0.000    0.000 
#    0.000    0.000    0.000    0.000    0.000    0.000 
#
# Total GULP energy -694516.189904 kJ/mol
# GULP energy per Si atom -12402.074820 kJ/mol
# Density = 2.032990 g / cm^3
# Si number density = 20.376281 Si / 1000 Ang^3
#
#
#
# Elastic Constant Matrix: (Units=GPa)
#
#
# Indices 1 2 3 4 5 6 
#
# 1 74.0712 27.8587 37.3372 0.0000 0.0000 0.0000
# 2 27.8587 138.8451 62.6668 0.0000 0.0000 0.0000
# 3 37.3372 62.6668 152.8632 0.0000 0.0000 0.0000
# 4 0.0000 0.0000 0.0000 39.5324 0.0000 0.0000
# 5 0.0000 0.0000 0.0000 0.0000 29.0928 0.0000
# 6 0.0000 0.0000 0.0000 0.0000 0.0000 29.3948
#
#
#
# Elastic Compliance Matrix: (Units=1/GPa)
#
#
# Indices 1 2 3 4 5 6 
#
# 1 0.015733 -0.001745 -0.003127 0.000000 0.000000 0.000000
# 2 -0.001745 0.009031 -0.003276 0.000000 0.000000 0.000000
# 3 -0.003127 -0.003276 0.008649 0.000000 0.000000 0.000000
# 4 0.000000 0.000000 0.000000 0.025296 0.000000 0.000000
# 5 0.000000 0.000000 0.000000 0.000000 0.034373 0.000000
# 6 0.000000 0.000000 0.000000 0.000000 0.000000 0.034020
#
#
# Mechanical properties :
#
#
# Convention : Reuss Voigt Hill
#
# Bulk Modulus (GPa) = 58.42604 69.05610 63.74107
# Shear Modulus (GPa) = 33.53363 35.46510 34.49937
#
# Velocity S-wave (km/s) = 4.06115 4.17647 4.11921
# Velocity P-wave (km/s) = 7.12224 7.56447 7.34668
#
# Compressibility (1/GPa) = 0.01711566
#
# Stress axis : x y z
#
# Youngs Moduli (GPa) = 63.55906 110.72889 115.62430
#
# Poissons Ratio (x) = 0.19325 0.36161
# Poissons Ratio (y) = 0.11093 0.37879
# Poissons Ratio (z) = 0.19878 0.36275
#
# Static dielectric constant tensor:
#      x y z
#    x 3.629600 0.000000 0.000000 
#    y 0.000000 3.843980 0.000000 
#    z 0.000000 0.000000 3.792240 
# 
# 
# High freq. dielectric constant tensor:
#      x y z
#    x 1.772810 0.000000 0.000000 
#    y 0.000000 1.808570 0.000000 
#    z 0.000000 0.000000 1.814490 
# 
# From -- ./inp_files/8035.got.cif
#   From: 2010.03.12/outbox.cif.g09.slc.cpg/sg57_5_cif.got.tgz:8035.got - 2010.04.16 15:48:40.
