data_PCOD8232090
_publ_section_title
;
Structure prediction by ZEFSAII (Michael W. Deem and Ramdas Pophale) SiO2 
 PCOD8232090
Probable space group: P B C M
;
_chemical_formula_sum "Si O2"
_cell_formula_units_Z 32
_cell_length_a 7.157893
_cell_length_b 14.155641
_cell_length_c 16.917199
_cell_angle_alpha 90.000000
_cell_angle_beta 90.000000
_cell_angle_gamma 90.000000
_cell_volume 1714.127806
_symmetry_space_group_name_H-M "P B C M"
_symmetry_group_IT_number 57
_symmetry_cell_setting 'orthorhombic'
loop_
_space_group_symop_operation_xyz
x,y,z
-x,-y,1/2+z
x,1/2-y,-z
-x,1/2+y,1/2-z
-x,-y,-z
x,y,1/2-z
-x,1/2+y,z
x,1/2-y,1/2+z
loop_
_atom_site_type_symbol
_atom_site_label
_atom_site_fract_x
_atom_site_fract_y
_atom_site_fract_z
Si Si1 0.293032 0.880042 0.658772
Si Si2 0.865976 0.952741 0.436913
Si Si3 0.009455 0.755885 0.089070
Si Si4 0.631803 0.837235 0.951173
O O1 0.343255 0.890221 0.750000
O O2 0.486286 0.874391 0.612105
O O3 0.164688 0.786984 0.647220
O O4 0.184931 0.972808 0.630347
O O5 0.967976 0.865650 0.391700
O O6 0.683050 0.917981 0.484875
O O7 0.000000 0.000000 0.500000
O O8 0.818791 0.695452 0.094849
O O9 0.088716 0.750000 0.000000
O O10 0.543950 0.750000 0.000000
#
# Coordination Sequence:
#
# PCOD8232090 Si02
#       4
#     8   8   8   8
#     4  12  23  36  59  91 124 152 188 249 307 338
#     4  10  19  39  66  86 109 159 207 238 277 353
#     4   9  19  39  62  84 110 154 200 238 283 351
#     4   9  20  38  63  84 112 156 202 236 278 358
#
# _framework density 18.668386000000002
#
# number of rings (size 3 to 8) (size 9 to 14) (size 15 to 20)
#    0.000    2.500    5.000    1.500    0.000    2.000 
#    0.000    3.750    0.000    0.000    0.000    0.000 
#    0.000    0.000    0.000    0.000    0.000    0.000 
#
# Total GULP energy -396702.047414 kJ/mol
# GULP energy per Si atom -12396.938982 kJ/mol
# Density = 1.862590 g / cm^3
# Si number density = 18.668386 Si / 1000 Ang^3
#
#
#
# Elastic Constant Matrix: (Units=GPa)
#
#
# Indices 1 2 3 4 5 6 
#
# 1 59.5955 39.3661 38.5876 0.0000 0.0000 0.0000
# 2 39.3661 115.7488 48.6900 0.0000 0.0000 0.0000
# 3 38.5876 48.6900 104.4948 0.0000 0.0000 0.0000
# 4 0.0000 0.0000 0.0000 23.4430 0.0000 0.0000
# 5 0.0000 0.0000 0.0000 0.0000 11.2849 0.0000
# 6 0.0000 0.0000 0.0000 0.0000 0.0000 18.2161
#
#
#
# Elastic Compliance Matrix: (Units=1/GPa)
#
#
# Indices 1 2 3 4 5 6 
#
# 1 0.024733 -0.005684 -0.006485 0.000000 0.000000 0.000000
# 2 -0.005684 0.012052 -0.003517 0.000000 0.000000 0.000000
# 3 -0.006485 -0.003517 0.013603 0.000000 0.000000 0.000000
# 4 0.000000 0.000000 0.000000 0.042657 0.000000 0.000000
# 5 0.000000 0.000000 0.000000 0.000000 0.088614 0.000000
# 6 0.000000 0.000000 0.000000 0.000000 0.000000 0.054896
#
#
# Mechanical properties :
#
#
# Convention : Reuss Voigt Hill
#
# Bulk Modulus (GPa) = 52.58397 59.23628 55.91013
# Shear Modulus (GPa) = 18.23050 20.80183 19.51616
#
# Velocity S-wave (km/s) = 3.12836 3.34171 3.23679
# Velocity P-wave (km/s) = 6.42475 6.83294 6.63198
#
# Compressibility (1/GPa) = 0.01901720
#
# Stress axis : x y z
#
# Youngs Moduli (GPa) = 40.43129 82.97532 73.51178
#
# Poissons Ratio (x) = 0.47162 0.47673
# Poissons Ratio (y) = 0.22981 0.25852
# Poissons Ratio (z) = 0.26220 0.29180
#
# Static dielectric constant tensor:
#      x y z
#    x 3.314350 0.000000 0.000000 
#    y 0.000000 4.267500 0.000000 
#    z 0.000000 0.000000 3.169120 
# 
# 
# High freq. dielectric constant tensor:
#      x y z
#    x 1.721630 0.000000 0.000000 
#    y 0.000000 1.739820 0.000000 
#    z 0.000000 0.000000 1.688530 
# 
# From -- ./inp_files/15670.got.cif
#   From: 2010.03.12/outbox.cif.g09.slc.cpg/sg57_8_cif.got.tgz:15670.got - 2010.04.16 15:48:40.
