data_PCOD8232227
_publ_section_title
;
Structure prediction by ZEFSAII (Michael W. Deem and Ramdas Pophale) SiO2 
 PCOD8232227
Probable space group: P B C M
;
_chemical_formula_sum "Si O2"
_cell_formula_units_Z 64
_cell_length_a 21.293936
_cell_length_b 19.313661
_cell_length_c 8.860773
_cell_angle_alpha 90.000000
_cell_angle_beta 90.000000
_cell_angle_gamma 90.000000
_cell_volume 3644.115718
_symmetry_space_group_name_H-M "P B C M"
_symmetry_group_IT_number 57
_symmetry_cell_setting 'orthorhombic'
loop_
_space_group_symop_operation_xyz
x,y,z
-x,-y,1/2+z
x,1/2-y,-z
-x,1/2+y,1/2-z
-x,-y,-z
x,y,1/2-z
-x,1/2+y,z
x,1/2-y,1/2+z
loop_
_atom_site_type_symbol
_atom_site_label
_atom_site_fract_x
_atom_site_fract_y
_atom_site_fract_z
Si Si1 0.296193 0.181671 0.918714
Si Si2 0.444641 0.315948 0.417816
Si Si3 0.304847 0.038378 0.070889
Si Si4 0.798952 0.451670 0.930525
Si Si5 0.447844 0.454143 0.573987
Si Si6 0.130183 0.675676 0.569957
Si Si7 0.983153 0.393947 0.582929
Si Si8 0.913328 0.961568 0.416360
O O1 0.267558 0.175577 0.750000
O O2 0.370265 0.191026 0.907385
O O3 0.267463 0.250000 0.000000
O O4 0.279367 0.112290 0.011224
O O5 0.474510 0.250000 0.500000
O O6 0.473097 0.324466 0.250000
O O7 0.465294 0.377670 0.524176
O O8 0.296104 0.036650 0.250000
O O9 0.377204 0.026948 0.022073
O O10 0.268560 0.974501 0.993285
O O11 0.798847 0.442095 0.750000
O O12 0.845997 0.513944 0.980496
O O13 0.819715 0.379435 0.005385
O O14 0.500000 0.500000 0.500000
O O15 0.453975 0.461353 0.750000
O O16 0.147286 0.750000 0.500000
O O17 0.134884 0.678240 0.750000
O O18 0.059338 0.654726 0.522836
O O19 0.986402 0.360514 0.750000
O O20 0.955211 0.470073 0.592984
O O21 0.053940 0.402346 0.518116
O O22 0.905737 0.929339 0.250000
#
# Coordination Sequence:
#
# PCOD8232227 Si02
#       8
#     8   8   8   8   8   8   8   8
#     4   9  16  27  45  69  96 125 156 193 237 288
#     4   9  16  27  45  69  96 124 155 192 237 289
#     4  10  20  33  50  74 102 133 170 211 256 308
#     4  10  20  34  52  75 102 133 172 214 257 308
#     4  10  20  33  50  73 101 132 168 210 257 309
#     4  11  21  34  52  74 102 135 175 221 264 304
#     4   9  16  27  45  70  97 124 157 196 240 288
#     4   8  15  27  44  68  96 124 154 191 236 286
#
# _framework density 17.562560000000001
#
# number of rings (size 3 to 8) (size 9 to 14) (size 15 to 20)
#    0.000    2.500    0.000    4.125    0.000    8.000 
#    0.000    0.000    0.000    1.500    0.000    0.000 
#    0.000    0.000    0.000    0.000    0.000    0.000 
#
# Total GULP energy -793279.723342 kJ/mol
# GULP energy per Si atom -12394.995677 kJ/mol
# Density = 1.752259 g / cm^3
# Si number density = 17.562560 Si / 1000 Ang^3
#
#
#
# Elastic Constant Matrix: (Units=GPa)
#
#
# Indices 1 2 3 4 5 6 
#
# 1 71.2823 56.6116 44.7395 0.0000 0.0000 0.0000
# 2 56.6116 106.7636 53.0550 0.0000 0.0000 0.0000
# 3 44.7395 53.0550 113.8613 0.0000 0.0000 0.0000
# 4 0.0000 0.0000 0.0000 32.3663 0.0000 0.0000
# 5 0.0000 0.0000 0.0000 0.0000 23.6781 0.0000
# 6 0.0000 0.0000 0.0000 0.0000 0.0000 9.0316
#
#
#
# Elastic Compliance Matrix: (Units=1/GPa)
#
#
# Indices 1 2 3 4 5 6 
#
# 1 0.026239 -0.011438 -0.004980 0.000000 0.000000 0.000000
# 2 -0.011438 0.017175 -0.003509 0.000000 0.000000 0.000000
# 3 -0.004980 -0.003509 0.012374 0.000000 0.000000 0.000000
# 4 0.000000 0.000000 0.000000 0.030896 0.000000 0.000000
# 5 0.000000 0.000000 0.000000 0.000000 0.042233 0.000000
# 6 0.000000 0.000000 0.000000 0.000000 0.000000 0.110723
#
#
# Mechanical properties :
#
#
# Convention : Reuss Voigt Hill
#
# Bulk Modulus (GPa) = 62.75805 66.74658 64.75231
# Shear Modulus (GPa) = 17.55586 22.18195 19.86890
#
# Velocity S-wave (km/s) = 3.16510 3.55776 3.36716
# Velocity P-wave (km/s) = 7.01204 7.41380 7.21572
#
# Compressibility (1/GPa) = 0.01593421
#
# Stress axis : x y z
#
# Youngs Moduli (GPa) = 38.11190 58.22369 80.81257
#
# Poissons Ratio (x) = 0.66597 0.40246
# Poissons Ratio (y) = 0.43593 0.28353
# Poissons Ratio (z) = 0.18980 0.20428
#
# Static dielectric constant tensor:
#      x y z
#    x 3.101930 0.000000 0.000000 
#    y 0.000000 3.214410 0.000000 
#    z 0.000000 0.000000 3.521020 
# 
# 
# High freq. dielectric constant tensor:
#      x y z
#    x 1.641030 0.000000 0.000000 
#    y 0.000000 1.662590 0.000000 
#    z 0.000000 0.000000 1.697520 
# 
# From -- ./inp_files/8547.got.cif
#   From: 2010.03.12/outbox.cif.g09.slc.cpg/sg57_5_cif.got.tgz:8547.got - 2010.04.16 15:48:40.
