data_PCOD8232687
_publ_section_title
;
Structure prediction by ZEFSAII (Michael W. Deem and Ramdas Pophale) SiO2 
 PCOD8232687
Probable space group: P B C M
;
_chemical_formula_sum "Si O2"
_cell_formula_units_Z 64
_cell_length_a 25.907372
_cell_length_b 14.956530
_cell_length_c 8.710503
_cell_angle_alpha 90.000000
_cell_angle_beta 90.000000
_cell_angle_gamma 90.000000
_cell_volume 3375.183911
_symmetry_space_group_name_H-M "P B C M"
_symmetry_group_IT_number 57
_symmetry_cell_setting 'orthorhombic'
loop_
_space_group_symop_operation_xyz
x,y,z
-x,-y,1/2+z
x,1/2-y,-z
-x,1/2+y,1/2-z
-x,-y,-z
x,y,1/2-z
-x,1/2+y,z
x,1/2-y,1/2+z
loop_
_atom_site_type_symbol
_atom_site_label
_atom_site_fract_x
_atom_site_fract_y
_atom_site_fract_z
Si Si1 0.497028 0.850241 0.568791
Si Si2 0.125137 0.654853 0.432259
Si Si3 0.056542 0.999104 0.431685
Si Si4 0.574262 0.493925 0.430174
Si Si5 0.758298 0.342919 0.569711
Si Si6 0.685695 0.501433 0.568054
Si Si7 0.877101 0.654939 0.567682
Si Si8 0.760274 0.657343 0.570039
O O1 0.502122 0.750000 0.500000
O O2 0.493641 0.838372 0.750000
O O3 0.446431 0.903531 0.511321
O O4 0.544768 0.914678 0.519509
O O5 0.109550 0.750000 0.500000
O O6 0.118661 0.653967 0.250000
O O7 0.086512 0.586100 0.507055
O O8 0.183789 0.630445 0.482231
O O9 0.053537 0.996116 0.250000
O O10 0.085489 0.086738 0.486414
O O11 0.000000 0.000000 0.500000
O O12 0.568401 0.478984 0.250000
O O13 0.632939 0.506859 0.476843
O O14 0.740145 0.250000 0.500000
O O15 0.757538 0.333621 0.750000
O O16 0.716995 0.414794 0.513352
O O17 0.675501 0.502097 0.750000
O O18 0.720271 0.583892 0.512465
O O19 0.892795 0.750000 0.500000
O O20 0.884816 0.652308 0.750000
O O21 0.818300 0.631365 0.519834
O O22 0.741798 0.750000 0.500000
O O23 0.758491 0.667329 0.750000
#
# Coordination Sequence:
#
# PCOD8232687 Si02
#       8
#     8   8   8   8   8   8   8   8
#     4  10  21  39  62  83 107 143 186 231 279 330
#     4  10  20  38  61  85 113 146 185 230 277 330
#     4  12  25  40  58  83 111 144 185 230 282 337
#     4  10  22  38  56  83 114 145 185 230 276 327
#     4   9  19  35  56  81 110 145 184 222 267 323
#     4  10  20  35  54  79 115 154 184 221 273 324
#     4  10  20  38  61  85 113 147 186 230 277 329
#     4   9  19  35  56  81 111 147 186 225 270 325
#
# _framework density 18.961929999999999
#
# number of rings (size 3 to 8) (size 9 to 14) (size 15 to 20)
#    0.000    2.000    0.000    3.375    0.000    7.000 
#    0.000    7.500    0.000    0.000    0.000    0.000 
#    0.000    0.000    0.000    0.000    0.000    0.000 
#
# Total GULP energy -793623.557822 kJ/mol
# GULP energy per Si atom -12400.368091 kJ/mol
# Density = 1.891877 g / cm^3
# Si number density = 18.961930 Si / 1000 Ang^3
#
#
#
# Elastic Constant Matrix: (Units=GPa)
#
#
# Indices 1 2 3 4 5 6 
#
# 1 134.7980 92.7493 43.0460 0.0000 0.0000 0.0000
# 2 92.7493 163.0850 54.7691 0.0000 0.0000 0.0000
# 3 43.0460 54.7691 76.1936 0.0000 0.0000 0.0000
# 4 0.0000 0.0000 0.0000 36.9024 0.0000 0.0000
# 5 0.0000 0.0000 0.0000 0.0000 32.7845 0.0000
# 6 0.0000 0.0000 0.0000 0.0000 0.0000 69.3815
#
#
#
# Elastic Compliance Matrix: (Units=1/GPa)
#
#
# Indices 1 2 3 4 5 6 
#
# 1 0.012563 -0.006276 -0.002586 0.000000 0.000000 0.000000
# 2 -0.006276 0.011219 -0.004518 0.000000 0.000000 0.000000
# 3 -0.002586 -0.004518 0.017833 0.000000 0.000000 0.000000
# 4 0.000000 0.000000 0.000000 0.027099 0.000000 0.000000
# 5 0.000000 0.000000 0.000000 0.000000 0.030502 0.000000
# 6 0.000000 0.000000 0.000000 0.000000 0.000000 0.014413
#
#
# Mechanical properties :
#
#
# Convention : Reuss Voigt Hill
#
# Bulk Modulus (GPa) = 67.32372 83.91171 75.61772
# Shear Modulus (GPa) = 34.40203 40.04783 37.22493
#
# Velocity S-wave (km/s) = 4.26404 4.60065 4.43554
# Velocity P-wave (km/s) = 7.73463 8.51881 8.13617
#
# Compressibility (1/GPa) = 0.01485361
#
# Stress axis : x y z
#
# Youngs Moduli (GPa) = 79.60080 89.13829 56.07515
#
# Poissons Ratio (x) = 0.55945 0.14501
# Poissons Ratio (y) = 0.49959 0.25336
# Poissons Ratio (z) = 0.20584 0.40275
#
# Static dielectric constant tensor:
#      x y z
#    x 3.559050 0.000000 0.000000 
#    y 0.000000 3.680120 0.000000 
#    z 0.000000 0.000000 3.508170 
# 
# 
# High freq. dielectric constant tensor:
#      x y z
#    x 1.738990 0.000000 0.000000 
#    y 0.000000 1.749120 0.000000 
#    z 0.000000 0.000000 1.741990 
# 
# From -- ./inp_files/9442.got.cif
#   From: 2010.03.12/outbox.cif.g09.slc.cpg/sg57_5_cif.got.tgz:9442.got - 2010.04.16 15:48:40.
