data_PCOD8232392
_publ_section_title
;
Structure prediction by ZEFSAII (Michael W. Deem and Ramdas Pophale) SiO2 
 PCOD8232392
Probable space group: P B C M
;
_chemical_formula_sum "Si O2"
_cell_formula_units_Z 40
_cell_length_a 16.342602
_cell_length_b 14.510221
_cell_length_c 9.099723
_cell_angle_alpha 90.000000
_cell_angle_beta 90.000000
_cell_angle_gamma 90.000000
_cell_volume 2157.860691
_symmetry_space_group_name_H-M "P B C M"
_symmetry_group_IT_number 57
_symmetry_cell_setting 'orthorhombic'
loop_
_space_group_symop_operation_xyz
x,y,z
-x,-y,1/2+z
x,1/2-y,-z
-x,1/2+y,1/2-z
-x,-y,-z
x,y,1/2-z
-x,1/2+y,z
x,1/2-y,1/2+z
loop_
_atom_site_type_symbol
_atom_site_label
_atom_site_fract_x
_atom_site_fract_y
_atom_site_fract_z
Si Si1 0.697438 0.501587 0.579904
Si Si2 0.426280 0.156213 0.920957
Si Si3 0.018650 0.849821 0.423579
Si Si4 0.884825 0.997964 0.419028
Si Si5 0.610603 0.155449 0.578460
O O1 0.679503 0.478993 0.750000
O O2 0.639009 0.582538 0.522254
O O3 0.791064 0.529521 0.553543
O O4 0.677451 0.414151 0.481811
O O5 0.416469 0.174965 0.750000
O O6 0.518190 0.122128 0.958888
O O7 0.404375 0.250000 0.000000
O O8 0.015860 0.750000 0.500000
O O9 0.029655 0.834998 0.250000
O O10 0.093251 0.912222 0.484099
O O11 0.936357 0.906988 0.462471
O O12 0.901479 0.024686 0.250000
O O13 0.629845 0.250000 0.500000
O O14 0.623592 0.168956 0.750000
#
# Coordination Sequence:
#
# PCOD8232392 Si02
#       5
#     8   8   8   8   8
#     4  10  20  35  54  77 106 136 169 214 261 301
#     4   9  19  34  52  75 104 138 175 214 255 302
#     4  10  20  36  58  80 104 135 169 207 254 307
#     4   9  20  37  55  78 106 135 170 210 253 306
#     4  10  20  34  52  75 103 138 178 215 255 303
#
# _framework density 18.53688
#
# number of rings (size 3 to 8) (size 9 to 14) (size 15 to 20)
#    0.000    2.400    0.000    1.800    0.000    4.800 
#    0.000    0.000    0.000    0.000    0.000    0.000 
#    0.000    0.000    0.000    0.000    0.000    0.000 
#
# Total GULP energy -496034.770525 kJ/mol
# GULP energy per Si atom -12400.869263 kJ/mol
# Density = 1.849469 g / cm^3
# Si number density = 18.536880 Si / 1000 Ang^3
#
#
#
# Elastic Constant Matrix: (Units=GPa)
#
#
# Indices 1 2 3 4 5 6 
#
# 1 65.5981 27.5327 20.8821 0.0000 0.0000 0.0000
# 2 27.5327 92.4819 43.0519 0.0000 0.0000 0.0000
# 3 20.8821 43.0519 65.0844 0.0000 0.0000 0.0000
# 4 0.0000 0.0000 0.0000 36.4042 0.0000 0.0000
# 5 0.0000 0.0000 0.0000 0.0000 25.9194 0.0000
# 6 0.0000 0.0000 0.0000 0.0000 0.0000 20.1654
#
#
#
# Elastic Compliance Matrix: (Units=1/GPa)
#
#
# Indices 1 2 3 4 5 6 
#
# 1 0.017871 -0.003831 -0.003200 0.000000 0.000000 0.000000
# 2 -0.003831 0.016445 -0.009649 0.000000 0.000000 0.000000
# 3 -0.003200 -0.009649 0.022774 0.000000 0.000000 0.000000
# 4 0.000000 0.000000 0.000000 0.027469 0.000000 0.000000
# 5 0.000000 0.000000 0.000000 0.000000 0.038581 0.000000
# 6 0.000000 0.000000 0.000000 0.000000 0.000000 0.049590
#
#
# Mechanical properties :
#
#
# Convention : Reuss Voigt Hill
#
# Bulk Modulus (GPa) = 42.13951 45.12198 43.63075
# Shear Modulus (GPa) = 23.36451 25.27764 24.32107
#
# Velocity S-wave (km/s) = 3.55411 3.69676 3.62613
# Velocity P-wave (km/s) = 6.29479 6.52809 6.41250
#
# Compressibility (1/GPa) = 0.02373070
#
# Stress axis : x y z
#
# Youngs Moduli (GPa) = 55.95721 60.80812 43.90975
#
# Poissons Ratio (x) = 0.23294 0.14050
# Poissons Ratio (y) = 0.21436 0.42369
# Poissons Ratio (z) = 0.17906 0.58674
#
# Static dielectric constant tensor:
#      x y z
#    x 3.450620 0.000000 0.000000 
#    y 0.000000 2.975050 0.000000 
#    z 0.000000 0.000000 3.416410 
# 
# 
# High freq. dielectric constant tensor:
#      x y z
#    x 1.719020 0.000000 0.000000 
#    y 0.000000 1.718570 0.000000 
#    z 0.000000 0.000000 1.722560 
# 
# From -- ./inp_files/4263.got.cif
#   From: 2010.03.12/outbox.cif.g09.slc.cpg/sg57_3_cif.got.tgz:4263.got - 2010.04.16 15:48:40.
