data_PCOD8232510
_publ_section_title
;
Structure prediction by ZEFSAII (Michael W. Deem and Ramdas Pophale) SiO2 
 PCOD8232510
Probable space group: P B C M
;
_chemical_formula_sum "Si O2"
_cell_formula_units_Z 56
_cell_length_a 17.773182
_cell_length_b 18.977368
_cell_length_c 8.952959
_cell_angle_alpha 90.000000
_cell_angle_beta 90.000000
_cell_angle_gamma 90.000000
_cell_volume 3019.727563
_symmetry_space_group_name_H-M "P B C M"
_symmetry_group_IT_number 57
_symmetry_cell_setting 'orthorhombic'
loop_
_space_group_symop_operation_xyz
x,y,z
-x,-y,1/2+z
x,1/2-y,-z
-x,1/2+y,1/2-z
-x,-y,-z
x,y,1/2-z
-x,1/2+y,z
x,1/2-y,1/2+z
loop_
_atom_site_type_symbol
_atom_site_label
_atom_site_fract_x
_atom_site_fract_y
_atom_site_fract_z
Si Si1 0.363998 0.174231 0.575894
Si Si2 0.530877 0.174898 0.576454
Si Si3 0.202450 0.559472 0.423352
Si Si4 0.325019 0.825680 0.574907
Si Si5 0.763022 0.585069 0.426070
Si Si6 0.968778 0.069142 0.075608
Si Si7 0.906794 0.674981 0.425361
O O1 0.353387 0.250000 0.500000
O O2 0.346073 0.184404 0.750000
O O3 0.448090 0.141641 0.552615
O O4 0.309187 0.117576 0.505144
O O5 0.528071 0.250000 0.500000
O O6 0.550326 0.182025 0.750000
O O7 0.600340 0.135350 0.494259
O O8 0.208573 0.537542 0.250000
O O9 0.253555 0.626322 0.461345
O O10 0.229035 0.495173 0.524249
O O11 0.117819 0.581775 0.466467
O O12 0.310967 0.750000 0.500000
O O13 0.336960 0.815510 0.750000
O O14 0.751100 0.588283 0.250000
O O15 0.836680 0.627590 0.477348
O O16 0.981044 0.058193 0.250000
O O17 0.016688 0.136649 0.021099
O O18 0.000000 0.000000 0.000000
O O19 0.900457 0.750000 0.500000
O O20 0.905681 0.686782 0.250000
#
# Coordination Sequence:
#
# PCOD8232510 Si02
#       7
#     8   8   8   8   8   8   8
#     4  10  20  34  54  81 112 146 187 229 275 328
#     4   9  17  31  53  79 107 143 183 226 275 327
#     4  10  22  38  58  81 110 147 183 225 279 333
#     4  10  20  35  56  83 111 142 182 228 278 330
#     4  11  22  36  55  81 112 147 188 229 274 330
#     4  10  20  38  59  80 108 143 184 226 271 326
#     4  10  22  37  55  83 113 142 182 226 270 323
#
# _framework density 18.544718
#
# number of rings (size 3 to 8) (size 9 to 14) (size 15 to 20)
#    0.000    2.000    1.429    3.000    0.000    6.286 
#    0.000    0.714    0.000    0.000    0.000    0.000 
#    0.000    0.000    0.000    0.000    0.000    0.000 
#
# Total GULP energy -694305.201418 kJ/mol
# GULP energy per Si atom -12398.307168 kJ/mol
# Density = 1.850251 g / cm^3
# Si number density = 18.544718 Si / 1000 Ang^3
#
#
#
# Elastic Constant Matrix: (Units=GPa)
#
#
# Indices 1 2 3 4 5 6 
#
# 1 173.0244 67.2322 70.7138 0.0000 0.0000 0.0000
# 2 67.2322 98.6337 51.2698 0.0000 0.0000 0.0000
# 3 70.7138 51.2698 92.2104 0.0000 0.0000 0.0000
# 4 0.0000 0.0000 0.0000 31.1236 0.0000 0.0000
# 5 0.0000 0.0000 0.0000 0.0000 9.9276 0.0000
# 6 0.0000 0.0000 0.0000 0.0000 0.0000 31.3474
#
#
#
# Elastic Compliance Matrix: (Units=1/GPa)
#
#
# Indices 1 2 3 4 5 6 
#
# 1 0.009286 -0.003697 -0.005066 0.000000 0.000000 0.000000
# 2 -0.003697 0.015731 -0.005912 0.000000 0.000000 0.000000
# 3 -0.005066 -0.005912 0.018017 0.000000 0.000000 0.000000
# 4 0.000000 0.000000 0.000000 0.032130 0.000000 0.000000
# 5 0.000000 0.000000 0.000000 0.000000 0.100730 0.000000
# 6 0.000000 0.000000 0.000000 0.000000 0.000000 0.031901
#
#
# Mechanical properties :
#
#
# Convention : Reuss Voigt Hill
#
# Bulk Modulus (GPa) = 73.07109 82.47777 77.77443
# Shear Modulus (GPa) = 20.68630 26.12323 23.40477
#
# Velocity S-wave (km/s) = 3.34351 3.75729 3.55642
# Velocity P-wave (km/s) = 7.37520 7.96207 7.67425
#
# Compressibility (1/GPa) = 0.01368530
#
# Stress axis : x y z
#
# Youngs Moduli (GPa) = 107.68420 63.56781 55.50311
#
# Poissons Ratio (x) = 0.23498 0.28119
# Poissons Ratio (y) = 0.39806 0.32813
# Poissons Ratio (z) = 0.54555 0.37581
#
# Static dielectric constant tensor:
#      x y z
#    x 4.276100 0.000000 0.000000 
#    y 0.000000 3.137970 0.000000 
#    z 0.000000 0.000000 3.536920 
# 
# 
# High freq. dielectric constant tensor:
#      x y z
#    x 1.741530 0.000000 0.000000 
#    y 0.000000 1.696250 0.000000 
#    z 0.000000 0.000000 1.727530 
# 
# From -- ./inp_files/7069.got.cif
#   From: 2010.03.12/outbox.cif.g09.slc.cpg/sg57_4_cif.got.tgz:7069.got - 2010.04.16 15:48:40.
