data_PCOD8232302
_publ_section_title
;
Structure prediction by ZEFSAII (Michael W. Deem and Ramdas Pophale) SiO2 
 PCOD8232302
Probable space group: P B C M
;
_chemical_formula_sum "Si O2"
_cell_formula_units_Z 64
_cell_length_a 19.723228
_cell_length_b 20.017353
_cell_length_c 8.968347
_cell_angle_alpha 90.000000
_cell_angle_beta 90.000000
_cell_angle_gamma 90.000000
_cell_volume 3540.764534
_symmetry_space_group_name_H-M "P B C M"
_symmetry_group_IT_number 57
_symmetry_cell_setting 'orthorhombic'
loop_
_space_group_symop_operation_xyz
x,y,z
-x,-y,1/2+z
x,1/2-y,-z
-x,1/2+y,1/2-z
-x,-y,-z
x,y,1/2-z
-x,1/2+y,z
x,1/2-y,1/2+z
loop_
_atom_site_type_symbol
_atom_site_label
_atom_site_fract_x
_atom_site_fract_y
_atom_site_fract_z
Si Si1 0.938592 0.681388 0.925429
Si Si2 0.675915 0.454731 0.579716
Si Si3 0.190274 0.935279 0.425800
Si Si4 0.434654 0.320343 0.425938
Si Si5 0.700522 0.894037 0.078272
Si Si6 0.476025 0.567750 0.425454
Si Si7 0.164754 0.414352 0.925992
Si Si8 0.905200 0.317903 0.424854
O O1 0.926003 0.686329 0.750000
O O2 0.016817 0.668363 0.965792
O O3 0.912985 0.750000 0.000000
O O4 0.898287 0.619333 0.992620
O O5 0.696881 0.444369 0.750000
O O6 0.734142 0.419397 0.482876
O O7 0.670242 0.533203 0.541657
O O8 0.603857 0.421401 0.544394
O O9 0.192012 0.933118 0.250000
O O10 0.138457 0.879804 0.488385
O O11 0.166128 0.008503 0.479615
O O12 0.449406 0.250000 0.500000
O O13 0.447864 0.317992 0.250000
O O14 0.357472 0.340988 0.461552
O O15 0.486649 0.371087 0.499125
O O16 0.723033 0.888418 0.250000
O O17 0.765539 0.878513 0.975869
O O18 0.500000 0.500000 0.500000
O O19 0.491801 0.564328 0.250000
O O20 0.156048 0.407087 0.750000
O O21 0.878956 0.250000 0.500000
O O22 0.895021 0.309612 0.250000
#
# Coordination Sequence:
#
# PCOD8232302 Si02
#       8
#     8   8   8   8   8   8   8   8
#     4  10  20  35  54  75 103 141 180 223 269 320
#     4   9  18  34  55  81 108 137 178 222 264 319
#     4   9  19  35  54  80 111 141 175 222 271 321
#     4  11  23  39  56  81 113 147 185 231 279 330
#     4   9  18  35  54  74 106 143 179 219 266 321
#     4  11  21  36  59  85 111 145 186 229 274 328
#     4  10  20  33  52  80 111 142 178 219 266 320
#     4   9  19  36  56  78 105 138 181 224 270 324
#
# _framework density 18.075191
#
# number of rings (size 3 to 8) (size 9 to 14) (size 15 to 20)
#    0.000    2.250    1.250    1.500    0.000    4.500 
#    0.000    1.875    0.000    1.500    0.000    0.000 
#    0.000    0.000    0.000    0.000    0.000    0.000 
#
# Total GULP energy -793752.993143 kJ/mol
# GULP energy per Si atom -12402.390518 kJ/mol
# Density = 1.803405 g / cm^3
# Si number density = 18.075191 Si / 1000 Ang^3
#
#
#
# Elastic Constant Matrix: (Units=GPa)
#
#
# Indices 1 2 3 4 5 6 
#
# 1 107.9221 77.5164 52.9587 0.0000 0.0000 0.0000
# 2 77.5164 126.6782 53.9756 0.0000 0.0000 0.0000
# 3 52.9587 53.9756 74.8180 0.0000 0.0000 0.0000
# 4 0.0000 0.0000 0.0000 30.4154 0.0000 0.0000
# 5 0.0000 0.0000 0.0000 0.0000 33.0784 0.0000
# 6 0.0000 0.0000 0.0000 0.0000 0.0000 28.7488
#
#
#
# Elastic Compliance Matrix: (Units=1/GPa)
#
#
# Indices 1 2 3 4 5 6 
#
# 1 0.018931 -0.008482 -0.007281 0.000000 0.000000 0.000000
# 2 -0.008482 0.015198 -0.004960 0.000000 0.000000 0.000000
# 3 -0.007281 -0.004960 0.022098 0.000000 0.000000 0.000000
# 4 0.000000 0.000000 0.000000 0.032878 0.000000 0.000000
# 5 0.000000 0.000000 0.000000 0.000000 0.030231 0.000000
# 6 0.000000 0.000000 0.000000 0.000000 0.000000 0.034784
#
#
# Mechanical properties :
#
#
# Convention : Reuss Voigt Hill
#
# Bulk Modulus (GPa) = 67.65694 75.36888 71.51291
# Shear Modulus (GPa) = 24.93853 26.77969 25.85911
#
# Velocity S-wave (km/s) = 3.71847 3.85329 3.78648
# Velocity P-wave (km/s) = 7.47985 7.84762 7.66594
#
# Compressibility (1/GPa) = 0.01478045
#
# Stress axis : x y z
#
# Youngs Moduli (GPa) = 52.82341 65.79946 45.25311
#
# Poissons Ratio (x) = 0.55810 0.32949
# Poissons Ratio (y) = 0.44804 0.22447
# Poissons Ratio (z) = 0.38461 0.32638
#
# Static dielectric constant tensor:
#      x y z
#    x 3.481750 0.000000 0.000000 
#    y 0.000000 3.387860 0.000000 
#    z 0.000000 0.000000 3.322980 
# 
# 
# High freq. dielectric constant tensor:
#      x y z
#    x 1.703810 0.000000 0.000000 
#    y 0.000000 1.689890 0.000000 
#    z 0.000000 0.000000 1.705200 
# 
# From -- ./inp_files/7255.got.cif
#   From: 2010.03.12/outbox.cif.g09.slc.cpg/sg57_4_cif.got.tgz:7255.got - 2010.04.16 15:48:40.
