data_PCOD8232164
_publ_section_title
;
Structure prediction by ZEFSAII (Michael W. Deem and Ramdas Pophale) SiO2 
 PCOD8232164
Probable space group: P B C M
;
_chemical_formula_sum "Si O2"
_cell_formula_units_Z 52
_cell_length_a 11.599112
_cell_length_b 9.275778
_cell_length_c 25.667225
_cell_angle_alpha 90.000000
_cell_angle_beta 90.000000
_cell_angle_gamma 90.000000
_cell_volume 2761.556961
_symmetry_space_group_name_H-M "P B C M"
_symmetry_group_IT_number 57
_symmetry_cell_setting 'orthorhombic'
loop_
_space_group_symop_operation_xyz
x,y,z
-x,-y,1/2+z
x,1/2-y,-z
-x,1/2+y,1/2-z
-x,-y,-z
x,y,1/2-z
-x,1/2+y,z
x,1/2-y,1/2+z
loop_
_atom_site_type_symbol
_atom_site_label
_atom_site_fract_x
_atom_site_fract_y
_atom_site_fract_z
Si Si1 0.856624 0.499755 0.190724
Si Si2 0.753059 0.611297 0.893853
Si Si3 0.545064 0.492454 0.568089
Si Si4 0.121260 0.420273 0.498251
Si Si5 0.503607 0.250000 0.500000
Si Si6 0.923676 0.678689 0.808458
Si Si7 0.283696 0.444836 0.593843
O O1 0.806895 0.493245 0.250000
O O2 0.921560 0.651069 0.180758
O O3 0.756671 0.481342 0.147953
O O4 0.946741 0.372094 0.180712
O O5 0.635279 0.518269 0.884957
O O6 0.835037 0.591934 0.844512
O O7 0.712216 0.774488 0.900194
O O8 0.816279 0.544635 0.944056
O O9 0.577327 0.336111 0.543332
O O10 0.573576 0.622700 0.526400
O O11 0.412278 0.503893 0.584647
O O12 0.098549 0.250000 0.500000
O O13 0.198565 0.481232 0.545991
O O14 0.000000 0.500000 0.500000
O O15 0.886024 0.640548 0.750000
#
# Coordination Sequence:
#
# PCOD8232164 Si02
#       7
#     8   8   8   8   4   8   8
#     4   9  18  35  58  80 104 139 179 217 263 316
#     4  10  20  35  54  75 108 142 171 215 266 315
#     4  11  20  36  53  78 102 142 185 213 258 316
#     4  10  20  34  49  72 104 135 165 208 264 311
#     4  10  20  32  54  70 104 138 178 212 246 308
#     4   9  18  35  58  80 104 139 179 217 263 316
#     4  10  20  35  54  75 108 142 171 215 266 315
#
# _framework density 18.829958000000001
#
# number of rings (size 3 to 8) (size 9 to 14) (size 15 to 20)
#    0.000    2.154    1.538    2.769    2.154    0.000 
#    8.308    0.769    0.000    0.000    0.000    0.000 
#    0.000    0.000    0.000    0.000    0.000    0.000 
#
# Total GULP energy -644462.031248 kJ/mol
# GULP energy per Si atom -12393.500601 kJ/mol
# Density = 1.878710 g / cm^3
# Si number density = 18.829958 Si / 1000 Ang^3
#
#
#
# Elastic Constant Matrix: (Units=GPa)
#
#
# Indices 1 2 3 4 5 6 
#
# 1 116.6234 19.9363 50.4915 0.0000 0.0000 0.0000
# 2 19.9363 48.6666 18.1787 0.0000 0.0000 0.0000
# 3 50.4915 18.1787 96.7232 0.0000 0.0000 0.0000
# 4 0.0000 0.0000 0.0000 18.8533 0.0000 0.0000
# 5 0.0000 0.0000 0.0000 0.0000 18.5132 0.0000
# 6 0.0000 0.0000 0.0000 0.0000 0.0000 27.6105
#
#
#
# Elastic Compliance Matrix: (Units=1/GPa)
#
#
# Indices 1 2 3 4 5 6 
#
# 1 0.011383 -0.002628 -0.005448 0.000000 0.000000 0.000000
# 2 -0.002628 0.022706 -0.002896 0.000000 0.000000 0.000000
# 3 -0.005448 -0.002896 0.013727 0.000000 0.000000 0.000000
# 4 0.000000 0.000000 0.000000 0.053041 0.000000 0.000000
# 5 0.000000 0.000000 0.000000 0.000000 0.054016 0.000000
# 6 0.000000 0.000000 0.000000 0.000000 0.000000 0.036218
#
#
# Mechanical properties :
#
#
# Convention : Reuss Voigt Hill
#
# Bulk Modulus (GPa) = 38.65113 48.80291 43.72702
# Shear Modulus (GPa) = 22.55731 24.55586 23.55658
#
# Velocity S-wave (km/s) = 3.46489 3.61513 3.54081
# Velocity P-wave (km/s) = 6.04800 6.58783 6.32368
#
# Compressibility (1/GPa) = 0.02587246
#
# Stress axis : x y z
#
# Youngs Moduli (GPa) = 87.85412 44.04103 72.84917
#
# Poissons Ratio (x) = 0.11573 0.39688
# Poissons Ratio (y) = 0.23087 0.21095
# Poissons Ratio (z) = 0.47863 0.12753
#
# Static dielectric constant tensor:
#      x y z
#    x 3.362920 0.000000 0.000000 
#    y 0.000000 3.434450 0.000000 
#    z 0.000000 0.000000 3.637040 
# 
# 
# High freq. dielectric constant tensor:
#      x y z
#    x 1.720920 0.000000 0.000000 
#    y 0.000000 1.724520 0.000000 
#    z 0.000000 0.000000 1.723550 
# 
# From -- ./inp_files/28571.got.cif
#   From: 2010.03.12/outbox.cif.g09.slc.cpg/sg57_15_cif.got.tgz:28571.got - 2010.04.16 15:48:40.
