data_PCOD8232212
_publ_section_title
;
Structure prediction by ZEFSAII (Michael W. Deem and Ramdas Pophale) SiO2 
 PCOD8232212
Probable space group: P B C M
;
_chemical_formula_sum "Si O2"
_cell_formula_units_Z 64
_cell_length_a 16.988650
_cell_length_b 24.113159
_cell_length_c 8.748580
_cell_angle_alpha 90.000000
_cell_angle_beta 90.000000
_cell_angle_gamma 90.000000
_cell_volume 3583.855960
_symmetry_space_group_name_H-M "P B C M"
_symmetry_group_IT_number 57
_symmetry_cell_setting 'orthorhombic'
loop_
_space_group_symop_operation_xyz
x,y,z
-x,-y,1/2+z
x,1/2-y,-z
-x,1/2+y,1/2-z
-x,-y,-z
x,y,1/2-z
-x,1/2+y,z
x,1/2-y,1/2+z
loop_
_atom_site_type_symbol
_atom_site_label
_atom_site_fract_x
_atom_site_fract_y
_atom_site_fract_z
Si Si1 0.180073 0.026145 0.072646
Si Si2 0.131954 0.192308 0.929646
Si Si3 0.133066 0.590653 0.930842
Si Si4 0.246245 0.689317 0.570183
Si Si5 0.272851 0.371395 0.567970
Si Si6 0.597717 0.189699 0.429520
Si Si7 0.965687 0.599557 0.428016
Si Si8 0.425282 0.310322 0.570704
O O1 0.197149 0.027076 0.250000
O O2 0.246304 0.067962 0.001301
O O3 0.092134 0.048083 0.036842
O O4 0.186105 0.962458 0.015776
O O5 0.142939 0.196870 0.750000
O O6 0.105341 0.250000 0.000000
O O7 0.214220 0.174682 0.004212
O O8 0.061602 0.150880 0.969811
O O9 0.115915 0.587623 0.750000
O O10 0.176251 0.647658 0.975717
O O11 0.053226 0.584508 0.023937
O O12 0.229356 0.750000 0.500000
O O13 0.253224 0.696087 0.750000
O O14 0.327025 0.660372 0.507836
O O15 0.266428 0.370326 0.750000
O O16 0.360754 0.354957 0.512671
O O17 0.597033 0.250000 0.500000
O O18 0.612650 0.192181 0.250000
O O19 0.511820 0.163831 0.468896
O O20 0.962219 0.615765 0.250000
O O21 0.411032 0.250000 0.500000
O O22 0.417744 0.300981 0.750000
#
# Coordination Sequence:
#
# PCOD8232212 Si02
#       8
#     8   8   8   8   8   8   8   8
#     4   8  16  32  52  71  94 124 159 198 237 281
#     4  11  21  33  48  68  98 133 164 195 235 283
#     4  10  20  34  52  73  94 121 159 200 242 288
#     4  10  20  33  50  71  96 124 154 192 239 288
#     4   9  17  31  49  71  98 127 161 198 236 280
#     4   9  16  28  46  68  95 125 156 191 232 278
#     4  10  20  34  52  73  95 123 159 200 244 285
#     4   9  17  27  44  71  99 127 158 192 232 278
#
# _framework density 17.857861
#
# number of rings (size 3 to 8) (size 9 to 14) (size 15 to 20)
#    0.000    2.500    0.000    4.500    0.000    3.500 
#    0.000    3.750    0.000    0.750    0.000    0.000 
#    0.000    0.000    0.000    0.000    0.000    2.625 
#
# Total GULP energy -793032.409365 kJ/mol
# GULP energy per Si atom -12391.131396 kJ/mol
# Density = 1.781722 g / cm^3
# Si number density = 17.857861 Si / 1000 Ang^3
#
#
#
# Elastic Constant Matrix: (Units=GPa)
#
#
# Indices 1 2 3 4 5 6 
#
# 1 93.6535 35.5238 27.4559 0.0000 0.0000 0.0000
# 2 35.5238 90.1883 25.3189 0.0000 0.0000 0.0000
# 3 27.4559 25.3189 44.2100 0.0000 0.0000 0.0000
# 4 0.0000 0.0000 0.0000 17.3349 0.0000 0.0000
# 5 0.0000 0.0000 0.0000 0.0000 25.0105 0.0000
# 6 0.0000 0.0000 0.0000 0.0000 0.0000 18.0651
#
#
#
# Elastic Compliance Matrix: (Units=1/GPa)
#
#
# Indices 1 2 3 4 5 6 
#
# 1 0.014001 -0.003663 -0.006598 0.000000 0.000000 0.000000
# 2 -0.003663 0.014170 -0.005841 0.000000 0.000000 0.000000
# 3 -0.006598 -0.005841 0.030062 0.000000 0.000000 0.000000
# 4 0.000000 0.000000 0.000000 0.057687 0.000000 0.000000
# 5 0.000000 0.000000 0.000000 0.000000 0.039983 0.000000
# 6 0.000000 0.000000 0.000000 0.000000 0.000000 0.055355
#
#
# Mechanical properties :
#
#
# Convention : Reuss Voigt Hill
#
# Bulk Modulus (GPa) = 38.41543 44.96100 41.68822
# Shear Modulus (GPa) = 19.83046 21.39898 20.61472
#
# Velocity S-wave (km/s) = 3.33597 3.46539 3.40130
# Velocity P-wave (km/s) = 6.03297 6.42213 6.23059
#
# Compressibility (1/GPa) = 0.02603121
#
# Stress axis : x y z
#
# Youngs Moduli (GPa) = 71.42282 70.57046 33.26504
#
# Poissons Ratio (x) = 0.25848 0.21947
# Poissons Ratio (y) = 0.26160 0.19429
# Poissons Ratio (z) = 0.47122 0.41217
#
# Static dielectric constant tensor:
#      x y z
#    x 3.848570 0.000000 0.000000 
#    y 0.000000 3.415670 0.000000 
#    z 0.000000 0.000000 3.250740 
# 
# 
# High freq. dielectric constant tensor:
#      x y z
#    x 1.691750 0.000000 0.000000 
#    y 0.000000 1.671460 0.000000 
#    z 0.000000 0.000000 1.684720 
# 
# From -- ./inp_files/7450.got.cif
#   From: 2010.03.12/outbox.cif.g09.slc.cpg/sg57_4_cif.got.tgz:7450.got - 2010.04.16 15:48:40.
