data_PCOD8232536
_publ_section_title
;
Structure prediction by ZEFSAII (Michael W. Deem and Ramdas Pophale) SiO2 
 PCOD8232536
Probable space group: P B C M
;
_chemical_formula_sum "Si O2"
_cell_formula_units_Z 64
_cell_length_a 19.983984
_cell_length_b 19.742658
_cell_length_c 8.716250
_cell_angle_alpha 90.000000
_cell_angle_beta 90.000000
_cell_angle_gamma 90.000000
_cell_volume 3438.882791
_symmetry_space_group_name_H-M "P B C M"
_symmetry_group_IT_number 57
_symmetry_cell_setting 'orthorhombic'
loop_
_space_group_symop_operation_xyz
x,y,z
-x,-y,1/2+z
x,1/2-y,-z
-x,1/2+y,1/2-z
-x,-y,-z
x,y,1/2-z
-x,1/2+y,z
x,1/2-y,1/2+z
loop_
_atom_site_type_symbol
_atom_site_label
_atom_site_fract_x
_atom_site_fract_y
_atom_site_fract_z
Si Si1 0.021577 0.321078 0.071094
Si Si2 0.819017 0.042026 0.431203
Si Si3 0.445906 0.047958 0.428678
Si Si4 0.286059 0.317593 0.421681
Si Si5 0.134939 0.678667 0.570431
Si Si6 0.706175 0.542077 0.431795
Si Si7 0.555377 0.684257 0.579531
Si Si8 0.938790 0.541446 0.068316
O O1 0.038111 0.320847 0.250000
O O2 0.943353 0.332806 0.039215
O O3 0.045527 0.250000 0.000000
O O4 0.062037 0.381538 0.991107
O O5 0.830582 0.037250 0.250000
O O6 0.825196 0.119494 0.484817
O O7 0.745716 0.016147 0.477996
O O8 0.870793 0.994252 0.519177
O O9 0.448848 0.039501 0.250000
O O10 0.370603 0.032711 0.486135
O O11 0.467872 0.122767 0.474881
O O12 0.500000 0.000000 0.500000
O O13 0.255288 0.250000 0.500000
O O14 0.256257 0.324897 0.250000
O O15 0.266568 0.383683 0.520268
O O16 0.365215 0.309645 0.413172
O O17 0.158600 0.750000 0.500000
O O18 0.151606 0.677363 0.750000
O O19 0.714944 0.534060 0.250000
O O20 0.523865 0.750000 0.500000
O O21 0.525639 0.675941 0.750000
O O22 0.945099 0.540839 0.250000
O O23 0.000000 0.500000 0.000000
#
# Coordination Sequence:
#
# PCOD8232536 Si02
#       8
#     8   8   8   8   8   8   8   8
#     4  10  20  35  56  82 113 148 186 231 279 329
#     4  12  24  38  58  83 113 148 186 229 279 332
#     4  10  20  34  55  81 110 144 182 226 275 329
#     4   9  16  28  48  74 103 138 178 219 263 313
#     4  10  20  35  57  83 112 143 183 231 277 327
#     4  10  21  37  55  79 111 146 185 228 276 328
#     4   9  16  27  46  73 105 137 174 218 262 313
#     4  12  23  37  57  82 112 146 184 228 276 327
#
# _framework density 18.610695
#
# number of rings (size 3 to 8) (size 9 to 14) (size 15 to 20)
#    0.000    1.750    1.250    4.500    0.000    5.500 
#    0.000    0.625    0.000    0.750    0.000    0.000 
#    0.000    0.000    0.000    0.000    0.000    0.000 
#
# Total GULP energy -793733.798277 kJ/mol
# GULP energy per Si atom -12402.090598 kJ/mol
# Density = 1.856834 g / cm^3
# Si number density = 18.610695 Si / 1000 Ang^3
#
#
#
# Elastic Constant Matrix: (Units=GPa)
#
#
# Indices 1 2 3 4 5 6 
#
# 1 56.5993 52.0578 31.6696 0.0000 0.0000 0.0000
# 2 52.0578 158.0580 55.2706 0.0000 0.0000 0.0000
# 3 31.6696 55.2706 114.9769 0.0000 0.0000 0.0000
# 4 0.0000 0.0000 0.0000 41.5322 0.0000 0.0000
# 5 0.0000 0.0000 0.0000 0.0000 23.8281 0.0000
# 6 0.0000 0.0000 0.0000 0.0000 0.0000 16.4331
#
#
#
# Elastic Compliance Matrix: (Units=1/GPa)
#
#
# Indices 1 2 3 4 5 6 
#
# 1 0.026626 -0.007459 -0.003748 0.000000 0.000000 0.000000
# 2 -0.007459 0.009695 -0.002606 0.000000 0.000000 0.000000
# 3 -0.003748 -0.002606 0.010983 0.000000 0.000000 0.000000
# 4 0.000000 0.000000 0.000000 0.024078 0.000000 0.000000
# 5 0.000000 0.000000 0.000000 0.000000 0.041967 0.000000
# 6 0.000000 0.000000 0.000000 0.000000 0.000000 0.060853
#
#
# Mechanical properties :
#
#
# Convention : Reuss Voigt Hill
#
# Bulk Modulus (GPa) = 50.82092 67.51448 59.16770
# Shear Modulus (GPa) = 23.99405 29.06776 26.53090
#
# Velocity S-wave (km/s) = 3.59452 3.95636 3.77977
# Velocity P-wave (km/s) = 6.67788 7.56481 7.13514
#
# Compressibility (1/GPa) = 0.01967693
#
# Stress axis : x y z
#
# Youngs Moduli (GPa) = 37.55790 103.15046 91.05362
#
# Poissons Ratio (x) = 0.76936 0.34131
# Poissons Ratio (y) = 0.28013 0.23727
# Poissons Ratio (z) = 0.14078 0.26880
#
# Static dielectric constant tensor:
#      x y z
#    x 3.146370 0.000000 0.000000 
#    y 0.000000 3.886590 0.000000 
#    z 0.000000 0.000000 3.607160 
# 
# 
# High freq. dielectric constant tensor:
#      x y z
#    x 1.676710 0.000000 0.000000 
#    y 0.000000 1.734890 0.000000 
#    z 0.000000 0.000000 1.742760 
# 
# From -- ./inp_files/8630.got.cif
#   From: 2010.03.12/outbox.cif.g09.slc.cpg/sg57_5_cif.got.tgz:8630.got - 2010.04.16 15:48:40.
