data_PCOD8232004
_publ_section_title
;
Structure prediction by ZEFSAII (Michael W. Deem and Ramdas Pophale) SiO2 
 PCOD8232004
Probable space group: P B C M
;
_chemical_formula_sum "Si O2"
_cell_formula_units_Z 56
_cell_length_a 15.678457
_cell_length_b 12.005133
_cell_length_c 14.107438
_cell_angle_alpha 90.000000
_cell_angle_beta 90.000000
_cell_angle_gamma 90.000000
_cell_volume 2655.329652
_symmetry_space_group_name_H-M "P B C M"
_symmetry_group_IT_number 57
_symmetry_cell_setting 'orthorhombic'
loop_
_space_group_symop_operation_xyz
x,y,z
-x,-y,1/2+z
x,1/2-y,-z
-x,1/2+y,1/2-z
-x,-y,-z
x,y,1/2-z
-x,1/2+y,z
x,1/2-y,1/2+z
loop_
_atom_site_type_symbol
_atom_site_label
_atom_site_fract_x
_atom_site_fract_y
_atom_site_fract_z
Si Si1 0.382999 0.976340 0.462035
Si Si2 0.157261 0.270773 0.853576
Si Si3 0.544127 0.917923 0.358340
Si Si4 0.880359 0.970458 0.138726
Si Si5 0.655886 0.788045 0.602690
Si Si6 0.799729 0.380793 0.488358
Si Si7 0.923539 0.992628 0.861187
O O1 0.452471 0.898862 0.409099
O O2 0.291841 0.919763 0.450601
O O3 0.403684 0.996058 0.574022
O O4 0.388241 0.091956 0.403878
O O5 0.114429 0.260476 0.750000
O O6 0.140781 0.152265 0.904427
O O7 0.257313 0.294521 0.838221
O O8 0.110692 0.375030 0.904116
O O9 0.537044 0.963820 0.250000
O O10 0.589445 0.797965 0.352133
O O11 0.859696 0.977593 0.250000
O O12 0.977494 0.998332 0.114270
O O13 0.819684 0.059531 0.088038
O O14 0.686942 0.750000 0.500000
O O15 0.798613 0.250000 0.500000
O O16 0.872136 0.408941 0.411647
O O17 0.905580 0.003180 0.750000
#
# Coordination Sequence:
#
# PCOD8232004 Si02
#       7
#     8   8   8   8   8   8   8
#     4  10  23  42  60  90 132 165 207 270 324 386
#     4  10  20  36  65  94 120 163 214 265 324 380
#     4  10  22  39  65  94 121 162 215 268 327 386
#     4  10  23  42  65  94 127 168 220 273 323 380
#     4  10  19  36  61  88 122 160 201 266 322 376
#     4  12  26  42  63  93 130 178 216 255 324 395
#     4  10  23  42  63  93 131 167 213 271 322 378
#
# _framework density 21.089661
#
# number of rings (size 3 to 8) (size 9 to 14) (size 15 to 20)
#    0.000    1.714    1.429    2.571    2.000    6.857 
#    0.000    0.000    0.000    0.000    0.000    0.000 
#    0.000    0.000    0.000    0.000    0.000    0.000 
#
# Total GULP energy -694329.304811 kJ/mol
# GULP energy per Si atom -12398.737586 kJ/mol
# Density = 2.104166 g / cm^3
# Si number density = 21.089661 Si / 1000 Ang^3
#
#
#
# Elastic Constant Matrix: (Units=GPa)
#
#
# Indices 1 2 3 4 5 6 
#
# 1 121.3807 39.9420 14.3915 0.0000 0.0000 0.0000
# 2 39.9420 111.8346 17.2672 0.0000 0.0000 0.0000
# 3 14.3915 17.2672 82.6961 0.0000 0.0000 0.0000
# 4 0.0000 0.0000 0.0000 23.6027 0.0000 0.0000
# 5 0.0000 0.0000 0.0000 0.0000 28.2952 0.0000
# 6 0.0000 0.0000 0.0000 0.0000 0.0000 35.8881
#
#
#
# Elastic Compliance Matrix: (Units=1/GPa)
#
#
# Indices 1 2 3 4 5 6 
#
# 1 0.009410 -0.003211 -0.000967 0.000000 0.000000 0.000000
# 2 -0.003211 0.010336 -0.001599 0.000000 0.000000 0.000000
# 3 -0.000967 -0.001599 0.012595 0.000000 0.000000 0.000000
# 4 0.000000 0.000000 0.000000 0.042368 0.000000 0.000000
# 5 0.000000 0.000000 0.000000 0.000000 0.035342 0.000000
# 6 0.000000 0.000000 0.000000 0.000000 0.000000 0.027864
#
#
# Mechanical properties :
#
#
# Convention : Reuss Voigt Hill
#
# Bulk Modulus (GPa) = 48.11201 51.01255 49.56228
# Shear Modulus (GPa) = 31.96965 33.84458 32.90711
#
# Velocity S-wave (km/s) = 3.89767 4.01033 3.95440
# Velocity P-wave (km/s) = 6.56646 6.75904 6.66345
#
# Compressibility (1/GPa) = 0.02078483
#
# Stress axis : x y z
#
# Youngs Moduli (GPa) = 106.27018 96.75222 79.39861
#
# Poissons Ratio (x) = 0.31072 0.07678
# Poissons Ratio (y) = 0.34128 0.12698
# Poissons Ratio (z) = 0.10277 0.15473
#
# Static dielectric constant tensor:
#      x y z
#    x 3.772300 0.000000 0.000000 
#    y 0.000000 3.831830 0.000000 
#    z 0.000000 0.000000 3.754870 
# 
# 
# High freq. dielectric constant tensor:
#      x y z
#    x 1.832060 0.000000 0.000000 
#    y 0.000000 1.816330 0.000000 
#    z 0.000000 0.000000 1.831760 
# 
# From -- ./inp_files/18546.got.cif
#   From: 2010.03.12/outbox.cif.g09.slc.cpg/sg57_10_cif.got.tgz:18546.got - 2010.04.16 15:48:40.
