data_PCOD8232189
_publ_section_title
;
Structure prediction by ZEFSAII (Michael W. Deem and Ramdas Pophale) SiO2 
 PCOD8232189
Probable space group: P B C M
;
_chemical_formula_sum "Si O2"
_cell_formula_units_Z 56
_cell_length_a 16.847084
_cell_length_b 19.245420
_cell_length_c 9.159549
_cell_angle_alpha 90.000000
_cell_angle_beta 90.000000
_cell_angle_gamma 90.000000
_cell_volume 2969.793312
_symmetry_space_group_name_H-M "P B C M"
_symmetry_group_IT_number 57
_symmetry_cell_setting 'orthorhombic'
loop_
_space_group_symop_operation_xyz
x,y,z
-x,-y,1/2+z
x,1/2-y,-z
-x,1/2+y,1/2-z
-x,-y,-z
x,y,1/2-z
-x,1/2+y,z
x,1/2-y,1/2+z
loop_
_atom_site_type_symbol
_atom_site_label
_atom_site_fract_x
_atom_site_fract_y
_atom_site_fract_z
Si Si1 0.792726 0.919525 0.420029
Si Si2 0.912011 0.184535 0.580952
Si Si3 0.644579 0.673911 0.573948
Si Si4 0.029253 0.067577 0.921098
Si Si5 0.270428 0.683559 0.918669
Si Si6 0.287168 0.966148 0.089046
Si Si7 0.443497 0.053503 0.084794
O O1 0.782561 0.929781 0.250000
O O2 0.730839 0.859016 0.469163
O O3 0.883351 0.903134 0.466059
O O4 0.775439 0.995086 0.487698
O O5 0.948322 0.250000 0.500000
O O6 0.922285 0.197923 0.750000
O O7 0.820976 0.172793 0.537011
O O8 0.964260 0.121566 0.525647
O O9 0.638646 0.750000 0.500000
O O10 0.633931 0.679512 0.750000
O O11 0.574488 0.624323 0.507495
O O12 0.027551 0.053373 0.750000
O O13 0.000000 0.000000 0.000000
O O14 0.283577 0.699256 0.750000
O O15 0.311123 0.611003 0.969269
O O16 0.308291 0.750000 0.000000
O O17 0.247974 0.955777 0.250000
O O18 0.362868 0.013107 0.102319
O O19 0.475479 0.070914 0.250000
O O20 0.500000 0.000000 0.000000
#
# Coordination Sequence:
#
# PCOD8232189 Si02
#       7
#     8   8   8   8   8   8   8
#     4   9  19  33  50  73 101 132 170 216 264 311
#     4   9  18  31  46  64  91 125 161 200 245 294
#     4  10  20  36  57  82 111 143 180 223 269 321
#     4  10  20  33  48  70  99 132 171 217 265 313
#     4   9  17  30  47  68  93 124 161 202 244 289
#     4   9  18  33  53  74  98 129 166 204 246 299
#     4  10  20  36  58  83 110 141 174 210 256 313
#
# _framework density 18.856529999999999
#
# number of rings (size 3 to 8) (size 9 to 14) (size 15 to 20)
#    0.000    2.571    0.000    1.714    0.000    4.571 
#    0.000    3.571    0.000    1.714    0.000    0.000 
#    0.000    0.000    0.000    0.000    0.000    0.000 
#
# Total GULP energy -693872.796891 kJ/mol
# GULP energy per Si atom -12390.585659 kJ/mol
# Density = 1.881361 g / cm^3
# Si number density = 18.856530 Si / 1000 Ang^3
#
#
#
# Elastic Constant Matrix: (Units=GPa)
#
#
# Indices 1 2 3 4 5 6 
#
# 1 27.1790 13.6639 21.1050 0.0000 0.0000 0.0000
# 2 13.6639 145.6255 49.8482 0.0000 0.0000 0.0000
# 3 21.1050 49.8482 62.0132 0.0000 0.0000 0.0000
# 4 0.0000 0.0000 0.0000 38.1918 0.0000 0.0000
# 5 0.0000 0.0000 0.0000 0.0000 20.8405 0.0000
# 6 0.0000 0.0000 0.0000 0.0000 0.0000 5.3410
#
#
#
# Elastic Compliance Matrix: (Units=1/GPa)
#
#
# Indices 1 2 3 4 5 6 
#
# 1 0.050269 0.001572 -0.018372 0.000000 0.000000 0.000000
# 2 0.001572 0.009523 -0.008190 0.000000 0.000000 0.000000
# 3 -0.018372 -0.008190 0.028961 0.000000 0.000000 0.000000
# 4 0.000000 0.000000 0.000000 0.026184 0.000000 0.000000
# 5 0.000000 0.000000 0.000000 0.000000 0.047984 0.000000
# 6 0.000000 0.000000 0.000000 0.000000 0.000000 0.187232
#
#
# Mechanical properties :
#
#
# Convention : Reuss Voigt Hill
#
# Bulk Modulus (GPa) = 25.79045 44.89468 35.34256
# Shear Modulus (GPa) = 12.10491 22.88802 17.49646
#
# Velocity S-wave (km/s) = 2.53642 3.48774 3.04941
# Velocity P-wave (km/s) = 4.72068 6.33083 5.58409
#
# Compressibility (1/GPa) = 0.03877404
#
# Stress axis : x y z
#
# Youngs Moduli (GPa) = 19.89304 105.01096 34.52892
#
# Poissons Ratio (x) = -0.16508 0.63435
# Poissons Ratio (y) = -0.03127 0.28278
# Poissons Ratio (z) = 0.36547 0.86001
#
# Static dielectric constant tensor:
#      x y z
#    x 4.115390 0.000000 0.000000 
#    y 0.000000 3.808250 0.000000 
#    z 0.000000 0.000000 3.669170 
# 
# 
# High freq. dielectric constant tensor:
#      x y z
#    x 1.714830 0.000000 0.000000 
#    y 0.000000 1.741350 0.000000 
#    z 0.000000 0.000000 1.731990 
# 
# From -- ./inp_files/8323.got.cif
#   From: 2010.03.12/outbox.cif.g09.slc.cpg/sg57_5_cif.got.tgz:8323.got - 2010.04.16 15:48:40.
