data_PCOD8232123
_publ_section_title
;
Structure prediction by ZEFSAII (Michael W. Deem and Ramdas Pophale) SiO2 
 PCOD8232123
Probable space group: P B C M
;
_chemical_formula_sum "Si O2"
_cell_formula_units_Z 56
_cell_length_a 23.564761
_cell_length_b 9.544435
_cell_length_c 14.504403
_cell_angle_alpha 90.000000
_cell_angle_beta 90.000000
_cell_angle_gamma 90.000000
_cell_volume 3262.219069
_symmetry_space_group_name_H-M "P B C M"
_symmetry_group_IT_number 57
_symmetry_cell_setting 'orthorhombic'
loop_
_space_group_symop_operation_xyz
x,y,z
-x,-y,1/2+z
x,1/2-y,-z
-x,1/2+y,1/2-z
-x,-y,-z
x,y,1/2-z
-x,1/2+y,z
x,1/2-y,1/2+z
loop_
_atom_site_type_symbol
_atom_site_label
_atom_site_fract_x
_atom_site_fract_y
_atom_site_fract_z
Si Si1 0.260652 0.583908 1.000000
Si Si2 0.052984 0.088449 0.644533
Si Si3 0.146565 0.412004 0.500000
Si Si4 0.648909 0.084253 0.853000
Si Si5 0.947017 0.588449 0.144533
Si Si6 0.351091 0.584253 0.147000
Si Si7 0.442402 0.915522 0.000000
O O1 0.295309 0.535535 0.091001
O O2 0.251186 0.750000 0.000000
O O3 0.200997 0.508525 1.000000
O O4 0.295310 0.535535 0.909000
O O5 0.065660 0.050357 0.750000
O O6 0.109712 0.050493 0.589693
O O7 0.036713 0.250000 0.630335
O O8 0.000000 1.000000 0.606396
O O9 0.165272 0.250000 0.500000
O O10 0.109712 0.449508 0.589693
O O11 0.648557 0.017445 0.750000
O O12 0.649930 0.250000 0.846101
O O13 0.592682 0.039259 0.908898
O O14 0.934339 0.550357 0.250000
O O15 0.351443 0.517445 0.250000
O O16 0.407318 0.539259 0.091102
O O17 0.454740 0.750000 0.000000
O O18 0.500000 0.000000 0.000000
#
# Coordination Sequence:
#
# PCOD8232123 Si02
#       7
#     8   8   8   8   8   8   8
#     4   9  18  31  48  69  87 111 155 196 218 253
#     4   9  18  32  48  66  89 117 148 181 220 268
#     4  10  20  32  46  66  94 122 143 176 231 278
#     4   8  15  30  49  66  89 122 154 185 223 262
#     4   9  18  32  48  66  89 117 148 181 220 268
#     4   8  15  30  49  66  89 122 154 185 223 262
#     4   9  17  29  47  71  96 121 150 184 222 265
#
# _framework density 17.166229000000001
#
# number of rings (size 3 to 8) (size 9 to 14) (size 15 to 20)
#    0.000    3.143    0.000    2.143    0.000    2.857 
#    0.000    2.857    0.000    1.714    0.000    0.000 
#    0.000    0.000    0.000    0.000    0.000    0.000 
#
# Total GULP energy -694196.257969 kJ/mol
# GULP energy per Si atom -12396.361749 kJ/mol
# Density = 1.712716 g / cm^3
# Si number density = 17.166229 Si / 1000 Ang^3
#
#
#
# Elastic Constant Matrix: (Units=GPa)
#
#
# Indices 1 2 3 4 5 6 
#
# 1 166.2510 63.5064 78.6366 0.0000 0.0000 0.0000
# 2 63.5064 46.7057 35.9294 0.0000 0.0000 0.0000
# 3 78.6366 35.9294 145.0299 0.0000 0.0000 0.0000
# 4 0.0000 0.0000 0.0000 0.0939 0.0000 0.0000
# 5 0.0000 0.0000 0.0000 0.0000 17.9909 0.0000
# 6 0.0000 0.0000 0.0000 0.0000 0.0000 38.7755
#
#
#
# Elastic Compliance Matrix: (Units=1/GPa)
#
#
# Indices 1 2 3 4 5 6 
#
# 1 0.013823 -0.016097 -0.003507 0.000000 0.000000 0.000000
# 2 -0.016097 0.045198 -0.002469 0.000000 0.000000 0.000000
# 3 -0.003507 -0.002469 0.009408 0.000000 0.000000 0.000000
# 4 0.000000 0.000000 0.000000 10.645742 0.000000 0.000000
# 5 0.000000 0.000000 0.000000 0.000000 0.055584 0.000000
# 6 0.000000 0.000000 0.000000 0.000000 0.000000 0.025790
#
#
# Mechanical properties :
#
#
# Convention : Reuss Voigt Hill
#
# Bulk Modulus (GPa) = 41.18238 79.34794 60.26516
# Shear Modulus (GPa) = 0.46092 23.36634 11.91363
#
# Velocity S-wave (km/s) = 0.51874 3.69342 2.63728
# Velocity P-wave (km/s) = 4.93976 8.03194 6.66758
#
# Compressibility (1/GPa) = 0.02428223
#
# Stress axis : x y z
#
# Youngs Moduli (GPa) = 72.34429 22.12500 106.28877
#
# Poissons Ratio (x) = 0.35615 0.37275
# Poissons Ratio (y) = 1.16454 0.26244
# Poissons Ratio (z) = 0.25371 0.05463
#
# Static dielectric constant tensor:
#      x y z
#    x 3.083670 0.000000 0.000000 
#    y 0.000000 2.872780 0.000000 
#    z 0.000000 0.000000 3.836400 
# 
# 
# High freq. dielectric constant tensor:
#      x y z
#    x 1.659210 0.000000 0.000000 
#    y 0.000000 1.629470 0.000000 
#    z 0.000000 0.000000 1.677320 
# 
# From -- ./inp_files/19339.got.cif
#   From: 2010.03.12/outbox.cif.g09.slc.cpg/sg57_10_cif.got.tgz:19339.got - 2010.04.16 15:48:40.
