data_PCOD8232281
_publ_section_title
;
Structure prediction by ZEFSAII (Michael W. Deem and Ramdas Pophale) SiO2 
 PCOD8232281
Probable space group: P B C M
;
_chemical_formula_sum "Si O2"
_cell_formula_units_Z 48
_cell_length_a 18.336936
_cell_length_b 16.359628
_cell_length_c 8.823062
_cell_angle_alpha 90.000000
_cell_angle_beta 90.000000
_cell_angle_gamma 90.000000
_cell_volume 2646.790239
_symmetry_space_group_name_H-M "P B C M"
_symmetry_group_IT_number 57
_symmetry_cell_setting 'orthorhombic'
loop_
_space_group_symop_operation_xyz
x,y,z
-x,-y,1/2+z
x,1/2-y,-z
-x,1/2+y,1/2-z
-x,-y,-z
x,y,1/2-z
-x,1/2+y,z
x,1/2-y,1/2+z
loop_
_atom_site_type_symbol
_atom_site_label
_atom_site_fract_x
_atom_site_fract_y
_atom_site_fract_z
Si Si1 0.577819 0.017441 0.569745
Si Si2 0.203506 0.583531 0.579840
Si Si3 0.289935 0.415517 0.583118
Si Si4 0.666050 0.335299 0.930564
Si Si5 0.078999 0.493757 0.429565
Si Si6 0.165840 0.166454 0.573807
O O1 0.574390 0.031983 0.750000
O O2 0.627787 0.937626 0.531876
O O3 0.500000 0.000000 0.500000
O O4 0.610125 0.097180 0.490359
O O5 0.188971 0.616738 0.750000
O O6 0.247560 0.500233 0.587033
O O7 0.251196 0.648526 0.486362
O O8 0.126978 0.568338 0.495087
O O9 0.289530 0.375179 0.750000
O O10 0.249928 0.352739 0.470822
O O11 0.664295 0.333098 0.750000
O O12 0.639184 0.250000 0.000000
O O13 0.075543 0.502103 0.250000
O O14 0.113390 0.406939 0.479729
O O15 0.000000 0.500000 0.500000
O O16 0.137723 0.250000 0.500000
O O17 0.162235 0.179032 0.750000
#
# Coordination Sequence:
#
# PCOD8232281 Si02
#       6
#     8   8   8   8   8   8
#     4  10  20  35  55  80 108 141 177 215 262 316
#     4   9  17  32  53  76 101 132 170 211 254 308
#     4   8  16  31  51  73  99 130 166 205 248 299
#     4  11  21  35  55  79 107 139 176 221 267 314
#     4  10  20  34  53  78 105 138 176 215 261 315
#     4  10  20  33  52  76 102 132 170 213 259 306
#
# _framework density 18.135173999999999
#
# number of rings (size 3 to 8) (size 9 to 14) (size 15 to 20)
#    0.000    2.333    0.000    4.500    0.000    6.667 
#    0.000    1.667    0.000    6.000    0.000    0.000 
#    0.000    0.000    0.000    0.000    0.000    0.000 
#
# Total GULP energy -595097.226496 kJ/mol
# GULP energy per Si atom -12397.858885 kJ/mol
# Density = 1.809390 g / cm^3
# Si number density = 18.135174 Si / 1000 Ang^3
#
#
#
# Elastic Constant Matrix: (Units=GPa)
#
#
# Indices 1 2 3 4 5 6 
#
# 1 136.7868 40.1586 55.3937 0.0000 0.0000 0.0000
# 2 40.1586 80.3412 48.9954 0.0000 0.0000 0.0000
# 3 55.3937 48.9954 122.5038 0.0000 0.0000 0.0000
# 4 0.0000 0.0000 0.0000 30.2534 0.0000 0.0000
# 5 0.0000 0.0000 0.0000 0.0000 34.4558 0.0000
# 6 0.0000 0.0000 0.0000 0.0000 0.0000 17.3531
#
#
#
# Elastic Compliance Matrix: (Units=1/GPa)
#
#
# Indices 1 2 3 4 5 6 
#
# 1 0.009398 -0.002785 -0.003136 0.000000 0.000000 0.000000
# 2 -0.002785 0.017288 -0.005655 0.000000 0.000000 0.000000
# 3 -0.003136 -0.005655 0.011842 0.000000 0.000000 0.000000
# 4 0.000000 0.000000 0.000000 0.033054 0.000000 0.000000
# 5 0.000000 0.000000 0.000000 0.000000 0.029023 0.000000
# 6 0.000000 0.000000 0.000000 0.000000 0.000000 0.057626
#
#
# Mechanical properties :
#
#
# Convention : Reuss Voigt Hill
#
# Bulk Modulus (GPa) = 65.03297 69.85858 67.44577
# Shear Modulus (GPa) = 26.80838 29.41808 28.11323
#
# Velocity S-wave (km/s) = 3.84898 4.03197 3.94154
# Velocity P-wave (km/s) = 7.46263 7.76404 7.61483
#
# Compressibility (1/GPa) = 0.01537682
#
# Stress axis : x y z
#
# Youngs Moduli (GPa) = 106.40290 57.84467 84.44185
#
# Poissons Ratio (x) = 0.16112 0.26478
# Poissons Ratio (y) = 0.29638 0.47749
# Poissons Ratio (z) = 0.33364 0.32709
#
# Static dielectric constant tensor:
#      x y z
#    x 3.528320 0.000000 0.000000 
#    y 0.000000 3.159490 0.000000 
#    z 0.000000 0.000000 3.525600 
# 
# 
# High freq. dielectric constant tensor:
#      x y z
#    x 1.695260 0.000000 0.000000 
#    y 0.000000 1.682230 0.000000 
#    z 0.000000 0.000000 1.718220 
# 
# From -- ./inp_files/6477.got.cif
#   From: 2010.03.12/outbox.cif.g09.slc.cpg/sg57_4_cif.got.tgz:6477.got - 2010.04.16 15:48:40.
