data_PCOD8232411
_publ_section_title
;
Structure prediction by ZEFSAII (Michael W. Deem and Ramdas Pophale) SiO2 
 PCOD8232411
Probable space group: P B C M
;
_chemical_formula_sum "Si O2"
_cell_formula_units_Z 48
_cell_length_a 11.735019
_cell_length_b 25.734010
_cell_length_c 8.816656
_cell_angle_alpha 90.000000
_cell_angle_beta 90.000000
_cell_angle_gamma 90.000000
_cell_volume 2662.533978
_symmetry_space_group_name_H-M "P B C M"
_symmetry_group_IT_number 57
_symmetry_cell_setting 'orthorhombic'
loop_
_space_group_symop_operation_xyz
x,y,z
-x,-y,1/2+z
x,1/2-y,-z
-x,1/2+y,1/2-z
-x,-y,-z
x,y,1/2-z
-x,1/2+y,z
x,1/2-y,1/2+z
loop_
_atom_site_type_symbol
_atom_site_label
_atom_site_fract_x
_atom_site_fract_y
_atom_site_fract_z
Si Si1 0.484619 0.375101 0.574583
Si Si2 0.333168 0.540297 0.079991
Si Si3 0.669552 0.194671 0.571153
Si Si4 0.042987 0.053766 0.071255
Si Si5 0.156208 0.893723 0.074486
Si Si6 0.283166 0.425387 0.423815
O O1 0.467335 0.361591 0.750000
O O2 0.549783 0.429533 0.549501
O O3 0.553530 0.328217 0.498021
O O4 0.361300 0.380317 0.496117
O O5 0.288118 0.553315 0.250000
O O6 0.353419 0.479124 0.062274
O O7 0.237937 0.557375 0.959568
O O8 0.696241 0.250000 0.500000
O O9 0.653393 0.198915 0.750000
O O10 0.777509 0.158729 0.528315
O O11 0.044907 0.046873 0.250000
O O12 0.166363 0.070209 0.014109
O O13 0.958231 0.100540 0.023790
O O14 0.000000 0.000000 0.000000
O O15 0.122875 0.894428 0.250000
O O16 0.256723 0.411274 0.250000
#
# Coordination Sequence:
#
# PCOD8232411 Si02
#       6
#     8   8   8   8   8   8
#     4  10  20  34  52  78 109 142 181 224 272 324
#     4   9  18  31  49  73 106 146 182 219 263 315
#     4  10  21  38  61  86 109 138 177 226 281 330
#     4  12  23  35  52  76 109 150 190 226 268 321
#     4  10  20  34  54  80 109 142 183 227 271 321
#     4  11  21  33  50  75 109 149 187 221 265 319
#
# _framework density 18.027937999999999
#
# number of rings (size 3 to 8) (size 9 to 14) (size 15 to 20)
#    0.000    1.667    1.667    4.000    0.000    3.333 
#    0.000    0.000    0.000    1.000    0.000    4.667 
#    0.000    0.000    0.000    0.000    0.000    0.000 
#
# Total GULP energy -595284.131962 kJ/mol
# GULP energy per Si atom -12401.752749 kJ/mol
# Density = 1.798691 g / cm^3
# Si number density = 18.027938 Si / 1000 Ang^3
#
#
#
# Elastic Constant Matrix: (Units=GPa)
#
#
# Indices 1 2 3 4 5 6 
#
# 1 111.2663 42.0984 61.0563 0.0000 0.0000 0.0000
# 2 42.0984 79.2785 44.4734 0.0000 0.0000 0.0000
# 3 61.0563 44.4734 127.4433 0.0000 0.0000 0.0000
# 4 0.0000 0.0000 0.0000 27.1002 0.0000 0.0000
# 5 0.0000 0.0000 0.0000 0.0000 35.1649 0.0000
# 6 0.0000 0.0000 0.0000 0.0000 0.0000 16.4848
#
#
#
# Elastic Compliance Matrix: (Units=1/GPa)
#
#
# Indices 1 2 3 4 5 6 
#
# 1 0.013292 -0.004334 -0.004855 0.000000 0.000000 0.000000
# 2 -0.004334 0.017098 -0.003890 0.000000 0.000000 0.000000
# 3 -0.004855 -0.003890 0.011530 0.000000 0.000000 0.000000
# 4 0.000000 0.000000 0.000000 0.036900 0.000000 0.000000
# 5 0.000000 0.000000 0.000000 0.000000 0.028437 0.000000
# 6 0.000000 0.000000 0.000000 0.000000 0.000000 0.060662
#
#
# Mechanical properties :
#
#
# Convention : Reuss Voigt Hill
#
# Bulk Modulus (GPa) = 63.45108 68.13826 65.79467
# Shear Modulus (GPa) = 25.08384 27.10731 26.09558
#
# Velocity S-wave (km/s) = 3.73418 3.88187 3.80874
# Velocity P-wave (km/s) = 7.33924 7.61379 7.47778
#
# Compressibility (1/GPa) = 0.01576017
#
# Stress axis : x y z
#
# Youngs Moduli (GPa) = 75.23489 58.48779 86.72889
#
# Poissons Ratio (x) = 0.25351 0.42109
# Poissons Ratio (y) = 0.32610 0.33737
# Poissons Ratio (z) = 0.36529 0.22751
#
# Static dielectric constant tensor:
#      x y z
#    x 3.326140 0.000000 0.000000 
#    y 0.000000 2.070040 0.000000 
#    z 0.000000 0.000000 3.472370 
# 
# 
# High freq. dielectric constant tensor:
#      x y z
#    x 1.696220 0.000000 0.000000 
#    y 0.000000 1.663080 0.000000 
#    z 0.000000 0.000000 1.715850 
# 
# From -- ./inp_files/3192.got.cif
#   From: 2010.03.12/outbox.cif.g09.slc.cpg/sg57_2_cif.got.tgz:3192.got - 2010.04.16 15:48:40.
