data_PCOD8232308
_publ_section_title
;
Structure prediction by ZEFSAII (Michael W. Deem and Ramdas Pophale) SiO2 
 PCOD8232308
Probable space group: P B C M
;
_chemical_formula_sum "Si O2"
_cell_formula_units_Z 48
_cell_length_a 11.406658
_cell_length_b 23.374087
_cell_length_c 8.973396
_cell_angle_alpha 90.000000
_cell_angle_beta 90.000000
_cell_angle_gamma 90.000000
_cell_volume 2392.488784
_symmetry_space_group_name_H-M "P B C M"
_symmetry_group_IT_number 57
_symmetry_cell_setting 'orthorhombic'
loop_
_space_group_symop_operation_xyz
x,y,z
-x,-y,1/2+z
x,1/2-y,-z
-x,1/2+y,1/2-z
-x,-y,-z
x,y,1/2-z
-x,1/2+y,z
x,1/2-y,1/2+z
loop_
_atom_site_type_symbol
_atom_site_label
_atom_site_fract_x
_atom_site_fract_y
_atom_site_fract_z
Si Si1 0.711315 0.084883 0.573744
Si Si2 0.244113 0.475140 0.425903
Si Si3 0.872083 0.311210 0.424647
Si Si4 0.538137 0.919504 0.921580
Si Si5 0.119562 0.360563 0.424750
Si Si6 0.669413 0.695865 0.081457
O O1 0.698679 0.078151 0.750000
O O2 0.765954 0.146425 0.532156
O O3 0.588369 0.076925 0.493377
O O4 0.793744 0.033675 0.509666
O O5 0.250420 0.485216 0.250000
O O6 0.373314 0.458414 0.484574
O O7 0.149210 0.426321 0.468469
O O8 0.853427 0.250000 0.500000
O O9 0.876972 0.300136 0.250000
O O10 0.990094 0.343259 0.478238
O O11 0.535825 0.940395 0.750000
O O12 0.576131 0.854081 0.932895
O O13 0.136684 0.352164 0.250000
O O14 0.207253 0.318190 0.506214
O O15 0.697012 0.712002 0.250000
O O16 0.611618 0.750000 0.000000
#
# Coordination Sequence:
#
# PCOD8232308 Si02
#       6
#     8   8   8   8   8   8
#     4  11  23  38  56  80 113 149 184 224 271 324
#     4  10  20  36  60  87 113 142 179 225 277 329
#     4  10  23  41  59  81 111 148 187 227 271 321
#     4  10  21  37  56  80 111 147 187 228 275 329
#     4   9  19  37  59  83 111 142 180 227 277 327
#     4  10  20  33  53  81 110 142 182 230 280 329
#
# _framework density 20.06279
#
# number of rings (size 3 to 8) (size 9 to 14) (size 15 to 20)
#    0.000    2.000    0.000    3.000    0.000    7.333 
#    0.000    3.333    0.000    0.000    0.000    0.000 
#    0.000    0.000    0.000    0.000    0.000    0.000 
#
# Total GULP energy -595233.282673 kJ/mol
# GULP energy per Si atom -12400.693389 kJ/mol
# Density = 2.001713 g / cm^3
# Si number density = 20.062790 Si / 1000 Ang^3
#
#
#
# Elastic Constant Matrix: (Units=GPa)
#
#
# Indices 1 2 3 4 5 6 
#
# 1 45.8426 38.9743 13.9115 0.0000 0.0000 0.0000
# 2 38.9743 140.5807 44.6351 0.0000 0.0000 0.0000
# 3 13.9115 44.6351 63.2971 0.0000 0.0000 0.0000
# 4 0.0000 0.0000 0.0000 38.4425 0.0000 0.0000
# 5 0.0000 0.0000 0.0000 0.0000 24.0678 0.0000
# 6 0.0000 0.0000 0.0000 0.0000 0.0000 12.5252
#
#
#
# Elastic Compliance Matrix: (Units=1/GPa)
#
#
# Indices 1 2 3 4 5 6 
#
# 1 0.028580 -0.007640 -0.000894 0.000000 0.000000 0.000000
# 2 -0.007640 0.011208 -0.006224 0.000000 0.000000 0.000000
# 3 -0.000894 -0.006224 0.020384 0.000000 0.000000 0.000000
# 4 0.000000 0.000000 0.000000 0.026013 0.000000 0.000000
# 5 0.000000 0.000000 0.000000 0.000000 0.041549 0.000000
# 6 0.000000 0.000000 0.000000 0.000000 0.000000 0.079839
#
#
# Mechanical properties :
#
#
# Convention : Reuss Voigt Hill
#
# Bulk Modulus (GPa) = 32.62014 49.41801 41.01907
# Shear Modulus (GPa) = 20.21776 25.15374 22.68575
#
# Velocity S-wave (km/s) = 3.17791 3.54468 3.36629
# Velocity P-wave (km/s) = 5.45526 6.43724 5.96649
#
# Compressibility (1/GPa) = 0.03065591
#
# Stress axis : x y z
#
# Youngs Moduli (GPa) = 34.98940 89.22575 49.05781
#
# Poissons Ratio (x) = 0.68165 0.04387
# Poissons Ratio (y) = 0.26730 0.30534
# Poissons Ratio (z) = 0.03129 0.55536
#
# Static dielectric constant tensor:
#      x y z
#    x 3.496430 0.000000 0.000000 
#    y 0.000000 4.329680 0.000000 
#    z 0.000000 0.000000 3.696670 
# 
# 
# High freq. dielectric constant tensor:
#      x y z
#    x 1.766930 0.000000 0.000000 
#    y 0.000000 1.801970 0.000000 
#    z 0.000000 0.000000 1.788820 
# 
# From -- ./inp_files/3191.got.cif
#   From: 2010.03.12/outbox.cif.g09.slc.cpg/sg57_2_cif.got.tgz:3191.got - 2010.04.16 15:48:40.
