data_PCOD8232889
_publ_section_title
;
Structure prediction by ZEFSAII (Michael W. Deem and Ramdas Pophale) SiO2 
 PCOD8232889
Probable space group: P B C M
;
_chemical_formula_sum "Si O2"
_cell_formula_units_Z 64
_cell_length_a 20.293131
_cell_length_b 19.298449
_cell_length_c 8.691982
_cell_angle_alpha 90.000000
_cell_angle_beta 90.000000
_cell_angle_gamma 90.000000
_cell_volume 3404.005740
_symmetry_space_group_name_H-M "P B C M"
_symmetry_group_IT_number 57
_symmetry_cell_setting 'orthorhombic'
loop_
_space_group_symop_operation_xyz
x,y,z
-x,-y,1/2+z
x,1/2-y,-z
-x,1/2+y,1/2-z
-x,-y,-z
x,y,1/2-z
-x,1/2+y,z
x,1/2-y,1/2+z
loop_
_atom_site_type_symbol
_atom_site_label
_atom_site_fract_x
_atom_site_fract_y
_atom_site_fract_z
Si Si1 0.848379 0.572575 0.428798
Si Si2 0.985455 0.925350 0.431399
Si Si3 0.621850 0.598715 0.927911
Si Si4 0.655975 0.046758 0.931420
Si Si5 0.201434 0.580795 0.570168
Si Si6 0.517191 0.427159 0.069952
Si Si7 0.905590 0.326002 0.931635
Si Si8 0.251963 0.323125 0.070772
O O1 0.861341 0.586867 0.250000
O O2 0.911555 0.596901 0.525514
O O3 0.834189 0.492170 0.459746
O O4 0.786656 0.616566 0.484946
O O5 0.995165 0.928379 0.250000
O O6 0.034567 0.869264 0.499365
O O7 0.000000 0.000000 0.500000
O O8 0.623874 0.576496 0.750000
O O9 0.545844 0.621718 0.972772
O O10 0.670181 0.663237 0.958741
O O11 0.646800 0.532793 0.021847
O O12 0.664603 0.046892 0.750000
O O13 0.723850 0.078237 0.997825
O O14 0.591665 0.092947 0.986662
O O15 0.199606 0.599930 0.750000
O O16 0.163992 0.639628 0.475559
O O17 0.523112 0.436595 0.250000
O O18 0.500000 0.500000 0.000000
O O19 0.912947 0.322809 0.750000
O O20 0.908648 0.250000 0.000000
O O21 0.234130 0.323741 0.250000
O O22 0.231972 0.250000 0.000000
#
# Coordination Sequence:
#
# PCOD8232889 Si02
#       8
#     8   8   8   8   8   8   8   8
#     4  11  22  38  61  87 117 150 191 238 286 340
#     4  12  24  41  65  93 122 154 194 235 282 337
#     4   9  17  29  47  72 105 142 184 234 284 338
#     4   9  16  28  50  79 109 143 182 228 281 335
#     4  10  20  35  58  87 119 153 191 234 284 343
#     4   8  14  25  43  71 104 137 175 223 279 331
#     4  12  26  44  66  91 121 155 192 236 286 342
#     4  11  23  37  53  76 110 151 197 242 293 349
#
# _framework density 18.801379000000001
#
# number of rings (size 3 to 8) (size 9 to 14) (size 15 to 20)
#    0.000    1.750    2.500    3.000    0.000    2.000 
#    0.000    2.500    0.000    0.750    0.000    1.750 
#    0.000    0.000    0.000    0.000    0.000    0.000 
#
# Total GULP energy -793143.748462 kJ/mol
# GULP energy per Si atom -12392.871070 kJ/mol
# Density = 1.875859 g / cm^3
# Si number density = 18.801379 Si / 1000 Ang^3
#
#
#
# Elastic Constant Matrix: (Units=GPa)
#
#
# Indices 1 2 3 4 5 6 
#
# 1 155.7429 43.2239 48.4224 0.0000 0.0000 0.0000
# 2 43.2239 91.5081 46.1182 0.0000 0.0000 0.0000
# 3 48.4224 46.1182 87.8188 0.0000 0.0000 0.0000
# 4 0.0000 0.0000 0.0000 25.0537 0.0000 0.0000
# 5 0.0000 0.0000 0.0000 0.0000 24.7710 0.0000
# 6 0.0000 0.0000 0.0000 0.0000 0.0000 41.4987
#
#
#
# Elastic Compliance Matrix: (Units=1/GPa)
#
#
# Indices 1 2 3 4 5 6 
#
# 1 0.008043 -0.002127 -0.003318 0.000000 0.000000 0.000000
# 2 -0.002127 0.015424 -0.006927 0.000000 0.000000 0.000000
# 3 -0.003318 -0.006927 0.016854 0.000000 0.000000 0.000000
# 4 0.000000 0.000000 0.000000 0.039914 0.000000 0.000000
# 5 0.000000 0.000000 0.000000 0.000000 0.040370 0.000000
# 6 0.000000 0.000000 0.000000 0.000000 0.000000 0.024097
#
#
# Mechanical properties :
#
#
# Convention : Reuss Voigt Hill
#
# Bulk Modulus (GPa) = 64.19610 67.84433 66.02021
# Shear Modulus (GPa) = 28.63077 31.41839 30.02458
#
# Velocity S-wave (km/s) = 3.90654 4.09231 4.00050
# Velocity P-wave (km/s) = 7.38692 7.64803 7.51861
#
# Compressibility (1/GPa) = 0.01557727
#
# Stress axis : x y z
#
# Youngs Moduli (GPa) = 124.33742 64.83522 59.33249
#
# Poissons Ratio (x) = 0.13790 0.19685
# Poissons Ratio (y) = 0.26445 0.41100
# Poissons Ratio (z) = 0.41251 0.44912
#
# Static dielectric constant tensor:
#      x y z
#    x 4.246180 0.000000 0.000000 
#    y 0.000000 3.137950 0.000000 
#    z 0.000000 0.000000 3.477000 
# 
# 
# High freq. dielectric constant tensor:
#      x y z
#    x 1.760370 0.000000 0.000000 
#    y 0.000000 1.687950 0.000000 
#    z 0.000000 0.000000 1.733440 
# 
# From -- ./inp_files/8444.got.cif
#   From: 2010.03.12/outbox.cif.g09.slc.cpg/sg57_5_cif.got.tgz:8444.got - 2010.04.16 15:48:40.
