data_PCOD8232191
_publ_section_title
;
Structure prediction by ZEFSAII (Michael W. Deem and Ramdas Pophale) SiO2 
 PCOD8232191
Probable space group: P B C M
;
_chemical_formula_sum "Si O2"
_cell_formula_units_Z 64
_cell_length_a 23.223593
_cell_length_b 15.569277
_cell_length_c 9.002193
_cell_angle_alpha 90.000000
_cell_angle_beta 90.000000
_cell_angle_gamma 90.000000
_cell_volume 3254.963904
_symmetry_space_group_name_H-M "P B C M"
_symmetry_group_IT_number 57
_symmetry_cell_setting 'orthorhombic'
loop_
_space_group_symop_operation_xyz
x,y,z
-x,-y,1/2+z
x,1/2-y,-z
-x,1/2+y,1/2-z
-x,-y,-z
x,y,1/2-z
-x,1/2+y,z
x,1/2-y,1/2+z
loop_
_atom_site_type_symbol
_atom_site_label
_atom_site_fract_x
_atom_site_fract_y
_atom_site_fract_z
Si Si1 0.004032 0.907477 0.425771
Si Si2 0.104988 0.164438 0.072828
Si Si3 0.304628 0.485443 0.079918
Si Si4 0.869611 0.339521 0.423787
Si Si5 0.427379 0.448010 0.079564
Si Si6 0.351286 0.670240 0.078352
Si Si7 0.811255 0.512268 0.425074
Si Si8 0.543324 0.383665 0.418520
O O1 0.993543 0.916390 0.250000
O O2 0.957874 0.845517 0.501685
O O3 0.065182 0.864783 0.460853
O O4 0.000000 0.000000 0.500000
O O5 0.100826 0.173403 0.250000
O O6 0.142510 0.082656 0.023006
O O7 0.132693 0.250000 0.000000
O O8 0.284842 0.484239 0.250000
O O9 0.360016 0.422497 0.053110
O O10 0.322714 0.581293 0.029561
O O11 0.250679 0.456743 0.983035
O O12 0.852098 0.250000 0.500000
O O13 0.860231 0.327156 0.250000
O O14 0.829298 0.417632 0.484576
O O15 0.431100 0.485647 0.250000
O O16 0.473528 0.369635 0.063166
O O17 0.444553 0.517163 0.956406
O O18 0.347566 0.686183 0.250000
O O19 0.318596 0.750000 0.000000
O O20 0.418573 0.673997 0.028098
O O21 0.809172 0.510227 0.250000
O O22 0.562683 0.364845 0.250000
#
# Coordination Sequence:
#
# PCOD8232191 Si02
#       8
#     8   8   8   8   8   8   8   8
#     4  11  21  37  61  88 120 154 187 231 287 344
#     4  11  23  41  62  88 117 147 189 239 291 348
#     4   9  19  34  52  75 102 136 182 227 269 321
#     4  10  22  39  56  81 115 151 187 229 278 333
#     4   8  15  28  45  69  99 126 159 208 259 313
#     4  10  20  33  48  71 105 140 178 225 270 324
#     4  10  22  40  57  78 114 150 189 240 286 334
#     4   9  15  25  45  70  96 127 162 204 257 313
#
# _framework density 19.662275999999999
#
# number of rings (size 3 to 8) (size 9 to 14) (size 15 to 20)
#    0.000    2.250    1.250    2.625    0.000    7.000 
#    0.000    2.500    0.000    0.750    0.000    1.750 
#    0.000    0.000    0.000    0.000    0.000    0.000 
#
# Total GULP energy -793110.530724 kJ/mol
# GULP energy per Si atom -12392.352043 kJ/mol
# Density = 1.961752 g / cm^3
# Si number density = 19.662276 Si / 1000 Ang^3
#
#
#
# Elastic Constant Matrix: (Units=GPa)
#
#
# Indices 1 2 3 4 5 6 
#
# 1 100.5326 12.8489 24.6744 0.0000 0.0000 0.0000
# 2 12.8489 65.3177 20.0926 0.0000 0.0000 0.0000
# 3 24.6744 20.0926 50.5071 0.0000 0.0000 0.0000
# 4 0.0000 0.0000 0.0000 30.1811 0.0000 0.0000
# 5 0.0000 0.0000 0.0000 0.0000 30.4477 0.0000
# 6 0.0000 0.0000 0.0000 0.0000 0.0000 12.3758
#
#
#
# Elastic Compliance Matrix: (Units=1/GPa)
#
#
# Indices 1 2 3 4 5 6 
#
# 1 0.011323 -0.000599 -0.005293 0.000000 0.000000 0.000000
# 2 -0.000599 0.017476 -0.006660 0.000000 0.000000 0.000000
# 3 -0.005293 -0.006660 0.025034 0.000000 0.000000 0.000000
# 4 0.000000 0.000000 0.000000 0.033133 0.000000 0.000000
# 5 0.000000 0.000000 0.000000 0.000000 0.032843 0.000000
# 6 0.000000 0.000000 0.000000 0.000000 0.000000 0.080803
#
#
# Mechanical properties :
#
#
# Convention : Reuss Voigt Hill
#
# Bulk Modulus (GPa) = 34.80746 36.84325 35.82535
# Shear Modulus (GPa) = 21.25006 25.18368 23.21687
#
# Velocity S-wave (km/s) = 3.29105 3.58273 3.43998
# Velocity P-wave (km/s) = 5.67295 5.99110 5.83420
#
# Compressibility (1/GPa) = 0.02872947
#
# Stress axis : x y z
#
# Youngs Moduli (GPa) = 88.31791 57.22060 39.94500
#
# Poissons Ratio (x) = 0.03428 0.21144
# Poissons Ratio (y) = 0.05291 0.26602
# Poissons Ratio (z) = 0.46748 0.38107
#
# Static dielectric constant tensor:
#      x y z
#    x 3.761790 0.000000 0.000000 
#    y 0.000000 2.724420 0.000000 
#    z 0.000000 0.000000 3.514810 
# 
# 
# High freq. dielectric constant tensor:
#      x y z
#    x 1.766410 0.000000 0.000000 
#    y 0.000000 1.741030 0.000000 
#    z 0.000000 0.000000 1.766560 
# 
# From -- ./inp_files/9295.got.cif
#   From: 2010.03.12/outbox.cif.g09.slc.cpg/sg57_5_cif.got.tgz:9295.got - 2010.04.16 15:48:40.
