data_PCOD8232031
_publ_section_title
;
Structure prediction by ZEFSAII (Michael W. Deem and Ramdas Pophale) SiO2 
 PCOD8232031
Probable space group: P B C M
;
_chemical_formula_sum "Si O2"
_cell_formula_units_Z 64
_cell_length_a 15.242243
_cell_length_b 23.570918
_cell_length_c 9.236541
_cell_angle_alpha 90.000000
_cell_angle_beta 90.000000
_cell_angle_gamma 90.000000
_cell_volume 3318.445890
_symmetry_space_group_name_H-M "P B C M"
_symmetry_group_IT_number 57
_symmetry_cell_setting 'orthorhombic'
loop_
_space_group_symop_operation_xyz
x,y,z
-x,-y,1/2+z
x,1/2-y,-z
-x,1/2+y,1/2-z
-x,-y,-z
x,y,1/2-z
-x,1/2+y,z
x,1/2-y,1/2+z
loop_
_atom_site_type_symbol
_atom_site_label
_atom_site_fract_x
_atom_site_fract_y
_atom_site_fract_z
Si Si1 0.579736 0.875272 0.417014
Si Si2 0.838039 0.997701 0.579661
Si Si3 0.095362 0.393786 0.416535
Si Si4 0.248230 0.309083 0.078912
Si Si5 0.409297 0.883091 0.582741
Si Si6 0.897407 0.122905 0.584016
Si Si7 0.342224 0.004565 0.583011
Si Si8 0.243122 0.691748 0.078984
O O1 0.563498 0.862860 0.250000
O O2 0.661391 0.838097 0.473189
O O3 0.491818 0.856718 0.499116
O O4 0.596909 0.941477 0.446169
O O5 0.835831 0.988320 0.750000
O O6 0.875842 0.058846 0.537373
O O7 0.741134 0.990498 0.518560
O O8 0.901177 0.950755 0.510424
O O9 0.111926 0.410856 0.250000
O O10 0.168463 0.349416 0.469511
O O11 0.000446 0.365335 0.436799
O O12 0.247281 0.299222 0.250000
O O13 0.236028 0.250000 0.000000
O O14 0.429694 0.874511 0.750000
O O15 0.397665 0.949021 0.542117
O O16 0.321078 0.850902 0.537395
O O17 0.868648 0.133692 0.750000
O O18 0.847537 0.166265 0.479866
O O19 0.310477 0.002387 0.750000
O O20 0.234642 0.701381 0.250000
O O21 0.264571 0.750000 0.000000
#
# Coordination Sequence:
#
# PCOD8232031 Si02
#       8
#     8   8   8   8   8   8   8   8
#     4  10  21  37  60  86 115 153 191 235 290 349
#     4  11  21  33  57  93 123 151 192 241 290 344
#     4  10  21  40  62  84 120 160 193 236 293 355
#     4  10  22  40  60  82 111 152 196 239 289 339
#     4  10  22  38  60  88 116 152 192 236 293 350
#     4  10  22  39  61  90 120 154 196 242 293 349
#     4  10  19  37  60  84 118 156 192 231 292 360
#     4  11  24  42  63  85 116 157 199 247 296 347
#
# _framework density 19.286135999999999
#
# number of rings (size 3 to 8) (size 9 to 14) (size 15 to 20)
#    0.000    1.750    2.500    1.500    0.000    5.000 
#    0.000    3.750    0.000    0.000    0.000    0.000 
#    0.000    0.000    0.000    0.000    0.000    0.000 
#
# Total GULP energy -793912.437584 kJ/mol
# GULP energy per Si atom -12404.881837 kJ/mol
# Density = 1.924224 g / cm^3
# Si number density = 19.286136 Si / 1000 Ang^3
#
#
#
# Elastic Constant Matrix: (Units=GPa)
#
#
# Indices 1 2 3 4 5 6 
#
# 1 101.2171 18.7324 31.4325 0.0000 0.0000 0.0000
# 2 18.7324 83.6003 32.9364 0.0000 0.0000 0.0000
# 3 31.4325 32.9364 57.1069 0.0000 0.0000 0.0000
# 4 0.0000 0.0000 0.0000 34.9141 0.0000 0.0000
# 5 0.0000 0.0000 0.0000 0.0000 26.8348 0.0000
# 6 0.0000 0.0000 0.0000 0.0000 0.0000 13.8967
#
#
#
# Elastic Compliance Matrix: (Units=1/GPa)
#
#
# Indices 1 2 3 4 5 6 
#
# 1 0.011917 -0.000111 -0.006495 0.000000 0.000000 0.000000
# 2 -0.000111 0.015480 -0.008867 0.000000 0.000000 0.000000
# 3 -0.006495 -0.008867 0.026200 0.000000 0.000000 0.000000
# 4 0.000000 0.000000 0.000000 0.028642 0.000000 0.000000
# 5 0.000000 0.000000 0.000000 0.000000 0.037265 0.000000
# 6 0.000000 0.000000 0.000000 0.000000 0.000000 0.071960
#
#
# Mechanical properties :
#
#
# Convention : Reuss Voigt Hill
#
# Bulk Modulus (GPa) = 44.14905 45.34744 44.74825
# Shear Modulus (GPa) = 21.74282 25.71732 23.73007
#
# Velocity S-wave (km/s) = 3.36129 3.65562 3.51154
# Velocity P-wave (km/s) = 6.16487 6.43289 6.30031
#
# Compressibility (1/GPa) = 0.02265054
#
# Stress axis : x y z
#
# Youngs Moduli (GPa) = 83.91053 64.59983 38.16784
#
# Poissons Ratio (x) = 0.00719 0.24791
# Poissons Ratio (y) = 0.00934 0.33843
# Poissons Ratio (z) = 0.54503 0.57279
#
# Static dielectric constant tensor:
#      x y z
#    x 3.526270 0.000000 0.000000 
#    y 0.000000 3.540630 0.000000 
#    z 0.000000 0.000000 3.459500 
# 
# 
# High freq. dielectric constant tensor:
#      x y z
#    x 1.759390 0.000000 0.000000 
#    y 0.000000 1.749590 0.000000 
#    z 0.000000 0.000000 1.745900 
# 
# From -- ./inp_files/5717.got.cif
#   From: 2010.03.12/outbox.cif.g09.slc.cpg/sg57_3_cif.got.tgz:5717.got - 2010.04.16 15:48:40.
