data_PCOD8232685
_publ_section_title
;
Structure prediction by ZEFSAII (Michael W. Deem and Ramdas Pophale) SiO2 
 PCOD8232685
Probable space group: P B C M
;
_chemical_formula_sum "Si O2"
_cell_formula_units_Z 64
_cell_length_a 25.896876
_cell_length_b 14.884669
_cell_length_c 8.930385
_cell_angle_alpha 90.000000
_cell_angle_beta 90.000000
_cell_angle_gamma 90.000000
_cell_volume 3442.363601
_symmetry_space_group_name_H-M "P B C M"
_symmetry_group_IT_number 57
_symmetry_cell_setting 'orthorhombic'
loop_
_space_group_symop_operation_xyz
x,y,z
-x,-y,1/2+z
x,1/2-y,-z
-x,1/2+y,1/2-z
-x,-y,-z
x,y,1/2-z
-x,1/2+y,z
x,1/2-y,1/2+z
loop_
_atom_site_type_symbol
_atom_site_label
_atom_site_fract_x
_atom_site_fract_y
_atom_site_fract_z
Si Si1 0.495842 0.650651 0.572969
Si Si2 0.055714 0.003487 0.072083
Si Si3 0.239397 0.158120 0.576105
Si Si4 0.307949 0.994803 0.575171
Si Si5 0.877944 0.844200 0.073392
Si Si6 0.871843 0.342308 0.074279
Si Si7 0.244593 0.657298 0.573949
Si Si8 0.427467 0.506811 0.423859
O O1 0.500670 0.750000 0.500000
O O2 0.491066 0.664895 0.750000
O O3 0.446291 0.594829 0.514478
O O4 0.544563 0.586785 0.529951
O O5 0.051408 0.009829 0.250000
O O6 0.088235 0.917185 0.019671
O O7 0.084403 0.088763 0.008289
O O8 0.000000 0.000000 0.000000
O O9 0.255771 0.250000 0.500000
O O10 0.245758 0.174735 0.750000
O O11 0.181038 0.128801 0.536660
O O12 0.278272 0.082744 0.517434
O O13 0.297518 0.977433 0.750000
O O14 0.286165 0.913214 0.481073
O O15 0.367797 0.007608 0.539030
O O16 0.888819 0.841892 0.250000
O O17 0.891169 0.750000 0.000000
O O18 0.874240 0.328366 0.250000
O O19 0.813708 0.369735 0.024497
O O20 0.889537 0.250000 0.000000
O O21 0.260910 0.750000 0.500000
O O22 0.248633 0.667596 0.750000
O O23 0.437534 0.527210 0.250000
#
# Coordination Sequence:
#
# PCOD8232685 Si02
#       8
#     8   8   8   8   8   8   8   8
#     4  10  20  36  58  80 104 138 180 224 268 314
#     4  11  23  38  55  79 108 138 175 221 270 320
#     4   9  19  34  54  80 109 141 177 215 259 314
#     4  10  20  35  54  79 112 144 174 216 264 309
#     4  10  20  36  57  80 106 140 179 218 262 314
#     4   9  20  37  57  79 105 137 175 217 261 312
#     4  10  20  35  55  80 107 139 177 215 259 313
#     4   9  20  37  55  78 108 141 179 220 263 313
#
# _framework density 18.591877
#
# number of rings (size 3 to 8) (size 9 to 14) (size 15 to 20)
#    0.000    2.250    0.000    2.250    0.000    5.000 
#    0.000    1.250    0.000    0.000    0.000    0.000 
#    0.000    0.000    0.000    0.000    0.000    0.000 
#
# Total GULP energy -793639.488432 kJ/mol
# GULP energy per Si atom -12400.617007 kJ/mol
# Density = 1.854956 g / cm^3
# Si number density = 18.591877 Si / 1000 Ang^3
#
#
#
# Elastic Constant Matrix: (Units=GPa)
#
#
# Indices 1 2 3 4 5 6 
#
# 1 127.5113 89.9634 49.1759 0.0000 0.0000 0.0000
# 2 89.9634 151.7664 60.1898 0.0000 0.0000 0.0000
# 3 49.1759 60.1898 66.6000 0.0000 0.0000 0.0000
# 4 0.0000 0.0000 0.0000 37.3652 0.0000 0.0000
# 5 0.0000 0.0000 0.0000 0.0000 28.4613 0.0000
# 6 0.0000 0.0000 0.0000 0.0000 0.0000 144.6122
#
#
#
# Elastic Compliance Matrix: (Units=1/GPa)
#
#
# Indices 1 2 3 4 5 6 
#
# 1 0.014302 -0.006686 -0.004518 0.000000 0.000000 0.000000
# 2 -0.006686 0.013396 -0.007170 0.000000 0.000000 0.000000
# 3 -0.004518 -0.007170 0.024830 0.000000 0.000000 0.000000
# 4 0.000000 0.000000 0.000000 0.026763 0.000000 0.000000
# 5 0.000000 0.000000 0.000000 0.000000 0.035135 0.000000
# 6 0.000000 0.000000 0.000000 0.000000 0.000000 0.006915
#
#
# Mechanical properties :
#
#
# Convention : Reuss Voigt Hill
#
# Bulk Modulus (GPa) = 63.36615 82.72621 73.04618
# Shear Modulus (GPa) = 30.60930 51.85764 41.23347
#
# Velocity S-wave (km/s) = 4.06196 5.28708 4.71448
# Velocity P-wave (km/s) = 7.49374 9.04784 8.30721
#
# Compressibility (1/GPa) = 0.01578130
#
# Stress axis : x y z
#
# Youngs Moduli (GPa) = 69.91993 74.64941 40.27345
#
# Poissons Ratio (x) = 0.49912 0.18194
# Poissons Ratio (y) = 0.46750 0.28875
# Poissons Ratio (z) = 0.31587 0.53521
#
# Static dielectric constant tensor:
#      x y z
#    x 3.411030 0.000000 0.000000 
#    y 0.000000 3.378250 0.000000 
#    z 0.000000 0.000000 3.434190 
# 
# 
# High freq. dielectric constant tensor:
#      x y z
#    x 1.722320 0.000000 0.000000 
#    y 0.000000 1.729640 0.000000 
#    z 0.000000 0.000000 1.725660 
# 
# From -- ./inp_files/9305.got.cif
#   From: 2010.03.12/outbox.cif.g09.slc.cpg/sg57_5_cif.got.tgz:9305.got - 2010.04.16 15:48:40.
