data_PCOD8232686
_publ_section_title
;
Structure prediction by ZEFSAII (Michael W. Deem and Ramdas Pophale) SiO2 
 PCOD8232686
Probable space group: P B C M
;
_chemical_formula_sum "Si O2"
_cell_formula_units_Z 60
_cell_length_a 11.894671
_cell_length_b 25.737806
_cell_length_c 10.132268
_cell_angle_alpha 90.000000
_cell_angle_beta 90.000000
_cell_angle_gamma 90.000000
_cell_volume 3101.920234
_symmetry_space_group_name_H-M "P B C M"
_symmetry_group_IT_number 57
_symmetry_cell_setting 'orthorhombic'
loop_
_space_group_symop_operation_xyz
x,y,z
-x,-y,1/2+z
x,1/2-y,-z
-x,1/2+y,1/2-z
-x,-y,-z
x,y,1/2-z
-x,1/2+y,z
x,1/2-y,1/2+z
loop_
_atom_site_type_symbol
_atom_site_label
_atom_site_fract_x
_atom_site_fract_y
_atom_site_fract_z
Si Si1 0.733244 0.843661 0.102336
Si Si2 0.497083 0.705819 0.602989
Si Si3 0.976239 0.433262 0.893909
Si Si4 0.076545 0.683206 0.103800
Si Si5 0.801367 0.042966 0.901425
Si Si6 0.886646 0.750000 0.000000
Si Si7 0.740295 0.341912 0.403178
Si Si8 0.766273 0.565739 0.394938
O O1 0.769617 0.860400 0.250000
O O2 0.601344 0.832923 0.098291
O O3 0.807056 0.793421 0.064985
O O4 0.745824 0.892128 0.005659
O O5 0.523604 0.750000 0.500000
O O6 0.485024 0.729710 0.750000
O O7 0.384879 0.675796 0.562077
O O8 0.920055 0.443436 0.750000
O O9 0.977856 0.372180 0.926601
O O10 0.104044 0.450707 0.889719
O O11 0.910111 0.464132 0.005957
O O12 0.131508 0.686320 0.250000
O O13 0.173139 0.691945 0.992638
O O14 0.972314 0.723391 0.102862
O O15 0.841661 0.046062 0.750000
O O16 0.740562 0.096973 0.940074
O O17 0.716990 0.992841 0.923277
O O18 0.771470 0.331952 0.250000
O O19 0.726531 0.586710 0.250000
#
# Coordination Sequence:
#
# PCOD8232686 Si02
#       8
#     8   8   8   8   8   4   8   8
#     4  11  24  39  59  84 111 150 195 236 284 338
#     4  10  22  41  62  84 110 147 192 240 282 329
#     4   9  17  31  50  76 109 147 184 228 275 326
#     4  10  21  35  54  81 114 147 180 225 278 333
#     4   9  18  33  55  81 110 149 188 230 283 339
#     4  12  22  38  56  80 118 148 186 230 286 336
#     4   9  20  39  60  84 115 148 189 234 279 334
#     4  10  20  35  54  79 114 150 187 231 285 339
#
# _framework density 19.342856999999999
#
# number of rings (size 3 to 8) (size 9 to 14) (size 15 to 20)
#    0.000    2.133    2.000    0.800    0.933    3.733 
#    0.000    0.667    0.000    0.000    0.000    0.000 
#    0.000    0.000    0.000    0.000    0.000    0.000 
#
# Total GULP energy -743464.014894 kJ/mol
# GULP energy per Si atom -12391.066915 kJ/mol
# Density = 1.929883 g / cm^3
# Si number density = 19.342857 Si / 1000 Ang^3
#
#
#
# Elastic Constant Matrix: (Units=GPa)
#
#
# Indices 1 2 3 4 5 6 
#
# 1 68.4125 1.3898 18.0796 0.0000 0.0000 0.0000
# 2 1.3898 37.5825 13.7863 0.0000 0.0000 0.0000
# 3 18.0796 13.7863 89.6293 0.0000 0.0000 0.0000
# 4 0.0000 0.0000 0.0000 24.8371 0.0000 0.0000
# 5 0.0000 0.0000 0.0000 0.0000 24.5040 0.0000
# 6 0.0000 0.0000 0.0000 0.0000 0.0000 16.9880
#
#
#
# Elastic Compliance Matrix: (Units=1/GPa)
#
#
# Indices 1 2 3 4 5 6 
#
# 1 0.015453 0.000606 -0.003210 0.000000 0.000000 0.000000
# 2 0.000606 0.028223 -0.004463 0.000000 0.000000 0.000000
# 3 -0.003210 -0.004463 0.012491 0.000000 0.000000 0.000000
# 4 0.000000 0.000000 0.000000 0.040262 0.000000 0.000000
# 5 0.000000 0.000000 0.000000 0.000000 0.040810 0.000000
# 6 0.000000 0.000000 0.000000 0.000000 0.000000 0.058865
#
#
# Mechanical properties :
#
#
# Convention : Reuss Voigt Hill
#
# Bulk Modulus (GPa) = 23.79123 29.12621 26.45872
# Shear Modulus (GPa) = 22.29647 24.09037 23.19342
#
# Velocity S-wave (km/s) = 3.39882 3.53291 3.46651
# Velocity P-wave (km/s) = 5.26584 5.63316 5.45260
#
# Compressibility (1/GPa) = 0.04203229
#
# Stress axis : x y z
#
# Youngs Moduli (GPa) = 64.71095 35.43206 80.05643
#
# Poissons Ratio (x) = -0.02148 0.25701
# Poissons Ratio (y) = -0.03923 0.35732
# Poissons Ratio (z) = 0.20775 0.15815
#
# Static dielectric constant tensor:
#      x y z
#    x 3.323060 0.000000 0.000000 
#    y 0.000000 3.643040 0.000000 
#    z 0.000000 0.000000 3.701490 
# 
# 
# High freq. dielectric constant tensor:
#      x y z
#    x 1.720620 0.000000 0.000000 
#    y 0.000000 1.765970 0.000000 
#    z 0.000000 0.000000 1.761870 
# 
# From -- ./inp_files/3500.got.cif
#   From: 2010.03.12/outbox.cif.g09.slc.cpg/sg57_2_cif.got.tgz:3500.got - 2010.04.16 15:48:40.
