data_PCOD8232779
_publ_section_title
;
Structure prediction by ZEFSAII (Michael W. Deem and Ramdas Pophale) SiO2 
 PCOD8232779
Probable space group: P B C M
;
_chemical_formula_sum "Si O2"
_cell_formula_units_Z 64
_cell_length_a 23.836284
_cell_length_b 15.003885
_cell_length_c 9.281889
_cell_angle_alpha 90.000000
_cell_angle_beta 90.000000
_cell_angle_gamma 90.000000
_cell_volume 3319.545674
_symmetry_space_group_name_H-M "P B C M"
_symmetry_group_IT_number 57
_symmetry_cell_setting 'orthorhombic'
loop_
_space_group_symop_operation_xyz
x,y,z
-x,-y,1/2+z
x,1/2-y,-z
-x,1/2+y,1/2-z
-x,-y,-z
x,y,1/2-z
-x,1/2+y,z
x,1/2-y,1/2+z
loop_
_atom_site_type_symbol
_atom_site_label
_atom_site_fract_x
_atom_site_fract_y
_atom_site_fract_z
Si Si1 0.363434 0.655197 0.579795
Si Si2 0.607332 0.843438 0.081843
Si Si3 0.818951 0.982300 0.085939
Si Si4 0.876401 0.164753 0.416369
Si Si5 0.485612 0.661525 0.586668
Si Si6 0.114137 0.162882 0.083073
Si Si7 0.993809 0.090720 0.083750
Si Si8 0.310214 0.002567 0.917096
O O1 0.356699 0.750000 0.500000
O O2 0.351037 0.667220 0.750000
O O3 0.426358 0.613011 0.552352
O O4 0.320433 0.585386 0.511522
O O5 0.616955 0.823598 0.250000
O O6 0.544954 0.887963 0.054422
O O7 0.651799 0.915844 0.025726
O O8 0.615803 0.750000 0.000000
O O9 0.836116 0.958357 0.250000
O O10 0.833858 0.084452 0.052585
O O11 0.753431 0.967030 0.060434
O O12 0.853595 0.922139 0.977048
O O13 0.852827 0.250000 0.500000
O O14 0.878343 0.190191 0.250000
O O15 0.938825 0.141545 0.473571
O O16 0.487767 0.750000 0.500000
O O17 0.484430 0.692698 0.750000
O O18 0.129203 0.173481 0.250000
O O19 0.047736 0.152370 0.058440
O O20 0.135372 0.250000 0.000000
O O21 0.985853 0.065131 0.250000
O O22 0.000000 0.000000 0.000000
O O23 0.323144 0.980684 0.750000
#
# Coordination Sequence:
#
# PCOD8232779 Si02
#       8
#     8   8   8   8   8   8   8   8
#     4  10  20  35  56  81 110 144 182 226 277 333
#     4   9  18  34  55  79 109 142 180 227 278 333
#     4  10  22  41  59  78 111 150 190 236 280 323
#     4  10  21  37  58  83 111 144 181 224 274 326
#     4   8  15  29  50  77 107 139 175 219 274 332
#     4  11  23  38  60  88 115 148 188 229 279 334
#     4  10  20  35  58  87 116 147 180 222 276 331
#     4  10  22  38  56  80 110 147 188 231 280 329
#
# _framework density 19.279747
#
# number of rings (size 3 to 8) (size 9 to 14) (size 15 to 20)
#    0.000    2.250    1.250    1.125    0.000    4.500 
#    0.000    2.500    0.000    0.000    0.000    0.000 
#    0.000    0.000    0.000    0.000    0.000    0.000 
#
# Total GULP energy -793318.325096 kJ/mol
# GULP energy per Si atom -12395.598830 kJ/mol
# Density = 1.923587 g / cm^3
# Si number density = 19.279747 Si / 1000 Ang^3
#
#
#
# Elastic Constant Matrix: (Units=GPa)
#
#
# Indices 1 2 3 4 5 6 
#
# 1 66.4408 7.0611 23.0001 0.0000 0.0000 0.0000
# 2 7.0611 72.4196 39.2956 0.0000 0.0000 0.0000
# 3 23.0001 39.2956 73.5360 0.0000 0.0000 0.0000
# 4 0.0000 0.0000 0.0000 36.8566 0.0000 0.0000
# 5 0.0000 0.0000 0.0000 0.0000 23.5665 0.0000
# 6 0.0000 0.0000 0.0000 0.0000 0.0000 21.5603
#
#
#
# Elastic Compliance Matrix: (Units=1/GPa)
#
#
# Indices 1 2 3 4 5 6 
#
# 1 0.017031 0.001732 -0.006253 0.000000 0.000000 0.000000
# 2 0.001732 0.019623 -0.011028 0.000000 0.000000 0.000000
# 3 -0.006253 -0.011028 0.021447 0.000000 0.000000 0.000000
# 4 0.000000 0.000000 0.000000 0.027132 0.000000 0.000000
# 5 0.000000 0.000000 0.000000 0.000000 0.042433 0.000000
# 6 0.000000 0.000000 0.000000 0.000000 0.000000 0.046381
#
#
# Mechanical properties :
#
#
# Convention : Reuss Voigt Hill
#
# Bulk Modulus (GPa) = 37.02963 39.01223 38.02093
# Shear Modulus (GPa) = 23.34838 25.93266 24.64052
#
# Velocity S-wave (km/s) = 3.48376 3.67150 3.57886
# Velocity P-wave (km/s) = 5.95234 6.18482 6.06969
#
# Compressibility (1/GPa) = 0.02700540
#
# Stress axis : x y z
#
# Youngs Moduli (GPa) = 58.71521 50.95957 46.62564
#
# Poissons Ratio (x) = -0.08827 0.29153
# Poissons Ratio (y) = -0.10170 0.51418
# Poissons Ratio (z) = 0.36712 0.56198
#
# Static dielectric constant tensor:
#      x y z
#    x 4.032440 0.000000 0.000000 
#    y 0.000000 3.247170 0.000000 
#    z 0.000000 0.000000 3.507980 
# 
# 
# High freq. dielectric constant tensor:
#      x y z
#    x 1.758480 0.000000 0.000000 
#    y 0.000000 1.735400 0.000000 
#    z 0.000000 0.000000 1.749880 
# 
# From -- ./inp_files/9258.got.cif
#   From: 2010.03.12/outbox.cif.g09.slc.cpg/sg57_5_cif.got.tgz:9258.got - 2010.04.16 15:48:40.
