data_PCOD8232940
_publ_section_title
;
Structure prediction by ZEFSAII (Michael W. Deem and Ramdas Pophale) SiO2 
 PCOD8232940
Probable space group: P B C M
;
_chemical_formula_sum "Si O2"
_cell_formula_units_Z 40
_cell_length_a 24.124572
_cell_length_b 8.657458
_cell_length_c 9.341148
_cell_angle_alpha 90.000000
_cell_angle_beta 90.000000
_cell_angle_gamma 90.000000
_cell_volume 1950.968528
_symmetry_space_group_name_H-M "P B C M"
_symmetry_group_IT_number 57
_symmetry_cell_setting 'orthorhombic'
loop_
_space_group_symop_operation_xyz
x,y,z
-x,-y,1/2+z
x,1/2-y,-z
-x,1/2+y,1/2-z
-x,-y,-z
x,y,1/2-z
-x,1/2+y,z
x,1/2-y,1/2+z
loop_
_atom_site_type_symbol
_atom_site_label
_atom_site_fract_x
_atom_site_fract_y
_atom_site_fract_z
Si Si1 0.426455 0.429247 0.750000
Si Si2 0.259176 0.909191 0.585598
Si Si3 0.543980 0.570800 0.750000
Si Si4 0.953566 0.593082 0.416507
Si Si5 0.159325 0.590551 0.583955
Si Si6 0.620684 0.066408 0.019545
O O1 0.478397 0.545206 0.750000
O O2 0.445568 0.253001 0.750000
O O3 0.385561 0.468279 0.622192
O O4 0.265069 0.750000 0.500000
O O5 0.240875 0.885921 0.750000
O O6 0.210306 0.998897 0.498066
O O7 0.319829 0.987345 0.583130
O O8 0.569600 0.486975 0.614442
O O9 0.945820 0.750000 0.500000
O O10 0.970719 0.618475 0.250000
O O11 0.895633 0.507540 0.427660
O O12 0.000000 0.500000 0.500000
O O13 0.148960 0.750000 0.500000
O O14 0.174760 0.620359 0.750000
O O15 0.616605 0.250000 0.000000
#
# Coordination Sequence:
#
# PCOD8232940 Si02
#       6
#     4   8   4   8   8   8
#     4  12  26  40  68  86 126 164 197 262 311 376
#     4  10  20  35  62  92 123 158 205 254 302 365
#     4  12  24  46  60  94 124 158 209 248 317 378
#     4  11  24  41  63  92 127 170 215 266 320 379
#     4  10  21  37  62  94 127 163 210 255 306 366
#     4  11  23  40  65  94 122 161 208 255 310 373
#
# _framework density 20.502637
#
# number of rings (size 3 to 8) (size 9 to 14) (size 15 to 20)
#    0.000    1.200    1.000    6.600    5.600    4.800 
#    0.000    2.000    0.000    0.000    0.000    0.000 
#    0.000    0.000    0.000    0.000    0.000    0.000 
#
# Total GULP energy -495730.419527 kJ/mol
# GULP energy per Si atom -12393.260488 kJ/mol
# Density = 2.045597 g / cm^3
# Si number density = 20.502637 Si / 1000 Ang^3
#
#
#
# Elastic Constant Matrix: (Units=GPa)
#
#
# Indices 1 2 3 4 5 6 
#
# 1 119.0467 28.8518 59.4586 0.0000 0.0000 0.0000
# 2 28.8518 95.9746 41.4921 0.0000 0.0000 0.0000
# 3 59.4586 41.4921 189.1949 0.0000 0.0000 0.0000
# 4 0.0000 0.0000 0.0000 32.7171 0.0000 0.0000
# 5 0.0000 0.0000 0.0000 0.0000 40.3055 0.0000
# 6 0.0000 0.0000 0.0000 0.0000 0.0000 22.9663
#
#
#
# Elastic Compliance Matrix: (Units=1/GPa)
#
#
# Indices 1 2 3 4 5 6 
#
# 1 0.010258 -0.001867 -0.002814 0.000000 0.000000 0.000000
# 2 -0.001867 0.011851 -0.002012 0.000000 0.000000 0.000000
# 3 -0.002814 -0.002012 0.006611 0.000000 0.000000 0.000000
# 4 0.000000 0.000000 0.000000 0.030565 0.000000 0.000000
# 5 0.000000 0.000000 0.000000 0.000000 0.024811 0.000000
# 6 0.000000 0.000000 0.000000 0.000000 0.000000 0.043542
#
#
# Mechanical properties :
#
#
# Convention : Reuss Voigt Hill
#
# Bulk Modulus (GPa) = 65.21944 73.75793 69.48868
# Shear Modulus (GPa) = 34.21466 37.49201 35.85334
#
# Velocity S-wave (km/s) = 4.08952 4.28090 4.18630
# Velocity P-wave (km/s) = 7.36058 7.77739 7.57186
#
# Compressibility (1/GPa) = 0.01533285
#
# Stress axis : x y z
#
# Youngs Moduli (GPa) = 97.48258 84.38380 151.25550
#
# Poissons Ratio (x) = 0.15755 0.42569
# Poissons Ratio (y) = 0.18201 0.30435
# Poissons Ratio (z) = 0.27436 0.16979
#
# Static dielectric constant tensor:
#      x y z
#    x 4.500940 0.000000 0.000000 
#    y 0.000000 3.343320 0.000000 
#    z 0.000000 0.000000 4.099980 
# 
# 
# High freq. dielectric constant tensor:
#      x y z
#    x 1.826400 0.000000 0.000000 
#    y 0.000000 1.771690 0.000000 
#    z 0.000000 0.000000 1.826660 
# 
# From -- ./inp_files/8943.got.cif
#   From: 2010.03.12/outbox.cif.g09.slc.cpg/sg57_5_cif.got.tgz:8943.got - 2010.04.16 15:48:40.
