data_PCOD8232545
_publ_section_title
;
Structure prediction by ZEFSAII (Michael W. Deem and Ramdas Pophale) SiO2 
 PCOD8232545
Probable space group: P B C M
;
_chemical_formula_sum "Si O2"
_cell_formula_units_Z 56
_cell_length_a 22.050092
_cell_length_b 14.254959
_cell_length_c 9.077351
_cell_angle_alpha 90.000000
_cell_angle_beta 90.000000
_cell_angle_gamma 90.000000
_cell_volume 2853.221627
_symmetry_space_group_name_H-M "P B C M"
_symmetry_group_IT_number 57
_symmetry_cell_setting 'orthorhombic'
loop_
_space_group_symop_operation_xyz
x,y,z
-x,-y,1/2+z
x,1/2-y,-z
-x,1/2+y,1/2-z
-x,-y,-z
x,y,1/2-z
-x,1/2+y,z
x,1/2-y,1/2+z
loop_
_atom_site_type_symbol
_atom_site_label
_atom_site_fract_x
_atom_site_fract_y
_atom_site_fract_z
Si Si1 0.108510 0.654846 0.423455
Si Si2 0.512863 0.904209 0.420556
Si Si3 0.747998 0.650274 0.077554
Si Si4 0.643893 0.955966 0.418153
Si Si5 0.969705 0.842793 0.921300
Si Si6 0.596854 0.162072 0.423444
Si Si7 0.862575 0.973609 0.921572
O O1 0.131678 0.750000 0.500000
O O2 0.118201 0.664063 0.250000
O O3 0.147587 0.568140 0.484947
O O4 0.038634 0.635595 0.467801
O O5 0.493457 0.909084 0.250000
O O6 0.585258 0.887650 0.434608
O O7 0.471032 0.830364 0.506552
O O8 0.500000 0.000000 0.500000
O O9 0.741409 0.667466 0.250000
O O10 0.811245 0.601196 0.036776
O O11 0.743909 0.750000 0.000000
O O12 0.694888 0.581436 0.026380
O O13 0.667254 0.953200 0.250000
O O14 0.629063 0.063747 0.462599
O O15 0.964323 0.821961 0.750000
O O16 0.927427 0.929670 0.966896
O O17 0.945164 0.750000 0.000000
O O18 0.632517 0.250000 0.500000
O O19 0.592292 0.176787 0.250000
O O20 0.860318 0.000141 0.750000
#
# Coordination Sequence:
#
# PCOD8232545 Si02
#       7
#     8   8   8   8   8   8   8
#     4  10  20  34  55  82 110 144 179 218 269 323
#     4   9  17  31  52  78 108 142 178 219 267 318
#     4  11  24  40  60  82 106 140 181 225 272 319
#     4   9  20  38  57  79 110 146 185 227 271 319
#     4   9  18  32  52  80 113 144 178 220 268 321
#     4  10  20  34  55  84 115 147 181 222 272 326
#     4  10  21  37  55  79 110 143 181 225 269 318
#
# _framework density 19.626936000000001
#
# number of rings (size 3 to 8) (size 9 to 14) (size 15 to 20)
#    0.000    2.286    0.000    3.429    0.000    6.286 
#    0.000    0.714    0.000    1.714    0.000    0.000 
#    0.000    0.000    0.000    0.000    0.000    0.000 
#
# Total GULP energy -694237.958014 kJ/mol
# GULP energy per Si atom -12397.106393 kJ/mol
# Density = 1.958226 g / cm^3
# Si number density = 19.626936 Si / 1000 Ang^3
#
#
#
# Elastic Constant Matrix: (Units=GPa)
#
#
# Indices 1 2 3 4 5 6 
#
# 1 57.1307 37.3231 39.6689 0.0000 0.0000 0.0000
# 2 37.3231 138.1307 64.1804 0.0000 0.0000 0.0000
# 3 39.6689 64.1804 97.2854 0.0000 0.0000 0.0000
# 4 0.0000 0.0000 0.0000 41.0343 0.0000 0.0000
# 5 0.0000 0.0000 0.0000 0.0000 27.1228 0.0000
# 6 0.0000 0.0000 0.0000 0.0000 0.0000 20.3844
#
#
#
# Elastic Compliance Matrix: (Units=1/GPa)
#
#
# Indices 1 2 3 4 5 6 
#
# 1 0.025216 -0.002936 -0.008345 0.000000 0.000000 0.000000
# 2 -0.002936 0.010781 -0.005915 0.000000 0.000000 0.000000
# 3 -0.008345 -0.005915 0.017584 0.000000 0.000000 0.000000
# 4 0.000000 0.000000 0.000000 0.024370 0.000000 0.000000
# 5 0.000000 0.000000 0.000000 0.000000 0.036869 0.000000
# 6 0.000000 0.000000 0.000000 0.000000 0.000000 0.049057
#
#
# Mechanical properties :
#
#
# Convention : Reuss Voigt Hill
#
# Bulk Modulus (GPa) = 52.11395 63.87684 57.99539
# Shear Modulus (GPa) = 24.42982 27.79993 26.11488
#
# Velocity S-wave (km/s) = 3.53187 3.76761 3.65165
# Velocity P-wave (km/s) = 6.57587 7.17933 6.88421
#
# Compressibility (1/GPa) = 0.01918872
#
# Stress axis : x y z
#
# Youngs Moduli (GPa) = 39.65684 92.75287 56.86876
#
# Poissons Ratio (x) = 0.27232 0.47458
# Poissons Ratio (y) = 0.11643 0.33640
# Poissons Ratio (z) = 0.33095 0.54867
#
# Static dielectric constant tensor:
#      x y z
#    x 3.580520 0.000000 0.000000 
#    y 0.000000 3.682110 0.000000 
#    z 0.000000 0.000000 6.751360 
# 
# 
# High freq. dielectric constant tensor:
#      x y z
#    x 1.742010 0.000000 0.000000 
#    y 0.000000 1.772480 0.000000 
#    z 0.000000 0.000000 1.770520 
# 
# From -- ./inp_files/8126.got.cif
#   From: 2010.03.12/outbox.cif.g09.slc.cpg/sg57_5_cif.got.tgz:8126.got - 2010.04.16 15:48:40.
