data_PCOD8232867
_publ_section_title
;
Structure prediction by ZEFSAII (Michael W. Deem and Ramdas Pophale) SiO2 
 PCOD8232867
Probable space group: P B C M
;
_chemical_formula_sum "Si O2"
_cell_formula_units_Z 64
_cell_length_a 12.365723
_cell_length_b 29.955272
_cell_length_c 9.084549
_cell_angle_alpha 90.000000
_cell_angle_beta 90.000000
_cell_angle_gamma 90.000000
_cell_volume 3365.085885
_symmetry_space_group_name_H-M "P B C M"
_symmetry_group_IT_number 57
_symmetry_cell_setting 'orthorhombic'
loop_
_space_group_symop_operation_xyz
x,y,z
-x,-y,1/2+z
x,1/2-y,-z
-x,1/2+y,1/2-z
-x,-y,-z
x,y,1/2-z
-x,1/2+y,z
x,1/2-y,1/2+z
loop_
_atom_site_type_symbol
_atom_site_label
_atom_site_fract_x
_atom_site_fract_y
_atom_site_fract_z
Si Si1 0.615521 0.094086 0.914886
Si Si2 0.866521 0.209368 0.588935
Si Si3 0.634867 0.588076 0.923611
Si Si4 0.887913 0.790732 0.412137
Si Si5 0.005371 0.951802 0.922431
Si Si6 0.610078 0.995067 0.915505
Si Si7 0.831306 0.877642 0.923896
Si Si8 0.818582 0.379541 0.923180
O O1 0.625239 0.114236 0.750000
O O2 0.490298 0.097347 0.966664
O O3 0.662988 0.043707 0.912129
O O4 0.692700 0.118984 0.028939
O O5 0.808226 0.250000 0.500000
O O6 0.810392 0.203744 0.750000
O O7 0.867176 0.163417 0.500600
O O8 0.989403 0.223613 0.615220
O O9 0.650042 0.586521 0.750000
O O10 0.677895 0.541172 0.992846
O O11 0.713458 0.623786 0.998236
O O12 0.829066 0.750000 0.500000
O O13 0.833169 0.797912 0.250000
O O14 0.890391 0.834892 0.510989
O O15 0.007541 0.961604 0.750000
O O16 0.112544 0.923596 0.969352
O O17 0.900468 0.921913 0.963599
O O18 0.000000 0.000000 0.000000
O O19 0.591492 0.977124 0.750000
O O20 0.500000 0.000000 0.000000
O O21 0.817930 0.872551 0.750000
O O22 0.825886 0.372433 0.750000
#
# Coordination Sequence:
#
# PCOD8232867 Si02
#       8
#     8   8   8   8   8   8   8   8
#     4   9  20  36  53  76 107 144 186 233 280 328
#     4  10  20  35  58  85 113 145 181 228 280 332
#     4  10  21  36  54  78 108 144 190 237 281 332
#     4  10  20  35  58  86 113 145 182 228 280 333
#     4  10  24  40  54  78 114 155 192 231 277 330
#     4   9  17  31  50  73 101 136 182 233 279 321
#     4  11  22  38  58  82 115 150 188 234 281 336
#     4  11  22  37  57  83 114 148 189 233 277 334
#
# _framework density 19.018830999999999
#
# number of rings (size 3 to 8) (size 9 to 14) (size 15 to 20)
#    0.000    2.000    1.250    3.000    1.750    6.000 
#    0.000    0.000    0.000    0.750    0.000    0.000 
#    0.000    0.000    0.000    0.000    0.000    0.000 
#
# Total GULP energy -793026.434051 kJ/mol
# GULP energy per Si atom -12391.038032 kJ/mol
# Density = 1.897554 g / cm^3
# Si number density = 19.018831 Si / 1000 Ang^3
#
#
#
# Elastic Constant Matrix: (Units=GPa)
#
#
# Indices 1 2 3 4 5 6 
#
# 1 78.0030 24.8650 41.4187 0.0000 0.0000 0.0000
# 2 24.8650 116.3233 60.8884 0.0000 0.0000 0.0000
# 3 41.4187 60.8884 133.9222 0.0000 0.0000 0.0000
# 4 0.0000 0.0000 0.0000 36.0718 0.0000 0.0000
# 5 0.0000 0.0000 0.0000 0.0000 25.9815 0.0000
# 6 0.0000 0.0000 0.0000 0.0000 0.0000 12.4678
#
#
#
# Elastic Compliance Matrix: (Units=1/GPa)
#
#
# Indices 1 2 3 4 5 6 
#
# 1 0.015436 -0.001051 -0.004296 0.000000 0.000000 0.000000
# 2 -0.001051 0.011353 -0.004837 0.000000 0.000000 0.000000
# 3 -0.004296 -0.004837 0.010995 0.000000 0.000000 0.000000
# 4 0.000000 0.000000 0.000000 0.027722 0.000000 0.000000
# 5 0.000000 0.000000 0.000000 0.000000 0.038489 0.000000
# 6 0.000000 0.000000 0.000000 0.000000 0.000000 0.080207
#
#
# Mechanical properties :
#
#
# Convention : Reuss Voigt Hill
#
# Bulk Modulus (GPa) = 57.41678 64.73252 61.07465
# Shear Modulus (GPa) = 23.76700 28.30931 26.03816
#
# Velocity S-wave (km/s) = 3.53888 3.86228 3.70411
# Velocity P-wave (km/s) = 6.85224 7.34843 7.10467
#
# Compressibility (1/GPa) = 0.01741651
#
# Stress axis : x y z
#
# Youngs Moduli (GPa) = 64.78255 88.08162 90.95189
#
# Poissons Ratio (x) = 0.09255 0.39076
# Poissons Ratio (y) = 0.06807 0.43991
# Poissons Ratio (z) = 0.27833 0.42603
#
# Static dielectric constant tensor:
#      x y z
#    x 3.254710 0.000000 0.000000 
#    y 0.000000 3.505220 0.000000 
#    z 0.000000 0.000000 4.380720 
# 
# 
# High freq. dielectric constant tensor:
#      x y z
#    x 1.709000 0.000000 0.000000 
#    y 0.000000 1.729090 0.000000 
#    z 0.000000 0.000000 1.756280 
# 
# From -- ./inp_files/3811.got.cif
#   From: 2010.03.12/outbox.cif.g09.slc.cpg/sg57_2_cif.got.tgz:3811.got - 2010.04.16 15:48:40.
