data_PCOD8232297
_publ_section_title
;
Structure prediction by ZEFSAII (Michael W. Deem and Ramdas Pophale) SiO2 
 PCOD8232297
Probable space group: P B C M
;
_chemical_formula_sum "Si O2"
_cell_formula_units_Z 40
_cell_length_a 26.402813
_cell_length_b 9.186723
_cell_length_c 8.686469
_cell_angle_alpha 90.000000
_cell_angle_beta 90.000000
_cell_angle_gamma 90.000000
_cell_volume 2106.949350
_symmetry_space_group_name_H-M "P B C M"
_symmetry_group_IT_number 57
_symmetry_cell_setting 'orthorhombic'
loop_
_space_group_symop_operation_xyz
x,y,z
-x,-y,1/2+z
x,1/2-y,-z
-x,1/2+y,1/2-z
-x,-y,-z
x,y,1/2-z
-x,1/2+y,z
x,1/2-y,1/2+z
loop_
_atom_site_type_symbol
_atom_site_label
_atom_site_fract_x
_atom_site_fract_y
_atom_site_fract_z
Si Si1 0.954022 0.088899 0.067890
Si Si2 0.545948 0.909895 0.432197
Si Si3 0.743900 0.090881 0.929861
Si Si4 0.146441 0.909368 0.430511
Si Si5 0.356567 0.589817 0.068913
O O1 0.957832 0.092585 0.250000
O O2 0.956216 0.250000 0.000000
O O3 0.900906 0.011809 0.015153
O O4 0.000000 0.000000 0.000000
O O5 0.545233 0.750000 0.500000
O O6 0.540571 0.902369 0.250000
O O7 0.500000 0.000000 0.500000
O O8 0.597691 0.987570 0.484394
O O9 0.733192 0.102967 0.750000
O O10 0.798717 0.012281 0.959965
O O11 0.746554 0.250000 0.000000
O O12 0.695670 0.012804 0.009097
O O13 0.150615 0.750000 0.500000
O O14 0.134517 0.899369 0.250000
O O15 0.354257 0.605210 0.250000
O O16 0.364373 0.750000 0.000000
#
# Coordination Sequence:
#
# PCOD8232297 Si02
#       5
#     8   8   8   8   8
#     4  11  21  34  52  75 103 137 175 218 266 316
#     4  11  24  40  59  82 108 141 178 219 263 311
#     4   9  16  26  45  72 102 134 168 209 255 302
#     4   9  16  27  44  70 100 131 169 212 257 307
#     4  10  20  33  52  79 108 137 171 210 256 308
#
# _framework density 18.984793
#
# number of rings (size 3 to 8) (size 9 to 14) (size 15 to 20)
#    0.000    2.000    0.000    7.200    0.000    7.200 
#    0.000    0.000    0.000    1.200    0.000    2.800 
#    0.000    0.000    0.000    0.000    0.000    0.000 
#
# Total GULP energy -495639.722870 kJ/mol
# GULP energy per Si atom -12390.993072 kJ/mol
# Density = 1.894158 g / cm^3
# Si number density = 18.984793 Si / 1000 Ang^3
#
#
#
# Elastic Constant Matrix: (Units=GPa)
#
#
# Indices 1 2 3 4 5 6 
#
# 1 229.5821 64.1194 81.9103 0.0000 0.0000 0.0000
# 2 64.1194 64.9132 33.8851 0.0000 0.0000 0.0000
# 3 81.9103 33.8851 126.8062 0.0000 0.0000 0.0000
# 4 0.0000 0.0000 0.0000 23.2112 0.0000 0.0000
# 5 0.0000 0.0000 0.0000 0.0000 36.4350 0.0000
# 6 0.0000 0.0000 0.0000 0.0000 0.0000 25.7318
#
#
#
# Elastic Compliance Matrix: (Units=1/GPa)
#
#
# Indices 1 2 3 4 5 6 
#
# 1 0.006909 -0.005223 -0.003067 0.000000 0.000000 0.000000
# 2 -0.005223 0.021851 -0.002465 0.000000 0.000000 0.000000
# 3 -0.003067 -0.002465 0.010526 0.000000 0.000000 0.000000
# 4 0.000000 0.000000 0.000000 0.043083 0.000000 0.000000
# 5 0.000000 0.000000 0.000000 0.000000 0.027446 0.000000
# 6 0.000000 0.000000 0.000000 0.000000 0.000000 0.038862
#
#
# Mechanical properties :
#
#
# Convention : Reuss Voigt Hill
#
# Bulk Modulus (GPa) = 56.25788 86.79234 71.52511
# Shear Modulus (GPa) = 28.39083 33.16804 30.77944
#
# Velocity S-wave (km/s) = 3.87130 4.18435 4.03087
# Velocity P-wave (km/s) = 7.04841 8.31631 7.70847
#
# Compressibility (1/GPa) = 0.01777529
#
# Stress axis : x y z
#
# Youngs Moduli (GPa) = 144.74360 45.76358 95.00412
#
# Poissons Ratio (x) = 0.23904 0.29137
# Poissons Ratio (y) = 0.75604 0.23420
# Poissons Ratio (z) = 0.44392 0.11281
#
# Static dielectric constant tensor:
#      x y z
#    x 4.976860 0.000000 0.000000 
#    y 0.000000 2.916740 0.000000 
#    z 0.000000 0.000000 3.661310 
# 
# 
# High freq. dielectric constant tensor:
#      x y z
#    x 1.777450 0.000000 0.000000 
#    y 0.000000 1.671420 0.000000 
#    z 0.000000 0.000000 1.758840 
# 
# From -- ./inp_files/9633.got.cif
#   From: 2010.03.12/outbox.cif.g09.slc.cpg/sg57_5_cif.got.tgz:9633.got - 2010.04.16 15:48:40.
