data_PCOD8232642
_publ_section_title
;
Structure prediction by ZEFSAII (Michael W. Deem and Ramdas Pophale) SiO2 
 PCOD8232642
Probable space group: P B C M
;
_chemical_formula_sum "Si O2"
_cell_formula_units_Z 64
_cell_length_a 16.177094
_cell_length_b 23.118949
_cell_length_c 8.916530
_cell_angle_alpha 90.000000
_cell_angle_beta 90.000000
_cell_angle_gamma 90.000000
_cell_volume 3334.759136
_symmetry_space_group_name_H-M "P B C M"
_symmetry_group_IT_number 57
_symmetry_cell_setting 'orthorhombic'
loop_
_space_group_symop_operation_xyz
x,y,z
-x,-y,1/2+z
x,1/2-y,-z
-x,1/2+y,1/2-z
-x,-y,-z
x,y,1/2-z
-x,1/2+y,z
x,1/2-y,1/2+z
loop_
_atom_site_type_symbol
_atom_site_label
_atom_site_fract_x
_atom_site_fract_y
_atom_site_fract_z
Si Si1 0.898570 0.037814 0.575719
Si Si2 0.656902 0.189789 0.426820
Si Si3 0.512388 0.809901 0.073656
Si Si4 0.588171 0.501079 0.078603
Si Si5 0.826146 0.813781 0.926750
Si Si6 0.951924 0.911768 0.572437
Si Si7 0.346728 0.374174 0.921679
Si Si8 0.276658 0.913007 0.074801
O O1 0.919637 0.042594 0.750000
O O2 0.804475 0.050999 0.538657
O O3 0.955339 0.085955 0.493034
O O4 0.910859 0.972141 0.517802
O O5 0.682063 0.250000 0.500000
O O6 0.649259 0.196626 0.250000
O O7 0.570691 0.166952 0.495959
O O8 0.727246 0.144703 0.474641
O O9 0.497472 0.803063 0.250000
O O10 0.539005 0.750000 0.000000
O O11 0.586571 0.852746 0.040825
O O12 0.565774 0.491503 0.250000
O O13 0.647237 0.556987 0.059639
O O14 0.643921 0.448781 0.018716
O O15 0.500000 0.500000 0.000000
O O16 0.832838 0.804390 0.750000
O O17 0.900754 0.855440 0.985641
O O18 0.742036 0.848098 0.967617
O O19 0.829823 0.750000 0.000000
O O20 0.954917 0.908748 0.750000
O O21 0.367848 0.356068 0.750000
O O22 0.282507 0.897285 0.250000
#
# Coordination Sequence:
#
# PCOD8232642 Si02
#       8
#     8   8   8   8   8   8   8   8
#     4   9  18  34  59  85 108 138 176 220 270 324
#     4  11  22  37  56  77 102 135 174 217 264 313
#     4  11  21  34  52  74 101 137 180 224 267 311
#     4  10  21  35  53  77 109 147 183 223 272 324
#     4  10  21  36  55  79 111 149 186 226 274 329
#     4   9  18  35  57  82 111 142 177 219 270 325
#     4  10  20  35  53  76 107 144 185 226 270 321
#     4  10  20  36  56  80 109 140 176 218 267 321
#
# _framework density 19.191792
#
# number of rings (size 3 to 8) (size 9 to 14) (size 15 to 20)
#    0.000    2.000    0.000    4.875    0.000    8.500 
#    0.000    0.625    0.000    6.000    0.000    0.000 
#    0.000    0.000    0.000    0.000    0.000    0.000 
#
# Total GULP energy -793364.252425 kJ/mol
# GULP energy per Si atom -12396.316444 kJ/mol
# Density = 1.914811 g / cm^3
# Si number density = 19.191792 Si / 1000 Ang^3
#
#
#
# Elastic Constant Matrix: (Units=GPa)
#
#
# Indices 1 2 3 4 5 6 
#
# 1 78.4162 63.7743 33.8181 0.0000 0.0000 0.0000
# 2 63.7743 115.3984 41.8911 0.0000 0.0000 0.0000
# 3 33.8181 41.8911 81.6202 0.0000 0.0000 0.0000
# 4 0.0000 0.0000 0.0000 30.6302 0.0000 0.0000
# 5 0.0000 0.0000 0.0000 0.0000 27.9791 0.0000
# 6 0.0000 0.0000 0.0000 0.0000 0.0000 34.6673
#
#
#
# Elastic Compliance Matrix: (Units=1/GPa)
#
#
# Indices 1 2 3 4 5 6 
#
# 1 0.024121 -0.011924 -0.003874 0.000000 0.000000 0.000000
# 2 -0.011924 0.016544 -0.003551 0.000000 0.000000 0.000000
# 3 -0.003874 -0.003551 0.015680 0.000000 0.000000 0.000000
# 4 0.000000 0.000000 0.000000 0.032648 0.000000 0.000000
# 5 0.000000 0.000000 0.000000 0.000000 0.035741 0.000000
# 6 0.000000 0.000000 0.000000 0.000000 0.000000 0.028846
#
#
# Mechanical properties :
#
#
# Convention : Reuss Voigt Hill
#
# Bulk Modulus (GPa) = 56.66743 61.60019 59.13381
# Shear Modulus (GPa) = 25.23238 27.71876 26.47557
#
# Velocity S-wave (km/s) = 3.62988 3.80452 3.71823
# Velocity P-wave (km/s) = 6.86724 7.17398 7.02229
#
# Compressibility (1/GPa) = 0.01764682
#
# Stress axis : x y z
#
# Youngs Moduli (GPa) = 41.45835 60.44422 63.77749
#
# Poissons Ratio (x) = 0.72072 0.24709
# Poissons Ratio (y) = 0.49434 0.22646
# Poissons Ratio (z) = 0.16062 0.21462
#
# Static dielectric constant tensor:
#      x y z
#    x 3.524350 0.000000 0.000000 
#    y 0.000000 3.666160 0.000000 
#    z 0.000000 0.000000 3.437150 
# 
# 
# High freq. dielectric constant tensor:
#      x y z
#    x 1.740680 0.000000 0.000000 
#    y 0.000000 1.753100 0.000000 
#    z 0.000000 0.000000 1.737340 
# 
# From -- ./inp_files/5637.got.cif
#   From: 2010.03.12/outbox.cif.g09.slc.cpg/sg57_3_cif.got.tgz:5637.got - 2010.04.16 15:48:40.
