data_PCOD8232681
_publ_section_title
;
Structure prediction by ZEFSAII (Michael W. Deem and Ramdas Pophale) SiO2 
 PCOD8232681
Probable space group: P B C M
;
_chemical_formula_sum "Si O2"
_cell_formula_units_Z 48
_cell_length_a 30.919037
_cell_length_b 9.361059
_cell_length_c 8.771953
_cell_angle_alpha 90.000000
_cell_angle_beta 90.000000
_cell_angle_gamma 90.000000
_cell_volume 2538.909599
_symmetry_space_group_name_H-M "P B C M"
_symmetry_group_IT_number 57
_symmetry_cell_setting 'orthorhombic'
loop_
_space_group_symop_operation_xyz
x,y,z
-x,-y,1/2+z
x,1/2-y,-z
-x,1/2+y,1/2-z
-x,-y,-z
x,y,1/2-z
-x,1/2+y,z
x,1/2-y,1/2+z
loop_
_atom_site_type_symbol
_atom_site_label
_atom_site_fract_x
_atom_site_fract_y
_atom_site_fract_z
Si Si1 0.379368 0.905762 0.571275
Si Si2 0.132238 0.598232 0.927999
Si Si3 0.461493 0.091786 0.931120
Si Si4 0.298855 0.094669 0.931292
Si Si5 0.209802 0.403772 0.931599
Si Si6 0.963870 0.403037 0.071497
O O1 0.384388 0.750000 0.500000
O O2 0.380065 0.882953 0.750000
O O3 0.417933 0.010067 0.520113
O O4 0.335218 0.981820 0.518170
O O5 0.137377 0.618334 0.750000
O O6 0.169029 0.493886 0.990988
O O7 0.084300 0.537952 0.967539
O O8 0.140404 0.750000 0.000000
O O9 0.466637 0.103292 0.750000
O O10 0.461104 0.250000 0.000000
O O11 0.500000 0.000000 0.000000
O O12 0.295620 0.110236 0.750000
O O13 0.309673 0.250000 0.000000
O O14 0.254143 0.032769 0.999497
O O15 0.213221 0.397669 0.750000
O O16 0.201846 0.250000 0.000000
O O17 0.971525 0.392597 0.250000
O O18 0.969888 0.250000 0.000000
O O19 0.000000 0.500000 0.000000
#
# Coordination Sequence:
#
# PCOD8232681 Si02
#       6
#     8   8   8   8   8   8
#     4  10  23  39  57  82 113 146 184 225 271 323
#     4   9  20  36  54  76 105 138 175 215 263 317
#     4  11  23  40  61  87 116 150 188 230 277 328
#     4  10  20  36  56  80 107 140 179 221 267 318
#     4  10  20  35  54  79 107 139 177 219 264 316
#     4  10  20  36  55  78 106 139 177 220 267 320
#
# _framework density 18.905752
#
# number of rings (size 3 to 8) (size 9 to 14) (size 15 to 20)
#    0.000    2.000    0.000    4.000    0.000    7.333 
#    0.000    5.000    0.000    0.000    0.000    0.000 
#    0.000    0.000    0.000    0.000    0.000    0.000 
#
# Total GULP energy -595163.080720 kJ/mol
# GULP energy per Si atom -12399.230848 kJ/mol
# Density = 1.886272 g / cm^3
# Si number density = 18.905752 Si / 1000 Ang^3
#
#
#
# Elastic Constant Matrix: (Units=GPa)
#
#
# Indices 1 2 3 4 5 6 
#
# 1 196.8543 109.3445 69.0034 0.0000 0.0000 0.0000
# 2 109.3445 128.4736 56.0359 0.0000 0.0000 0.0000
# 3 69.0034 56.0359 77.7549 0.0000 0.0000 0.0000
# 4 0.0000 0.0000 0.0000 36.0890 0.0000 0.0000
# 5 0.0000 0.0000 0.0000 0.0000 24.5550 0.0000
# 6 0.0000 0.0000 0.0000 0.0000 0.0000 45.3520
#
#
#
# Elastic Compliance Matrix: (Units=1/GPa)
#
#
# Indices 1 2 3 4 5 6 
#
# 1 0.010496 -0.007103 -0.004196 0.000000 0.000000 0.000000
# 2 -0.007103 0.016159 -0.005342 0.000000 0.000000 0.000000
# 3 -0.004196 -0.005342 0.020434 0.000000 0.000000 0.000000
# 4 0.000000 0.000000 0.000000 0.027709 0.000000 0.000000
# 5 0.000000 0.000000 0.000000 0.000000 0.040725 0.000000
# 6 0.000000 0.000000 0.000000 0.000000 0.000000 0.022050
#
#
# Mechanical properties :
#
#
# Convention : Reuss Voigt Hill
#
# Bulk Modulus (GPa) = 72.42153 96.87225 84.64689
# Shear Modulus (GPa) = 28.49693 32.44581 30.47137
#
# Velocity S-wave (km/s) = 3.88663 4.14718 4.01902
# Velocity P-wave (km/s) = 7.65055 8.61876 8.14905
#
# Compressibility (1/GPa) = 0.01380805
#
# Stress axis : x y z
#
# Youngs Moduli (GPa) = 95.27207 61.88380 48.93826
#
# Poissons Ratio (x) = 0.43959 0.20533
# Poissons Ratio (y) = 0.67676 0.26141
# Poissons Ratio (z) = 0.39973 0.33056
#
# Static dielectric constant tensor:
#      x y z
#    x 3.916340 0.000000 0.000000 
#    y 0.000000 3.303210 0.000000 
#    z 0.000000 0.000000 3.545320 
# 
# 
# High freq. dielectric constant tensor:
#      x y z
#    x 1.755250 0.000000 0.000000 
#    y 0.000000 1.732610 0.000000 
#    z 0.000000 0.000000 1.743460 
# 
# From -- ./inp_files/9996.got.cif
#   From: 2010.03.12/outbox.cif.g09.slc.cpg/sg57_5_cif.got.tgz:9996.got - 2010.04.16 15:48:40.
