data_PCOD8232011
_publ_section_title
;
Structure prediction by ZEFSAII (Michael W. Deem and Ramdas Pophale) SiO2 
 PCOD8232011
Probable space group: P B C M
;
_chemical_formula_sum "Si O2"
_cell_formula_units_Z 64
_cell_length_a 11.876103
_cell_length_b 30.688893
_cell_length_c 9.128859
_cell_angle_alpha 90.000000
_cell_angle_beta 90.000000
_cell_angle_gamma 90.000000
_cell_volume 3327.144613
_symmetry_space_group_name_H-M "P B C M"
_symmetry_group_IT_number 57
_symmetry_cell_setting 'orthorhombic'
loop_
_space_group_symop_operation_xyz
x,y,z
-x,-y,1/2+z
x,1/2-y,-z
-x,1/2+y,1/2-z
-x,-y,-z
x,y,1/2-z
-x,1/2+y,z
x,1/2-y,1/2+z
loop_
_atom_site_type_symbol
_atom_site_label
_atom_site_fract_x
_atom_site_fract_y
_atom_site_fract_z
Si Si1 0.878525 0.375401 0.078175
Si Si2 0.966627 0.955997 0.077813
Si Si3 0.493676 0.293768 0.577171
Si Si4 0.513902 0.954471 0.578597
Si Si5 0.758275 0.920436 0.916335
Si Si6 0.976099 0.707775 0.922682
Si Si7 0.242558 0.182097 0.082536
Si Si8 0.359432 0.624246 0.423786
O O1 0.853578 0.374341 0.250000
O O2 0.945117 0.418751 0.032200
O O3 0.952997 0.334245 0.029044
O O4 0.762828 0.374007 0.992631
O O5 0.965290 0.963451 0.250000
O O6 0.842444 0.943186 0.027790
O O7 0.000000 0.000000 0.000000
O O8 0.538182 0.250000 0.500000
O O9 0.504483 0.288152 0.750000
O O10 0.365144 0.302445 0.530513
O O11 0.569476 0.334037 0.522197
O O12 0.501100 0.962357 0.750000
O O13 0.634481 0.935079 0.538333
O O14 0.420697 0.919961 0.523183
O O15 0.500000 0.000000 0.500000
O O16 0.786864 0.934603 0.750000
O O17 0.766039 0.869237 0.934333
O O18 0.976903 0.714260 0.750000
O O19 0.031545 0.750000 0.000000
O O20 0.847730 0.703992 0.976395
O O21 0.218761 0.196177 0.250000
O O22 0.349001 0.624738 0.250000
#
# Coordination Sequence:
#
# PCOD8232011 Si02
#       8
#     8   8   8   8   8   8   8   8
#     4  10  24  43  60  83 119 155 194 246 295 342
#     4  11  24  42  62  89 122 156 198 247 296 351
#     4  10  21  38  59  87 119 153 192 239 289 345
#     4  10  22  40  61  89 121 155 195 243 291 346
#     4  10  20  38  64  90 121 158 195 240 296 351
#     4  11  23  40  60  87 120 154 195 244 294 349
#     4  10  19  36  62  89 120 155 192 236 292 351
#     4  10  22  41  62  84 116 156 198 239 288 350
#
# _framework density 19.235714000000002
#
# number of rings (size 3 to 8) (size 9 to 14) (size 15 to 20)
#    0.000    1.750    2.500    1.125    1.750    5.500 
#    0.000    2.500    0.000    0.000    0.000    0.000 
#    0.000    0.000    0.000    0.000    0.000    0.000 
#
# Total GULP energy -793843.393026 kJ/mol
# GULP energy per Si atom -12403.803016 kJ/mol
# Density = 1.919193 g / cm^3
# Si number density = 19.235714 Si / 1000 Ang^3
#
#
#
# Elastic Constant Matrix: (Units=GPa)
#
#
# Indices 1 2 3 4 5 6 
#
# 1 120.4780 63.7966 51.1770 0.0000 0.0000 0.0000
# 2 63.7966 148.2463 56.2284 0.0000 0.0000 0.0000
# 3 51.1770 56.2284 60.2600 0.0000 0.0000 0.0000
# 4 0.0000 0.0000 0.0000 36.8117 0.0000 0.0000
# 5 0.0000 0.0000 0.0000 0.0000 6.8885 0.0000
# 6 0.0000 0.0000 0.0000 0.0000 0.0000 49.5113
#
#
#
# Elastic Compliance Matrix: (Units=1/GPa)
#
#
# Indices 1 2 3 4 5 6 
#
# 1 0.013454 -0.002254 -0.009323 0.000000 0.000000 0.000000
# 2 -0.002254 0.010818 -0.008180 0.000000 0.000000 0.000000
# 3 -0.009323 -0.008180 0.032146 0.000000 0.000000 0.000000
# 4 0.000000 0.000000 0.000000 0.027165 0.000000 0.000000
# 5 0.000000 0.000000 0.000000 0.000000 0.145169 0.000000
# 6 0.000000 0.000000 0.000000 0.000000 0.000000 0.020197
#
#
# Mechanical properties :
#
#
# Convention : Reuss Voigt Hill
#
# Bulk Modulus (GPa) = 59.15974 74.59872 66.87923
# Shear Modulus (GPa) = 17.00108 29.16111 23.08110
#
# Velocity S-wave (km/s) = 2.97615 3.89779 3.46773
# Velocity P-wave (km/s) = 6.52931 7.68912 7.13283
#
# Compressibility (1/GPa) = 0.01690339
#
# Stress axis : x y z
#
# Youngs Moduli (GPa) = 74.32758 92.43764 31.10826
#
# Poissons Ratio (x) = 0.20832 0.29003
# Poissons Ratio (y) = 0.16750 0.25448
# Poissons Ratio (z) = 0.69297 0.75618
#
# Static dielectric constant tensor:
#      x y z
#    x 3.096530 0.000000 0.000000 
#    y 0.000000 1.827260 0.000000 
#    z 0.000000 0.000000 3.405360 
# 
# 
# High freq. dielectric constant tensor:
#      x y z
#    x 1.751950 0.000000 0.000000 
#    y 0.000000 1.767670 0.000000 
#    z 0.000000 0.000000 1.741010 
# 
# From -- ./inp_files/3733.got.cif
#   From: 2010.03.12/outbox.cif.g09.slc.cpg/sg57_2_cif.got.tgz:3733.got - 2010.04.16 15:48:40.
