data_PCOD8232643
_publ_section_title
;
Structure prediction by ZEFSAII (Michael W. Deem and Ramdas Pophale) SiO2 
 PCOD8232643
Probable space group: P B C M
;
_chemical_formula_sum "Si O2"
_cell_formula_units_Z 64
_cell_length_a 15.145481
_cell_length_b 24.183513
_cell_length_c 8.818890
_cell_angle_alpha 90.000000
_cell_angle_beta 90.000000
_cell_angle_gamma 90.000000
_cell_volume 3230.103101
_symmetry_space_group_name_H-M "P B C M"
_symmetry_group_IT_number 57
_symmetry_cell_setting 'orthorhombic'
loop_
_space_group_symop_operation_xyz
x,y,z
-x,-y,1/2+z
x,1/2-y,-z
-x,1/2+y,1/2-z
-x,-y,-z
x,y,1/2-z
-x,1/2+y,z
x,1/2-y,1/2+z
loop_
_atom_site_type_symbol
_atom_site_label
_atom_site_fract_x
_atom_site_fract_y
_atom_site_fract_z
Si Si1 0.812927 0.191137 0.423368
Si Si2 0.995922 0.806054 0.575290
Si Si3 0.285589 0.989910 0.427900
Si Si4 0.511608 0.810912 0.571348
Si Si5 0.907646 0.984034 0.926661
Si Si6 0.855354 0.874253 0.425867
Si Si7 0.654910 0.381446 0.929473
Si Si8 0.678706 0.884762 0.927448
O O1 0.800778 0.250000 0.500000
O O2 0.788652 0.202313 0.250000
O O3 0.743624 0.147443 0.491532
O O4 0.910036 0.161818 0.435617
O O5 0.027267 0.750000 0.500000
O O6 0.962994 0.802320 0.750000
O O7 0.919678 0.823914 0.460623
O O8 0.288428 0.980446 0.250000
O O9 0.182435 0.985532 0.484598
O O10 0.346538 0.943704 0.505582
O O11 0.327396 0.049945 0.469083
O O12 0.519599 0.750000 0.500000
O O13 0.507427 0.802217 0.750000
O O14 0.426166 0.844027 0.511019
O O15 0.592621 0.850632 0.525030
O O16 0.919129 0.993422 0.750000
O O17 0.892840 0.920253 0.961613
O O18 0.000000 0.000000 0.000000
O O19 0.859917 0.891583 0.250000
O O20 0.756659 0.857729 0.473105
O O21 0.650431 0.387169 0.750000
O O22 0.700237 0.877982 0.750000
#
# Coordination Sequence:
#
# PCOD8232643 Si02
#       8
#     8   8   8   8   8   8   8   8
#     4   9  19  34  52  76 108 147 186 231 285 343
#     4  10  20  35  53  77 109 149 192 237 288 347
#     4   9  20  37  56  82 114 153 197 237 288 347
#     4  10  22  40  63  89 117 150 192 242 298 355
#     4  10  21  37  56  82 116 154 196 242 287 338
#     4  11  22  36  56  83 112 148 191 239 290 348
#     4  10  21  36  56  86 119 150 188 237 292 351
#     4   9  20  41  61  80 115 155 192 243 299 349
#
# _framework density 19.813607999999999
#
# number of rings (size 3 to 8) (size 9 to 14) (size 15 to 20)
#    0.000    2.250    0.000    3.000    1.750    5.500 
#    0.000    1.250    0.000    0.000    0.000    0.000 
#    0.000    0.000    0.000    0.000    0.000    0.000 
#
# Total GULP energy -793071.004093 kJ/mol
# GULP energy per Si atom -12391.734439 kJ/mol
# Density = 1.976851 g / cm^3
# Si number density = 19.813608 Si / 1000 Ang^3
#
#
#
# Elastic Constant Matrix: (Units=GPa)
#
#
# Indices 1 2 3 4 5 6 
#
# 1 142.4030 78.3229 44.2556 0.0000 0.0000 0.0000
# 2 78.3229 109.5833 30.5194 0.0000 0.0000 0.0000
# 3 44.2556 30.5194 46.9469 0.0000 0.0000 0.0000
# 4 0.0000 0.0000 0.0000 34.4452 0.0000 0.0000
# 5 0.0000 0.0000 0.0000 0.0000 23.5876 0.0000
# 6 0.0000 0.0000 0.0000 0.0000 0.0000 30.5146
#
#
#
# Elastic Compliance Matrix: (Units=1/GPa)
#
#
# Indices 1 2 3 4 5 6 
#
# 1 0.013638 -0.007531 -0.007961 0.000000 0.000000 0.000000
# 2 -0.007531 0.015301 -0.002848 0.000000 0.000000 0.000000
# 3 -0.007961 -0.002848 0.030657 0.000000 0.000000 0.000000
# 4 0.000000 0.000000 0.000000 0.029032 0.000000 0.000000
# 5 0.000000 0.000000 0.000000 0.000000 0.042395 0.000000
# 6 0.000000 0.000000 0.000000 0.000000 0.000000 0.032771
#
#
# Mechanical properties :
#
#
# Convention : Reuss Voigt Hill
#
# Bulk Modulus (GPa) = 43.63601 67.23655 55.43628
# Shear Modulus (GPa) = 24.02550 27.43183 25.72866
#
# Velocity S-wave (km/s) = 3.48598 3.72492 3.60743
# Velocity P-wave (km/s) = 6.18659 7.24625 6.73729
#
# Compressibility (1/GPa) = 0.02291685
#
# Stress axis : x y z
#
# Youngs Moduli (GPa) = 73.32292 65.35503 32.61930
#
# Poissons Ratio (x) = 0.49216 0.25968
# Poissons Ratio (y) = 0.55217 0.09290
# Poissons Ratio (z) = 0.58372 0.18613
#
# Static dielectric constant tensor:
#      x y z
#    x 3.981370 0.000000 0.000000 
#    y 0.000000 3.660630 0.000000 
#    z 0.000000 0.000000 2.945120 
# 
# 
# High freq. dielectric constant tensor:
#      x y z
#    x 1.782520 0.000000 0.000000 
#    y 0.000000 1.764670 0.000000 
#    z 0.000000 0.000000 1.763630 
# 
# From -- ./inp_files/5550.got.cif
#   From: 2010.03.12/outbox.cif.g09.slc.cpg/sg57_3_cif.got.tgz:5550.got - 2010.04.16 15:48:40.
