data_PCOD8232869
_publ_section_title
;
Structure prediction by ZEFSAII (Michael W. Deem and Ramdas Pophale) SiO2 
 PCOD8232869
Probable space group: P B C M
;
_chemical_formula_sum "Si O2"
_cell_formula_units_Z 56
_cell_length_a 21.362338
_cell_length_b 14.656149
_cell_length_c 8.930225
_cell_angle_alpha 90.000000
_cell_angle_beta 90.000000
_cell_angle_gamma 90.000000
_cell_volume 2795.960651
_symmetry_space_group_name_H-M "P B C M"
_symmetry_group_IT_number 57
_symmetry_cell_setting 'orthorhombic'
loop_
_space_group_symop_operation_xyz
x,y,z
-x,-y,1/2+z
x,1/2-y,-z
-x,1/2+y,1/2-z
-x,-y,-z
x,y,1/2-z
-x,1/2+y,z
x,1/2-y,1/2+z
loop_
_atom_site_type_symbol
_atom_site_label
_atom_site_fract_x
_atom_site_fract_y
_atom_site_fract_z
Si Si1 0.055804 0.886573 0.417251
Si Si2 0.816757 0.339842 0.573644
Si Si3 0.934468 0.898419 0.917127
Si Si4 0.590117 0.484004 0.425176
Si Si5 0.279610 0.506272 0.079033
Si Si6 0.809066 0.841061 0.078689
Si Si7 0.497562 0.349456 0.926853
O O1 0.060453 0.845324 0.250000
O O2 0.113415 0.852421 0.514525
O O3 0.992010 0.851434 0.494997
O O4 0.054901 0.994675 0.409284
O O5 0.786788 0.250000 0.500000
O O6 0.819821 0.329688 0.750000
O O7 0.772701 0.422657 0.524809
O O8 0.931082 0.857000 0.750000
O O9 0.870502 0.879894 0.001683
O O10 0.582458 0.465032 0.250000
O O11 0.662289 0.487658 0.468580
O O12 0.559262 0.581638 0.468425
O O13 0.559974 0.398173 0.511691
O O14 0.300759 0.525409 0.250000
O O15 0.249573 0.407433 0.063053
O O16 0.826400 0.822901 0.250000
O O17 0.785801 0.750000 0.000000
O O18 0.503986 0.335362 0.750000
O O19 0.486521 0.250000 0.000000
#
# Coordination Sequence:
#
# PCOD8232869 Si02
#       7
#     8   8   8   8   8   8   8
#     4  10  20  35  58  85 113 148 190 242 302 361
#     4  11  23  40  60  85 115 152 198 245 299 356
#     4  10  20  35  58  85 113 148 191 243 302 362
#     4  10  22  39  63  93 125 163 203 245 293 348
#     4  10  23  42  62  84 121 163 199 245 295 350
#     4  11  23  40  60  85 116 154 199 247 300 356
#     4  10  21  39  64  95 129 163 201 245 293 343
#
# _framework density 20.028894999999999
#
# number of rings (size 3 to 8) (size 9 to 14) (size 15 to 20)
#    0.000    1.714    1.429    2.571    0.000    6.857 
#    0.000    7.143    0.000    0.000    0.000    0.000 
#    0.000    0.000    0.000    0.000    0.000    0.000 
#
# Total GULP energy -694520.727584 kJ/mol
# GULP energy per Si atom -12402.155850 kJ/mol
# Density = 1.998331 g / cm^3
# Si number density = 20.028895 Si / 1000 Ang^3
#
#
#
# Elastic Constant Matrix: (Units=GPa)
#
#
# Indices 1 2 3 4 5 6 
#
# 1 90.8553 15.0873 42.1575 0.0000 0.0000 0.0000
# 2 15.0873 70.8404 39.2433 0.0000 0.0000 0.0000
# 3 42.1575 39.2433 125.0991 0.0000 0.0000 0.0000
# 4 0.0000 0.0000 0.0000 33.9798 0.0000 0.0000
# 5 0.0000 0.0000 0.0000 0.0000 35.6919 0.0000
# 6 0.0000 0.0000 0.0000 0.0000 0.0000 -5.0680
#
#
#
# Elastic Compliance Matrix: (Units=1/GPa)
#
#
# Indices 1 2 3 4 5 6 
#
# 1 0.013057 -0.000416 -0.004270 0.000000 0.000000 0.000000
# 2 -0.000416 0.017099 -0.005224 0.000000 0.000000 0.000000
# 3 -0.004270 -0.005224 0.011071 0.000000 0.000000 0.000000
# 4 0.000000 0.000000 0.000000 0.029429 0.000000 0.000000
# 5 0.000000 0.000000 0.000000 0.000000 0.028018 0.000000
# 6 0.000000 0.000000 0.000000 0.000000 0.000000 -0.197318
#
#
# Mechanical properties :
#
#
# Convention : Reuss Voigt Hill
#
# Bulk Modulus (GPa) = 46.71031 53.30788 50.00909
# Shear Modulus (GPa) = -69.74360 25.60786 -22.06787
#
# Velocity S-wave (km/s) = -5.90738 3.57955 -3.32294
# Velocity P-wave (km/s) = 4.81221 6.61495 3.20938
#
# Compressibility (1/GPa) = 0.02140855
#
# Stress axis : x y z
#
# Youngs Moduli (GPa) = 76.58920 58.48461 90.32458
#
# Poissons Ratio (x) = 0.02430 0.38566
# Poissons Ratio (y) = 0.03182 0.47183
# Poissons Ratio (z) = 0.32701 0.30551
#
# Static dielectric constant tensor:
#      x y z
#    x 3.510490 0.000000 0.000000 
#    y 0.000000 3.871520 0.000000 
#    z 0.000000 0.000000 3.851490 
# 
# 
# High freq. dielectric constant tensor:
#      x y z
#    x 1.775490 0.000000 0.000000 
#    y 0.000000 1.787590 0.000000 
#    z 0.000000 0.000000 1.796200 
# 
# From -- ./inp_files/8200.got.cif
#   From: 2010.03.12/outbox.cif.g09.slc.cpg/sg57_5_cif.got.tgz:8200.got - 2010.04.16 15:48:40.
