data_PCOD8232495
_publ_section_title
;
Structure prediction by ZEFSAII (Michael W. Deem and Ramdas Pophale) SiO2 
 PCOD8232495
Probable space group: P B C M
;
_chemical_formula_sum "Si O2"
_cell_formula_units_Z 40
_cell_length_a 25.974610
_cell_length_b 9.150883
_cell_length_c 8.533136
_cell_angle_alpha 90.000000
_cell_angle_beta 90.000000
_cell_angle_gamma 90.000000
_cell_volume 2028.246361
_symmetry_space_group_name_H-M "P B C M"
_symmetry_group_IT_number 57
_symmetry_cell_setting 'orthorhombic'
loop_
_space_group_symop_operation_xyz
x,y,z
-x,-y,1/2+z
x,1/2-y,-z
-x,1/2+y,1/2-z
-x,-y,-z
x,y,1/2-z
-x,1/2+y,z
x,1/2-y,1/2+z
loop_
_atom_site_type_symbol
_atom_site_label
_atom_site_fract_x
_atom_site_fract_y
_atom_site_fract_z
Si Si1 0.643343 0.587554 0.435233
Si Si2 0.737609 0.414526 0.565379
Si Si3 0.452001 0.912145 0.935239
Si Si4 0.046047 0.909356 0.431405
Si Si5 0.158043 0.589776 0.933266
O O1 0.638423 0.750000 0.500000
O O2 0.635922 0.589604 0.250000
O O3 0.698078 0.520347 0.479568
O O4 0.600323 0.487454 0.512497
O O5 0.732669 0.250000 0.500000
O O6 0.727368 0.414826 0.750000
O O7 0.794110 0.482925 0.525872
O O8 0.454958 0.907428 0.750000
O O9 0.453736 0.750000 0.000000
O O10 0.500000 0.000000 0.000000
O O11 0.044143 0.750000 0.500000
O O12 0.036489 0.893778 0.250000
O O13 0.102213 0.986209 0.463430
O O14 0.000000 0.000000 0.500000
O O15 0.171952 0.594953 0.750000
O O16 0.151640 0.750000 0.000000
#
# Coordination Sequence:
#
# PCOD8232495 Si02
#       5
#     8   8   8   8   8
#     4  12  25  43  63  88 121 158 196 240 290 345
#     4  11  21  36  59  87 115 149 190 237 286 340
#     4  12  25  44  67  95 126 161 201 244 291 342
#     4  10  20  34  54  79 110 145 186 232 284 340
#     4   9  17  31  52  79 108 143 185 233 283 339
#
# _framework density 19.721468999999999
#
# number of rings (size 3 to 8) (size 9 to 14) (size 15 to 20)
#    0.000    1.200    0.000    9.000    0.000    2.400 
#    0.000    1.000    0.000    4.800    0.000    0.000 
#    0.000    0.000    0.000    0.000    0.000    0.000 
#
# Total GULP energy -495870.672093 kJ/mol
# GULP energy per Si atom -12396.766802 kJ/mol
# Density = 1.967658 g / cm^3
# Si number density = 19.721469 Si / 1000 Ang^3
#
#
#
# Elastic Constant Matrix: (Units=GPa)
#
#
# Indices 1 2 3 4 5 6 
#
# 1 162.8703 68.1455 56.5309 0.0000 0.0000 0.0000
# 2 68.1455 112.4744 52.1469 0.0000 0.0000 0.0000
# 3 56.5309 52.1469 153.6475 0.0000 0.0000 0.0000
# 4 0.0000 0.0000 0.0000 34.3736 0.0000 0.0000
# 5 0.0000 0.0000 0.0000 0.0000 40.0714 0.0000
# 6 0.0000 0.0000 0.0000 0.0000 0.0000 24.2645
#
#
#
# Elastic Compliance Matrix: (Units=1/GPa)
#
#
# Indices 1 2 3 4 5 6 
#
# 1 0.008563 -0.004424 -0.001649 0.000000 0.000000 0.000000
# 2 -0.004424 0.012836 -0.002729 0.000000 0.000000 0.000000
# 3 -0.001649 -0.002729 0.008041 0.000000 0.000000 0.000000
# 4 0.000000 0.000000 0.000000 0.029092 0.000000 0.000000
# 5 0.000000 0.000000 0.000000 0.000000 0.024955 0.000000
# 6 0.000000 0.000000 0.000000 0.000000 0.000000 0.041212
#
#
# Mechanical properties :
#
#
# Convention : Reuss Voigt Hill
#
# Bulk Modulus (GPa) = 84.47954 86.95987 85.71970
# Shear Modulus (GPa) = 34.18797 36.55316 35.37056
#
# Velocity S-wave (km/s) = 4.16810 4.30987 4.23957
# Velocity P-wave (km/s) = 8.12978 8.30399 8.21735
#
# Compressibility (1/GPa) = 0.01183719
#
# Stress axis : x y z
#
# Youngs Moduli (GPa) = 116.77973 77.90412 124.35605
#
# Poissons Ratio (x) = 0.34461 0.20510
# Poissons Ratio (y) = 0.51658 0.33937
# Poissons Ratio (z) = 0.19260 0.21260
#
# Static dielectric constant tensor:
#      x y z
#    x 4.534280 0.000000 0.000000 
#    y 0.000000 3.409080 0.000000 
#    z 0.000000 0.000000 3.883950 
# 
# 
# High freq. dielectric constant tensor:
#      x y z
#    x 1.800070 0.000000 0.000000 
#    y 0.000000 1.740490 0.000000 
#    z 0.000000 0.000000 1.793660 
# 
# From -- ./inp_files/8883.got.cif
#   From: 2010.03.12/outbox.cif.g09.slc.cpg/sg57_5_cif.got.tgz:8883.got - 2010.04.16 15:48:40.
