data_PCOD8232282
_publ_section_title
;
Structure prediction by ZEFSAII (Michael W. Deem and Ramdas Pophale) SiO2 
 PCOD8232282
Probable space group: P B C M
;
_chemical_formula_sum "Si O2"
_cell_formula_units_Z 48
_cell_length_a 9.136215
_cell_length_b 32.674873
_cell_length_c 8.810937
_cell_angle_alpha 90.000000
_cell_angle_beta 90.000000
_cell_angle_gamma 90.000000
_cell_volume 2630.282015
_symmetry_space_group_name_H-M "P B C M"
_symmetry_group_IT_number 57
_symmetry_cell_setting 'orthorhombic'
loop_
_space_group_symop_operation_xyz
x,y,z
-x,-y,1/2+z
x,1/2-y,-z
-x,1/2+y,1/2-z
-x,-y,-z
x,y,1/2-z
-x,1/2+y,z
x,1/2-y,1/2+z
loop_
_atom_site_type_symbol
_atom_site_label
_atom_site_fract_x
_atom_site_fract_y
_atom_site_fract_z
Si Si1 0.815130 0.083250 0.420703
Si Si2 0.552930 0.042081 0.930485
Si Si3 0.933407 0.627859 0.570667
Si Si4 0.641314 0.167330 0.082904
Si Si5 0.620797 0.615787 0.070424
Si Si6 0.109623 0.708368 0.574223
O O1 0.851189 0.067824 0.250000
O O2 0.716981 0.049980 0.508013
O O3 0.725641 0.124766 0.413314
O O4 0.964552 0.090586 0.513979
O O5 0.557337 0.039759 0.750000
O O6 0.438995 0.076768 0.980756
O O7 0.500000 0.000000 0.000000
O O8 0.909633 0.623951 0.750000
O O9 0.782953 0.625497 0.481737
O O10 0.005154 0.671201 0.524603
O O11 0.641391 0.187455 0.250000
O O12 0.476377 0.156219 0.030303
O O13 0.721884 0.198906 0.971589
O O14 0.613495 0.606681 0.250000
O O15 0.051547 0.750000 0.500000
O O16 0.105290 0.715520 0.750000
#
# Coordination Sequence:
#
# PCOD8232282 Si02
#       6
#     8   8   8   8   8   8
#     4   9  17  32  53  76 102 136 174 211 253 307
#     4  11  21  35  55  79 107 138 174 218 262 309
#     4  10  20  34  53  79 107 140 177 215 260 313
#     4   8  16  31  51  73  98 129 168 207 248 299
#     4  10  20  35  55  79 105 137 173 212 259 312
#     4  10  20  33  52  76 103 134 172 213 257 306
#
# _framework density 18.248995000000001
#
# number of rings (size 3 to 8) (size 9 to 14) (size 15 to 20)
#    0.000    2.333    0.000    4.500    0.000    6.667 
#    0.000    1.667    0.000    2.000    0.000    0.000 
#    0.000    0.000    0.000    0.000    0.000    0.000 
#
# Total GULP energy -595097.781837 kJ/mol
# GULP energy per Si atom -12397.870455 kJ/mol
# Density = 1.820746 g / cm^3
# Si number density = 18.248995 Si / 1000 Ang^3
#
#
#
# Elastic Constant Matrix: (Units=GPa)
#
#
# Indices 1 2 3 4 5 6 
#
# 1 100.8156 19.8352 26.8495 0.0000 0.0000 0.0000
# 2 19.8352 62.6587 32.6654 0.0000 0.0000 0.0000
# 3 26.8495 32.6654 96.0753 0.0000 0.0000 0.0000
# 4 0.0000 0.0000 0.0000 30.3902 0.0000 0.0000
# 5 0.0000 0.0000 0.0000 0.0000 34.0187 0.0000
# 6 0.0000 0.0000 0.0000 0.0000 0.0000 16.1158
#
#
#
# Elastic Compliance Matrix: (Units=1/GPa)
#
#
# Indices 1 2 3 4 5 6 
#
# 1 0.010978 -0.002280 -0.002293 0.000000 0.000000 0.000000
# 2 -0.002280 0.019871 -0.006119 0.000000 0.000000 0.000000
# 3 -0.002293 -0.006119 0.013130 0.000000 0.000000 0.000000
# 4 0.000000 0.000000 0.000000 0.032905 0.000000 0.000000
# 5 0.000000 0.000000 0.000000 0.000000 0.029396 0.000000
# 6 0.000000 0.000000 0.000000 0.000000 0.000000 0.062051
#
#
# Mechanical properties :
#
#
# Convention : Reuss Voigt Hill
#
# Bulk Modulus (GPa) = 44.25642 46.47219 45.36430
# Shear Modulus (GPa) = 25.34897 28.11824 26.73360
#
# Velocity S-wave (km/s) = 3.73105 3.92957 3.83160
# Velocity P-wave (km/s) = 6.54714 6.79041 6.66989
#
# Compressibility (1/GPa) = 0.02259559
#
# Stress axis : x y z
#
# Youngs Moduli (GPa) = 91.08866 50.32409 76.16309
#
# Poissons Ratio (x) = 0.11474 0.17463
# Poissons Ratio (y) = 0.20768 0.46604
# Poissons Ratio (z) = 0.20885 0.30793
#
# Static dielectric constant tensor:
#      x y z
#    x 3.541060 0.000000 0.000000 
#    y 0.000000 3.340280 0.000000 
#    z 0.000000 0.000000 3.516940 
# 
# 
# High freq. dielectric constant tensor:
#      x y z
#    x 1.704390 0.000000 0.000000 
#    y 0.000000 1.683790 0.000000 
#    z 0.000000 0.000000 1.722470 
# 
# From -- ./inp_files/2057.got.cif
#   From: 2010.03.12/outbox.cif.g09.slc.cpg/sg57_2_cif.got.tgz:2057.got - 2010.04.16 15:48:40.
