data_PCOD8232283
_publ_section_title
;
Structure prediction by ZEFSAII (Michael W. Deem and Ramdas Pophale) SiO2 
 PCOD8232283
Probable space group: P B C M
;
_chemical_formula_sum "Si O2"
_cell_formula_units_Z 48
_cell_length_a 9.107407
_cell_length_b 32.345721
_cell_length_c 8.855267
_cell_angle_alpha 90.000000
_cell_angle_beta 90.000000
_cell_angle_gamma 90.000000
_cell_volume 2608.634548
_symmetry_space_group_name_H-M "P B C M"
_symmetry_group_IT_number 57
_symmetry_cell_setting 'orthorhombic'
loop_
_space_group_symop_operation_xyz
x,y,z
-x,-y,1/2+z
x,1/2-y,-z
-x,1/2+y,1/2-z
-x,-y,-z
x,y,1/2-z
-x,1/2+y,z
x,1/2-y,1/2+z
loop_
_atom_site_type_symbol
_atom_site_label
_atom_site_fract_x
_atom_site_fract_y
_atom_site_fract_z
Si Si1 0.643437 0.334204 0.919870
Si Si2 0.183694 0.919394 0.916236
Si Si3 0.908266 0.207037 0.929930
Si Si4 0.431554 0.960615 0.077300
Si Si5 0.919900 0.867314 0.570860
Si Si6 0.390846 0.377416 0.426061
O O1 0.611264 0.317879 0.750000
O O2 0.726284 0.377262 0.911541
O O3 0.744322 0.301696 0.008796
O O4 0.491915 0.340232 0.011189
O O5 0.176990 0.939392 0.750000
O O6 0.020464 0.907215 0.973142
O O7 0.264560 0.952324 0.022820
O O8 0.905117 0.209030 0.750000
O O9 0.963464 0.250000 0.000000
O O10 0.024542 0.172833 0.982517
O O11 0.420497 0.971589 0.250000
O O12 0.532596 0.921221 0.044486
O O13 0.500000 0.000000 0.000000
O O14 0.929955 0.858932 0.750000
O O15 0.757110 0.878056 0.521141
O O16 0.359602 0.369783 0.250000
#
# Coordination Sequence:
#
# PCOD8232283 Si02
#       6
#     8   8   8   8   8   8
#     4   9  17  32  53  76 101 133 171 210 251 301
#     4   8  16  31  51  73  99 131 170 209 250 303
#     4  11  21  35  55  79 107 138 173 214 256 304
#     4  10  20  33  52  76 103 134 173 217 263 310
#     4  10  20  35  55  79 106 140 176 213 260 316
#     4  10  20  34  53  79 106 136 173 215 260 310
#
# _framework density 18.400431000000001
#
# number of rings (size 3 to 8) (size 9 to 14) (size 15 to 20)
#    0.000    2.333    0.000    4.500    0.000    6.667 
#    0.000    1.667    0.000    0.000    0.000    0.000 
#    0.000    0.000    0.000    0.000    0.000    0.000 
#
# Total GULP energy -595116.919953 kJ/mol
# GULP energy per Si atom -12398.269166 kJ/mol
# Density = 1.835855 g / cm^3
# Si number density = 18.400431 Si / 1000 Ang^3
#
#
#
# Elastic Constant Matrix: (Units=GPa)
#
#
# Indices 1 2 3 4 5 6 
#
# 1 89.5987 2.8533 33.1558 0.0000 0.0000 0.0000
# 2 2.8533 37.6936 37.2535 0.0000 0.0000 0.0000
# 3 33.1558 37.2535 123.2892 0.0000 0.0000 0.0000
# 4 0.0000 0.0000 0.0000 29.9561 0.0000 0.0000
# 5 0.0000 0.0000 0.0000 0.0000 34.6342 0.0000
# 6 0.0000 0.0000 0.0000 0.0000 0.0000 13.9253
#
#
#
# Elastic Compliance Matrix: (Units=1/GPa)
#
#
# Indices 1 2 3 4 5 6 
#
# 1 0.012700 0.003442 -0.004455 0.000000 0.000000 0.000000
# 2 0.003442 0.038759 -0.012637 0.000000 0.000000 0.000000
# 3 -0.004455 -0.012637 0.013128 0.000000 0.000000 0.000000
# 4 0.000000 0.000000 0.000000 0.033382 0.000000 0.000000
# 5 0.000000 0.000000 0.000000 0.000000 0.028873 0.000000
# 6 0.000000 0.000000 0.000000 0.000000 0.000000 0.071812
#
#
# Mechanical properties :
#
#
# Convention : Reuss Voigt Hill
#
# Bulk Modulus (GPa) = 26.82019 44.12297 35.47158
# Shear Modulus (GPa) = 20.97465 27.52438 24.24952
#
# Velocity S-wave (km/s) = 3.37990 3.87182 3.63420
# Velocity P-wave (km/s) = 5.46252 6.63471 6.07695
#
# Compressibility (1/GPa) = 0.03728534
#
# Stress axis : x y z
#
# Youngs Moduli (GPa) = 78.74028 25.80067 76.17502
#
# Poissons Ratio (x) = -0.08881 0.33939
# Poissons Ratio (y) = -0.27103 0.96263
# Poissons Ratio (z) = 0.35082 0.32605
#
# Static dielectric constant tensor:
#      x y z
#    x 3.735560 0.000000 0.000000 
#    y 0.000000 3.186340 0.000000 
#    z 0.000000 0.000000 3.629910 
# 
# 
# High freq. dielectric constant tensor:
#      x y z
#    x 1.711170 0.000000 0.000000 
#    y 0.000000 1.687240 0.000000 
#    z 0.000000 0.000000 1.729750 
# 
# From -- ./inp_files/1981.got.cif
#   From: 2010.03.12/outbox.cif.g09.slc.cpg/sg57_1_cif.got.tgz:1981.got - 2010.04.16 15:48:40.
