data_PCOD8232233
_publ_section_title
;
Structure prediction by ZEFSAII (Michael W. Deem and Ramdas Pophale) SiO2 
 PCOD8232233
Probable space group: P B C M
;
_chemical_formula_sum "Si O2"
_cell_formula_units_Z 64
_cell_length_a 20.790497
_cell_length_b 19.038413
_cell_length_c 8.797118
_cell_angle_alpha 90.000000
_cell_angle_beta 90.000000
_cell_angle_gamma 90.000000
_cell_volume 3482.058254
_symmetry_space_group_name_H-M "P B C M"
_symmetry_group_IT_number 57
_symmetry_cell_setting 'orthorhombic'
loop_
_space_group_symop_operation_xyz
x,y,z
-x,-y,1/2+z
x,1/2-y,-z
-x,1/2+y,1/2-z
-x,-y,-z
x,y,1/2-z
-x,1/2+y,z
x,1/2-y,1/2+z
loop_
_atom_site_type_symbol
_atom_site_label
_atom_site_fract_x
_atom_site_fract_y
_atom_site_fract_z
Si Si1 0.072840 0.579707 0.423273
Si Si2 0.432082 0.323832 0.570607
Si Si3 0.673022 0.083123 0.424130
Si Si4 0.671815 0.582720 0.577326
Si Si5 0.934947 0.932741 0.926441
Si Si6 0.567538 0.175942 0.570270
Si Si7 0.201939 0.417055 0.918402
Si Si8 0.198128 0.584354 0.580317
O O1 0.094035 0.589332 0.250000
O O2 0.065540 0.497411 0.457947
O O3 0.129652 0.615372 0.522064
O O4 0.000967 0.612245 0.453655
O O5 0.409613 0.250000 0.500000
O O6 0.440179 0.315831 0.750000
O O7 0.379391 0.382238 0.533717
O O8 0.499529 0.348054 0.499020
O O9 0.661958 0.105024 0.250000
O O10 0.619571 0.117478 0.530250
O O11 0.743153 0.110485 0.475464
O O12 0.666999 0.000122 0.447434
O O13 0.657529 0.604716 0.750000
O O14 0.743803 0.609243 0.535295
O O15 0.933358 0.959314 0.750000
O O16 0.869715 0.886779 0.957385
O O17 0.589464 0.250000 0.500000
O O18 0.560666 0.183404 0.750000
O O19 0.223850 0.393507 0.750000
O O20 0.194238 0.500726 0.925503
O O21 0.210226 0.612347 0.750000
#
# Coordination Sequence:
#
# PCOD8232233 Si02
#       8
#     8   8   8   8   8   8   8   8
#     4   9  14  20  32  51  77 113 155 196 237 283
#     4  11  22  38  58  77 100 129 162 200 243 291
#     4  10  20  34  52  75 102 132 167 205 245 291
#     4  10  20  33  50  74 102 131 165 204 246 293
#     4   8  14  22  32  49  77 114 155 195 236 285
#     4  11  22  38  58  78 102 130 162 200 243 291
#     4   8  14  25  39  57  85 121 158 196 240 287
#     4   9  16  26  39  58  87 122 158 197 242 289
#
# _framework density 18.379935
#
# number of rings (size 3 to 8) (size 9 to 14) (size 15 to 20)
#    0.000    2.500    0.000    5.250    0.000    5.500 
#    0.000    0.000    0.000    0.000    0.000    0.000 
#    0.000    1.000    0.000    8.000    0.000   14.250 
#
# Total GULP energy -793176.391716 kJ/mol
# GULP energy per Si atom -12393.381121 kJ/mol
# Density = 1.833810 g / cm^3
# Si number density = 18.379935 Si / 1000 Ang^3
#
#
#
# Elastic Constant Matrix: (Units=GPa)
#
#
# Indices 1 2 3 4 5 6 
#
# 1 147.8042 34.6842 56.0093 0.0000 0.0000 0.0000
# 2 34.6842 22.1033 23.7466 0.0000 0.0000 0.0000
# 3 56.0093 23.7466 120.8991 0.0000 0.0000 0.0000
# 4 0.0000 0.0000 0.0000 17.8912 0.0000 0.0000
# 5 0.0000 0.0000 0.0000 0.0000 34.5705 0.0000
# 6 0.0000 0.0000 0.0000 0.0000 0.0000 -1.2207
#
#
#
# Elastic Compliance Matrix: (Units=1/GPa)
#
#
# Indices 1 2 3 4 5 6 
#
# 1 0.011149 -0.015141 -0.002191 0.000000 0.000000 0.000000
# 2 -0.015141 0.077904 -0.008287 0.000000 0.000000 0.000000
# 3 -0.002191 -0.008287 0.010914 0.000000 0.000000 0.000000
# 4 0.000000 0.000000 0.000000 0.055893 0.000000 0.000000
# 5 0.000000 0.000000 0.000000 0.000000 0.028926 0.000000
# 6 0.000000 0.000000 0.000000 0.000000 0.000000 -0.819207
#
#
# Mechanical properties :
#
#
# Convention : Reuss Voigt Hill
#
# Bulk Modulus (GPa) = 20.52171 57.74299 39.13235
# Shear Modulus (GPa) = -8.81930 22.00598 6.59334
#
# Velocity S-wave (km/s) = -2.19289 3.46393 1.89606
# Velocity P-wave (km/s) = 2.18583 6.89079 5.11179
#
# Compressibility (1/GPa) = 0.04872889
#
# Stress axis : x y z
#
# Youngs Moduli (GPa) = 89.69407 12.83627 91.62353
#
# Poissons Ratio (x) = 0.19435 0.20076
# Poissons Ratio (y) = 1.35804 0.75932
# Poissons Ratio (z) = 0.19653 0.10638
#
# Static dielectric constant tensor:
#      x y z
#    x 3.886030 0.000000 0.000000 
#    y 0.000000 2.715000 0.000000 
#    z 0.000000 0.000000 3.500610 
# 
# 
# High freq. dielectric constant tensor:
#      x y z
#    x 1.740850 0.000000 0.000000 
#    y 0.000000 1.629920 0.000000 
#    z 0.000000 0.000000 1.726840 
# 
# From -- ./inp_files/7168.got.cif
#   From: 2010.03.12/outbox.cif.g09.slc.cpg/sg57_4_cif.got.tgz:7168.got - 2010.04.16 15:48:40.
