data_PCOD8232059
_publ_section_title
;
Structure prediction by ZEFSAII (Michael W. Deem and Ramdas Pophale) SiO2 
 PCOD8232059
Probable space group: P B C M
;
_chemical_formula_sum "Si O2"
_cell_formula_units_Z 64
_cell_length_a 15.330134
_cell_length_b 12.114564
_cell_length_c 16.351811
_cell_angle_alpha 90.000000
_cell_angle_beta 90.000000
_cell_angle_gamma 90.000000
_cell_volume 3036.823828
_symmetry_space_group_name_H-M "P B C M"
_symmetry_group_IT_number 57
_symmetry_cell_setting 'orthorhombic'
loop_
_space_group_symop_operation_xyz
x,y,z
-x,-y,1/2+z
x,1/2-y,-z
-x,1/2+y,1/2-z
-x,-y,-z
x,y,1/2-z
-x,1/2+y,z
x,1/2-y,1/2+z
loop_
_atom_site_type_symbol
_atom_site_label
_atom_site_fract_x
_atom_site_fract_y
_atom_site_fract_z
Si Si1 0.739497 0.050721 0.091597
Si Si2 0.330696 0.928792 0.087708
Si Si3 0.895756 0.308706 0.652437
Si Si4 0.401294 0.713187 0.156295
Si Si5 0.092954 0.346131 0.652731
Si Si6 0.749476 0.805304 0.153909
Si Si7 0.594307 0.861245 0.844951
Si Si8 0.155324 0.573873 0.658312
O O1 0.835203 0.098148 0.112239
O O2 0.665078 0.111539 0.144479
O O3 0.738530 0.920958 0.108785
O O4 0.720504 0.069847 0.997093
O O5 0.380726 0.813712 0.095888
O O6 0.259446 0.938995 0.159561
O O7 0.395547 0.031262 0.098155
O O8 0.884488 0.317122 0.750000
O O9 0.868750 0.189621 0.615746
O O10 0.995537 0.320188 0.624663
O O11 0.395078 0.752521 0.250000
O O12 0.498815 0.680668 0.133130
O O13 0.102939 0.351908 0.750000
O O14 0.162465 0.255095 0.621136
O O15 0.114342 0.466526 0.614270
O O16 0.755517 0.828373 0.250000
O O17 0.665999 0.730436 0.132057
O O18 0.601804 0.894236 0.750000
O O19 0.118633 0.579468 0.750000
#
# Coordination Sequence:
#
# PCOD8232059 Si02
#       8
#     8   8   8   8   8   8   8   8
#     4  12  26  40  60  93 136 170 203 263 327 388
#     4  12  24  43  65  92 132 169 210 254 322 385
#     4  10  21  37  63  95 127 169 216 269 320 378
#     4  11  24  43  68  95 121 162 217 270 315 372
#     4   9  19  36  64  97 123 161 223 273 314 372
#     4  10  21  41  65  93 126 167 214 267 316 373
#     4  10  23  43  70  95 121 163 217 266 311 372
#     4  10  19  37  66  90 118 166 218 266 310 369
#
# _framework density 21.074649999999998
#
# number of rings (size 3 to 8) (size 9 to 14) (size 15 to 20)
#    0.000    1.500    2.500    2.625    3.500    1.000 
#    2.250    0.625    2.750    0.000    0.000    0.000 
#    0.000    0.000    0.000    0.000    0.000    0.000 
#
# Total GULP energy -793628.583139 kJ/mol
# GULP energy per Si atom -12400.446612 kJ/mol
# Density = 2.102668 g / cm^3
# Si number density = 21.074650 Si / 1000 Ang^3
#
#
#
# Elastic Constant Matrix: (Units=GPa)
#
#
# Indices 1 2 3 4 5 6 
#
# 1 170.1000 67.0779 31.1352 0.0000 0.0000 0.0000
# 2 67.0779 154.6179 36.8902 0.0000 0.0000 0.0000
# 3 31.1352 36.8902 45.2759 0.0000 0.0000 0.0000
# 4 0.0000 0.0000 0.0000 20.7855 0.0000 0.0000
# 5 0.0000 0.0000 0.0000 0.0000 12.4487 0.0000
# 6 0.0000 0.0000 0.0000 0.0000 0.0000 33.9618
#
#
#
# Elastic Compliance Matrix: (Units=1/GPa)
#
#
# Indices 1 2 3 4 5 6 
#
# 1 0.007423 -0.002486 -0.003079 0.000000 0.000000 0.000000
# 2 -0.002486 0.008861 -0.005510 0.000000 0.000000 0.000000
# 3 -0.003079 -0.005510 0.028694 0.000000 0.000000 0.000000
# 4 0.000000 0.000000 0.000000 0.048111 0.000000 0.000000
# 5 0.000000 0.000000 0.000000 0.000000 0.080330 0.000000
# 6 0.000000 0.000000 0.000000 0.000000 0.000000 0.029445
#
#
# Mechanical properties :
#
#
# Convention : Reuss Voigt Hill
#
# Bulk Modulus (GPa) = 43.80731 71.13337 57.47034
# Shear Modulus (GPa) = 21.49419 29.09857 25.29638
#
# Velocity S-wave (km/s) = 3.19706 3.71986 3.46833
# Velocity P-wave (km/s) = 5.87028 7.23022 6.58545
#
# Compressibility (1/GPa) = 0.02282724
#
# Stress axis : x y z
#
# Youngs Moduli (GPa) = 134.72250 112.86022 34.85056
#
# Poissons Ratio (x) = 0.28051 0.10731
# Poissons Ratio (y) = 0.33485 0.19203
# Poissons Ratio (z) = 0.41484 0.62188
#
# Static dielectric constant tensor:
#      x y z
#    x 3.889370 0.000000 0.000000 
#    y 0.000000 3.982470 0.000000 
#    z 0.000000 0.000000 3.446820 
# 
# 
# High freq. dielectric constant tensor:
#      x y z
#    x 1.834520 0.000000 0.000000 
#    y 0.000000 1.841380 0.000000 
#    z 0.000000 0.000000 1.796470 
# 
# From -- ./inp_files/22640.got.cif
#   From: 2010.03.12/outbox.cif.g09.slc.cpg/sg57_12_cif.got.tgz:22640.got - 2010.04.16 15:48:40.
