data_PCOD8232455
_publ_section_title
;
Structure prediction by ZEFSAII (Michael W. Deem and Ramdas Pophale) SiO2 
 PCOD8232455
Probable space group: P B C M
;
_chemical_formula_sum "Si O2"
_cell_formula_units_Z 48
_cell_length_a 11.282085
_cell_length_b 23.458709
_cell_length_c 9.200394
_cell_angle_alpha 90.000000
_cell_angle_beta 90.000000
_cell_angle_gamma 90.000000
_cell_volume 2435.005247
_symmetry_space_group_name_H-M "P B C M"
_symmetry_group_IT_number 57
_symmetry_cell_setting 'orthorhombic'
loop_
_space_group_symop_operation_xyz
x,y,z
-x,-y,1/2+z
x,1/2-y,-z
-x,1/2+y,1/2-z
-x,-y,-z
x,y,1/2-z
-x,1/2+y,z
x,1/2-y,1/2+z
loop_
_atom_site_type_symbol
_atom_site_label
_atom_site_fract_x
_atom_site_fract_y
_atom_site_fract_z
Si Si1 0.830770 0.195952 0.914735
Si Si2 0.622526 0.133827 0.078753
Si Si3 0.725083 0.033736 0.580974
Si Si4 0.371841 0.310020 0.579238
Si Si5 0.029214 0.585334 0.912119
Si Si6 0.791172 0.588736 0.081536
O O1 0.793032 0.211452 0.750000
O O2 0.937918 0.151731 0.914908
O O3 0.881160 0.250000 0.000000
O O4 0.716620 0.173443 0.999216
O O5 0.647417 0.131656 0.250000
O O6 0.496234 0.160819 0.042285
O O7 0.630933 0.069516 0.014328
O O8 0.710276 0.051576 0.750000
O O9 0.858811 0.049232 0.529599
O O10 0.705492 0.966227 0.556488
O O11 0.356160 0.250000 0.500000
O O12 0.358959 0.299186 0.750000
O O13 0.272087 0.354346 0.521123
O O14 0.996189 0.565445 0.750000
O O15 0.916389 0.575444 0.010755
O O16 0.816463 0.596647 0.250000
#
# Coordination Sequence:
#
# PCOD8232455 Si02
#       6
#     8   8   8   8   8   8
#     4  10  20  34  53  79 109 140 179 227 276 322
#     4  10  20  35  56  81 108 138 177 223 269 321
#     4   9  19  36  57  82 111 139 172 221 275 321
#     4  10  23  40  56  78 108 143 182 221 263 313
#     4   9  19  34  52  78 109 140 177 220 267 320
#     4  10  21  37  56  78 108 145 181 219 265 318
#
# _framework density 19.712482000000001
#
# number of rings (size 3 to 8) (size 9 to 14) (size 15 to 20)
#    0.000    2.333    0.000    3.000    0.000    8.667 
#    0.000    3.333    0.000    0.000    0.000    0.000 
#    0.000    0.000    0.000    0.000    0.000    0.000 
#
# Total GULP energy -595141.646829 kJ/mol
# GULP energy per Si atom -12398.784309 kJ/mol
# Density = 1.966762 g / cm^3
# Si number density = 19.712482 Si / 1000 Ang^3
#
#
#
# Elastic Constant Matrix: (Units=GPa)
#
#
# Indices 1 2 3 4 5 6 
#
# 1 37.6403 30.3377 19.4919 0.0000 0.0000 0.0000
# 2 30.3377 131.6166 45.2939 0.0000 0.0000 0.0000
# 3 19.4919 45.2939 72.6311 0.0000 0.0000 0.0000
# 4 0.0000 0.0000 0.0000 32.3838 0.0000 0.0000
# 5 0.0000 0.0000 0.0000 0.0000 25.1766 0.0000
# 6 0.0000 0.0000 0.0000 0.0000 0.0000 17.1144
#
#
#
# Elastic Compliance Matrix: (Units=1/GPa)
#
#
# Indices 1 2 3 4 5 6 
#
# 1 0.034234 -0.006021 -0.005432 0.000000 0.000000 0.000000
# 2 -0.006021 0.010733 -0.005077 0.000000 0.000000 0.000000
# 3 -0.005432 -0.005077 0.018392 0.000000 0.000000 0.000000
# 4 0.000000 0.000000 0.000000 0.030880 0.000000 0.000000
# 5 0.000000 0.000000 0.000000 0.000000 0.039719 0.000000
# 6 0.000000 0.000000 0.000000 0.000000 0.000000 0.058430
#
#
# Mechanical properties :
#
#
# Convention : Reuss Voigt Hill
#
# Bulk Modulus (GPa) = 33.00646 48.01496 40.51071
# Shear Modulus (GPa) = 21.22698 24.71924 22.97311
#
# Velocity S-wave (km/s) = 3.28507 3.54501 3.41751
# Velocity P-wave (km/s) = 5.58294 6.41613 6.01398
#
# Compressibility (1/GPa) = 0.03029710
#
# Stress axis : x y z
#
# Youngs Moduli (GPa) = 29.21112 93.17003 54.37048
#
# Poissons Ratio (x) = 0.56102 0.29535
# Poissons Ratio (y) = 0.17589 0.27606
# Poissons Ratio (z) = 0.15868 0.47306
#
# Static dielectric constant tensor:
#      x y z
#    x 3.363230 0.000000 0.000000 
#    y 0.000000 3.892750 0.000000 
#    z 0.000000 0.000000 3.587200 
# 
# 
# High freq. dielectric constant tensor:
#      x y z
#    x 1.749880 0.000000 0.000000 
#    y 0.000000 1.783450 0.000000 
#    z 0.000000 0.000000 1.765760 
# 
# From -- ./inp_files/3128.got.cif
#   From: 2010.03.12/outbox.cif.g09.slc.cpg/sg57_2_cif.got.tgz:3128.got - 2010.04.16 15:48:40.
