data_PCOD8232066
_publ_section_title
;
Structure prediction by ZEFSAII (Michael W. Deem and Ramdas Pophale) SiO2 
 PCOD8232066
Probable space group: P B C M
;
_chemical_formula_sum "Si O2"
_cell_formula_units_Z 36
_cell_length_a 8.852516
_cell_length_b 14.711027
_cell_length_c 14.574029
_cell_angle_alpha 90.000000
_cell_angle_beta 90.000000
_cell_angle_gamma 90.000000
_cell_volume 1897.969995
_symmetry_space_group_name_H-M "P B C M"
_symmetry_group_IT_number 57
_symmetry_cell_setting 'orthorhombic'
loop_
_space_group_symop_operation_xyz
x,y,z
-x,-y,1/2+z
x,1/2-y,-z
-x,1/2+y,1/2-z
-x,-y,-z
x,y,1/2-z
-x,1/2+y,z
x,1/2-y,1/2+z
loop_
_atom_site_type_symbol
_atom_site_label
_atom_site_fract_x
_atom_site_fract_y
_atom_site_fract_z
Si Si1 0.337141 0.825722 0.925044
Si Si2 0.319507 0.162043 0.436987
Si Si3 0.187142 0.801171 0.750000
Si Si4 0.907196 0.006554 0.250000
Si Si5 0.156852 0.009813 0.550954
Si Si6 0.861769 0.654729 0.250000
O O1 0.508207 0.858455 0.909873
O O2 0.273651 0.766935 0.839540
O O3 0.329644 0.750000 0.000000
O O4 0.231681 0.910709 0.948589
O O5 0.298689 0.250000 0.500000
O O6 0.231084 0.174398 0.341829
O O7 0.263166 0.077667 0.496427
O O8 0.212016 0.910645 0.750000
O O9 0.007889 0.777369 0.750000
O O10 0.875145 0.952103 0.344883
O O11 0.077694 0.049871 0.250000
O O12 0.000000 0.000000 0.500000
#
# Coordination Sequence:
#
# PCOD8232066 Si02
#       6
#     8   8   4   4   8   4
#     4  10  21  38  58  85 120 154 195 241 297 352
#     4  11  23  37  59  88 118 157 194 240 297 354
#     4   8  17  35  56  80 109 151 186 244 287 339
#     4   8  18  35  56  82 113 145 192 244 283 334
#     4  11  20  38  61  84 118 153 201 243 289 347
#     4  10  19  38  60  82 118 150 196 240 294 339
#
# _framework density 18.967634
#
# number of rings (size 3 to 8) (size 9 to 14) (size 15 to 20)
#    0.667    1.333    2.222    1.333    0.000    4.444 
#    0.000    3.333    0.000    0.000    0.000    0.000 
#    0.000    0.000    0.000    0.000    0.000    0.000 
#
# Total GULP energy -446036.750946 kJ/mol
# GULP energy per Si atom -12389.909749 kJ/mol
# Density = 1.892446 g / cm^3
# Si number density = 18.967634 Si / 1000 Ang^3
#
#
#
# Elastic Constant Matrix: (Units=GPa)
#
#
# Indices 1 2 3 4 5 6 
#
# 1 162.8073 33.2736 82.9243 0.0000 0.0000 0.0000
# 2 33.2736 34.9439 7.9488 0.0000 0.0000 0.0000
# 3 82.9243 7.9488 144.2410 0.0000 0.0000 0.0000
# 4 0.0000 0.0000 0.0000 19.5394 0.0000 0.0000
# 5 0.0000 0.0000 0.0000 0.0000 177.9221 0.0000
# 6 0.0000 0.0000 0.0000 0.0000 0.0000 13.6537
#
#
#
# Elastic Compliance Matrix: (Units=1/GPa)
#
#
# Indices 1 2 3 4 5 6 
#
# 1 0.010958 -0.009116 -0.005797 0.000000 0.000000 0.000000
# 2 -0.009116 0.036563 0.003226 0.000000 0.000000 0.000000
# 3 -0.005797 0.003226 0.010088 0.000000 0.000000 0.000000
# 4 0.000000 0.000000 0.000000 0.051179 0.000000 0.000000
# 5 0.000000 0.000000 0.000000 0.000000 0.005620 0.000000
# 6 0.000000 0.000000 0.000000 0.000000 0.000000 0.073240
#
#
# Mechanical properties :
#
#
# Convention : Reuss Voigt Hill
#
# Bulk Modulus (GPa) = 29.21012 65.58728 47.39870
# Shear Modulus (GPa) = 22.47848 56.74609 39.61228
#
# Velocity S-wave (km/s) = 3.44626 5.47561 4.57488
# Velocity P-wave (km/s) = 5.59187 8.63886 7.27664
#
# Compressibility (1/GPa) = 0.03423471
#
# Stress axis : x y z
#
# Youngs Moduli (GPa) = 91.25667 27.34978 99.12698
#
# Poissons Ratio (x) = 0.24931 0.57469
# Poissons Ratio (y) = 0.83185 -0.31975
# Poissons Ratio (z) = 0.52906 -0.08822
#
# Static dielectric constant tensor:
#      x y z
#    x 3.876860 0.000000 0.000000 
#    y 0.000000 4.811080 0.000000 
#    z 0.000000 0.000000 3.991900 
# 
# 
# High freq. dielectric constant tensor:
#      x y z
#    x 1.747530 0.000000 0.000000 
#    y 0.000000 1.701640 0.000000 
#    z 0.000000 0.000000 1.762840 
# 
# From -- ./inp_files/15820.got.cif
#   From: 2010.03.12/outbox.cif.g09.slc.cpg/sg57_8_cif.got.tgz:15820.got - 2010.04.16 15:48:40.
