data_PCOD8232756
_publ_section_title
;
Structure prediction by ZEFSAII (Michael W. Deem and Ramdas Pophale) SiO2 
 PCOD8232756
Probable space group: P B C M
;
_chemical_formula_sum "Si O2"
_cell_formula_units_Z 40
_cell_length_a 14.423935
_cell_length_b 8.873138
_cell_length_c 15.204869
_cell_angle_alpha 90.000000
_cell_angle_beta 90.000000
_cell_angle_gamma 90.000000
_cell_volume 1946.003761
_symmetry_space_group_name_H-M "P B C M"
_symmetry_group_IT_number 57
_symmetry_cell_setting 'orthorhombic'
loop_
_space_group_symop_operation_xyz
x,y,z
-x,-y,1/2+z
x,1/2-y,-z
-x,1/2+y,1/2-z
-x,-y,-z
x,y,1/2-z
-x,1/2+y,z
x,1/2-y,1/2+z
loop_
_atom_site_type_symbol
_atom_site_label
_atom_site_fract_x
_atom_site_fract_y
_atom_site_fract_z
Si Si1 0.214733 0.435578 0.149154
Si Si2 0.100150 0.572098 0.997406
Si Si3 0.423450 0.031340 0.653509
Si Si4 0.579783 0.840648 0.910579
Si Si5 0.224847 0.416225 0.647539
O O1 0.192556 0.474880 0.250000
O O2 0.317571 0.491743 0.123531
O O3 0.200881 0.258399 0.132268
O O4 0.146518 0.526256 0.088324
O O5 0.157214 0.518007 0.911636
O O6 0.090986 0.750000 0.000000
O O7 0.000000 0.500000 0.000000
O O8 0.441916 0.963135 0.750000
O O9 0.441233 0.210863 0.660617
O O10 0.490926 0.950638 0.583591
O O11 0.668703 0.940995 0.883093
O O12 0.598501 0.750000 0.000000
O O13 0.213314 0.462431 0.750000
#
# Coordination Sequence:
#
# PCOD8232756 Si02
#       5
#     8   8   8   8   8
#     4   9  20  40  64  88 123 166 210 258 313 372
#     4  12  26  43  65  91 121 155 199 257 317 380
#     4  10  20  35  55  84 121 163 202 246 302 361
#     4  11  21  35  58  88 124 164 210 255 304 364
#     4  10  21  41  66  91 122 164 207 254 310 371
#
# _framework density 20.554946000000001
#
# number of rings (size 3 to 8) (size 9 to 14) (size 15 to 20)
#    0.000    1.600    0.000    7.800    0.000    4.000 
#    0.000    2.000    0.000    0.000    0.000    0.000 
#    0.000    0.000    0.000    0.000    0.000    0.000 
#
# Total GULP energy -495908.549628 kJ/mol
# GULP energy per Si atom -12397.713741 kJ/mol
# Density = 2.050816 g / cm^3
# Si number density = 20.554946 Si / 1000 Ang^3
#
#
#
# Elastic Constant Matrix: (Units=GPa)
#
#
# Indices 1 2 3 4 5 6 
#
# 1 163.9227 83.4940 80.4615 0.0000 0.0000 0.0000
# 2 83.4940 104.8961 59.8276 0.0000 0.0000 0.0000
# 3 80.4615 59.8276 136.4169 0.0000 0.0000 0.0000
# 4 0.0000 0.0000 0.0000 30.5214 0.0000 0.0000
# 5 0.0000 0.0000 0.0000 0.0000 19.6120 0.0000
# 6 0.0000 0.0000 0.0000 0.0000 0.0000 40.7045
#
#
#
# Elastic Compliance Matrix: (Units=1/GPa)
#
#
# Indices 1 2 3 4 5 6 
#
# 1 0.011505 -0.007051 -0.003693 0.000000 0.000000 0.000000
# 2 -0.007051 0.017034 -0.003312 0.000000 0.000000 0.000000
# 3 -0.003693 -0.003312 0.010961 0.000000 0.000000 0.000000
# 4 0.000000 0.000000 0.000000 0.032764 0.000000 0.000000
# 5 0.000000 0.000000 0.000000 0.000000 0.050989 0.000000
# 6 0.000000 0.000000 0.000000 0.000000 0.000000 0.024567
#
#
# Mechanical properties :
#
#
# Convention : Reuss Voigt Hill
#
# Bulk Modulus (GPa) = 87.81105 94.75575 91.28340
# Shear Modulus (GPa) = 27.81958 30.26443 29.04200
#
# Velocity S-wave (km/s) = 3.68288 3.84131 3.76293
# Velocity P-wave (km/s) = 7.80370 8.11622 7.96149
#
# Compressibility (1/GPa) = 0.01138809
#
# Stress axis : x y z
#
# Youngs Moduli (GPa) = 86.92093 58.70458 91.22850
#
# Poissons Ratio (x) = 0.41391 0.33695
# Poissons Ratio (y) = 0.61286 0.30215
# Poissons Ratio (z) = 0.32104 0.19443
#
# Static dielectric constant tensor:
#      x y z
#    x 4.499070 0.000000 0.000000 
#    y 0.000000 3.674500 0.000000 
#    z 0.000000 0.000000 3.883600 
# 
# 
# High freq. dielectric constant tensor:
#      x y z
#    x 1.800970 0.000000 0.000000 
#    y 0.000000 1.790570 0.000000 
#    z 0.000000 0.000000 1.823370 
# 
# From -- ./inp_files/18212.got.cif
#   From: 2010.03.12/outbox.cif.g09.slc.cpg/sg57_10_cif.got.tgz:18212.got - 2010.04.16 15:48:40.
