data_PCOD8232074
_publ_section_title
;
Structure prediction by ZEFSAII (Michael W. Deem and Ramdas Pophale) SiO2 
 PCOD8232074
Probable space group: P B C M
;
_chemical_formula_sum "Si O2"
_cell_formula_units_Z 48
_cell_length_a 13.728946
_cell_length_b 10.032671
_cell_length_c 17.670293
_cell_angle_alpha 90.000000
_cell_angle_beta 90.000000
_cell_angle_gamma 90.000000
_cell_volume 2433.870789
_symmetry_space_group_name_H-M "P B C M"
_symmetry_group_IT_number 57
_symmetry_cell_setting 'orthorhombic'
loop_
_space_group_symop_operation_xyz
x,y,z
-x,-y,1/2+z
x,1/2-y,-z
-x,1/2+y,1/2-z
-x,-y,-z
x,y,1/2-z
-x,1/2+y,z
x,1/2-y,1/2+z
loop_
_atom_site_type_symbol
_atom_site_label
_atom_site_fract_x
_atom_site_fract_y
_atom_site_fract_z
Si Si1 0.407345 0.172430 0.838936
Si Si2 0.142016 0.985288 0.339131
Si Si3 0.207635 0.249374 0.410718
Si Si4 0.780312 0.297798 0.840064
Si Si5 0.430632 0.627954 0.161419
Si Si6 0.918041 0.533696 0.660829
O O1 0.387085 0.191773 0.750000
O O2 0.305932 0.182689 0.881714
O O3 0.482432 0.281727 0.872279
O O4 0.452430 0.026668 0.855515
O O5 0.158135 0.002024 0.250000
O O6 0.184363 0.845485 0.369011
O O7 0.029047 0.994885 0.360995
O O8 0.202366 0.098777 0.381308
O O9 0.206343 0.250000 0.500000
O O10 0.115502 0.331191 0.379655
O O11 0.780254 0.302415 0.750000
O O12 0.673142 0.327899 0.873589
O O13 0.854631 0.410088 0.869766
O O14 0.426270 0.656799 0.250000
O O15 0.905811 0.556188 0.750000
#
# Coordination Sequence:
#
# PCOD8232074 Si02
#       6
#     8   8   8   8   8   8
#     4  10  20  37  61  85 111 146 196 250 298 348
#     4  10  21  36  62  92 114 146 197 250 292 340
#     4  12  25  39  56  84 125 166 196 229 288 357
#     4   9  17  32  57  88 115 138 183 248 303 345
#     4   9  18  32  58  88 109 141 189 249 306 341
#     4  10  19  38  64  87 114 151 195 246 297 340
#
# _framework density 19.721672000000002
#
# number of rings (size 3 to 8) (size 9 to 14) (size 15 to 20)
#    0.000    2.000    1.667    2.500    2.333    3.333 
#    0.000    1.667    0.000    0.000    0.000    0.000 
#    0.000    0.000    0.000    0.000    0.000    0.000 
#
# Total GULP energy -595340.706065 kJ/mol
# GULP energy per Si atom -12402.931376 kJ/mol
# Density = 1.967678 g / cm^3
# Si number density = 19.721672 Si / 1000 Ang^3
#
#
#
# Elastic Constant Matrix: (Units=GPa)
#
#
# Indices 1 2 3 4 5 6 
#
# 1 85.5446 31.9920 23.0506 0.0000 0.0000 0.0000
# 2 31.9920 127.6117 27.5357 0.0000 0.0000 0.0000
# 3 23.0506 27.5357 42.8961 0.0000 0.0000 0.0000
# 4 0.0000 0.0000 0.0000 2.7508 0.0000 0.0000
# 5 0.0000 0.0000 0.0000 0.0000 3.7822 0.0000
# 6 0.0000 0.0000 0.0000 0.0000 0.0000 44.4992
#
#
#
# Elastic Compliance Matrix: (Units=1/GPa)
#
#
# Indices 1 2 3 4 5 6 
#
# 1 0.014191 -0.002220 -0.006201 0.000000 0.000000 0.000000
# 2 -0.002220 0.009443 -0.004869 0.000000 0.000000 0.000000
# 3 -0.006201 -0.004869 0.029770 0.000000 0.000000 0.000000
# 4 0.000000 0.000000 0.000000 0.363525 0.000000 0.000000
# 5 0.000000 0.000000 0.000000 0.000000 0.264397 0.000000
# 6 0.000000 0.000000 0.000000 0.000000 0.000000 0.022472
#
#
# Mechanical properties :
#
#
# Convention : Reuss Voigt Hill
#
# Bulk Modulus (GPa) = 37.27874 46.80100 42.03987
# Shear Modulus (GPa) = 6.76299 21.77140 14.26719
#
# Velocity S-wave (km/s) = 1.85382 3.32615 2.69258
# Velocity P-wave (km/s) = 4.85033 6.20752 5.57041
#
# Compressibility (1/GPa) = 0.02682494
#
# Stress axis : x y z
#
# Youngs Moduli (GPa) = 70.46860 105.89442 33.59118
#
# Poissons Ratio (x) = 0.23505 0.20829
# Poissons Ratio (y) = 0.15641 0.16356
# Poissons Ratio (z) = 0.43695 0.51561
#
# Static dielectric constant tensor:
#      x y z
#    x 3.762430 0.000000 0.000000 
#    y 0.000000 3.785450 0.000000 
#    z 0.000000 0.000000 3.065460 
# 
# 
# High freq. dielectric constant tensor:
#      x y z
#    x 1.779330 0.000000 0.000000 
#    y 0.000000 1.787700 0.000000 
#    z 0.000000 0.000000 1.710920 
# 
# From -- ./inp_files/22397.got.cif
#   From: 2010.03.12/outbox.cif.g09.slc.cpg/sg57_12_cif.got.tgz:22397.got - 2010.04.16 15:48:40.
