data_PCOD8232167
_publ_section_title
;
Structure prediction by ZEFSAII (Michael W. Deem and Ramdas Pophale) SiO2 
 PCOD8232167
Probable space group: P B C M
;
_chemical_formula_sum "Si O2"
_cell_formula_units_Z 40
_cell_length_a 11.626269
_cell_length_b 18.152774
_cell_length_c 9.982488
_cell_angle_alpha 90.000000
_cell_angle_beta 90.000000
_cell_angle_gamma 90.000000
_cell_volume 2106.794446
_symmetry_space_group_name_H-M "P B C M"
_symmetry_group_IT_number 57
_symmetry_cell_setting 'orthorhombic'
loop_
_space_group_symop_operation_xyz
x,y,z
-x,-y,1/2+z
x,1/2-y,-z
-x,1/2+y,1/2-z
-x,-y,-z
x,y,1/2-z
-x,1/2+y,z
x,1/2-y,1/2+z
loop_
_atom_site_type_symbol
_atom_site_label
_atom_site_fract_x
_atom_site_fract_y
_atom_site_fract_z
Si Si1 0.017491 0.102047 0.403211
Si Si2 0.165597 0.965794 0.403807
Si Si3 0.419852 0.929488 0.487350
Si Si4 0.385612 0.664716 0.250000
Si Si5 0.186847 0.768114 0.250000
Si Si6 0.031229 0.750000 0.000000
Si Si7 0.424489 0.671682 0.750000
O O1 0.974831 0.100252 0.250000
O O2 0.909397 0.082232 0.495509
O O3 0.051287 0.185221 0.445490
O O4 0.127980 0.050948 0.425291
O O5 0.140748 0.942111 0.250000
O O6 0.297883 0.960705 0.441099
O O7 0.414465 0.884994 0.624005
O O8 0.470857 0.871620 0.379659
O O9 0.500000 0.000000 0.500000
O O10 0.250616 0.688014 0.250000
O O11 0.460904 0.741424 0.250000
O O12 0.112659 0.779251 0.381960
O O13 0.283998 0.832248 0.250000
#
# Coordination Sequence:
#
# PCOD8232167 Si02
#       7
#     8   8   8   4   4   4   4
#     4  10  22  38  58  86 121 155 192 247 291 364
#     4  10  22  40  59  84 121 156 196 239 305 354
#     4  12  23  39  63  89 120 160 207 249 297 365
#     4  10  23  37  59  89 122 147 194 262 305 354
#     4  10  20  32  58  84 122 146 194 256 306 348
#     4  12  20  32  54  90 114 158 196 238 300 358
#     4  10  21  39  57  89 118 149 198 252 311 346
#
# _framework density 18.986189
#
# number of rings (size 3 to 8) (size 9 to 14) (size 15 to 20)
#    0.600    0.800    2.000    4.800    2.800    0.000 
#    0.000    0.000    4.400    0.000    0.000    0.000 
#    0.000    0.000    0.000    0.000    0.000    0.000 
#
# Total GULP energy -495822.532584 kJ/mol
# GULP energy per Si atom -12395.563315 kJ/mol
# Density = 1.894298 g / cm^3
# Si number density = 18.986189 Si / 1000 Ang^3
#
#
#
# Elastic Constant Matrix: (Units=GPa)
#
#
# Indices 1 2 3 4 5 6 
#
# 1 51.1363 41.6516 34.9329 0.0000 0.0000 0.0000
# 2 41.6516 145.9624 72.5117 0.0000 0.0000 0.0000
# 3 34.9329 72.5117 164.4143 0.0000 0.0000 0.0000
# 4 0.0000 0.0000 0.0000 45.4774 0.0000 0.0000
# 5 0.0000 0.0000 0.0000 0.0000 12.2856 0.0000
# 6 0.0000 0.0000 0.0000 0.0000 0.0000 35.4488
#
#
#
# Elastic Compliance Matrix: (Units=1/GPa)
#
#
# Indices 1 2 3 4 5 6 
#
# 1 0.026546 -0.006112 -0.002944 0.000000 0.000000 0.000000
# 2 -0.006112 0.010181 -0.003191 0.000000 0.000000 0.000000
# 3 -0.002944 -0.003191 0.008115 0.000000 0.000000 0.000000
# 4 0.000000 0.000000 0.000000 0.021989 0.000000 0.000000
# 5 0.000000 0.000000 0.000000 0.000000 0.081396 0.000000
# 6 0.000000 0.000000 0.000000 0.000000 0.000000 0.028210
#
#
# Mechanical properties :
#
#
# Convention : Reuss Voigt Hill
#
# Bulk Modulus (GPa) = 49.15091 73.30060 61.22576
# Shear Modulus (GPa) = 24.07156 32.80348 28.43752
#
# Velocity S-wave (km/s) = 3.56455 4.16114 3.87434
# Velocity P-wave (km/s) = 6.54868 7.85989 7.23406
#
# Compressibility (1/GPa) = 0.02034550
#
# Stress axis : x y z
#
# Youngs Moduli (GPa) = 37.67106 98.22545 123.22467
#
# Poissons Ratio (x) = 0.60038 0.36282
# Poissons Ratio (y) = 0.23026 0.39325
# Poissons Ratio (z) = 0.11092 0.31347
#
# Static dielectric constant tensor:
#      x y z
#    x 3.037190 0.000000 0.000000 
#    y 0.000000 3.781910 0.000000 
#    z 0.000000 0.000000 3.699970 
# 
# 
# High freq. dielectric constant tensor:
#      x y z
#    x 1.681910 0.000000 0.000000 
#    y 0.000000 1.761340 0.000000 
#    z 0.000000 0.000000 1.762170 
# 
# From -- ./inp_files/2744.got.cif
#   From: 2010.03.12/outbox.cif.g09.slc.cpg/sg57_2_cif.got.tgz:2744.got - 2010.04.16 15:48:40.
