data_PCOD8232977
_publ_section_title
;
Structure prediction by ZEFSAII (Michael W. Deem and Ramdas Pophale) SiO2 
 PCOD8232977
Probable space group: P B C M
;
_chemical_formula_sum "Si O2"
_cell_formula_units_Z 44
_cell_length_a 14.441101
_cell_length_b 10.795258
_cell_length_c 14.503501
_cell_angle_alpha 90.000000
_cell_angle_beta 90.000000
_cell_angle_gamma 90.000000
_cell_volume 2261.029251
_symmetry_space_group_name_H-M "P B C M"
_symmetry_group_IT_number 57
_symmetry_cell_setting 'orthorhombic'
loop_
_space_group_symop_operation_xyz
x,y,z
-x,-y,1/2+z
x,1/2-y,-z
-x,1/2+y,1/2-z
-x,-y,-z
x,y,1/2-z
-x,1/2+y,z
x,1/2-y,1/2+z
loop_
_atom_site_type_symbol
_atom_site_label
_atom_site_fract_x
_atom_site_fract_y
_atom_site_fract_z
Si Si1 0.914480 0.390828 0.250000
Si Si2 0.632592 0.246525 0.600818
Si Si3 0.767224 0.032939 0.891363
Si Si4 0.786472 0.049163 0.103416
Si Si5 0.526610 0.118407 0.250000
Si Si6 0.679412 0.869901 0.750000
Si Si7 0.063525 0.891551 0.750000
Si Si8 0.320788 0.413371 0.250000
O O1 0.851371 0.397480 0.158833
O O2 0.966086 0.255498 0.250000
O O3 0.979747 0.511464 0.250000
O O4 0.588446 0.250000 0.500000
O O5 0.671786 0.110027 0.620840
O O6 0.722997 0.330934 0.609990
O O7 0.549549 0.292662 0.664064
O O8 0.740599 0.905005 0.840020
O O9 0.799346 0.009997 0.996687
O O10 0.881527 0.082608 0.155050
O O11 0.738688 0.937268 0.158008
O O12 0.422275 0.068078 0.250000
O O13 0.587030 0.994629 0.250000
O O14 0.652160 0.727777 0.750000
#
# Coordination Sequence:
#
# PCOD8232977 Si02
#       8
#     4   8   8   8   4   4   4   4
#     4  11  23  37  60  93 132 151 208 250 313 365
#     4   9  17  35  63  86 104 146 207 241 281 349
#     4  10  21  39  62  87 113 158 204 248 289 366
#     4   9  19  40  65  80 110 157 206 236 296 356
#     4  10  20  36  55  83 120 157 187 247 301 352
#     4  11  24  35  55  87 122 156 193 248 309 352
#     4  11  22  38  62  95 121 163 196 263 302 374
#     4   9  21  38  54  84 117 155 198 244 303 361
#
# _framework density 19.460163999999999
#
# number of rings (size 3 to 8) (size 9 to 14) (size 15 to 20)
#    0.000    2.182    1.818    1.636    2.545    4.364 
#    3.273    2.727    0.000    0.000    0.000    0.000 
#    0.000    0.000    0.000    0.000    0.000    0.000 
#
# Total GULP energy -545292.297958 kJ/mol
# GULP energy per Si atom -12393.006772 kJ/mol
# Density = 1.941587 g / cm^3
# Si number density = 19.460164 Si / 1000 Ang^3
#
#
#
# Elastic Constant Matrix: (Units=GPa)
#
#
# Indices 1 2 3 4 5 6 
#
# 1 61.7910 28.1335 41.6607 0.0000 0.0000 0.0000
# 2 28.1335 107.2497 40.0660 0.0000 0.0000 0.0000
# 3 41.6607 40.0660 169.5432 0.0000 0.0000 0.0000
# 4 0.0000 0.0000 0.0000 18.3707 0.0000 0.0000
# 5 0.0000 0.0000 0.0000 0.0000 -0.1892 0.0000
# 6 0.0000 0.0000 0.0000 0.0000 0.0000 24.1817
#
#
#
# Elastic Compliance Matrix: (Units=1/GPa)
#
#
# Indices 1 2 3 4 5 6 
#
# 1 0.020776 -0.003886 -0.004187 0.000000 0.000000 0.000000
# 2 -0.003886 0.010954 -0.001634 0.000000 0.000000 0.000000
# 3 -0.004187 -0.001634 0.007313 0.000000 0.000000 0.000000
# 4 0.000000 0.000000 0.000000 0.054435 0.000000 0.000000
# 5 0.000000 0.000000 0.000000 0.000000 -5.286493 0.000000
# 6 0.000000 0.000000 0.000000 0.000000 0.000000 0.041354
#
#
# Mechanical properties :
#
#
# Convention : Reuss Voigt Hill
#
# Bulk Modulus (GPa) = 50.94282 62.03379 56.48831
# Shear Modulus (GPa) = -0.97548 23.72090 11.37271
#
# Velocity S-wave (km/s) = -0.70877 3.49513 2.42008
# Velocity P-wave (km/s) = 5.05619 6.94510 6.07451
#
# Compressibility (1/GPa) = 0.01962985
#
# Stress axis : x y z
#
# Youngs Moduli (GPa) = 48.13350 91.29384 136.74158
#
# Poissons Ratio (x) = 0.35474 0.57251
# Poissons Ratio (y) = 0.18703 0.22340
# Poissons Ratio (z) = 0.20152 0.14915
#
# Static dielectric constant tensor:
#      x y z
#    x 3.231090 0.000000 0.000000 
#    y 0.000000 3.473710 0.000000 
#    z 0.000000 0.000000 3.244230 
# 
# 
# High freq. dielectric constant tensor:
#      x y z
#    x 1.734240 0.000000 0.000000 
#    y 0.000000 1.752570 0.000000 
#    z 0.000000 0.000000 1.767030 
# 
# From -- ./inp_files/18365.got.cif
#   From: 2010.03.12/outbox.cif.g09.slc.cpg/sg57_10_cif.got.tgz:18365.got - 2010.04.16 15:48:40.
