data_PCOD8232121
_publ_section_title
;
Structure prediction by ZEFSAII (Michael W. Deem and Ramdas Pophale) SiO2 
 PCOD8232121
Probable space group: P B C M
;
_chemical_formula_sum "Si O2"
_cell_formula_units_Z 56
_cell_length_a 20.579301
_cell_length_b 16.343130
_cell_length_c 8.990254
_cell_angle_alpha 90.000000
_cell_angle_beta 90.000000
_cell_angle_gamma 90.000000
_cell_volume 3023.693850
_symmetry_space_group_name_H-M "P B C M"
_symmetry_group_IT_number 57
_symmetry_cell_setting 'orthorhombic'
loop_
_space_group_symop_operation_xyz
x,y,z
-x,-y,1/2+z
x,1/2-y,-z
-x,1/2+y,1/2-z
-x,-y,-z
x,y,1/2-z
-x,1/2+y,z
x,1/2-y,1/2+z
loop_
_atom_site_type_symbol
_atom_site_label
_atom_site_fract_x
_atom_site_fract_y
_atom_site_fract_z
Si Si1 0.537666 0.427435 0.076507
Si Si2 0.153260 0.327190 0.577163
Si Si3 0.652156 0.497807 0.926820
Si Si4 0.414449 0.166564 0.578666
Si Si5 0.911408 0.436991 0.582663
Si Si6 0.969928 0.616680 0.916904
Si Si7 0.788655 0.001379 0.575224
O O1 0.547901 0.445968 0.250000
O O2 0.492234 0.347315 0.054084
O O3 0.500000 0.500000 0.000000
O O4 0.607300 0.424595 0.994364
O O5 0.189336 0.250000 0.500000
O O6 0.146649 0.311011 0.750000
O O7 0.081243 0.330892 0.509483
O O8 0.194651 0.407282 0.541872
O O9 0.651698 0.490967 0.750000
O O10 0.626295 0.587515 0.979586
O O11 0.722755 0.479471 0.990194
O O12 0.392096 0.250000 0.500000
O O13 0.398150 0.178685 0.750000
O O14 0.897695 0.405271 0.750000
O O15 0.945769 0.524105 0.588861
O O16 0.844330 0.440351 0.491139
O O17 0.960245 0.375756 0.497680
O O18 0.976202 0.651713 0.750000
O O19 0.781849 0.018665 0.750000
#
# Coordination Sequence:
#
# PCOD8232121 Si02
#       7
#     8   8   8   8   8   8   8
#     4   9  17  31  49  70  94 122 157 197 238 280
#     4  10  20  32  45  63  90 124 160 194 233 279
#     4  10  20  33  48  69  96 128 163 198 238 285
#     4   9  19  32  48  71  97 124 157 195 235 280
#     4   9  16  27  44  65  88 113 144 186 229 268
#     4   9  16  27  44  64  86 113 147 188 230 269
#     4  10  20  32  46  66  92 124 158 192 231 277
#
# _framework density 18.520392999999999
#
# number of rings (size 3 to 8) (size 9 to 14) (size 15 to 20)
#    0.000    2.571    0.000    3.429    0.000    9.143 
#    0.000    2.857    0.000    0.000    0.000    1.000 
#    0.000    2.286    0.000    0.000    0.000    0.000 
#
# Total GULP energy -694124.209656 kJ/mol
# GULP energy per Si atom -12395.075172 kJ/mol
# Density = 1.847824 g / cm^3
# Si number density = 18.520393 Si / 1000 Ang^3
#
#
#
# Elastic Constant Matrix: (Units=GPa)
#
#
# Indices 1 2 3 4 5 6 
#
# 1 105.4895 -4.1627 37.8024 0.0000 0.0000 0.0000
# 2 -4.1627 4.4782 -0.7785 0.0000 0.0000 0.0000
# 3 37.8024 -0.7785 95.2801 0.0000 0.0000 0.0000
# 4 0.0000 0.0000 0.0000 23.3548 0.0000 0.0000
# 5 0.0000 0.0000 0.0000 0.0000 35.0140 0.0000
# 6 0.0000 0.0000 0.0000 0.0000 0.0000 11.4302
#
#
#
# Elastic Compliance Matrix: (Units=1/GPa)
#
#
# Indices 1 2 3 4 5 6 
#
# 1 0.011472 0.009886 -0.004471 0.000000 0.000000 0.000000
# 2 0.009886 0.232140 -0.002026 0.000000 0.000000 0.000000
# 3 -0.004471 -0.002026 0.012253 0.000000 0.000000 0.000000
# 4 0.000000 0.000000 0.000000 0.042818 0.000000 0.000000
# 5 0.000000 0.000000 0.000000 0.000000 0.028560 0.000000
# 6 0.000000 0.000000 0.000000 0.000000 0.000000 0.087487
#
#
# Mechanical properties :
#
#
# Convention : Reuss Voigt Hill
#
# Bulk Modulus (GPa) = 3.80744 30.10784 16.95764
# Shear Modulus (GPa) = 10.09087 25.45224 17.77155
#
# Velocity S-wave (km/s) = 2.33674 3.71115 3.10105
# Velocity P-wave (km/s) = 3.05626 5.88689 4.69021
#
# Compressibility (1/GPa) = 0.26264400
#
# Stress axis : x y z
#
# Youngs Moduli (GPa) = 87.17022 4.30775 81.61562
#
# Poissons Ratio (x) = -0.04259 0.36488
# Poissons Ratio (y) = -0.86179 0.16533
# Poissons Ratio (z) = 0.38971 0.00873
#
# Static dielectric constant tensor:
#      x y z
#    x 3.528040 0.000000 0.000000 
#    y 0.000000 3.145710 0.000000 
#    z 0.000000 0.000000 3.638070 
# 
# 
# High freq. dielectric constant tensor:
#      x y z
#    x 1.714230 0.000000 0.000000 
#    y 0.000000 1.669600 0.000000 
#    z 0.000000 0.000000 1.735490 
# 
# From -- ./inp_files/6998.got.cif
#   From: 2010.03.12/outbox.cif.g09.slc.cpg/sg57_4_cif.got.tgz:6998.got - 2010.04.16 15:48:40.
