data_PCOD8232182
_publ_section_title
;
Structure prediction by ZEFSAII (Michael W. Deem and Ramdas Pophale) SiO2 
 PCOD8232182
Probable space group: P B C M
;
_chemical_formula_sum "Si O2"
_cell_formula_units_Z 56
_cell_length_a 20.297931
_cell_length_b 15.442241
_cell_length_c 9.051788
_cell_angle_alpha 90.000000
_cell_angle_beta 90.000000
_cell_angle_gamma 90.000000
_cell_volume 2837.242598
_symmetry_space_group_name_H-M "P B C M"
_symmetry_group_IT_number 57
_symmetry_cell_setting 'orthorhombic'
loop_
_space_group_symop_operation_xyz
x,y,z
-x,-y,1/2+z
x,1/2-y,-z
-x,1/2+y,1/2-z
-x,-y,-z
x,y,1/2-z
-x,1/2+y,z
x,1/2-y,1/2+z
loop_
_atom_site_type_symbol
_atom_site_label
_atom_site_fract_x
_atom_site_fract_y
_atom_site_fract_z
Si Si1 0.904351 0.835936 0.078962
Si Si2 0.551367 0.616231 0.582400
Si Si3 0.723219 0.019153 0.581079
Si Si4 0.581744 0.446881 0.418910
Si Si5 0.145860 0.521593 0.075592
Si Si6 0.057405 0.837659 0.076294
Si Si7 0.671933 0.669988 0.420394
O O1 0.893584 0.819485 0.250000
O O2 0.865543 0.921781 0.026896
O O3 0.980723 0.850052 0.040366
O O4 0.876268 0.750000 0.000000
O O5 0.574160 0.634114 0.750000
O O6 0.563735 0.516024 0.543625
O O7 0.471611 0.631577 0.565099
O O8 0.595341 0.673587 0.473162
O O9 0.748014 0.023724 0.750000
O O10 0.781221 0.050832 0.474173
O O11 0.704561 0.920797 0.536716
O O12 0.658544 0.080289 0.557225
O O13 0.577051 0.485673 0.250000
O O14 0.137243 0.533833 0.250000
O O15 0.093050 0.580121 0.993021
O O16 0.071856 0.832589 0.250000
O O17 0.083975 0.750000 0.000000
O O18 0.709543 0.750000 0.500000
O O19 0.674498 0.688783 0.250000
#
# Coordination Sequence:
#
# PCOD8232182 Si02
#       7
#     8   8   8   8   8   8   8
#     4   9  20  36  55  81 112 144 180 222 268 320
#     4   9  15  25  45  69  90 116 153 199 249 296
#     4   9  19  34  49  69  99 137 176 212 255 308
#     4   8  15  28  45  66  92 120 155 200 246 295
#     4  11  22  35  53  81 113 145 184 225 266 320
#     4  10  20  37  60  83 107 138 176 223 277 326
#     4  10  20  33  48  68  98 134 173 215 260 313
#
# _framework density 19.737473999999999
#
# number of rings (size 3 to 8) (size 9 to 14) (size 15 to 20)
#    0.000    2.571    0.000    3.000    0.000    5.714 
#    0.000    2.857    0.000    0.857    0.000    4.000 
#    0.000    0.000    0.000    0.000    0.000    0.000 
#
# Total GULP energy -693954.819709 kJ/mol
# GULP energy per Si atom -12392.050352 kJ/mol
# Density = 1.969255 g / cm^3
# Si number density = 19.737474 Si / 1000 Ang^3
#
#
#
# Elastic Constant Matrix: (Units=GPa)
#
#
# Indices 1 2 3 4 5 6 
#
# 1 71.5634 10.0506 26.4768 0.0000 0.0000 0.0000
# 2 10.0506 38.9285 15.0015 0.0000 0.0000 0.0000
# 3 26.4768 15.0015 67.8790 0.0000 0.0000 0.0000
# 4 0.0000 0.0000 0.0000 31.1182 0.0000 0.0000
# 5 0.0000 0.0000 0.0000 0.0000 27.6795 0.0000
# 6 0.0000 0.0000 0.0000 0.0000 0.0000 11.1854
#
#
#
# Elastic Compliance Matrix: (Units=1/GPa)
#
#
# Indices 1 2 3 4 5 6 
#
# 1 0.016463 -0.001941 -0.005993 0.000000 0.000000 0.000000
# 2 -0.001941 0.028308 -0.005499 0.000000 0.000000 0.000000
# 3 -0.005993 -0.005499 0.018285 0.000000 0.000000 0.000000
# 4 0.000000 0.000000 0.000000 0.032136 0.000000 0.000000
# 5 0.000000 0.000000 0.000000 0.000000 0.036128 0.000000
# 6 0.000000 0.000000 0.000000 0.000000 0.000000 0.089403
#
#
# Mechanical properties :
#
#
# Convention : Reuss Voigt Hill
#
# Bulk Modulus (GPa) = 27.63130 31.26985 29.45057
# Shear Modulus (GPa) = 19.25653 22.45274 20.85464
#
# Velocity S-wave (km/s) = 3.12690 3.37645 3.25407
# Velocity P-wave (km/s) = 5.20255 5.57475 5.39186
#
# Compressibility (1/GPa) = 0.03619085
#
# Stress axis : x y z
#
# Youngs Moduli (GPa) = 60.74084 35.32511 54.68994
#
# Poissons Ratio (x) = 0.06857 0.32774
# Poissons Ratio (y) = 0.11791 0.30075
# Poissons Ratio (z) = 0.36400 0.19426
#
# Static dielectric constant tensor:
#      x y z
#    x 3.730480 0.000000 0.000000 
#    y 0.000000 3.445500 0.000000 
#    z 0.000000 0.000000 3.575210 
# 
# 
# High freq. dielectric constant tensor:
#      x y z
#    x 1.769470 0.000000 0.000000 
#    y 0.000000 1.734240 0.000000 
#    z 0.000000 0.000000 1.774180 
# 
# From -- ./inp_files/8201.got.cif
#   From: 2010.03.12/outbox.cif.g09.slc.cpg/sg57_5_cif.got.tgz:8201.got - 2010.04.16 15:48:40.
