data_PCOD8232028
_publ_section_title
;
Structure prediction by ZEFSAII (Michael W. Deem and Ramdas Pophale) SiO2 
 PCOD8232028
Probable space group: P B C M
;
_chemical_formula_sum "Si O2"
_cell_formula_units_Z 40
_cell_length_a 19.941164
_cell_length_b 5.166080
_cell_length_c 20.349470
_cell_angle_alpha 90.000000
_cell_angle_beta 90.000000
_cell_angle_gamma 90.000000
_cell_volume 2096.354548
_symmetry_space_group_name_H-M "P B C M"
_symmetry_group_IT_number 57
_symmetry_cell_setting 'orthorhombic'
loop_
_space_group_symop_operation_xyz
x,y,z
-x,-y,1/2+z
x,1/2-y,-z
-x,1/2+y,1/2-z
-x,-y,-z
x,y,1/2-z
-x,1/2+y,z
x,1/2-y,1/2+z
loop_
_atom_site_type_symbol
_atom_site_label
_atom_site_fract_x
_atom_site_fract_y
_atom_site_fract_z
Si Si1 0.728520 0.250000 0.500000
Si Si2 0.046047 0.750000 0.000000
Si Si3 0.465501 0.834785 0.326327
Si Si4 0.768324 0.859913 0.175565
Si Si5 0.687087 0.362944 0.362069
Si Si6 0.152619 0.446117 0.055091
O O1 0.682997 0.361722 0.441418
O O2 0.774474 0.475968 0.528984
O O3 0.099156 0.687303 0.059939
O O4 0.000000 0.500000 0.000000
O O5 0.483741 0.837893 0.250000
O O6 0.502048 0.588744 0.359805
O O7 0.386349 0.819493 0.334617
O O8 0.794867 0.836816 0.250000
O O9 0.713708 0.639497 0.161887
O O10 0.833515 0.826699 0.127425
O O11 0.735418 0.140880 0.165837
O O12 0.122106 0.250000 0.000000
#
# Coordination Sequence:
#
# PCOD8232028 Si02
#       6
#     4   4   8   8   8   8
#     4   9  20  34  56  84 110 149 180 234 298 345
#     4  11  22  36  60  90 114 151 196 228 254 317
#     4  10  20  34  50  70 101 143 187 234 285 342
#     4  11  22  35  58  88 115 146 187 239 296 345
#     4  11  21  36  56  80 112 144 190 235 294 354
#     4  10  19  37  59  86 118 149 183 236 283 329
#
# _framework density 19.080742000000001
#
# number of rings (size 3 to 8) (size 9 to 14) (size 15 to 20)
#    0.000    1.600    3.000    3.000    0.000    1.600 
#    0.000    1.000    0.000    1.200    0.000    0.000 
#    0.000    0.000    0.000    0.000    0.000    0.000 
#
# Total GULP energy -495581.993385 kJ/mol
# GULP energy per Si atom -12389.549835 kJ/mol
# Density = 1.903731 g / cm^3
# Si number density = 19.080742 Si / 1000 Ang^3
#
#
#
# Elastic Constant Matrix: (Units=GPa)
#
#
# Indices 1 2 3 4 5 6 
#
# 1 83.0397 35.1621 22.3022 0.0000 0.0000 0.0000
# 2 35.1621 102.6922 30.8275 0.0000 0.0000 0.0000
# 3 22.3022 30.8275 116.8671 0.0000 0.0000 0.0000
# 4 0.0000 0.0000 0.0000 19.2614 0.0000 0.0000
# 5 0.0000 0.0000 0.0000 0.0000 10.6437 0.0000
# 6 0.0000 0.0000 0.0000 0.0000 0.0000 38.4961
#
#
#
# Elastic Compliance Matrix: (Units=1/GPa)
#
#
# Indices 1 2 3 4 5 6 
#
# 1 0.014344 -0.004441 -0.001566 0.000000 0.000000 0.000000
# 2 -0.004441 0.011950 -0.002305 0.000000 0.000000 0.000000
# 3 -0.001566 -0.002305 0.009463 0.000000 0.000000 0.000000
# 4 0.000000 0.000000 0.000000 0.051917 0.000000 0.000000
# 5 0.000000 0.000000 0.000000 0.000000 0.093952 0.000000
# 6 0.000000 0.000000 0.000000 0.000000 0.000000 0.025977
#
#
# Mechanical properties :
#
#
# Convention : Reuss Voigt Hill
#
# Bulk Modulus (GPa) = 52.26308 53.24251 52.75280
# Shear Modulus (GPa) = 21.68207 27.96737 24.82472
#
# Velocity S-wave (km/s) = 3.37461 3.83265 3.61090
# Velocity P-wave (km/s) = 6.52947 6.89565 6.71505
#
# Compressibility (1/GPa) = 0.01913397
#
# Stress axis : x y z
#
# Youngs Moduli (GPa) = 69.71784 83.67915 105.66945
#
# Poissons Ratio (x) = 0.37164 0.16545
# Poissons Ratio (y) = 0.30963 0.24354
# Poissons Ratio (z) = 0.10916 0.19286
#
# Static dielectric constant tensor:
#      x y z
#    x 3.447740 0.000000 0.000000 
#    y 0.000000 3.905060 0.000000 
#    z 0.000000 0.000000 3.685430 
# 
# 
# High freq. dielectric constant tensor:
#      x y z
#    x 1.726370 0.000000 0.000000 
#    y 0.000000 1.762700 0.000000 
#    z 0.000000 0.000000 1.715490 
# 
# From -- ./inp_files/25537.got.cif
#   From: 2010.03.12/outbox.cif.g09.slc.cpg/sg57_13_cif.got.tgz:25537.got - 2010.04.16 15:48:40.
