data_PCOD8232341
_publ_section_title
;
Structure prediction by ZEFSAII (Michael W. Deem and Ramdas Pophale) SiO2 
 PCOD8232341
Probable space group: P B C M
;
_chemical_formula_sum "Si O2"
_cell_formula_units_Z 56
_cell_length_a 8.854360
_cell_length_b 22.317271
_cell_length_c 15.035252
_cell_angle_alpha 90.000000
_cell_angle_beta 90.000000
_cell_angle_gamma 90.000000
_cell_volume 2971.043252
_symmetry_space_group_name_H-M "P B C M"
_symmetry_group_IT_number 57
_symmetry_cell_setting 'orthorhombic'
loop_
_space_group_symop_operation_xyz
x,y,z
-x,-y,1/2+z
x,1/2-y,-z
-x,1/2+y,1/2-z
-x,-y,-z
x,y,1/2-z
-x,1/2+y,z
x,1/2-y,1/2+z
loop_
_atom_site_type_symbol
_atom_site_label
_atom_site_fract_x
_atom_site_fract_y
_atom_site_fract_z
Si Si1 0.979112 0.575571 0.351649
Si Si2 0.499156 0.179673 0.997853
Si Si3 0.794370 0.398152 0.987460
Si Si4 0.422393 0.987282 0.592052
Si Si5 0.008465 0.936096 0.352544
Si Si6 0.642323 0.890206 0.651793
Si Si7 0.683427 0.611776 0.649814
O O1 0.016488 0.593908 0.250000
O O2 0.070158 0.619611 0.419366
O O3 0.019925 0.506230 0.368831
O O4 0.804272 0.584097 0.375212
O O5 0.519299 0.250000 0.000000
O O6 0.666899 0.151985 0.999625
O O7 0.406972 0.161492 0.085004
O O8 0.401736 0.158790 0.913125
O O9 0.732895 0.455790 0.934628
O O10 0.856262 0.413199 0.085254
O O11 0.525460 0.944959 0.652281
O O12 0.500000 0.000000 0.500000
O O13 0.398214 0.047674 0.646366
O O14 0.055503 0.924930 0.250000
O O15 0.858232 0.898210 0.377139
O O16 0.645653 0.861710 0.750000
O O17 0.671510 0.636599 0.750000
#
# Coordination Sequence:
#
# PCOD8232341 Si02
#       7
#     8   8   8   8   8   8   8
#     4  10  20  33  56  92 124 150 177 223 298 371
#     4  11  26  44  59  80 110 157 215 254 285 326
#     4  11  21  34  60  82 122 153 187 237 296 346
#     4  11  19  33  55  93 123 153 183 227 294 358
#     4  10  21  34  55  92 128 153 180 224 293 371
#     4  10  21  37  61  89 120 154 191 236 290 351
#     4  11  22  38  61  88 122 157 192 238 294 351
#
# _framework density 18.848597000000002
#
# number of rings (size 3 to 8) (size 9 to 14) (size 15 to 20)
#    0.000    1.429    4.286    2.571    0.000    3.429 
#    0.000    2.857    0.000    1.714    0.000    0.000 
#    0.000    0.000    0.000    0.000    0.000    0.000 
#
# Total GULP energy -694218.321605 kJ/mol
# GULP energy per Si atom -12396.755743 kJ/mol
# Density = 1.880570 g / cm^3
# Si number density = 18.848597 Si / 1000 Ang^3
#
#
#
# Elastic Constant Matrix: (Units=GPa)
#
#
# Indices 1 2 3 4 5 6 
#
# 1 121.7863 43.1833 75.4455 0.0000 0.0000 0.0000
# 2 43.1833 93.6958 45.6148 0.0000 0.0000 0.0000
# 3 75.4455 45.6148 117.3027 0.0000 0.0000 0.0000
# 4 0.0000 0.0000 0.0000 12.1834 0.0000 0.0000
# 5 0.0000 0.0000 0.0000 0.0000 25.6852 0.0000
# 6 0.0000 0.0000 0.0000 0.0000 0.0000 15.4772
#
#
#
# Elastic Compliance Matrix: (Units=1/GPa)
#
#
# Indices 1 2 3 4 5 6 
#
# 1 0.014137 -0.002577 -0.008090 0.000000 0.000000 0.000000
# 2 -0.002577 0.013635 -0.003645 0.000000 0.000000 0.000000
# 3 -0.008090 -0.003645 0.015146 0.000000 0.000000 0.000000
# 4 0.000000 0.000000 0.000000 0.082079 0.000000 0.000000
# 5 0.000000 0.000000 0.000000 0.000000 0.038933 0.000000
# 6 0.000000 0.000000 0.000000 0.000000 0.000000 0.064611
#
#
# Mechanical properties :
#
#
# Convention : Reuss Voigt Hill
#
# Bulk Modulus (GPa) = 69.96158 73.47464 71.71811
# Shear Modulus (GPa) = 19.08919 21.90524 20.49722
#
# Velocity S-wave (km/s) = 3.18585 3.41276 3.30125
# Velocity P-wave (km/s) = 7.12258 7.38887 7.25694
#
# Compressibility (1/GPa) = 0.01429356
#
# Stress axis : x y z
#
# Youngs Moduli (GPa) = 70.73841 73.34133 66.02543
#
# Poissons Ratio (x) = 0.18898 0.53416
# Poissons Ratio (y) = 0.18228 0.24065
# Poissons Ratio (z) = 0.57229 0.26732
#
# Static dielectric constant tensor:
#      x y z
#    x 3.321220 0.000000 0.000000 
#    y 0.000000 2.948440 0.000000 
#    z 0.000000 0.000000 3.654810 
# 
# 
# High freq. dielectric constant tensor:
#      x y z
#    x 1.751620 0.000000 0.000000 
#    y 0.000000 1.678800 0.000000 
#    z 0.000000 0.000000 1.750550 
# 
# From -- ./inp_files/16699.got.cif
#   From: 2010.03.12/outbox.cif.g09.slc.cpg/sg57_9_cif.got.tgz:16699.got - 2010.04.16 15:48:40.
