data_PCOD8232721
_publ_section_title
;
Structure prediction by ZEFSAII (Michael W. Deem and Ramdas Pophale) SiO2 
 PCOD8232721
Probable space group: P B C M
;
_chemical_formula_sum "Si O2"
_cell_formula_units_Z 48
_cell_length_a 30.566639
_cell_length_b 9.477540
_cell_length_c 8.592816
_cell_angle_alpha 90.000000
_cell_angle_beta 90.000000
_cell_angle_gamma 90.000000
_cell_volume 2489.309097
_symmetry_space_group_name_H-M "P B C M"
_symmetry_group_IT_number 57
_symmetry_cell_setting 'orthorhombic'
loop_
_space_group_symop_operation_xyz
x,y,z
-x,-y,1/2+z
x,1/2-y,-z
-x,1/2+y,1/2-z
-x,-y,-z
x,y,1/2-z
-x,1/2+y,z
x,1/2-y,1/2+z
loop_
_atom_site_type_symbol
_atom_site_label
_atom_site_fract_x
_atom_site_fract_y
_atom_site_fract_z
Si Si1 0.706246 0.093659 0.434729
Si Si2 0.211615 0.094775 0.566718
Si Si3 0.630921 0.596641 0.065200
Si Si4 0.462528 0.097682 0.564835
Si Si5 0.036262 0.599988 0.433160
Si Si6 0.134222 0.901654 0.933883
O O1 0.712477 0.250000 0.500000
O O2 0.700377 0.098455 0.250000
O O3 0.747961 0.001679 0.485823
O O4 0.664369 0.022744 0.512697
O O5 0.216883 0.250000 0.500000
O O6 0.209753 0.108701 0.750000
O O7 0.167317 0.021007 0.502715
O O8 0.628838 0.607016 0.250000
O O9 0.644814 0.750000 0.000000
O O10 0.584280 0.547393 0.998988
O O11 0.473769 0.250000 0.500000
O O12 0.461701 0.097507 0.750000
O O13 0.500000 0.000000 0.500000
O O14 0.024188 0.750000 0.500000
O O15 0.033035 0.603055 0.250000
O O16 0.085179 0.555161 0.487020
O O17 0.000000 0.500000 0.500000
O O18 0.137591 0.889118 0.750000
O O19 0.147893 0.750000 0.000000
#
# Coordination Sequence:
#
# PCOD8232721 Si02
#       6
#     8   8   8   8   8   8
#     4  11  23  39  59  85 114 147 186 231 280 334
#     4  10  22  38  57  82 112 144 183 226 275 331
#     4  11  22  39  61  86 116 152 191 234 282 334
#     4  11  22  39  61  88 119 154 194 237 285 337
#     4  10  20  35  55  79 110 145 185 229 279 332
#     4   9  19  36  56  80 108 142 182 227 275 330
#
# _framework density 19.282458999999999
#
# number of rings (size 3 to 8) (size 9 to 14) (size 15 to 20)
#    0.000    1.667    0.000    6.000    0.000    5.333 
#    0.000    5.000    0.000    0.000    0.000    0.000 
#    0.000    0.000    0.000    0.000    0.000    0.000 
#
# Total GULP energy -595275.495517 kJ/mol
# GULP energy per Si atom -12401.572823 kJ/mol
# Density = 1.923857 g / cm^3
# Si number density = 19.282459 Si / 1000 Ang^3
#
#
#
# Elastic Constant Matrix: (Units=GPa)
#
#
# Indices 1 2 3 4 5 6 
#
# 1 162.1668 117.4963 57.8711 0.0000 0.0000 0.0000
# 2 117.4963 159.4370 59.1246 0.0000 0.0000 0.0000
# 3 57.8711 59.1246 106.0888 0.0000 0.0000 0.0000
# 4 0.0000 0.0000 0.0000 38.2086 0.0000 0.0000
# 5 0.0000 0.0000 0.0000 0.0000 27.7358 0.0000
# 6 0.0000 0.0000 0.0000 0.0000 0.0000 184.2936
#
#
#
# Elastic Compliance Matrix: (Units=1/GPa)
#
#
# Indices 1 2 3 4 5 6 
#
# 1 0.013671 -0.009213 -0.002323 0.000000 0.000000 0.000000
# 2 -0.009213 0.014115 -0.002841 0.000000 0.000000 0.000000
# 3 -0.002323 -0.002841 0.012276 0.000000 0.000000 0.000000
# 4 0.000000 0.000000 0.000000 0.026172 0.000000 0.000000
# 5 0.000000 0.000000 0.000000 0.000000 0.036055 0.000000
# 6 0.000000 0.000000 0.000000 0.000000 0.000000 0.005426
#
#
# Mechanical properties :
#
#
# Convention : Reuss Voigt Hill
#
# Bulk Modulus (GPa) = 88.42677 99.63073 94.02875
# Shear Modulus (GPa) = 35.65368 62.92762 49.29065
#
# Velocity S-wave (km/s) = 4.30469 5.71887 5.06142
# Velocity P-wave (km/s) = 8.40627 9.76671 9.11191
#
# Compressibility (1/GPa) = 0.01130879
#
# Stress axis : x y z
#
# Youngs Moduli (GPa) = 73.14901 70.84573 81.45789
#
# Poissons Ratio (x) = 0.65272 0.18920
# Poissons Ratio (y) = 0.67394 0.23140
# Poissons Ratio (z) = 0.16990 0.20126
#
# Static dielectric constant tensor:
#      x y z
#    x 3.795800 0.000000 0.000000 
#    y 0.000000 -1.117630 0.000000 
#    z 0.000000 0.000000 3.607240 
# 
# 
# High freq. dielectric constant tensor:
#      x y z
#    x 1.767540 0.000000 0.000000 
#    y 0.000000 1.752570 0.000000 
#    z 0.000000 0.000000 1.760160 
# 
# From -- ./inp_files/10091.got.cif
#   From: 2010.03.12/outbox.cif.g09.slc.cpg/sg57_6_cif.got.tgz:10091.got - 2010.04.16 15:48:40.
