data_PCOD8232048
_publ_section_title
;
Structure prediction by ZEFSAII (Michael W. Deem and Ramdas Pophale) SiO2 
 PCOD8232048
Probable space group: P B C M
;
_chemical_formula_sum "Si O2"
_cell_formula_units_Z 48
_cell_length_a 10.859072
_cell_length_b 11.388548
_cell_length_c 18.456010
_cell_angle_alpha 90.000000
_cell_angle_beta 90.000000
_cell_angle_gamma 90.000000
_cell_volume 2282.437458
_symmetry_space_group_name_H-M "P B C M"
_symmetry_group_IT_number 57
_symmetry_cell_setting 'orthorhombic'
loop_
_space_group_symop_operation_xyz
x,y,z
-x,-y,1/2+z
x,1/2-y,-z
-x,1/2+y,1/2-z
-x,-y,-z
x,y,1/2-z
-x,1/2+y,z
x,1/2-y,1/2+z
loop_
_atom_site_type_symbol
_atom_site_label
_atom_site_fract_x
_atom_site_fract_y
_atom_site_fract_z
Si Si1 0.717791 0.615433 0.416155
Si Si2 0.359508 0.526669 0.172741
Si Si3 0.554985 0.207661 0.076028
Si Si4 0.935066 0.877725 0.476642
Si Si5 0.175624 0.324319 0.167199
Si Si6 0.615501 0.422015 0.170566
O O1 0.581241 0.656990 0.437576
O O2 0.797808 0.618087 0.489360
O O3 0.783029 0.694253 0.354808
O O4 0.715532 0.483904 0.382038
O O5 0.309739 0.578459 0.250000
O O6 0.343340 0.613899 0.104917
O O7 0.296051 0.403519 0.157942
O O8 0.505955 0.514361 0.181074
O O9 0.554016 0.308762 0.135376
O O10 0.609423 0.250000 0.000000
O O11 0.996229 0.750000 0.500000
O O12 0.926630 0.874898 0.388797
O O13 0.000000 0.000000 0.500000
O O14 0.124682 0.324586 0.250000
O O15 0.672202 0.392092 0.250000
#
# Coordination Sequence:
#
# PCOD8232048 Si02
#       6
#     8   8   8   8   8   8
#     4  10  21  37  60  87 119 159 208 248 305 373
#     4   9  19  32  51  78 115 154 190 231 282 350
#     4  11  21  31  50  82 122 164 195 237 280 356
#     4  10  23  45  68  90 118 157 211 274 333 378
#     4  10  19  37  63  87 114 157 203 245 303 375
#     4  10  20  33  53  84 123 159 196 240 290 357
#
# _framework density 21.030148000000001
#
# number of rings (size 3 to 8) (size 9 to 14) (size 15 to 20)
#    0.000    2.000    1.667    2.500    2.333    2.667 
#    3.000    4.167    0.000    0.000    0.000    0.000 
#    0.000    0.000    0.000    0.000    0.000    0.000 
#
# Total GULP energy -594637.671600 kJ/mol
# GULP energy per Si atom -12388.284825 kJ/mol
# Density = 2.098228 g / cm^3
# Si number density = 21.030148 Si / 1000 Ang^3
#
#
#
# Elastic Constant Matrix: (Units=GPa)
#
#
# Indices 1 2 3 4 5 6 
#
# 1 31.6814 27.6396 18.4258 0.0000 0.0000 0.0000
# 2 27.6396 97.6897 35.3736 0.0000 0.0000 0.0000
# 3 18.4258 35.3736 144.1310 0.0000 0.0000 0.0000
# 4 0.0000 0.0000 0.0000 34.5769 0.0000 0.0000
# 5 0.0000 0.0000 0.0000 0.0000 16.7109 0.0000
# 6 0.0000 0.0000 0.0000 0.0000 0.0000 31.9844
#
#
#
# Elastic Compliance Matrix: (Units=1/GPa)
#
#
# Indices 1 2 3 4 5 6 
#
# 1 0.042878 -0.011137 -0.002748 0.000000 0.000000 0.000000
# 2 -0.011137 0.014127 -0.002044 0.000000 0.000000 0.000000
# 3 -0.002748 -0.002044 0.007791 0.000000 0.000000 0.000000
# 4 0.000000 0.000000 0.000000 0.028921 0.000000 0.000000
# 5 0.000000 0.000000 0.000000 0.000000 0.059841 0.000000
# 6 0.000000 0.000000 0.000000 0.000000 0.000000 0.031265
#
#
# Mechanical properties :
#
#
# Convention : Reuss Voigt Hill
#
# Bulk Modulus (GPa) = 30.35832 48.48670 39.42251
# Shear Modulus (GPa) = 21.96248 29.45865 25.71056
#
# Velocity S-wave (km/s) = 3.23512 3.74676 3.50030
# Velocity P-wave (km/s) = 5.33119 6.46711 5.92643
#
# Compressibility (1/GPa) = 0.03293990
#
# Stress axis : x y z
#
# Youngs Moduli (GPa) = 23.32174 70.78467 128.35273
#
# Poissons Ratio (x) = 0.78829 0.35277
# Poissons Ratio (y) = 0.25972 0.26229
# Poissons Ratio (z) = 0.06410 0.14465
#
# Static dielectric constant tensor:
#      x y z
#    x 3.202280 0.000000 0.000000 
#    y 0.000000 3.940970 0.000000 
#    z 0.000000 0.000000 4.185070 
# 
# 
# High freq. dielectric constant tensor:
#      x y z
#    x 1.756070 0.000000 0.000000 
#    y 0.000000 1.829950 0.000000 
#    z 0.000000 0.000000 1.844600 
# 
# From -- ./inp_files/21800.got.cif
#   From: 2010.03.12/outbox.cif.g09.slc.cpg/sg57_11_cif.got.tgz:21800.got - 2010.04.16 15:48:40.
