data_PCOD8232093
_publ_section_title
;
Structure prediction by ZEFSAII (Michael W. Deem and Ramdas Pophale) SiO2 
 PCOD8232093
Probable space group: P B C M
;
_chemical_formula_sum "Si O2"
_cell_formula_units_Z 64
_cell_length_a 12.210080
_cell_length_b 13.832961
_cell_length_c 18.032260
_cell_angle_alpha 90.000000
_cell_angle_beta 90.000000
_cell_angle_gamma 90.000000
_cell_volume 3045.676852
_symmetry_space_group_name_H-M "P B C M"
_symmetry_group_IT_number 57
_symmetry_cell_setting 'orthorhombic'
loop_
_space_group_symop_operation_xyz
x,y,z
-x,-y,1/2+z
x,1/2-y,-z
-x,1/2+y,1/2-z
-x,-y,-z
x,y,1/2-z
-x,1/2+y,z
x,1/2-y,1/2+z
loop_
_atom_site_type_symbol
_atom_site_label
_atom_site_fract_x
_atom_site_fract_y
_atom_site_fract_z
Si Si1 0.262436 0.035053 0.545918
Si Si2 0.884162 0.316502 0.337834
Si Si3 0.475670 0.828521 0.663821
Si Si4 0.280202 0.981136 0.117460
Si Si5 0.731105 0.308451 0.923960
Si Si6 0.511026 0.972371 0.414251
Si Si7 0.281455 0.314715 0.668613
Si Si8 0.106498 0.202099 0.577260
O O1 0.269483 0.042369 0.457896
O O2 0.252898 0.922219 0.565818
O O3 0.370915 0.082257 0.586857
O O4 0.157137 0.095268 0.570123
O O5 0.887053 0.319765 0.250000
O O6 0.818868 0.408836 0.369088
O O7 0.824938 0.220121 0.365738
O O8 0.006274 0.314680 0.368202
O O9 0.442605 0.817198 0.750000
O O10 0.385673 0.778294 0.611198
O O11 0.594608 0.781389 0.647714
O O12 0.478656 0.939951 0.642438
O O13 0.397452 0.920901 0.113072
O O14 0.278455 0.067940 0.176528
O O15 0.746331 0.250000 0.000000
O O16 0.500000 0.000000 0.500000
O O17 0.251442 0.274018 0.750000
O O18 0.195684 0.274905 0.609949
O O19 0.066919 0.250000 0.500000
#
# Coordination Sequence:
#
# PCOD8232093 Si02
#       8
#     8   8   8   8   8   8   8   8
#     4  10  21  41  66 100 127 160 208 258 319 380
#     4  12  27  44  63  92 126 168 221 267 316 371
#     4   9  19  36  62  96 132 168 206 255 320 388
#     4  10  19  39  67  96 126 163 206 261 315 372
#     4  11  22  42  67  95 128 166 205 264 318 383
#     4   8  17  34  63  97 132 158 201 253 315 383
#     4  10  21  41  64  94 131 167 208 258 316 374
#     4  12  26  43  64  90 124 167 220 268 313 375
#
# _framework density 21.013390999999999
#
# number of rings (size 3 to 8) (size 9 to 14) (size 15 to 20)
#    0.000    1.750    2.500    1.500    0.000    3.500 
#    2.250    7.500    0.000    0.000    0.000    0.000 
#    0.000    0.000    0.000    0.000    0.000    0.000 
#
# Total GULP energy -792886.930772 kJ/mol
# GULP energy per Si atom -12388.858293 kJ/mol
# Density = 2.096556 g / cm^3
# Si number density = 21.013391 Si / 1000 Ang^3
#
#
#
# Elastic Constant Matrix: (Units=GPa)
#
#
# Indices 1 2 3 4 5 6 
#
# 1 141.3576 37.5186 50.2415 0.0000 0.0000 0.0000
# 2 37.5186 76.3327 22.3827 0.0000 0.0000 0.0000
# 3 50.2415 22.3827 98.2962 0.0000 0.0000 0.0000
# 4 0.0000 0.0000 0.0000 13.9801 0.0000 0.0000
# 5 0.0000 0.0000 0.0000 0.0000 34.2439 0.0000
# 6 0.0000 0.0000 0.0000 0.0000 0.0000 29.0952
#
#
#
# Elastic Compliance Matrix: (Units=1/GPa)
#
#
# Indices 1 2 3 4 5 6 
#
# 1 0.009422 -0.003449 -0.004031 0.000000 0.000000 0.000000
# 2 -0.003449 0.015301 -0.001721 0.000000 0.000000 0.000000
# 3 -0.004031 -0.001721 0.012625 0.000000 0.000000 0.000000
# 4 0.000000 0.000000 0.000000 0.071530 0.000000 0.000000
# 5 0.000000 0.000000 0.000000 0.000000 0.029202 0.000000
# 6 0.000000 0.000000 0.000000 0.000000 0.000000 0.034370
#
#
# Mechanical properties :
#
#
# Convention : Reuss Voigt Hill
#
# Bulk Modulus (GPa) = 52.78030 59.58578 56.18304
# Shear Modulus (GPa) = 25.35910 29.18676 27.27293
#
# Velocity S-wave (km/s) = 3.47768 3.73092 3.60652
# Velocity P-wave (km/s) = 6.42633 6.85400 6.64361
#
# Compressibility (1/GPa) = 0.01894646
#
# Stress axis : x y z
#
# Youngs Moduli (GPa) = 106.13125 65.35702 79.20601
#
# Poissons Ratio (x) = 0.22544 0.31924
# Poissons Ratio (y) = 0.36608 0.13631
# Poissons Ratio (z) = 0.42776 0.11248
#
# Static dielectric constant tensor:
#      x y z
#    x 4.101100 0.000000 0.000000 
#    y 0.000000 3.487280 0.000000 
#    z 0.000000 0.000000 3.860600 
# 
# 
# High freq. dielectric constant tensor:
#      x y z
#    x 1.833040 0.000000 0.000000 
#    y 0.000000 1.803060 0.000000 
#    z 0.000000 0.000000 1.828470 
# 
# From -- ./inp_files/21991.got.cif
#   From: 2010.03.12/outbox.cif.g09.slc.cpg/sg57_11_cif.got.tgz:21991.got - 2010.04.16 15:48:40.
