data_PCOD8232654
_publ_section_title
;
Structure prediction by ZEFSAII (Michael W. Deem and Ramdas Pophale) SiO2 
 PCOD8232654
Probable space group: P B C M
;
_chemical_formula_sum "Si O2"
_cell_formula_units_Z 64
_cell_length_a 15.528524
_cell_length_b 23.244402
_cell_length_c 9.152972
_cell_angle_alpha 90.000000
_cell_angle_beta 90.000000
_cell_angle_gamma 90.000000
_cell_volume 3303.776724
_symmetry_space_group_name_H-M "P B C M"
_symmetry_group_IT_number 57
_symmetry_cell_setting 'orthorhombic'
loop_
_space_group_symop_operation_xyz
x,y,z
-x,-y,1/2+z
x,1/2-y,-z
-x,1/2+y,1/2-z
-x,-y,-z
x,y,1/2-z
-x,1/2+y,z
x,1/2-y,1/2+z
loop_
_atom_site_type_symbol
_atom_site_label
_atom_site_fract_x
_atom_site_fract_y
_atom_site_fract_z
Si Si1 0.876287 0.024924 0.417002
Si Si2 0.679613 0.192632 0.078354
Si Si3 0.515670 0.805396 0.918625
Si Si4 0.410236 0.497071 0.917584
Si Si5 0.833944 0.811723 0.921477
Si Si6 0.946597 0.918653 0.583932
Si Si7 0.328799 0.383395 0.920517
Si Si8 0.268704 0.914315 0.082891
O O1 0.844181 0.020734 0.250000
O O2 0.800691 0.041023 0.525856
O O3 0.950700 0.073525 0.430382
O O4 0.905064 0.961770 0.467541
O O5 0.692959 0.198845 0.250000
O O6 0.581113 0.179070 0.033158
O O7 0.711929 0.250000 0.000000
O O8 0.738091 0.141654 0.017738
O O9 0.518035 0.790020 0.750000
O O10 0.579157 0.856317 0.960449
O O11 0.551325 0.750000 0.000000
O O12 0.431654 0.481459 0.750000
O O13 0.342872 0.448547 0.979524
O O14 0.363432 0.558116 0.932100
O O15 0.500000 0.500000 0.000000
O O16 0.822625 0.798649 0.750000
O O17 0.917183 0.852872 0.950623
O O18 0.751117 0.847073 0.987494
O O19 0.845075 0.750000 0.000000
O O20 0.917313 0.934470 0.750000
O O21 0.309266 0.384644 0.750000
O O22 0.248938 0.898082 0.250000
#
# Coordination Sequence:
#
# PCOD8232654 Si02
#       8
#     8   8   8   8   8   8   8   8
#     4  10  20  35  59  86 109 139 182 230 276 329
#     4  10  20  35  54  75 102 136 176 222 268 316
#     4   9  17  29  47  69  95 130 172 215 256 300
#     4  10  21  36  54  77 108 146 186 228 277 328
#     4  10  20  35  55  79 111 148 184 224 273 332
#     4   9  19  37  58  81 111 144 178 223 281 336
#     4   9  17  31  50  72 102 141 178 215 264 318
#     4  11  22  36  55  80 110 143 178 218 270 328
#
# _framework density 19.371769
#
# number of rings (size 3 to 8) (size 9 to 14) (size 15 to 20)
#    0.000    2.250    0.000    3.000    0.000    5.500 
#    0.000    1.875    0.000    1.500    0.000    0.000 
#    0.000    0.000    0.000    0.000    0.000    0.000 
#
# Total GULP energy -793332.377116 kJ/mol
# GULP energy per Si atom -12395.818392 kJ/mol
# Density = 1.932768 g / cm^3
# Si number density = 19.371769 Si / 1000 Ang^3
#
#
#
# Elastic Constant Matrix: (Units=GPa)
#
#
# Indices 1 2 3 4 5 6 
#
# 1 62.3507 30.1117 30.0214 0.0000 0.0000 0.0000
# 2 30.1117 114.8018 44.5307 0.0000 0.0000 0.0000
# 3 30.0214 44.5307 76.7216 0.0000 0.0000 0.0000
# 4 0.0000 0.0000 0.0000 34.6339 0.0000 0.0000
# 5 0.0000 0.0000 0.0000 0.0000 24.1719 0.0000
# 6 0.0000 0.0000 0.0000 0.0000 0.0000 41.6717
#
#
#
# Elastic Compliance Matrix: (Units=1/GPa)
#
#
# Indices 1 2 3 4 5 6 
#
# 1 0.020494 -0.002923 -0.006323 0.000000 0.000000 0.000000
# 2 -0.002923 0.011658 -0.005623 0.000000 0.000000 0.000000
# 3 -0.006323 -0.005623 0.018772 0.000000 0.000000 0.000000
# 4 0.000000 0.000000 0.000000 0.028873 0.000000 0.000000
# 5 0.000000 0.000000 0.000000 0.000000 0.041370 0.000000
# 6 0.000000 0.000000 0.000000 0.000000 0.000000 0.023997
#
#
# Mechanical properties :
#
#
# Convention : Reuss Voigt Hill
#
# Bulk Modulus (GPa) = 47.19876 51.46686 49.33281
# Shear Modulus (GPa) = 27.47764 30.04285 28.76024
#
# Velocity S-wave (km/s) = 3.77030 3.94236 3.85729
# Velocity P-wave (km/s) = 6.58568 6.88103 6.73498
#
# Compressibility (1/GPa) = 0.02118700
#
# Stress axis : x y z
#
# Youngs Moduli (GPa) = 48.79390 85.77460 53.27050
#
# Poissons Ratio (x) = 0.25071 0.33683
# Poissons Ratio (y) = 0.14262 0.29954
# Poissons Ratio (z) = 0.30853 0.48232
#
# Static dielectric constant tensor:
#      x y z
#    x 3.520000 0.000000 0.000000 
#    y 0.000000 3.518620 0.000000 
#    z 0.000000 0.000000 3.393620 
# 
# 
# High freq. dielectric constant tensor:
#      x y z
#    x 1.744430 0.000000 0.000000 
#    y 0.000000 1.756670 0.000000 
#    z 0.000000 0.000000 1.740990 
# 
# From -- ./inp_files/5638.got.cif
#   From: 2010.03.12/outbox.cif.g09.slc.cpg/sg57_3_cif.got.tgz:5638.got - 2010.04.16 15:48:40.
