data_PCOD8232232
_publ_section_title
;
Structure prediction by ZEFSAII (Michael W. Deem and Ramdas Pophale) SiO2 
 PCOD8232232
Probable space group: P B C M
;
_chemical_formula_sum "Si O2"
_cell_formula_units_Z 64
_cell_length_a 30.365372
_cell_length_b 13.628746
_cell_length_c 8.681541
_cell_angle_alpha 90.000000
_cell_angle_beta 90.000000
_cell_angle_gamma 90.000000
_cell_volume 3592.785789
_symmetry_space_group_name_H-M "P B C M"
_symmetry_group_IT_number 57
_symmetry_cell_setting 'orthorhombic'
loop_
_space_group_symop_operation_xyz
x,y,z
-x,-y,1/2+z
x,1/2-y,-z
-x,1/2+y,1/2-z
-x,-y,-z
x,y,1/2-z
-x,1/2+y,z
x,1/2-y,1/2+z
loop_
_atom_site_type_symbol
_atom_site_label
_atom_site_fract_x
_atom_site_fract_y
_atom_site_fract_z
Si Si1 0.890338 0.653446 0.576928
Si Si2 0.354021 0.146885 0.068254
Si Si3 0.431526 0.032763 0.570637
Si Si4 0.121554 0.855746 0.067991
Si Si5 0.954303 0.025460 0.422533
Si Si6 0.520289 0.143712 0.569440
Si Si7 0.817304 0.533215 0.430042
Si Si8 0.259675 0.354825 0.432110
O O1 0.910790 0.750000 0.500000
O O2 0.872890 0.672329 0.750000
O O3 0.928732 0.575620 0.578263
O O4 0.850159 0.621359 0.469232
O O5 0.348697 0.156769 0.250000
O O6 0.370809 0.250000 0.000000
O O7 0.389168 0.063998 0.026720
O O8 0.307524 0.117194 0.995319
O O9 0.419587 0.031520 0.750000
O O10 0.470993 0.107703 0.534057
O O11 0.444584 0.924612 0.516205
O O12 0.119702 0.849355 0.250000
O O13 0.160206 0.930894 0.014459
O O14 0.133258 0.750000 0.000000
O O15 0.073629 0.891639 0.011195
O O16 0.962402 0.064601 0.250000
O O17 0.000000 0.000000 0.500000
O O18 0.526501 0.250000 0.500000
O O19 0.530303 0.142962 0.750000
O O20 0.807331 0.530812 0.250000
O O21 0.772113 0.555374 0.519492
O O22 0.243709 0.250000 0.500000
O O23 0.261325 0.345426 0.250000
#
# Coordination Sequence:
#
# PCOD8232232 Si02
#       8
#     8   8   8   8   8   8   8   8
#     4  10  20  33  50  73  99 130 163 199 242 291
#     4  11  21  34  52  76 107 140 175 213 258 312
#     4  10  20  34  52  75 104 138 177 219 265 315
#     4  10  21  37  58  80 104 135 173 215 259 304
#     4  10  21  36  53  74 103 135 171 210 251 298
#     4  10  20  33  51  75 103 137 177 221 266 313
#     4  10  20  35  54  77 104 133 165 205 250 299
#     4  11  21  34  53  78 108 140 172 208 254 308
#
# _framework density 17.813475
#
# number of rings (size 3 to 8) (size 9 to 14) (size 15 to 20)
#    0.000    1.750    0.000    6.000    0.000    6.000 
#    0.000    1.250    0.000    0.750    0.000    3.500 
#    0.000    0.000    0.000    0.000    0.000    0.000 
#
# Total GULP energy -793750.429470 kJ/mol
# GULP energy per Si atom -12402.350460 kJ/mol
# Density = 1.777293 g / cm^3
# Si number density = 17.813475 Si / 1000 Ang^3
#
#
#
# Elastic Constant Matrix: (Units=GPa)
#
#
# Indices 1 2 3 4 5 6 
#
# 1 103.9557 50.6790 50.6526 0.0000 0.0000 0.0000
# 2 50.6790 109.0495 48.5806 0.0000 0.0000 0.0000
# 3 50.6526 48.5806 120.6838 0.0000 0.0000 0.0000
# 4 0.0000 0.0000 0.0000 32.3040 0.0000 0.0000
# 5 0.0000 0.0000 0.0000 0.0000 31.8218 0.0000
# 6 0.0000 0.0000 0.0000 0.0000 0.0000 20.8251
#
#
#
# Elastic Compliance Matrix: (Units=1/GPa)
#
#
# Indices 1 2 3 4 5 6 
#
# 1 0.013804 -0.004672 -0.003913 0.000000 0.000000 0.000000
# 2 -0.004672 0.012755 -0.003174 0.000000 0.000000 0.000000
# 3 -0.003913 -0.003174 0.011206 0.000000 0.000000 0.000000
# 4 0.000000 0.000000 0.000000 0.030956 0.000000 0.000000
# 5 0.000000 0.000000 0.000000 0.000000 0.031425 0.000000
# 6 0.000000 0.000000 0.000000 0.000000 0.000000 0.048019
#
#
# Mechanical properties :
#
#
# Convention : Reuss Voigt Hill
#
# Bulk Modulus (GPa) = 70.18612 70.39038 70.28825
# Shear Modulus (GPa) = 28.33973 29.24198 28.79086
#
# Velocity S-wave (km/s) = 3.99296 4.05602 4.02461
# Velocity P-wave (km/s) = 7.79387 7.84449 7.81922
#
# Compressibility (1/GPa) = 0.01424783
#
# Stress axis : x y z
#
# Youngs Moduli (GPa) = 72.44480 78.39971 89.23809
#
# Poissons Ratio (x) = 0.36627 0.34918
# Poissons Ratio (y) = 0.33845 0.28321
# Poissons Ratio (z) = 0.28347 0.24882
#
# Static dielectric constant tensor:
#      x y z
#    x 3.290320 0.000000 0.000000 
#    y 0.000000 3.242390 0.000000 
#    z 0.000000 0.000000 3.531420 
# 
# 
# High freq. dielectric constant tensor:
#      x y z
#    x 1.681110 0.000000 0.000000 
#    y 0.000000 1.679280 0.000000 
#    z 0.000000 0.000000 1.710950 
# 
# From -- ./inp_files/10305.got.cif
#   From: 2010.03.12/outbox.cif.g09.slc.cpg/sg57_6_cif.got.tgz:10305.got - 2010.04.16 15:48:40.
