data_PCOD8232206
_publ_section_title
;
Structure prediction by ZEFSAII (Michael W. Deem and Ramdas Pophale) SiO2 
 PCOD8232206
Probable space group: P B C M
;
_chemical_formula_sum "Si O2"
_cell_formula_units_Z 64
_cell_length_a 23.078197
_cell_length_b 15.434761
_cell_length_c 9.053097
_cell_angle_alpha 90.000000
_cell_angle_beta 90.000000
_cell_angle_gamma 90.000000
_cell_volume 3224.771589
_symmetry_space_group_name_H-M "P B C M"
_symmetry_group_IT_number 57
_symmetry_cell_setting 'orthorhombic'
loop_
_space_group_symop_operation_xyz
x,y,z
-x,-y,1/2+z
x,1/2-y,-z
-x,1/2+y,1/2-z
-x,-y,-z
x,y,1/2-z
-x,1/2+y,z
x,1/2-y,1/2+z
loop_
_atom_site_type_symbol
_atom_site_label
_atom_site_fract_x
_atom_site_fract_y
_atom_site_fract_z
Si Si1 0.573249 0.552642 0.580802
Si Si2 0.010645 0.910146 0.921319
Si Si3 0.811409 0.504942 0.075542
Si Si4 0.302834 0.017500 0.918356
Si Si5 0.134800 0.658848 0.426279
Si Si6 0.110245 0.164095 0.420988
Si Si7 0.350921 0.828755 0.581114
Si Si8 0.456077 0.616109 0.917472
O O1 0.569874 0.513951 0.750000
O O2 0.640833 0.579639 0.554911
O O3 0.556192 0.483672 0.456960
O O4 0.526270 0.631005 0.565728
O O5 0.014209 0.932316 0.750000
O O6 0.957767 0.845748 0.956778
O O7 0.069334 0.864340 0.975601
O O8 0.000000 0.000000 0.000000
O O9 0.814637 0.487585 0.250000
O O10 0.857339 0.577516 0.023933
O O11 0.748472 0.542023 0.029881
O O12 0.823197 0.415936 0.988075
O O13 0.280571 0.025394 0.750000
O O14 0.321430 0.919350 0.955864
O O15 0.152087 0.750000 0.500000
O O16 0.141927 0.665380 0.250000
O O17 0.134212 0.250000 0.500000
O O18 0.122845 0.177373 0.250000
O O19 0.317104 0.750000 0.500000
O O20 0.349878 0.805974 0.750000
O O21 0.417955 0.825581 0.526243
O O22 0.436103 0.633787 0.750000
#
# Coordination Sequence:
#
# PCOD8232206 Si02
#       8
#     8   8   8   8   8   8   8   8
#     4   8  15  28  46  70  98 127 161 206 256 310
#     4  10  20  36  59  87 118 150 184 226 281 340
#     4  11  23  39  58  82 115 149 191 243 287 336
#     4   9  19  35  53  74 103 140 184 227 271 325
#     4  11  23  38  59  85 115 155 193 231 283 341
#     4  10  22  39  60  87 115 145 184 232 284 337
#     4  10  20  33  49  72 104 140 178 223 271 325
#     4   9  15  25  45  71  98 127 161 203 255 312
#
# _framework density 19.846367000000001
#
# number of rings (size 3 to 8) (size 9 to 14) (size 15 to 20)
#    0.000    2.250    1.250    2.625    0.000    5.500 
#    0.000    1.250    0.000    0.750    0.000    1.750 
#    0.000    0.000    0.000    0.000    0.000    0.000 
#
# Total GULP energy -793153.628940 kJ/mol
# GULP energy per Si atom -12393.025452 kJ/mol
# Density = 1.980120 g / cm^3
# Si number density = 19.846367 Si / 1000 Ang^3
#
#
#
# Elastic Constant Matrix: (Units=GPa)
#
#
# Indices 1 2 3 4 5 6 
#
# 1 94.3470 2.6361 23.7421 0.0000 0.0000 0.0000
# 2 2.6361 62.9966 21.5637 0.0000 0.0000 0.0000
# 3 23.7421 21.5637 60.3190 0.0000 0.0000 0.0000
# 4 0.0000 0.0000 0.0000 31.3118 0.0000 0.0000
# 5 0.0000 0.0000 0.0000 0.0000 30.2013 0.0000
# 6 0.0000 0.0000 0.0000 0.0000 0.0000 11.1470
#
#
#
# Elastic Compliance Matrix: (Units=1/GPa)
#
#
# Indices 1 2 3 4 5 6 
#
# 1 0.011851 0.001254 -0.005113 0.000000 0.000000 0.000000
# 2 0.001254 0.018220 -0.007007 0.000000 0.000000 0.000000
# 3 -0.005113 -0.007007 0.021096 0.000000 0.000000 0.000000
# 4 0.000000 0.000000 0.000000 0.031937 0.000000 0.000000
# 5 0.000000 0.000000 0.000000 0.000000 0.033111 0.000000
# 6 0.000000 0.000000 0.000000 0.000000 0.000000 0.089711
#
#
# Mechanical properties :
#
#
# Convention : Reuss Voigt Hill
#
# Bulk Modulus (GPa) = 33.97318 34.83847 34.40583
# Shear Modulus (GPa) = 21.05538 25.84672 23.45105
#
# Velocity S-wave (km/s) = 3.26071 3.61271 3.44121
# Velocity P-wave (km/s) = 5.59746 5.91561 5.75873
#
# Compressibility (1/GPa) = 0.02943499
#
# Stress axis : x y z
#
# Youngs Moduli (GPa) = 84.38257 54.88483 47.40213
#
# Poissons Ratio (x) = -0.06884 0.24237
# Poissons Ratio (y) = -0.10584 0.33216
# Poissons Ratio (z) = 0.43145 0.38459
#
# Static dielectric constant tensor:
#      x y z
#    x 4.466860 0.000000 0.000000 
#    y 0.000000 3.452960 0.000000 
#    z 0.000000 0.000000 3.608390 
# 
# 
# High freq. dielectric constant tensor:
#      x y z
#    x 1.778440 0.000000 0.000000 
#    y 0.000000 1.741920 0.000000 
#    z 0.000000 0.000000 1.775700 
# 
# From -- ./inp_files/9457.got.cif
#   From: 2010.03.12/outbox.cif.g09.slc.cpg/sg57_5_cif.got.tgz:9457.got - 2010.04.16 15:48:40.
