data_PCOD8232222
_publ_section_title
;
Structure prediction by ZEFSAII (Michael W. Deem and Ramdas Pophale) SiO2 
 PCOD8232222
Probable space group: P B C M
;
_chemical_formula_sum "Si O2"
_cell_formula_units_Z 64
_cell_length_a 29.636154
_cell_length_b 13.623547
_cell_length_c 8.917387
_cell_angle_alpha 90.000000
_cell_angle_beta 90.000000
_cell_angle_gamma 90.000000
_cell_volume 3600.390872
_symmetry_space_group_name_H-M "P B C M"
_symmetry_group_IT_number 57
_symmetry_cell_setting 'orthorhombic'
loop_
_space_group_symop_operation_xyz
x,y,z
-x,-y,1/2+z
x,1/2-y,-z
-x,1/2+y,1/2-z
-x,-y,-z
x,y,1/2-z
-x,1/2+y,z
x,1/2-y,1/2+z
loop_
_atom_site_type_symbol
_atom_site_label
_atom_site_fract_x
_atom_site_fract_y
_atom_site_fract_z
Si Si1 0.018266 0.145489 0.575182
Si Si2 0.140846 0.850605 0.576991
Si Si3 0.930200 0.478850 0.424844
Si Si4 0.246664 0.648087 0.423250
Si Si5 0.608992 0.345834 0.417068
Si Si6 0.625662 0.644116 0.927281
Si Si7 0.310913 0.997822 0.418515
Si Si8 0.548165 0.009109 0.425867
O O1 0.018896 0.250000 0.500000
O O2 0.028244 0.154741 0.750000
O O3 0.969697 0.098598 0.542540
O O4 0.057831 0.081705 0.501370
O O5 0.125221 0.750000 0.500000
O O6 0.126745 0.844954 0.750000
O O7 0.115827 0.940608 0.498008
O O8 0.193702 0.867907 0.555920
O O9 0.922482 0.496419 0.250000
O O10 0.262184 0.750000 0.500000
O O11 0.260951 0.654754 0.250000
O O12 0.269125 0.552212 0.496629
O O13 0.627086 0.250000 0.500000
O O14 0.591795 0.321134 0.250000
O O15 0.649882 0.419504 0.411143
O O16 0.568076 0.389635 0.512380
O O17 0.631809 0.653941 0.750000
O O18 0.580988 0.581484 0.968406
O O19 0.619238 0.750000 0.000000
O O20 0.670817 0.593226 0.993259
O O21 0.296226 0.028598 0.250000
O O22 0.542047 0.017929 0.250000
O O23 0.500000 0.000000 0.500000
#
# Coordination Sequence:
#
# PCOD8232222 Si02
#       8
#     8   8   8   8   8   8   8   8
#     4  10  20  33  50  73 101 133 172 216 260 307
#     4  10  20  33  50  74 105 139 173 210 253 304
#     4  10  20  33  51  74 101 135 173 214 259 307
#     4  10  20  33  51  77 108 140 172 207 252 306
#     4  10  20  33  50  73 100 130 163 199 242 291
#     4  10  21  37  57  79 103 134 172 213 256 301
#     4  10  20  34  54  78 104 133 166 207 251 297
#     4  10  21  36  53  74 102 134 168 207 248 293
#
# _framework density 17.775846999999999
#
# number of rings (size 3 to 8) (size 9 to 14) (size 15 to 20)
#    0.000    2.000    0.000    3.750    0.000    8.500 
#    0.000    1.250    0.000    0.750    0.000    0.000 
#    0.000    0.000    0.000    0.000    0.000    0.000 
#
# Total GULP energy -793776.404553 kJ/mol
# GULP energy per Si atom -12402.756321 kJ/mol
# Density = 1.773539 g / cm^3
# Si number density = 17.775847 Si / 1000 Ang^3
#
#
#
# Elastic Constant Matrix: (Units=GPa)
#
#
# Indices 1 2 3 4 5 6 
#
# 1 50.4160 21.4660 44.4779 0.0000 0.0000 0.0000
# 2 21.4660 95.3958 63.7688 0.0000 0.0000 0.0000
# 3 44.4779 63.7688 138.1952 0.0000 0.0000 0.0000
# 4 0.0000 0.0000 0.0000 37.2860 0.0000 0.0000
# 5 0.0000 0.0000 0.0000 0.0000 31.8110 0.0000
# 6 0.0000 0.0000 0.0000 0.0000 0.0000 17.6807
#
#
#
# Elastic Compliance Matrix: (Units=1/GPa)
#
#
# Indices 1 2 3 4 5 6 
#
# 1 0.027711 -0.000396 -0.008736 0.000000 0.000000 0.000000
# 2 -0.000396 0.015164 -0.006870 0.000000 0.000000 0.000000
# 3 -0.008736 -0.006870 0.013218 0.000000 0.000000 0.000000
# 4 0.000000 0.000000 0.000000 0.026820 0.000000 0.000000
# 5 0.000000 0.000000 0.000000 0.000000 0.031436 0.000000
# 6 0.000000 0.000000 0.000000 0.000000 0.000000 0.056559
#
#
# Mechanical properties :
#
#
# Convention : Reuss Voigt Hill
#
# Bulk Modulus (GPa) = 41.51254 60.38139 50.94696
# Shear Modulus (GPa) = 23.70349 27.64184 25.67266
#
# Velocity S-wave (km/s) = 3.65563 3.94765 3.80444
# Velocity P-wave (km/s) = 6.42045 7.40409 6.92975
#
# Compressibility (1/GPa) = 0.02408911
#
# Stress axis : x y z
#
# Youngs Moduli (GPa) = 36.08740 65.94576 75.65532
#
# Poissons Ratio (x) = 0.02610 0.66092
# Poissons Ratio (y) = 0.01428 0.51974
# Poissons Ratio (z) = 0.31526 0.45304
#
# Static dielectric constant tensor:
#      x y z
#    x 3.256660 0.000000 0.000000 
#    y 0.000000 3.339450 0.000000 
#    z 0.000000 0.000000 3.625420 
# 
# 
# High freq. dielectric constant tensor:
#      x y z
#    x 1.674790 0.000000 0.000000 
#    y 0.000000 1.678850 0.000000 
#    z 0.000000 0.000000 1.710930 
# 
# From -- ./inp_files/10281.got.cif
#   From: 2010.03.12/outbox.cif.g09.slc.cpg/sg57_6_cif.got.tgz:10281.got - 2010.04.16 15:48:40.
