data_PCOD8232445
_publ_section_title
;
Structure prediction by ZEFSAII (Michael W. Deem and Ramdas Pophale) SiO2 
 PCOD8232445
Probable space group: P B C M
;
_chemical_formula_sum "Si O2"
_cell_formula_units_Z 48
_cell_length_a 30.966803
_cell_length_b 9.035172
_cell_length_c 8.853034
_cell_angle_alpha 90.000000
_cell_angle_beta 90.000000
_cell_angle_gamma 90.000000
_cell_volume 2476.993848
_symmetry_space_group_name_H-M "P B C M"
_symmetry_group_IT_number 57
_symmetry_cell_setting 'orthorhombic'
loop_
_space_group_symop_operation_xyz
x,y,z
-x,-y,1/2+z
x,1/2-y,-z
-x,1/2+y,1/2-z
-x,-y,-z
x,y,1/2-z
-x,1/2+y,z
x,1/2-y,1/2+z
loop_
_atom_site_type_symbol
_atom_site_label
_atom_site_fract_x
_atom_site_fract_y
_atom_site_fract_z
Si Si1 0.215909 0.910947 0.572635
Si Si2 0.376329 0.593535 0.925383
Si Si3 0.962586 0.091833 0.925314
Si Si4 0.300660 0.089675 0.572251
Si Si5 0.868261 0.409234 0.074298
Si Si6 0.537781 0.591809 0.424711
O O1 0.224112 0.750000 0.500000
O O2 0.211460 0.888618 0.750000
O O3 0.172129 0.989513 0.507520
O O4 0.254345 0.021523 0.530674
O O5 0.365403 0.616130 0.750000
O O6 0.417442 0.490828 0.949892
O O7 0.386751 0.750000 0.000000
O O8 0.335897 0.520476 0.006532
O O9 0.972846 0.110474 0.750000
O O10 0.915326 0.013841 0.949620
O O11 0.962342 0.250000 0.000000
O O12 0.000000 0.000000 0.000000
O O13 0.305368 0.250000 0.500000
O O14 0.307668 0.104482 0.750000
O O15 0.857465 0.393883 0.250000
O O16 0.871186 0.250000 0.000000
O O17 0.541870 0.750000 0.500000
O O18 0.500000 0.500000 0.500000
O O19 0.526546 0.612646 0.250000
#
# Coordination Sequence:
#
# PCOD8232445 Si02
#       6
#     8   8   8   8   8   8
#     4  10  20  34  55  82 108 139 180 225 273 326
#     4  11  24  41  63  90 119 153 194 239 285 336
#     4  10  20  34  53  78 107 141 181 225 274 328
#     4  11  24  40  59  84 115 151 189 231 282 337
#     4   9  17  30  51  77 104 137 177 221 270 324
#     4  11  24  41  63  91 123 159 198 241 289 341
#
# _framework density 19.378328
#
# number of rings (size 3 to 8) (size 9 to 14) (size 15 to 20)
#    0.000    1.667    0.000    5.500    0.000   11.333 
#    0.000    0.833    0.000    2.000    0.000    0.000 
#    0.000    0.000    0.000    0.000    0.000    0.000 
#
# Total GULP energy -595109.670418 kJ/mol
# GULP energy per Si atom -12398.118134 kJ/mol
# Density = 1.933422 g / cm^3
# Si number density = 19.378328 Si / 1000 Ang^3
#
#
#
# Elastic Constant Matrix: (Units=GPa)
#
#
# Indices 1 2 3 4 5 6 
#
# 1 135.1911 44.1976 83.5743 0.0000 0.0000 0.0000
# 2 44.1976 100.6535 57.8651 0.0000 0.0000 0.0000
# 3 83.5743 57.8651 141.6142 0.0000 0.0000 0.0000
# 4 0.0000 0.0000 0.0000 33.4442 0.0000 0.0000
# 5 0.0000 0.0000 0.0000 0.0000 36.6115 0.0000
# 6 0.0000 0.0000 0.0000 0.0000 0.0000 23.0951
#
#
#
# Elastic Compliance Matrix: (Units=1/GPa)
#
#
# Indices 1 2 3 4 5 6 
#
# 1 0.011826 -0.001543 -0.006349 0.000000 0.000000 0.000000
# 2 -0.001543 0.013187 -0.004478 0.000000 0.000000 0.000000
# 3 -0.006349 -0.004478 0.012638 0.000000 0.000000 0.000000
# 4 0.000000 0.000000 0.000000 0.029901 0.000000 0.000000
# 5 0.000000 0.000000 0.000000 0.000000 0.027314 0.000000
# 6 0.000000 0.000000 0.000000 0.000000 0.000000 0.043299
#
#
# Mechanical properties :
#
#
# Convention : Reuss Voigt Hill
#
# Bulk Modulus (GPa) = 77.44813 83.19251 80.32032
# Shear Modulus (GPa) = 29.90301 31.41827 30.66064
#
# Velocity S-wave (km/s) = 3.93251 4.03092 3.98202
# Velocity P-wave (km/s) = 7.78927 8.04290 7.91710
#
# Compressibility (1/GPa) = 0.01291187
#
# Stress axis : x y z
#
# Youngs Moduli (GPa) = 84.55823 75.83335 79.12787
#
# Poissons Ratio (x) = 0.11702 0.50236
# Poissons Ratio (y) = 0.13048 0.35430
# Poissons Ratio (z) = 0.53684 0.33955
#
# Static dielectric constant tensor:
#      x y z
#    x 4.301040 0.000000 0.000000 
#    y 0.000000 3.321200 0.000000 
#    z 0.000000 0.000000 3.791710 
# 
# 
# High freq. dielectric constant tensor:
#      x y z
#    x 1.781520 0.000000 0.000000 
#    y 0.000000 1.731730 0.000000 
#    z 0.000000 0.000000 1.776240 
# 
# From -- ./inp_files/10076.got.cif
#   From: 2010.03.12/outbox.cif.g09.slc.cpg/sg57_6_cif.got.tgz:10076.got - 2010.04.16 15:48:40.
