data_PCOD8232328
_publ_section_title
;
Structure prediction by ZEFSAII (Michael W. Deem and Ramdas Pophale) SiO2 
 PCOD8232328
Probable space group: P B C M
;
_chemical_formula_sum "Si O2"
_cell_formula_units_Z 48
_cell_length_a 6.153993
_cell_length_b 17.654801
_cell_length_c 22.196990
_cell_angle_alpha 90.000000
_cell_angle_beta 90.000000
_cell_angle_gamma 90.000000
_cell_volume 2411.647954
_symmetry_space_group_name_H-M "P B C M"
_symmetry_group_IT_number 57
_symmetry_cell_setting 'orthorhombic'
loop_
_space_group_symop_operation_xyz
x,y,z
-x,-y,1/2+z
x,1/2-y,-z
-x,1/2+y,1/2-z
-x,-y,-z
x,y,1/2-z
-x,1/2+y,z
x,1/2-y,1/2+z
loop_
_atom_site_type_symbol
_atom_site_label
_atom_site_fract_x
_atom_site_fract_y
_atom_site_fract_z
Si Si1 0.584357 0.909925 0.518847
Si Si2 0.823350 0.478910 0.093590
Si Si3 0.798478 0.099288 0.401147
Si Si4 0.558759 0.990596 0.179141
Si Si5 0.106757 0.281358 0.934450
Si Si6 0.201981 0.376960 0.101774
O O1 0.331924 0.902921 0.535813
O O2 0.710204 0.844919 0.556251
O O3 0.618638 0.900588 0.447878
O O4 0.668291 0.994629 0.538121
O O5 0.682618 0.473264 0.154607
O O6 0.006459 0.541406 0.099019
O O7 0.955374 0.400833 0.082246
O O8 0.901607 0.183505 0.397661
O O9 0.639731 0.072427 0.346853
O O10 0.548198 0.997332 0.250000
O O11 0.720839 0.920812 0.161814
O O12 0.201164 0.213958 0.892358
O O13 0.034443 0.250000 0.000000
#
# Coordination Sequence:
#
# PCOD8232328 Si02
#       6
#     8   8   8   8   8   8
#     4   9  18  33  53  83 114 141 174 218 273 337
#     4   9  19  33  53  78 108 142 182 229 278 327
#     4   9  19  36  58  80 108 146 184 221 271 331
#     4  10  22  38  55  77 107 147 196 241 272 305
#     4   9  19  33  53  85 120 146 171 212 275 344
#     4  10  20  33  55  84 114 144 176 221 279 333
#
# _framework density 19.903403000000001
#
# number of rings (size 3 to 8) (size 9 to 14) (size 15 to 20)
#    0.000    2.667    0.000    0.500    0.000   17.333 
#    0.000    0.833    0.000   10.000    0.000    0.000 
#    0.000    0.000    0.000    0.000    0.000    0.000 
#
# Total GULP energy -594821.630697 kJ/mol
# GULP energy per Si atom -12392.117306 kJ/mol
# Density = 1.985810 g / cm^3
# Si number density = 19.903403 Si / 1000 Ang^3
#
#
#
# Elastic Constant Matrix: (Units=GPa)
#
#
# Indices 1 2 3 4 5 6 
#
# 1 84.2868 32.0065 26.2135 0.0000 0.0000 0.0000
# 2 32.0065 112.4162 25.4952 0.0000 0.0000 0.0000
# 3 26.2135 25.4952 89.5110 0.0000 0.0000 0.0000
# 4 0.0000 0.0000 0.0000 19.5591 0.0000 0.0000
# 5 0.0000 0.0000 0.0000 0.0000 21.9441 0.0000
# 6 0.0000 0.0000 0.0000 0.0000 0.0000 19.3989
#
#
#
# Elastic Compliance Matrix: (Units=1/GPa)
#
#
# Indices 1 2 3 4 5 6 
#
# 1 0.014108 -0.003292 -0.003194 0.000000 0.000000 0.000000
# 2 -0.003292 0.010278 -0.001963 0.000000 0.000000 0.000000
# 3 -0.003194 -0.001963 0.012666 0.000000 0.000000 0.000000
# 4 0.000000 0.000000 0.000000 0.051127 0.000000 0.000000
# 5 0.000000 0.000000 0.000000 0.000000 0.045570 0.000000
# 6 0.000000 0.000000 0.000000 0.000000 0.000000 0.051549
#
#
# Mechanical properties :
#
#
# Convention : Reuss Voigt Hill
#
# Bulk Modulus (GPa) = 49.61948 50.40495 50.01222
# Shear Modulus (GPa) = 23.93311 25.68034 24.80673
#
# Velocity S-wave (km/s) = 3.47142 3.59590 3.53421
# Velocity P-wave (km/s) = 6.40718 6.52843 6.46809
#
# Compressibility (1/GPa) = 0.02015337
#
# Stress axis : x y z
#
# Youngs Moduli (GPa) = 70.88309 97.29362 78.94961
#
# Poissons Ratio (x) = 0.32033 0.25214
# Poissons Ratio (y) = 0.23337 0.15500
# Poissons Ratio (z) = 0.22638 0.19102
#
# Static dielectric constant tensor:
#      x y z
#    x 4.112920 0.000000 0.000000 
#    y 0.000000 4.055100 0.000000 
#    z 0.000000 0.000000 3.151690 
# 
# 
# High freq. dielectric constant tensor:
#      x y z
#    x 1.795270 0.000000 0.000000 
#    y 0.000000 1.779960 0.000000 
#    z 0.000000 0.000000 1.723070 
# 
# From -- ./inp_files/23664.got.cif
#   From: 2010.03.12/outbox.cif.g09.slc.cpg/sg57_12_cif.got.tgz:23664.got - 2010.04.16 15:48:40.
