data_PCOD8232153
_publ_section_title
;
Structure prediction by ZEFSAII (Michael W. Deem and Ramdas Pophale) SiO2 
 PCOD8232153
Probable space group: P B C M
;
_chemical_formula_sum "Si O2"
_cell_formula_units_Z 64
_cell_length_a 12.788455
_cell_length_b 26.098045
_cell_length_c 9.296134
_cell_angle_alpha 90.000000
_cell_angle_beta 90.000000
_cell_angle_gamma 90.000000
_cell_volume 3102.618877
_symmetry_space_group_name_H-M "P B C M"
_symmetry_group_IT_number 57
_symmetry_cell_setting 'orthorhombic'
loop_
_space_group_symop_operation_xyz
x,y,z
-x,-y,1/2+z
x,1/2-y,-z
-x,1/2+y,1/2-z
-x,-y,-z
x,y,1/2-z
-x,1/2+y,z
x,1/2-y,1/2+z
loop_
_atom_site_type_symbol
_atom_site_label
_atom_site_fract_x
_atom_site_fract_y
_atom_site_fract_z
Si Si1 0.127023 0.452579 0.093313
Si Si2 0.584834 0.882166 0.911495
Si Si3 0.002101 0.198436 0.419129
Si Si4 0.838649 0.370847 0.084363
Si Si5 0.240601 0.197864 0.081311
Si Si6 0.048020 0.560421 0.093166
Si Si7 0.388684 0.601831 0.585767
Si Si8 0.682208 0.989746 0.913594
O O1 0.145060 0.425519 0.250000
O O2 0.049180 0.500190 0.121275
O O3 0.234273 0.472329 0.030033
O O4 0.061991 0.418791 0.977511
O O5 0.563228 0.863919 0.750000
O O6 0.684617 0.849313 0.969748
O O7 0.599936 0.943288 0.917494
O O8 0.480354 0.869886 0.000065
O O9 0.974331 0.250000 0.500000
O O10 0.986742 0.206653 0.250000
O O11 0.914094 0.160108 0.477833
O O12 0.121324 0.181848 0.456525
O O13 0.873700 0.364895 0.250000
O O14 0.714565 0.362246 0.067085
O O15 0.858419 0.427947 0.021391
O O16 0.252231 0.208656 0.250000
O O17 0.273221 0.250000 0.000000
O O18 0.057842 0.588393 0.250000
O O19 0.424059 0.600282 0.750000
O O20 0.369618 0.543066 0.535001
O O21 0.727278 0.995877 0.750000
#
# Coordination Sequence:
#
# PCOD8232153 Si02
#       8
#     8   8   8   8   8   8   8   8
#     4  10  20  32  49  77 110 148 195 242 288 345
#     4  10  22  38  60  87 116 155 203 248 296 354
#     4  10  21  39  63  91 121 153 189 236 302 368
#     4  11  22  37  58  85 117 153 198 245 295 354
#     4   9  20  40  64  92 120 149 188 240 300 355
#     4  10  20  33  50  74 109 151 193 238 290 346
#     4  10  22  39  57  82 119 161 202 246 292 343
#     4  10  20  36  56  80 117 160 197 245 297 345
#
# _framework density 20.627735000000001
#
# number of rings (size 3 to 8) (size 9 to 14) (size 15 to 20)
#    0.000    2.000    1.250    1.875    1.750    4.000 
#    0.000    0.625    0.000    1.500    0.000    0.000 
#    0.000    0.000    0.000    0.000    0.000    0.000 
#
# Total GULP energy -792909.159820 kJ/mol
# GULP energy per Si atom -12389.205622 kJ/mol
# Density = 2.058078 g / cm^3
# Si number density = 20.627735 Si / 1000 Ang^3
#
#
#
# Elastic Constant Matrix: (Units=GPa)
#
#
# Indices 1 2 3 4 5 6 
#
# 1 112.4144 32.9836 59.6341 0.0000 0.0000 0.0000
# 2 32.9836 56.6490 11.3463 0.0000 0.0000 0.0000
# 3 59.6341 11.3463 111.5082 0.0000 0.0000 0.0000
# 4 0.0000 0.0000 0.0000 27.8892 0.0000 0.0000
# 5 0.0000 0.0000 0.0000 0.0000 37.6100 0.0000
# 6 0.0000 0.0000 0.0000 0.0000 0.0000 22.5746
#
#
#
# Elastic Compliance Matrix: (Units=1/GPa)
#
#
# Indices 1 2 3 4 5 6 
#
# 1 0.014822 -0.007189 -0.007195 0.000000 0.000000 0.000000
# 2 -0.007189 0.021507 0.001656 0.000000 0.000000 0.000000
# 3 -0.007195 0.001656 0.012647 0.000000 0.000000 0.000000
# 4 0.000000 0.000000 0.000000 0.035856 0.000000 0.000000
# 5 0.000000 0.000000 0.000000 0.000000 0.026589 0.000000
# 6 0.000000 0.000000 0.000000 0.000000 0.000000 0.044298
#
#
# Mechanical properties :
#
#
# Convention : Reuss Voigt Hill
#
# Bulk Modulus (GPa) = 42.51676 54.27772 48.39724
# Shear Modulus (GPa) = 26.45307 29.38858 27.92082
#
# Velocity S-wave (km/s) = 3.58495 3.77863 3.68306
# Velocity P-wave (km/s) = 6.14752 6.73851 6.44979
#
# Compressibility (1/GPa) = 0.02352014
#
# Stress axis : x y z
#
# Youngs Moduli (GPa) = 67.46789 46.49753 79.06777
#
# Poissons Ratio (x) = 0.33426 0.56891
# Poissons Ratio (y) = 0.48502 -0.13095
# Poissons Ratio (z) = 0.48544 -0.07701
#
# Static dielectric constant tensor:
#      x y z
#    x 3.579210 0.000000 0.000000 
#    y 0.000000 3.908680 0.000000 
#    z 0.000000 0.000000 4.060560 
# 
# 
# High freq. dielectric constant tensor:
#      x y z
#    x 1.797990 0.000000 0.000000 
#    y 0.000000 1.782020 0.000000 
#    z 0.000000 0.000000 1.818220 
# 
# From -- ./inp_files/3736.got.cif
#   From: 2010.03.12/outbox.cif.g09.slc.cpg/sg57_2_cif.got.tgz:3736.got - 2010.04.16 15:48:40.
