data_PCOD8232406
_publ_section_title
;
Structure prediction by ZEFSAII (Michael W. Deem and Ramdas Pophale) SiO2 
 PCOD8232406
Probable space group: P B C M
;
_chemical_formula_sum "Si O2"
_cell_formula_units_Z 64
_cell_length_a 24.644710
_cell_length_b 14.566054
_cell_length_c 9.017449
_cell_angle_alpha 90.000000
_cell_angle_beta 90.000000
_cell_angle_gamma 90.000000
_cell_volume 3237.049365
_symmetry_space_group_name_H-M "P B C M"
_symmetry_group_IT_number 57
_symmetry_cell_setting 'orthorhombic'
loop_
_space_group_symop_operation_xyz
x,y,z
-x,-y,1/2+z
x,1/2-y,-z
-x,1/2+y,1/2-z
-x,-y,-z
x,y,1/2-z
-x,1/2+y,z
x,1/2-y,1/2+z
loop_
_atom_site_type_symbol
_atom_site_label
_atom_site_fract_x
_atom_site_fract_y
_atom_site_fract_z
Si Si1 0.121353 0.474197 0.423461
Si Si2 0.368483 0.843414 0.926835
Si Si3 0.096637 0.655911 0.574980
Si Si4 0.027823 0.341599 0.422895
Si Si5 0.321308 0.471430 0.075258
Si Si6 0.476522 0.911468 0.420616
Si Si7 0.590701 0.663122 0.584022
Si Si8 0.777297 0.849390 0.425287
O O1 0.123332 0.498075 0.250000
O O2 0.129912 0.569041 0.512434
O O3 0.064148 0.428455 0.470643
O O4 0.167605 0.401760 0.467349
O O5 0.373483 0.833026 0.750000
O O6 0.325091 0.921990 0.974783
O O7 0.346939 0.750000 0.000000
O O8 0.427651 0.867135 0.989509
O O9 0.117894 0.750000 0.500000
O O10 0.105224 0.663618 0.750000
O O11 0.033997 0.639359 0.529954
O O12 0.050261 0.250000 0.500000
O O13 0.033387 0.323343 0.250000
O O14 0.315119 0.471035 0.250000
O O15 0.378726 0.427349 0.021940
O O16 0.270956 0.414075 0.009263
O O17 0.459978 0.932571 0.250000
O O18 0.525995 0.839907 0.426105
O O19 0.500000 0.000000 0.500000
O O20 0.614160 0.750000 0.500000
O O21 0.610962 0.676394 0.750000
O O22 0.775797 0.750000 0.500000
O O23 0.771960 0.834867 0.250000
#
# Coordination Sequence:
#
# PCOD8232406 Si02
#       8
#     8   8   8   8   8   8   8   8
#     4  10  20  34  53  80 112 146 184 227 277 330
#     4  11  22  39  59  81 111 146 185 230 276 329
#     4  10  20  34  53  77 108 148 187 228 275 325
#     4   9  18  31  49  77 112 147 185 227 274 329
#     4   9  19  38  58  77 108 144 179 222 274 323
#     4  11  21  35  55  81 113 149 183 220 270 324
#     4  10  20  34  52  77 106 140 174 211 260 314
#     4  10  21  38  61  85 111 144 179 224 278 328
#
# _framework density 19.771090999999998
#
# number of rings (size 3 to 8) (size 9 to 14) (size 15 to 20)
#    0.000    2.000    1.250    2.625    0.000    3.500 
#    0.000    1.875    0.000    1.500    0.000    0.000 
#    0.000    0.000    0.000    0.000    0.000    0.000 
#
# Total GULP energy -793408.401148 kJ/mol
# GULP energy per Si atom -12397.006268 kJ/mol
# Density = 1.972609 g / cm^3
# Si number density = 19.771091 Si / 1000 Ang^3
#
#
#
# Elastic Constant Matrix: (Units=GPa)
#
#
# Indices 1 2 3 4 5 6 
#
# 1 71.3077 50.1007 26.0327 0.0000 0.0000 0.0000
# 2 50.1007 181.2718 61.0212 0.0000 0.0000 0.0000
# 3 26.0327 61.0212 73.6854 0.0000 0.0000 0.0000
# 4 0.0000 0.0000 0.0000 41.0030 0.0000 0.0000
# 5 0.0000 0.0000 0.0000 0.0000 17.6327 0.0000
# 6 0.0000 0.0000 0.0000 0.0000 0.0000 30.0121
#
#
#
# Elastic Compliance Matrix: (Units=1/GPa)
#
#
# Indices 1 2 3 4 5 6 
#
# 1 0.017896 -0.003907 -0.003087 0.000000 0.000000 0.000000
# 2 -0.003907 0.008502 -0.005660 0.000000 0.000000 0.000000
# 3 -0.003087 -0.005660 0.019349 0.000000 0.000000 0.000000
# 4 0.000000 0.000000 0.000000 0.024388 0.000000 0.000000
# 5 0.000000 0.000000 0.000000 0.000000 0.056713 0.000000
# 6 0.000000 0.000000 0.000000 0.000000 0.000000 0.033320
#
#
# Mechanical properties :
#
#
# Convention : Reuss Voigt Hill
#
# Bulk Modulus (GPa) = 48.92766 66.73045 57.82905
# Shear Modulus (GPa) = 26.00247 30.33691 28.16969
#
# Velocity S-wave (km/s) = 3.63047 3.92140 3.77874
# Velocity P-wave (km/s) = 6.50957 7.37075 6.95351
#
# Compressibility (1/GPa) = 0.02043834
#
# Stress axis : x y z
#
# Youngs Moduli (GPa) = 55.87928 117.62194 51.68131
#
# Poissons Ratio (x) = 0.45954 0.15954
# Poissons Ratio (y) = 0.21832 0.29253
# Poissons Ratio (z) = 0.17250 0.66578
#
# Static dielectric constant tensor:
#      x y z
#    x 3.652320 0.000000 0.000000 
#    y 0.000000 3.582580 0.000000 
#    z 0.000000 0.000000 3.468240 
# 
# 
# High freq. dielectric constant tensor:
#      x y z
#    x 1.753040 0.000000 0.000000 
#    y 0.000000 1.784050 0.000000 
#    z 0.000000 0.000000 1.756680 
# 
# From -- ./inp_files/9316.got.cif
#   From: 2010.03.12/outbox.cif.g09.slc.cpg/sg57_5_cif.got.tgz:9316.got - 2010.04.16 15:48:40.
