data_PCOD8232291
_publ_section_title
;
Structure prediction by ZEFSAII (Michael W. Deem and Ramdas Pophale) SiO2 
 PCOD8232291
Probable space group: P B C M
;
_chemical_formula_sum "Si O2"
_cell_formula_units_Z 48
_cell_length_a 16.020621
_cell_length_b 18.524922
_cell_length_c 8.762557
_cell_angle_alpha 90.000000
_cell_angle_beta 90.000000
_cell_angle_gamma 90.000000
_cell_volume 2600.558277
_symmetry_space_group_name_H-M "P B C M"
_symmetry_group_IT_number 57
_symmetry_cell_setting 'orthorhombic'
loop_
_space_group_symop_operation_xyz
x,y,z
-x,-y,1/2+z
x,1/2-y,-z
-x,1/2+y,1/2-z
-x,-y,-z
x,y,1/2-z
-x,1/2+y,z
x,1/2-y,1/2+z
loop_
_atom_site_type_symbol
_atom_site_label
_atom_site_fract_x
_atom_site_fract_y
_atom_site_fract_z
Si Si1 0.157937 0.324486 0.427562
Si Si2 0.167222 0.902130 0.427018
Si Si3 0.247468 0.467993 0.075597
Si Si4 0.661747 0.327536 0.429930
Si Si5 0.420512 0.537074 0.072610
Si Si6 0.017047 0.826064 0.570136
O O1 0.190419 0.250000 0.500000
O O2 0.140753 0.311775 0.250000
O O3 0.228649 0.384239 0.457461
O O4 0.071840 0.350600 0.503757
O O5 0.145117 0.894214 0.250000
O O6 0.244010 0.850238 0.474339
O O7 0.086552 0.884166 0.526679
O O8 0.190980 0.984364 0.463492
O O9 0.225089 0.488454 0.250000
O O10 0.344387 0.482153 0.042416
O O11 0.641319 0.250000 0.500000
O O12 0.649821 0.324480 0.250000
O O13 0.596758 0.385542 0.496123
O O14 0.436239 0.550480 0.250000
O O15 0.500000 0.500000 0.000000
O O16 0.045105 0.750000 0.500000
O O17 0.010015 0.818845 0.750000
#
# Coordination Sequence:
#
# PCOD8232291 Si02
#       6
#     8   8   8   8   8   8
#     4  10  20  36  55  75 101 135 176 220 263 306
#     4  10  20  33  52  78 107 139 176 217 261 312
#     4   9  20  37  56  77 103 136 173 215 263 315
#     4  10  20  34  54  81 110 141 176 215 262 314
#     4  10  20  37  59  82 109 140 174 215 264 317
#     4  11  21  33  50  73 104 141 179 218 260 306
#
# _framework density 18.457576
#
# number of rings (size 3 to 8) (size 9 to 14) (size 15 to 20)
#    0.000    2.000    0.000    5.000    0.000    6.000 
#    0.000    0.833    0.000    2.000    0.000    0.000 
#    0.000    0.000    0.000    0.000    0.000    0.000 
#
# Total GULP energy -595368.684515 kJ/mol
# GULP energy per Si atom -12403.514261 kJ/mol
# Density = 1.841557 g / cm^3
# Si number density = 18.457576 Si / 1000 Ang^3
#
#
#
# Elastic Constant Matrix: (Units=GPa)
#
#
# Indices 1 2 3 4 5 6 
#
# 1 91.6839 74.0152 48.6156 0.0000 0.0000 0.0000
# 2 74.0152 134.7057 60.7802 0.0000 0.0000 0.0000
# 3 48.6156 60.7802 117.1217 0.0000 0.0000 0.0000
# 4 0.0000 0.0000 0.0000 34.4126 0.0000 0.0000
# 5 0.0000 0.0000 0.0000 0.0000 28.4876 0.0000
# 6 0.0000 0.0000 0.0000 0.0000 0.0000 27.6266
#
#
#
# Elastic Compliance Matrix: (Units=1/GPa)
#
#
# Indices 1 2 3 4 5 6 
#
# 1 0.020647 -0.009764 -0.003503 0.000000 0.000000 0.000000
# 2 -0.009764 0.014311 -0.003374 0.000000 0.000000 0.000000
# 3 -0.003503 -0.003374 0.011743 0.000000 0.000000 0.000000
# 4 0.000000 0.000000 0.000000 0.029059 0.000000 0.000000
# 5 0.000000 0.000000 0.000000 0.000000 0.035103 0.000000
# 6 0.000000 0.000000 0.000000 0.000000 0.000000 0.036197
#
#
# Mechanical properties :
#
#
# Convention : Reuss Voigt Hill
#
# Bulk Modulus (GPa) = 74.52142 78.92592 76.72367
# Shear Modulus (GPa) = 27.05414 28.77871 27.91642
#
# Velocity S-wave (km/s) = 3.83266 3.95293 3.89326
# Velocity P-wave (km/s) = 7.74905 7.98046 7.86561
#
# Compressibility (1/GPa) = 0.01341896
#
# Stress axis : x y z
#
# Youngs Moduli (GPa) = 48.43324 69.87779 85.15693
#
# Poissons Ratio (x) = 0.68228 0.29833
# Poissons Ratio (y) = 0.47290 0.28729
# Poissons Ratio (z) = 0.16967 0.23574
#
# Static dielectric constant tensor:
#      x y z
#    x 3.269760 0.000000 0.000000 
#    y 0.000000 3.376860 0.000000 
#    z 0.000000 0.000000 3.552500 
# 
# 
# High freq. dielectric constant tensor:
#      x y z
#    x 1.701490 0.000000 0.000000 
#    y 0.000000 1.714340 0.000000 
#    z 0.000000 0.000000 1.732400 
# 
# From -- ./inp_files/4647.got.cif
#   From: 2010.03.12/outbox.cif.g09.slc.cpg/sg57_3_cif.got.tgz:4647.got - 2010.04.16 15:48:40.
