data_PCOD8232841
_publ_section_title
;
Structure prediction by ZEFSAII (Michael W. Deem and Ramdas Pophale) SiO2 
 PCOD8232841
Probable space group: P B C M
;
_chemical_formula_sum "Si O2"
_cell_formula_units_Z 48
_cell_length_a 15.365107
_cell_length_b 17.868054
_cell_length_c 8.831573
_cell_angle_alpha 90.000000
_cell_angle_beta 90.000000
_cell_angle_gamma 90.000000
_cell_volume 2424.660337
_symmetry_space_group_name_H-M "P B C M"
_symmetry_group_IT_number 57
_symmetry_cell_setting 'orthorhombic'
loop_
_space_group_symop_operation_xyz
x,y,z
-x,-y,1/2+z
x,1/2-y,-z
-x,1/2+y,1/2-z
-x,-y,-z
x,y,1/2-z
-x,1/2+y,z
x,1/2-y,1/2+z
loop_
_atom_site_type_symbol
_atom_site_label
_atom_site_fract_x
_atom_site_fract_y
_atom_site_fract_z
Si Si1 0.001337 0.670896 0.927419
Si Si2 0.177619 0.404600 0.076116
Si Si3 0.850782 0.423260 0.573907
Si Si4 0.492796 0.669684 0.925653
Si Si5 0.662116 0.668283 0.071960
Si Si6 0.300250 0.668706 0.573404
O O1 0.018474 0.675460 0.750000
O O2 0.902264 0.649660 0.964939
O O3 0.024942 0.750000 0.000000
O O4 0.063599 0.608211 0.995420
O O5 0.206122 0.393929 0.250000
O O6 0.148550 0.488735 0.043466
O O7 0.257505 0.384474 0.968561
O O8 0.853300 0.403442 0.750000
O O9 0.764004 0.389211 0.503245
O O10 0.515894 0.676774 0.750000
O O11 0.397396 0.633531 0.950122
O O12 0.487550 0.750000 0.000000
O O13 0.573477 0.628191 0.008775
O O14 0.655310 0.676894 0.250000
O O15 0.675605 0.750000 0.000000
O O16 0.289753 0.750000 0.500000
O O17 0.278461 0.677156 0.750000
#
# Coordination Sequence:
#
# PCOD8232841 Si02
#       6
#     8   8   8   8   8   8
#     4  11  23  40  62  86 112 143 184 230 275 329
#     4  10  23  41  59  82 113 149 187 229 278 330
#     4  11  23  39  59  83 114 149 184 228 281 333
#     4   9  17  31  53  80 111 145 185 233 279 325
#     4  11  21  34  57  85 114 148 187 232 279 330
#     4  10  20  35  57  84 113 148 190 234 279 329
#
# _framework density 19.796588
#
# number of rings (size 3 to 8) (size 9 to 14) (size 15 to 20)
#    0.000    1.667    0.000    6.000    0.000    6.000 
#    0.000    0.833    0.000    0.000    0.000    0.000 
#    0.000    0.000    0.000    0.000    0.000    0.000 
#
# Total GULP energy -595206.307073 kJ/mol
# GULP energy per Si atom -12400.131397 kJ/mol
# Density = 1.975153 g / cm^3
# Si number density = 19.796588 Si / 1000 Ang^3
#
#
#
# Elastic Constant Matrix: (Units=GPa)
#
#
# Indices 1 2 3 4 5 6 
#
# 1 90.7425 17.5542 55.6497 0.0000 0.0000 0.0000
# 2 17.5542 53.2901 33.0645 0.0000 0.0000 0.0000
# 3 55.6497 33.0645 141.5428 0.0000 0.0000 0.0000
# 4 0.0000 0.0000 0.0000 26.3421 0.0000 0.0000
# 5 0.0000 0.0000 0.0000 0.0000 31.5438 0.0000
# 6 0.0000 0.0000 0.0000 0.0000 0.0000 9.2955
#
#
#
# Elastic Compliance Matrix: (Units=1/GPa)
#
#
# Indices 1 2 3 4 5 6 
#
# 1 0.014618 -0.001461 -0.005406 0.000000 0.000000 0.000000
# 2 -0.001461 0.022092 -0.004586 0.000000 0.000000 0.000000
# 3 -0.005406 -0.004586 0.010262 0.000000 0.000000 0.000000
# 4 0.000000 0.000000 0.000000 0.037962 0.000000 0.000000
# 5 0.000000 0.000000 0.000000 0.000000 0.031702 0.000000
# 6 0.000000 0.000000 0.000000 0.000000 0.000000 0.107579
#
#
# Mechanical properties :
#
#
# Convention : Reuss Voigt Hill
#
# Bulk Modulus (GPa) = 41.55363 55.34580 48.44972
# Shear Modulus (GPa) = 19.59680 25.39009 22.49344
#
# Velocity S-wave (km/s) = 3.14969 3.58515 3.37446
# Velocity P-wave (km/s) = 5.85349 6.71980 6.30155
#
# Compressibility (1/GPa) = 0.02406529
#
# Stress axis : x y z
#
# Youngs Moduli (GPa) = 68.40778 45.26496 97.44856
#
# Poissons Ratio (x) = 0.06614 0.52681
# Poissons Ratio (y) = 0.09995 0.44693
# Poissons Ratio (z) = 0.36982 0.20760
#
# Static dielectric constant tensor:
#      x y z
#    x 4.213340 0.000000 0.000000 
#    y 0.000000 3.321430 0.000000 
#    z 0.000000 0.000000 3.798910 
# 
# 
# High freq. dielectric constant tensor:
#      x y z
#    x 1.795850 0.000000 0.000000 
#    y 0.000000 1.744430 0.000000 
#    z 0.000000 0.000000 1.787280 
# 
# From -- ./inp_files/4712.got.cif
#   From: 2010.03.12/outbox.cif.g09.slc.cpg/sg57_3_cif.got.tgz:4712.got - 2010.04.16 15:48:40.
