data_PCOD8232823
_publ_section_title
;
Structure prediction by ZEFSAII (Michael W. Deem and Ramdas Pophale) SiO2 
 PCOD8232823
Probable space group: P B C M
;
_chemical_formula_sum "Si O2"
_cell_formula_units_Z 64
_cell_length_a 25.763696
_cell_length_b 14.668100
_cell_length_c 8.979522
_cell_angle_alpha 90.000000
_cell_angle_beta 90.000000
_cell_angle_gamma 90.000000
_cell_volume 3393.401496
_symmetry_space_group_name_H-M "P B C M"
_symmetry_group_IT_number 57
_symmetry_cell_setting 'orthorhombic'
loop_
_space_group_symop_operation_xyz
x,y,z
-x,-y,1/2+z
x,1/2-y,-z
-x,1/2+y,1/2-z
-x,-y,-z
x,y,1/2-z
-x,1/2+y,z
x,1/2-y,1/2+z
loop_
_atom_site_type_symbol
_atom_site_label
_atom_site_fract_x
_atom_site_fract_y
_atom_site_fract_z
Si Si1 0.504458 0.904026 0.574548
Si Si2 0.054658 0.497884 0.921871
Si Si3 0.795508 0.497670 0.922831
Si Si4 0.615499 0.660312 0.075642
Si Si5 0.860949 0.649296 0.071889
Si Si6 0.863827 0.349459 0.073717
Si Si7 0.673934 0.506827 0.579555
Si Si8 0.393976 0.661963 0.076401
O O1 0.506262 0.918547 0.750000
O O2 0.557164 0.857842 0.515337
O O3 0.453928 0.847479 0.525420
O O4 0.500000 0.000000 0.500000
O O5 0.042864 0.490496 0.750000
O O6 0.087549 0.408590 0.970964
O O7 0.084340 0.592053 0.958903
O O8 0.000000 0.500000 0.000000
O O9 0.812936 0.501050 0.750000
O O10 0.734284 0.488318 0.938534
O O11 0.813219 0.591100 0.004394
O O12 0.817114 0.406566 0.000980
O O13 0.615157 0.672709 0.250000
O O14 0.637262 0.750000 0.000000
O O15 0.656967 0.585340 0.031033
O O16 0.854101 0.657601 0.250000
O O17 0.863708 0.750000 0.000000
O O18 0.853946 0.339037 0.250000
O O19 0.868967 0.250000 0.000000
O O20 0.659719 0.531711 0.750000
O O21 0.641130 0.421086 0.523094
O O22 0.389578 0.675294 0.250000
O O23 0.369730 0.750000 0.000000
#
# Coordination Sequence:
#
# PCOD8232823 Si02
#       8
#     8   8   8   8   8   8   8   8
#     4  10  20  35  57  81 107 142 180 220 271 326
#     4   9  20  36  55  83 119 155 192 234 280 329
#     4  10  21  38  60  84 110 146 189 236 290 339
#     4  11  23  37  57  84 110 144 184 223 274 333
#     4  10  21  38  59  85 115 151 193 236 283 335
#     4  10  21  38  59  85 116 153 195 237 282 333
#     4  10  22  40  59  81 112 145 181 230 282 332
#     4  10  21  37  56  80 110 142 176 220 270 326
#
# _framework density 18.860130999999999
#
# number of rings (size 3 to 8) (size 9 to 14) (size 15 to 20)
#    0.000    2.000    1.250    2.625    0.000    7.000 
#    0.000    3.750    0.000    0.000    0.000    0.000 
#    0.000    0.000    0.000    0.000    0.000    0.000 
#
# Total GULP energy -793517.024999 kJ/mol
# GULP energy per Si atom -12398.703516 kJ/mol
# Density = 1.881720 g / cm^3
# Si number density = 18.860131 Si / 1000 Ang^3
#
#
#
# Elastic Constant Matrix: (Units=GPa)
#
#
# Indices 1 2 3 4 5 6 
#
# 1 89.7233 37.3118 41.4166 0.0000 0.0000 0.0000
# 2 37.3118 154.9468 58.8806 0.0000 0.0000 0.0000
# 3 41.4166 58.8806 76.3437 0.0000 0.0000 0.0000
# 4 0.0000 0.0000 0.0000 40.5207 0.0000 0.0000
# 5 0.0000 0.0000 0.0000 0.0000 30.5721 0.0000
# 6 0.0000 0.0000 0.0000 0.0000 0.0000 29.7747
#
#
#
# Elastic Compliance Matrix: (Units=1/GPa)
#
#
# Indices 1 2 3 4 5 6 
#
# 1 0.014927 -0.000732 -0.007534 0.000000 0.000000 0.000000
# 2 -0.000732 0.009165 -0.006672 0.000000 0.000000 0.000000
# 3 -0.007534 -0.006672 0.022332 0.000000 0.000000 0.000000
# 4 0.000000 0.000000 0.000000 0.024679 0.000000 0.000000
# 5 0.000000 0.000000 0.000000 0.000000 0.032710 0.000000
# 6 0.000000 0.000000 0.000000 0.000000 0.000000 0.033586
#
#
# Mechanical properties :
#
#
# Convention : Reuss Voigt Hill
#
# Bulk Modulus (GPa) = 60.42506 66.24798 63.33652
# Shear Modulus (GPa) = 28.93698 32.40047 30.66873
#
# Velocity S-wave (km/s) = 3.92126 4.14929 4.03689
# Velocity P-wave (km/s) = 7.25326 7.62612 7.44202
#
# Compressibility (1/GPa) = 0.01654943
#
# Stress axis : x y z
#
# Youngs Moduli (GPa) = 66.99147 109.10611 44.77976
#
# Poissons Ratio (x) = 0.07983 0.33736
# Poissons Ratio (y) = 0.04902 0.29877
# Poissons Ratio (z) = 0.50470 0.72795
#
# Static dielectric constant tensor:
#      x y z
#    x 3.675240 0.000000 0.000000 
#    y 0.000000 4.495840 0.000000 
#    z 0.000000 0.000000 3.501140 
# 
# 
# High freq. dielectric constant tensor:
#      x y z
#    x 1.730990 0.000000 0.000000 
#    y 0.000000 1.741210 0.000000 
#    z 0.000000 0.000000 1.738550 
# 
# From -- ./inp_files/9262.got.cif
#   From: 2010.03.12/outbox.cif.g09.slc.cpg/sg57_5_cif.got.tgz:9262.got - 2010.04.16 15:48:40.
