data_PCOD8232621
_publ_section_title
;
Structure prediction by ZEFSAII (Michael W. Deem and Ramdas Pophale) SiO2 
 PCOD8232621
Probable space group: P B C M
;
_chemical_formula_sum "Si O2"
_cell_formula_units_Z 56
_cell_length_a 8.730787
_cell_length_b 21.590064
_cell_length_c 14.881741
_cell_angle_alpha 90.000000
_cell_angle_beta 90.000000
_cell_angle_gamma 90.000000
_cell_volume 2805.182137
_symmetry_space_group_name_H-M "P B C M"
_symmetry_group_IT_number 57
_symmetry_cell_setting 'orthorhombic'
loop_
_space_group_symop_operation_xyz
x,y,z
-x,-y,1/2+z
x,1/2-y,-z
-x,1/2+y,1/2-z
-x,-y,-z
x,y,1/2-z
-x,1/2+y,z
x,1/2-y,1/2+z
loop_
_atom_site_type_symbol
_atom_site_label
_atom_site_fract_x
_atom_site_fract_y
_atom_site_fract_z
Si Si1 0.094958 0.603566 0.148758
Si Si2 0.272922 0.722160 0.408046
Si Si3 0.589924 0.683351 0.013983
Si Si4 0.637904 0.023419 0.648438
Si Si5 0.404109 0.842556 0.347075
Si Si6 0.806885 0.574936 0.031797
Si Si7 0.719930 0.517582 0.852315
O O1 0.024623 0.600402 0.250000
O O2 0.160277 0.672685 0.135506
O O3 0.229823 0.553824 0.138474
O O4 0.973460 0.588165 0.071409
O O5 0.203623 0.750000 0.500000
O O6 0.438489 0.690443 0.424822
O O7 0.294689 0.782358 0.345393
O O8 0.706494 0.635118 0.057179
O O9 0.671486 0.750000 0.000000
O O10 0.542771 0.659523 0.916171
O O11 0.668011 0.000014 0.750000
O O12 0.693166 0.094656 0.635309
O O13 0.458914 0.018901 0.624089
O O14 0.736498 0.984405 0.579774
O O15 0.483827 0.848977 0.250000
O O16 0.811727 0.560503 0.924607
O O17 0.752256 0.541304 0.750000
#
# Coordination Sequence:
#
# PCOD8232621 Si02
#       7
#     8   8   8   8   8   8   8
#     4  11  24  40  56  82 120 161 200 237 286 354
#     4   9  20  37  62  84 113 152 198 236 285 349
#     4   9  20  36  58  87 111 144 195 241 292 346
#     4  10  20  34  60  93 119 147 195 247 295 353
#     4   9  17  33  58  88 114 143 189 243 290 338
#     4  12  22  36  61  84 122 155 192 243 307 342
#     4  10  22  38  59  86 116 155 200 242 297 356
#
# _framework density 19.963052999999999
#
# number of rings (size 3 to 8) (size 9 to 14) (size 15 to 20)
#    0.000    2.286    1.429    2.571    4.000    0.571 
#    0.000    6.429    0.000    2.571    0.000    0.000 
#    0.000    0.000    0.000    0.000    0.000    0.000 
#
# Total GULP energy -694083.476205 kJ/mol
# GULP energy per Si atom -12394.347789 kJ/mol
# Density = 1.991762 g / cm^3
# Si number density = 19.963053 Si / 1000 Ang^3
#
#
#
# Elastic Constant Matrix: (Units=GPa)
#
#
# Indices 1 2 3 4 5 6 
#
# 1 70.4907 49.9792 34.3543 0.0000 0.0000 0.0000
# 2 49.9792 134.7972 47.5103 0.0000 0.0000 0.0000
# 3 34.3543 47.5103 91.9046 0.0000 0.0000 0.0000
# 4 0.0000 0.0000 0.0000 28.9929 0.0000 0.0000
# 5 0.0000 0.0000 0.0000 0.0000 19.0074 0.0000
# 6 0.0000 0.0000 0.0000 0.0000 0.0000 23.5825
#
#
#
# Elastic Compliance Matrix: (Units=1/GPa)
#
#
# Indices 1 2 3 4 5 6 
#
# 1 0.020733 -0.006060 -0.004617 0.000000 0.000000 0.000000
# 2 -0.006060 0.010843 -0.003340 0.000000 0.000000 0.000000
# 3 -0.004617 -0.003340 0.014333 0.000000 0.000000 0.000000
# 4 0.000000 0.000000 0.000000 0.034491 0.000000 0.000000
# 5 0.000000 0.000000 0.000000 0.000000 0.052611 0.000000
# 6 0.000000 0.000000 0.000000 0.000000 0.000000 0.042404
#
#
# Mechanical properties :
#
#
# Convention : Reuss Voigt Hill
#
# Bulk Modulus (GPa) = 55.94489 62.32001 59.13245
# Shear Modulus (GPa) = 23.87678 25.33980 24.60829
#
# Velocity S-wave (km/s) = 3.46215 3.56664 3.51478
# Velocity P-wave (km/s) = 6.63830 6.94598 6.79388
#
# Compressibility (1/GPa) = 0.01787473
#
# Stress axis : x y z
#
# Youngs Moduli (GPa) = 48.23187 92.22922 69.76692
#
# Poissons Ratio (x) = 0.55889 0.32215
# Poissons Ratio (y) = 0.29228 0.23301
# Poissons Ratio (z) = 0.22271 0.30804
#
# Static dielectric constant tensor:
#      x y z
#    x 3.204850 0.000000 0.000000 
#    y 0.000000 3.924220 0.000000 
#    z 0.000000 0.000000 3.828750 
# 
# 
# High freq. dielectric constant tensor:
#      x y z
#    x 1.733260 0.000000 0.000000 
#    y 0.000000 1.797340 0.000000 
#    z 0.000000 0.000000 1.789030 
# 
# From -- ./inp_files/16723.got.cif
#   From: 2010.03.12/outbox.cif.g09.slc.cpg/sg57_9_cif.got.tgz:16723.got - 2010.04.16 15:48:40.
