data_PCOD8232424
_publ_section_title
;
Structure prediction by ZEFSAII (Michael W. Deem and Ramdas Pophale) SiO2 
 PCOD8232424
Probable space group: P B C M
;
_chemical_formula_sum "Si O2"
_cell_formula_units_Z 64
_cell_length_a 15.727761
_cell_length_b 23.054632
_cell_length_c 8.892755
_cell_angle_alpha 90.000000
_cell_angle_beta 90.000000
_cell_angle_gamma 90.000000
_cell_volume 3224.492884
_symmetry_space_group_name_H-M "P B C M"
_symmetry_group_IT_number 57
_symmetry_cell_setting 'orthorhombic'
loop_
_space_group_symop_operation_xyz
x,y,z
-x,-y,1/2+z
x,1/2-y,-z
-x,1/2+y,1/2-z
-x,-y,-z
x,y,1/2-z
-x,1/2+y,z
x,1/2-y,1/2+z
loop_
_atom_site_type_symbol
_atom_site_label
_atom_site_fract_x
_atom_site_fract_y
_atom_site_fract_z
Si Si1 0.896465 0.034385 0.576408
Si Si2 0.666309 0.193858 0.077184
Si Si3 0.527360 0.808406 0.927831
Si Si4 0.409556 0.492203 0.921549
Si Si5 0.831827 0.814804 0.070452
Si Si6 0.953652 0.907923 0.572239
Si Si7 0.336638 0.386018 0.071967
Si Si8 0.278423 0.911849 0.083585
O O1 0.923560 0.040632 0.750000
O O2 0.797995 0.045112 0.546468
O O3 0.949329 0.082342 0.481776
O O4 0.908360 0.967996 0.522724
O O5 0.668925 0.206444 0.250000
O O6 0.569971 0.183124 0.022185
O O7 0.706328 0.250000 0.000000
O O8 0.723901 0.139318 0.036742
O O9 0.539981 0.806766 0.750000
O O10 0.564894 0.750000 0.000000
O O11 0.578527 0.860352 0.999970
O O12 0.422556 0.470364 0.750000
O O13 0.367385 0.555113 0.925677
O O14 0.500000 0.500000 0.000000
O O15 0.341294 0.451064 0.007302
O O16 0.838222 0.808955 0.250000
O O17 0.746645 0.849816 0.021227
O O18 0.831481 0.750000 0.000000
O O19 0.911328 0.852505 0.009766
O O20 0.949646 0.896674 0.750000
O O21 0.343397 0.387311 0.250000
O O22 0.267048 0.885030 0.250000
#
# Coordination Sequence:
#
# PCOD8232424 Si02
#       8
#     8   8   8   8   8   8   8   8
#     4   9  19  37  61  88 116 147 184 229 282 339
#     4  10  21  36  55  78 105 139 179 224 272 322
#     4  10  20  34  53  76 104 142 187 234 281 328
#     4  11  23  38  57  83 118 158 197 241 293 344
#     4  11  24  40  59  85 119 158 198 243 295 354
#     4  10  20  37  62  89 116 147 185 230 283 342
#     4  11  23  37  55  81 113 151 195 240 287 341
#     4  10  21  37  57  81 111 146 183 225 274 329
#
# _framework density 19.848082000000002
#
# number of rings (size 3 to 8) (size 9 to 14) (size 15 to 20)
#    0.000    1.750    0.000    4.125    0.000    9.500 
#    0.000    0.625    0.000    3.000    0.000    0.000 
#    0.000    0.000    0.000    0.000    0.000    0.000 
#
# Total GULP energy -793539.560411 kJ/mol
# GULP energy per Si atom -12399.055631 kJ/mol
# Density = 1.980291 g / cm^3
# Si number density = 19.848082 Si / 1000 Ang^3
#
#
#
# Elastic Constant Matrix: (Units=GPa)
#
#
# Indices 1 2 3 4 5 6 
#
# 1 79.3833 35.3742 35.6477 0.0000 0.0000 0.0000
# 2 35.3742 105.3844 41.9911 0.0000 0.0000 0.0000
# 3 35.6477 41.9911 82.4503 0.0000 0.0000 0.0000
# 4 0.0000 0.0000 0.0000 38.7343 0.0000 0.0000
# 5 0.0000 0.0000 0.0000 0.0000 27.8710 0.0000
# 6 0.0000 0.0000 0.0000 0.0000 0.0000 33.7795
#
#
#
# Elastic Compliance Matrix: (Units=1/GPa)
#
#
# Indices 1 2 3 4 5 6 
#
# 1 0.016545 -0.003392 -0.005426 0.000000 0.000000 0.000000
# 2 -0.003392 0.012600 -0.004951 0.000000 0.000000 0.000000
# 3 -0.005426 -0.004951 0.016996 0.000000 0.000000 0.000000
# 4 0.000000 0.000000 0.000000 0.025817 0.000000 0.000000
# 5 0.000000 0.000000 0.000000 0.000000 0.035880 0.000000
# 6 0.000000 0.000000 0.000000 0.000000 0.000000 0.029604
#
#
# Mechanical properties :
#
#
# Convention : Reuss Voigt Hill
#
# Bulk Modulus (GPa) = 53.75098 54.80488 54.27793
# Shear Modulus (GPa) = 29.20911 30.35731 29.78321
#
# Velocity S-wave (km/s) = 3.84035 3.91510 3.87791
# Velocity P-wave (km/s) = 6.84137 6.93610 6.88890
#
# Compressibility (1/GPa) = 0.01860431
#
# Stress axis : x y z
#
# Youngs Moduli (GPa) = 60.44110 79.36381 58.83788
#
# Poissons Ratio (x) = 0.26917 0.31925
# Poissons Ratio (y) = 0.20499 0.29129
# Poissons Ratio (z) = 0.32795 0.39291
#
# Static dielectric constant tensor:
#      x y z
#    x 3.547490 0.000000 0.000000 
#    y 0.000000 3.670630 0.000000 
#    z 0.000000 0.000000 3.679770 
# 
# 
# High freq. dielectric constant tensor:
#      x y z
#    x 1.763270 0.000000 0.000000 
#    y 0.000000 1.776860 0.000000 
#    z 0.000000 0.000000 1.781890 
# 
# From -- ./inp_files/5628.got.cif
#   From: 2010.03.12/outbox.cif.g09.slc.cpg/sg57_3_cif.got.tgz:5628.got - 2010.04.16 15:48:40.
