data_PCOD8232442
_publ_section_title
;
Structure prediction by ZEFSAII (Michael W. Deem and Ramdas Pophale) SiO2 
 PCOD8232442
Probable space group: P B C M
;
_chemical_formula_sum "Si O2"
_cell_formula_units_Z 64
_cell_length_a 27.954416
_cell_length_b 13.980441
_cell_length_c 8.868140
_cell_angle_alpha 90.000000
_cell_angle_beta 90.000000
_cell_angle_gamma 90.000000
_cell_volume 3465.802698
_symmetry_space_group_name_H-M "P B C M"
_symmetry_group_IT_number 57
_symmetry_cell_setting 'orthorhombic'
loop_
_space_group_symop_operation_xyz
x,y,z
-x,-y,1/2+z
x,1/2-y,-z
-x,1/2+y,1/2-z
-x,-y,-z
x,y,1/2-z
-x,1/2+y,z
x,1/2-y,1/2+z
loop_
_atom_site_type_symbol
_atom_site_label
_atom_site_fract_x
_atom_site_fract_y
_atom_site_fract_z
Si Si1 0.489544 0.351700 0.575085
Si Si2 0.754984 0.148304 0.071189
Si Si3 0.180958 0.493653 0.926056
Si Si4 0.071747 0.997271 0.425586
Si Si5 0.261063 0.149080 0.424280
Si Si6 0.675054 0.026171 0.571363
Si Si7 0.007268 0.648141 0.426549
Si Si8 0.574613 0.498015 0.575450
O O1 0.498526 0.250000 0.500000
O O2 0.476594 0.339359 0.750000
O O3 0.537367 0.412608 0.552270
O O4 0.445440 0.403617 0.493273
O O5 0.751597 0.156105 0.250000
O O6 0.766704 0.250000 0.000000
O O7 0.704741 0.110755 0.006336
O O8 0.798546 0.079471 0.025431
O O9 0.188116 0.519620 0.750000
O O10 0.125928 0.477223 0.969083
O O11 0.209331 0.396002 0.964789
O O12 0.066156 0.974634 0.250000
O O13 0.039116 0.086674 0.473826
O O14 0.055324 0.902854 0.514449
O O15 0.268892 0.250000 0.500000
O O16 0.265610 0.169288 0.250000
O O17 0.302341 0.075663 0.476801
O O18 0.677463 0.041059 0.750000
O O19 0.621274 0.032853 0.514760
O O20 0.000849 0.750000 0.500000
O O21 0.011778 0.661312 0.250000
O O22 0.586669 0.515191 0.750000
#
# Coordination Sequence:
#
# PCOD8232442 Si02
#       8
#     8   8   8   8   8   8   8   8
#     4  10  21  37  57  81 110 144 181 224 272 322
#     4  11  22  37  57  81 108 140 178 220 268 320
#     4   9  19  37  56  77 106 138 175 220 268 315
#     4   9  19  36  56  76 103 139 177 219 264 314
#     4   9  19  34  53  77 105 137 172 213 260 311
#     4  10  21  38  57  79 110 145 181 223 268 315
#     4  10  20  34  53  78 107 139 176 218 264 314
#     4  10  21  37  57  82 111 143 182 226 272 323
#
# _framework density 18.466141
#
# number of rings (size 3 to 8) (size 9 to 14) (size 15 to 20)
#    0.000    2.250    0.000    3.375    0.000    7.000 
#    0.000    2.500    0.000    0.000    0.000    0.000 
#    0.000    0.000    0.000    0.000    0.000    0.000 
#
# Total GULP energy -793788.659542 kJ/mol
# GULP energy per Si atom -12402.947805 kJ/mol
# Density = 1.842411 g / cm^3
# Si number density = 18.466141 Si / 1000 Ang^3
#
#
#
# Elastic Constant Matrix: (Units=GPa)
#
#
# Indices 1 2 3 4 5 6 
#
# 1 53.2497 -10.7996 17.1985 0.0000 0.0000 0.0000
# 2 -10.7996 84.2892 32.7527 0.0000 0.0000 0.0000
# 3 17.1985 32.7527 83.3590 0.0000 0.0000 0.0000
# 4 0.0000 0.0000 0.0000 29.3119 0.0000 0.0000
# 5 0.0000 0.0000 0.0000 0.0000 31.1671 0.0000
# 6 0.0000 0.0000 0.0000 0.0000 0.0000 -4.7329
#
#
#
# Elastic Compliance Matrix: (Units=1/GPa)
#
#
# Indices 1 2 3 4 5 6 
#
# 1 0.022034 0.005416 -0.006674 0.000000 0.000000 0.000000
# 2 0.005416 0.015333 -0.007142 0.000000 0.000000 0.000000
# 3 -0.006674 -0.007142 0.016179 0.000000 0.000000 0.000000
# 4 0.000000 0.000000 0.000000 0.034116 0.000000 0.000000
# 5 0.000000 0.000000 0.000000 0.000000 0.032085 0.000000
# 6 0.000000 0.000000 0.000000 0.000000 0.000000 -0.211287
#
#
# Mechanical properties :
#
#
# Convention : Reuss Voigt Hill
#
# Bulk Modulus (GPa) = 27.21332 33.24456 30.22894
# Shear Modulus (GPa) = -80.01034 23.26565 -28.37234
#
# Velocity S-wave (km/s) = -6.58955 3.55337 -3.92401
# Velocity P-wave (km/s) = 6.56714 5.90570 2.03102
#
# Compressibility (1/GPa) = 0.03674671
#
# Stress axis : x y z
#
# Youngs Moduli (GPa) = 45.38537 65.21825 61.80669
#
# Poissons Ratio (x) = -0.35325 0.41250
# Poissons Ratio (y) = -0.24583 0.44143
# Poissons Ratio (z) = 0.30291 0.46579
#
# Static dielectric constant tensor:
#      x y z
#    x 3.466020 0.000000 0.000000 
#    y 0.000000 3.547870 0.000000 
#    z 0.000000 0.000000 3.652520 
# 
# 
# High freq. dielectric constant tensor:
#      x y z
#    x 1.718220 0.000000 0.000000 
#    y 0.000000 1.717070 0.000000 
#    z 0.000000 0.000000 1.724980 
# 
# From -- ./inp_files/10319.got.cif
#   From: 2010.03.12/outbox.cif.g09.slc.cpg/sg57_6_cif.got.tgz:10319.got - 2010.04.16 15:48:40.
