data_PCOD8232111
_publ_section_title
;
Structure prediction by ZEFSAII (Michael W. Deem and Ramdas Pophale) SiO2 
 PCOD8232111
Probable space group: P B C M
;
_chemical_formula_sum "Si O2"
_cell_formula_units_Z 48
_cell_length_a 9.477842
_cell_length_b 9.866071
_cell_length_c 29.005614
_cell_angle_alpha 90.000000
_cell_angle_beta 90.000000
_cell_angle_gamma 90.000000
_cell_volume 2712.287761
_symmetry_space_group_name_H-M "P B C M"
_symmetry_group_IT_number 57
_symmetry_cell_setting 'orthorhombic'
loop_
_space_group_symop_operation_xyz
x,y,z
-x,-y,1/2+z
x,1/2-y,-z
-x,1/2+y,1/2-z
-x,-y,-z
x,y,1/2-z
-x,1/2+y,z
x,1/2-y,1/2+z
loop_
_atom_site_type_symbol
_atom_site_label
_atom_site_fract_x
_atom_site_fract_y
_atom_site_fract_z
Si Si1 0.858383 0.714135 0.197377
Si Si2 0.679368 0.116312 0.477002
Si Si3 0.344288 0.134816 0.032043
Si Si4 0.893790 0.020716 0.303305
Si Si5 0.613695 0.766429 0.627987
Si Si6 0.654243 0.048239 0.123585
O O1 0.819525 0.686050 0.250000
O O2 0.710670 0.701878 0.171426
O O3 0.969724 0.603223 0.179656
O O4 0.927455 0.862030 0.190438
O O5 0.746413 0.250000 0.500000
O O6 0.512153 0.129002 0.472496
O O7 0.732706 0.083012 0.425085
O O8 0.724227 0.003612 0.514206
O O9 0.304175 0.169127 0.084393
O O10 0.279311 0.250000 0.000000
O O11 0.856944 0.055425 0.250000
O O12 0.763137 0.063276 0.334850
O O13 0.465155 0.841048 0.634821
O O14 0.589810 0.604526 0.620881
#
# Coordination Sequence:
#
# PCOD8232111 Si02
#       6
#     8   8   8   8   8   8
#     4   9  19  37  56  74  98 132 170 206 249 303
#     4   9  17  27  44  69 100 134 165 203 240 294
#     4   9  15  27  44  67  98 134 164 196 242 289
#     4   9  19  37  57  74  98 132 169 207 250 301
#     4  10  20  31  50  78 105 132 165 208 251 294
#     4  10  20  32  49  78 107 131 164 209 252 291
#
# _framework density 17.697236
#
# number of rings (size 3 to 8) (size 9 to 14) (size 15 to 20)
#    0.000    2.667    1.667    0.000    7.000    2.000 
#    0.000    0.000    0.000    2.000    0.000    0.000 
#    0.000    0.000    0.000    0.000    0.000    0.000 
#
# Total GULP energy -594956.882461 kJ/mol
# GULP energy per Si atom -12394.935051 kJ/mol
# Density = 1.765696 g / cm^3
# Si number density = 17.697236 Si / 1000 Ang^3
#
#
#
# Elastic Constant Matrix: (Units=GPa)
#
#
# Indices 1 2 3 4 5 6 
#
# 1 35.3727 24.5603 29.3402 0.0000 0.0000 0.0000
# 2 24.5603 102.9850 43.0545 0.0000 0.0000 0.0000
# 3 29.3402 43.0545 87.9954 0.0000 0.0000 0.0000
# 4 0.0000 0.0000 0.0000 29.5053 0.0000 0.0000
# 5 0.0000 0.0000 0.0000 0.0000 5.3101 0.0000
# 6 0.0000 0.0000 0.0000 0.0000 0.0000 24.1095
#
#
#
# Elastic Compliance Matrix: (Units=1/GPa)
#
#
# Indices 1 2 3 4 5 6 
#
# 1 0.041121 -0.005122 -0.011205 0.000000 0.000000 0.000000
# 2 -0.005122 0.012845 -0.004577 0.000000 0.000000 0.000000
# 3 -0.011205 -0.004577 0.017340 0.000000 0.000000 0.000000
# 4 0.000000 0.000000 0.000000 0.033892 0.000000 0.000000
# 5 0.000000 0.000000 0.000000 0.000000 0.188319 0.000000
# 6 0.000000 0.000000 0.000000 0.000000 0.000000 0.041477
#
#
# Mechanical properties :
#
#
# Convention : Reuss Voigt Hill
#
# Bulk Modulus (GPa) = 33.90094 46.69591 40.29842
# Shear Modulus (GPa) = 12.93211 20.41153 16.67182
#
# Velocity S-wave (km/s) = 2.70616 3.39982 3.07263
# Velocity P-wave (km/s) = 5.38164 6.46954 5.95050
#
# Compressibility (1/GPa) = 0.02949771
#
# Stress axis : x y z
#
# Youngs Moduli (GPa) = 24.31863 77.84981 57.67159
#
# Poissons Ratio (x) = 0.39878 0.64618
# Poissons Ratio (y) = 0.12457 0.26396
# Poissons Ratio (z) = 0.27248 0.35632
#
# Static dielectric constant tensor:
#      x y z
#    x 2.740500 0.000000 0.000000 
#    y 0.000000 3.593150 0.000000 
#    z 0.000000 0.000000 3.525480 
# 
# 
# High freq. dielectric constant tensor:
#      x y z
#    x 1.626340 0.000000 0.000000 
#    y 0.000000 1.701920 0.000000 
#    z 0.000000 0.000000 1.698620 
# 
# From -- ./inp_files/28520.got.cif
#   From: 2010.03.12/outbox.cif.g09.slc.cpg/sg57_15_cif.got.tgz:28520.got - 2010.04.16 15:48:40.
