data_PCOD8232863
_publ_section_title
;
Structure prediction by ZEFSAII (Michael W. Deem and Ramdas Pophale) SiO2 
 PCOD8232863
Probable space group: P B C M
;
_chemical_formula_sum "Si O2"
_cell_formula_units_Z 64
_cell_length_a 24.022329
_cell_length_b 14.761319
_cell_length_c 8.708560
_cell_angle_alpha 90.000000
_cell_angle_beta 90.000000
_cell_angle_gamma 90.000000
_cell_volume 3088.066362
_symmetry_space_group_name_H-M "P B C M"
_symmetry_group_IT_number 57
_symmetry_cell_setting 'orthorhombic'
loop_
_space_group_symop_operation_xyz
x,y,z
-x,-y,1/2+z
x,1/2-y,-z
-x,1/2+y,1/2-z
-x,-y,-z
x,y,1/2-z
-x,1/2+y,z
x,1/2-y,1/2+z
loop_
_atom_site_type_symbol
_atom_site_label
_atom_site_fract_x
_atom_site_fract_y
_atom_site_fract_z
Si Si1 0.620141 0.164072 0.931293
Si Si2 0.249506 0.033409 0.427105
Si Si3 0.873892 0.968490 0.574118
Si Si4 0.651698 0.849542 0.071520
Si Si5 0.039405 0.341600 0.071018
Si Si6 0.561033 0.502523 0.931124
Si Si7 0.085348 0.841563 0.429007
Si Si8 0.260725 0.840986 0.929854
O O1 0.632516 0.172710 0.750000
O O2 0.584823 0.250000 0.000000
O O3 0.674141 0.165313 0.037703
O O4 0.590488 0.070923 0.964168
O O5 0.267314 0.027646 0.250000
O O6 0.295435 0.093911 0.511122
O O7 0.187574 0.075228 0.448040
O O8 0.241242 0.932791 0.490726
O O9 0.893288 0.958191 0.750000
O O10 0.874502 0.074898 0.527493
O O11 0.918931 0.921790 0.467949
O O12 0.661970 0.836507 0.250000
O O13 0.593750 0.902860 0.040307
O O14 0.647741 0.750000 0.000000
O O15 0.037532 0.328931 0.250000
O O16 0.977213 0.360920 0.006593
O O17 0.064066 0.250000 0.000000
O O18 0.560720 0.478792 0.750000
O O19 0.500000 0.500000 0.000000
O O20 0.110676 0.750000 0.500000
O O21 0.082587 0.825635 0.250000
O O22 0.248389 0.845769 0.750000
O O23 0.231646 0.750000 0.000000
#
# Coordination Sequence:
#
# PCOD8232863 Si02
#       8
#     8   8   8   8   8   8   8   8
#     4  11  21  36  61  90 122 158 196 242 296 354
#     4  11  23  40  62  88 121 162 205 252 307 362
#     4  10  22  38  57  85 120 155 198 252 303 359
#     4  11  25  45  69  93 123 163 209 255 304 361
#     4  10  20  35  58  84 113 153 198 248 305 363
#     4  11  24  42  65  95 129 164 204 251 305 362
#     4   9  19  36  57  84 118 155 197 245 302 364
#     4  11  21  36  59  87 118 154 196 242 295 357
#
# _framework density 20.724941999999999
#
# number of rings (size 3 to 8) (size 9 to 14) (size 15 to 20)
#    0.000    1.500    1.250    4.875    0.000    5.000 
#    0.000    2.500    0.000    0.000    0.000    0.000 
#    0.000    0.000    0.000    0.000    0.000    0.000 
#
# Total GULP energy -793271.641218 kJ/mol
# GULP energy per Si atom -12394.869394 kJ/mol
# Density = 2.067777 g / cm^3
# Si number density = 20.724942 Si / 1000 Ang^3
#
#
#
# Elastic Constant Matrix: (Units=GPa)
#
#
# Indices 1 2 3 4 5 6 
#
# 1 90.1127 39.4137 38.2057 0.0000 0.0000 0.0000
# 2 39.4137 120.3103 49.0153 0.0000 0.0000 0.0000
# 3 38.2057 49.0153 98.9742 0.0000 0.0000 0.0000
# 4 0.0000 0.0000 0.0000 42.6762 0.0000 0.0000
# 5 0.0000 0.0000 0.0000 0.0000 21.1751 0.0000
# 6 0.0000 0.0000 0.0000 0.0000 0.0000 9.7094
#
#
#
# Elastic Compliance Matrix: (Units=1/GPa)
#
#
# Indices 1 2 3 4 5 6 
#
# 1 0.014086 -0.003006 -0.003949 0.000000 0.000000 0.000000
# 2 -0.003006 0.011054 -0.004314 0.000000 0.000000 0.000000
# 3 -0.003949 -0.004314 0.013764 0.000000 0.000000 0.000000
# 4 0.000000 0.000000 0.000000 0.023432 0.000000 0.000000
# 5 0.000000 0.000000 0.000000 0.000000 0.047225 0.000000
# 6 0.000000 0.000000 0.000000 0.000000 0.000000 0.102993
#
#
# Mechanical properties :
#
#
# Convention : Reuss Voigt Hill
#
# Bulk Modulus (GPa) = 61.09801 62.51849 61.80825
# Shear Modulus (GPa) = 20.78578 26.89631 23.84105
#
# Velocity S-wave (km/s) = 3.17035 3.60637 3.39537
# Velocity P-wave (km/s) = 6.55331 6.89728 6.72750
#
# Compressibility (1/GPa) = 0.01636715
#
# Stress axis : x y z
#
# Youngs Moduli (GPa) = 70.99174 90.46393 72.65086
#
# Poissons Ratio (x) = 0.27192 0.28689
# Poissons Ratio (y) = 0.21339 0.31342
# Poissons Ratio (z) = 0.28034 0.39027
#
# Static dielectric constant tensor:
#      x y z
#    x 2.740290 0.000000 0.000000 
#    y 0.000000 3.096750 0.000000 
#    z 0.000000 0.000000 3.743100 
# 
# 
# High freq. dielectric constant tensor:
#      x y z
#    x 1.805890 0.000000 0.000000 
#    y 0.000000 1.818200 0.000000 
#    z 0.000000 0.000000 1.817970 
# 
# From -- ./inp_files/9289.got.cif
#   From: 2010.03.12/outbox.cif.g09.slc.cpg/sg57_5_cif.got.tgz:9289.got - 2010.04.16 15:48:40.
