data_PCOD8232210
_publ_section_title
;
Structure prediction by ZEFSAII (Michael W. Deem and Ramdas Pophale) SiO2 
 PCOD8232210
Probable space group: P B C M
;
_chemical_formula_sum "Si O2"
_cell_formula_units_Z 56
_cell_length_a 13.599377
_cell_length_b 23.977985
_cell_length_c 8.933134
_cell_angle_alpha 90.000000
_cell_angle_beta 90.000000
_cell_angle_gamma 90.000000
_cell_volume 2912.966876
_symmetry_space_group_name_H-M "P B C M"
_symmetry_group_IT_number 57
_symmetry_cell_setting 'orthorhombic'
loop_
_space_group_symop_operation_xyz
x,y,z
-x,-y,1/2+z
x,1/2-y,-z
-x,1/2+y,1/2-z
-x,-y,-z
x,y,1/2-z
-x,1/2+y,z
x,1/2-y,1/2+z
loop_
_atom_site_type_symbol
_atom_site_label
_atom_site_fract_x
_atom_site_fract_y
_atom_site_fract_z
Si Si1 0.728312 0.692675 0.074729
Si Si2 0.156405 0.690981 0.576310
Si Si3 0.162278 0.409132 0.424673
Si Si4 0.499301 0.192768 0.075433
Si Si5 0.768431 0.028998 0.421607
Si Si6 0.041029 0.597994 0.073915
Si Si7 0.651562 0.382082 0.078367
O O1 0.748727 0.696584 0.250000
O O2 0.614369 0.681845 0.038345
O O3 0.764067 0.750000 0.000000
O O4 0.790786 0.642949 0.007155
O O5 0.168005 0.750000 0.500000
O O6 0.129150 0.697244 0.750000
O O7 0.069526 0.658124 0.493064
O O8 0.258921 0.659821 0.552821
O O9 0.150475 0.395924 0.250000
O O10 0.231613 0.462886 0.450589
O O11 0.056826 0.423342 0.493949
O O12 0.519735 0.198784 0.250000
O O13 0.536089 0.250000 0.000000
O O14 0.558039 0.140075 0.012187
O O15 0.745836 0.043618 0.250000
O O16 0.874793 0.053445 0.466035
O O17 0.682388 0.056715 0.520027
O O18 0.022911 0.603778 0.250000
O O19 0.620714 0.387324 0.250000
#
# Coordination Sequence:
#
# PCOD8232210 Si02
#       7
#     8   8   8   8   8   8   8
#     4  10  22  40  60  83 109 140 179 224 269 317
#     4  10  20  33  49  75 109 142 177 219 266 318
#     4  11  22  37  58  82 108 141 179 222 270 319
#     4  10  20  35  57  82 110 142 179 221 267 320
#     4   9  20  37  56  80 111 144 179 220 266 316
#     4  10  20  35  55  78 106 142 181 222 266 317
#     4  10  20  33  54  82 111 143 179 220 267 319
#
# _framework density 19.224387
#
# number of rings (size 3 to 8) (size 9 to 14) (size 15 to 20)
#    0.000    2.000    0.000    3.429    0.000    6.857 
#    0.000    3.571    0.000    0.000    0.000    0.000 
#    0.000    0.000    0.000    0.000    0.000    0.000 
#
# Total GULP energy -694669.354617 kJ/mol
# GULP energy per Si atom -12404.809904 kJ/mol
# Density = 1.918063 g / cm^3
# Si number density = 19.224387 Si / 1000 Ang^3
#
#
#
# Elastic Constant Matrix: (Units=GPa)
#
#
# Indices 1 2 3 4 5 6 
#
# 1 53.2730 29.6578 33.8295 0.0000 0.0000 0.0000
# 2 29.6578 105.1333 41.7342 0.0000 0.0000 0.0000
# 3 33.8295 41.7342 91.0935 0.0000 0.0000 0.0000
# 4 0.0000 0.0000 0.0000 34.2811 0.0000 0.0000
# 5 0.0000 0.0000 0.0000 0.0000 33.1021 0.0000
# 6 0.0000 0.0000 0.0000 0.0000 0.0000 25.9942
#
#
#
# Elastic Compliance Matrix: (Units=1/GPa)
#
#
# Indices 1 2 3 4 5 6 
#
# 1 0.026056 -0.004289 -0.007711 0.000000 0.000000 0.000000
# 2 -0.004289 0.012332 -0.004057 0.000000 0.000000 0.000000
# 3 -0.007711 -0.004057 0.015700 0.000000 0.000000 0.000000
# 4 0.000000 0.000000 0.000000 0.029171 0.000000 0.000000
# 5 0.000000 0.000000 0.000000 0.000000 0.030210 0.000000
# 6 0.000000 0.000000 0.000000 0.000000 0.000000 0.038470
#
#
# Mechanical properties :
#
#
# Convention : Reuss Voigt Hill
#
# Bulk Modulus (GPa) = 45.51001 51.10473 48.30737
# Shear Modulus (GPa) = 26.12624 28.29402 27.21013
#
# Velocity S-wave (km/s) = 3.69048 3.84054 3.76626
# Velocity P-wave (km/s) = 6.47178 6.80495 6.64046
#
# Compressibility (1/GPa) = 0.02197319
#
# Stress axis : x y z
#
# Youngs Moduli (GPa) = 38.37891 81.08842 63.69318
#
# Poissons Ratio (x) = 0.34780 0.49116
# Poissons Ratio (y) = 0.16461 0.25841
# Poissons Ratio (z) = 0.29595 0.32898
#
# Static dielectric constant tensor:
#      x y z
#    x 3.399310 0.000000 0.000000 
#    y 0.000000 3.482040 0.000000 
#    z 0.000000 0.000000 3.659690 
# 
# 
# High freq. dielectric constant tensor:
#      x y z
#    x 1.735310 0.000000 0.000000 
#    y 0.000000 1.748270 0.000000 
#    z 0.000000 0.000000 1.763100 
# 
# From -- ./inp_files/5180.got.cif
#   From: 2010.03.12/outbox.cif.g09.slc.cpg/sg57_3_cif.got.tgz:5180.got - 2010.04.16 15:48:40.
