data_PCOD8232214
_publ_section_title
;
Structure prediction by ZEFSAII (Michael W. Deem and Ramdas Pophale) SiO2 
 PCOD8232214
Probable space group: P B C M
;
_chemical_formula_sum "Si O2"
_cell_formula_units_Z 56
_cell_length_a 19.415930
_cell_length_b 18.270207
_cell_length_c 8.928077
_cell_angle_alpha 90.000000
_cell_angle_beta 90.000000
_cell_angle_gamma 90.000000
_cell_volume 3167.084076
_symmetry_space_group_name_H-M "P B C M"
_symmetry_group_IT_number 57
_symmetry_cell_setting 'orthorhombic'
loop_
_space_group_symop_operation_xyz
x,y,z
-x,-y,1/2+z
x,1/2-y,-z
-x,1/2+y,1/2-z
-x,-y,-z
x,y,1/2-z
-x,1/2+y,z
x,1/2-y,1/2+z
loop_
_atom_site_type_symbol
_atom_site_label
_atom_site_fract_x
_atom_site_fract_y
_atom_site_fract_z
Si Si1 0.954025 0.061050 0.425254
Si Si2 0.150769 0.028274 0.076976
Si Si3 0.519800 0.326948 0.420138
Si Si4 0.635639 0.826188 0.080341
Si Si5 0.309670 0.457455 0.923052
Si Si6 0.933135 0.829229 0.575053
Si Si7 0.566232 0.037111 0.427139
O O1 0.950466 0.047845 0.250000
O O2 0.988862 0.140571 0.459174
O O3 0.878911 0.044693 0.494649
O O4 0.000000 0.000000 0.500000
O O5 0.130105 0.022894 0.250000
O O6 0.231585 0.019240 0.050794
O O7 0.120850 0.107332 0.018677
O O8 0.522697 0.250000 0.500000
O O9 0.546944 0.320500 0.250000
O O10 0.441816 0.358726 0.419714
O O11 0.568389 0.379554 0.516273
O O12 0.663426 0.819900 0.250000
O O13 0.635123 0.750000 0.000000
O O14 0.685755 0.874680 0.980048
O O15 0.331681 0.463203 0.750000
O O16 0.360924 0.504458 0.023949
O O17 0.920788 0.750000 0.500000
O O18 0.922217 0.816045 0.750000
O O19 0.558958 0.032372 0.250000
O O20 0.500000 0.000000 0.500000
#
# Coordination Sequence:
#
# PCOD8232214 Si02
#       7
#     8   8   8   8   8   8   8
#     4   9  17  31  52  76 103 136 175 216 253 302
#     4   9  20  36  52  75 107 142 179 218 263 316
#     4  10  20  35  55  78 103 133 170 218 273 327
#     4  10  20  33  50  72 102 137 175 215 263 324
#     4  11  22  36  54  76 107 143 179 225 276 325
#     4   9  18  32  51  79 110 139 174 211 253 303
#     4  12  23  36  55  79 106 138 181 232 278 327
#
# _framework density 17.681881000000001
#
# number of rings (size 3 to 8) (size 9 to 14) (size 15 to 20)
#    0.000    2.000    1.429    3.857    0.000    5.714 
#    0.000    1.429    0.000    0.857    0.000    2.000 
#    0.000    0.000    0.000    0.000    0.000    0.000 
#
# Total GULP energy -694004.888982 kJ/mol
# GULP energy per Si atom -12392.944446 kJ/mol
# Density = 1.764164 g / cm^3
# Si number density = 17.681881 Si / 1000 Ang^3
#
#
#
# Elastic Constant Matrix: (Units=GPa)
#
#
# Indices 1 2 3 4 5 6 
#
# 1 82.2708 34.7933 51.2245 0.0000 0.0000 0.0000
# 2 34.7933 53.8589 40.5409 0.0000 0.0000 0.0000
# 3 51.2245 40.5409 119.9751 0.0000 0.0000 0.0000
# 4 0.0000 0.0000 0.0000 32.7824 0.0000 0.0000
# 5 0.0000 0.0000 0.0000 0.0000 26.8618 0.0000
# 6 0.0000 0.0000 0.0000 0.0000 0.0000 24.8317
#
#
#
# Elastic Compliance Matrix: (Units=1/GPa)
#
#
# Indices 1 2 3 4 5 6 
#
# 1 0.018944 -0.008247 -0.005301 0.000000 0.000000 0.000000
# 2 -0.008247 0.028491 -0.006106 0.000000 0.000000 0.000000
# 3 -0.005301 -0.006106 0.012662 0.000000 0.000000 0.000000
# 4 0.000000 0.000000 0.000000 0.030504 0.000000 0.000000
# 5 0.000000 0.000000 0.000000 0.000000 0.037228 0.000000
# 6 0.000000 0.000000 0.000000 0.000000 0.000000 0.040271
#
#
# Mechanical properties :
#
#
# Convention : Reuss Voigt Hill
#
# Bulk Modulus (GPa) = 48.10700 56.58024 52.34362
# Shear Modulus (GPa) = 23.32761 25.53158 24.42960
#
# Velocity S-wave (km/s) = 3.63615 3.80404 3.72104
# Velocity P-wave (km/s) = 6.70036 7.16678 6.93749
#
# Compressibility (1/GPa) = 0.02078699
#
# Stress axis : x y z
#
# Youngs Moduli (GPa) = 52.78814 35.09856 78.97737
#
# Poissons Ratio (x) = 0.28947 0.41868
# Poissons Ratio (y) = 0.43536 0.48225
# Poissons Ratio (z) = 0.27985 0.21432
#
# Static dielectric constant tensor:
#      x y z
#    x 3.393310 0.000000 0.000000 
#    y 0.000000 3.324850 0.000000 
#    z 0.000000 0.000000 3.348150 
# 
# 
# High freq. dielectric constant tensor:
#      x y z
#    x 1.663730 0.000000 0.000000 
#    y 0.000000 1.675860 0.000000 
#    z 0.000000 0.000000 1.696960 
# 
# From -- ./inp_files/8347.got.cif
#   From: 2010.03.12/outbox.cif.g09.slc.cpg/sg57_5_cif.got.tgz:8347.got - 2010.04.16 15:48:40.
