data_PCOD8232831
_publ_section_title
;
Structure prediction by ZEFSAII (Michael W. Deem and Ramdas Pophale) SiO2 
 PCOD8232831
Probable space group: P B C M
;
_chemical_formula_sum "Si O2"
_cell_formula_units_Z 64
_cell_length_a 12.739619
_cell_length_b 28.521885
_cell_length_c 8.957269
_cell_angle_alpha 90.000000
_cell_angle_beta 90.000000
_cell_angle_gamma 90.000000
_cell_volume 3254.694884
_symmetry_space_group_name_H-M "P B C M"
_symmetry_group_IT_number 57
_symmetry_cell_setting 'orthorhombic'
loop_
_space_group_symop_operation_xyz
x,y,z
-x,-y,1/2+z
x,1/2-y,-z
-x,1/2+y,1/2-z
-x,-y,-z
x,y,1/2-z
-x,1/2+y,z
x,1/2-y,1/2+z
loop_
_atom_site_type_symbol
_atom_site_label
_atom_site_fract_x
_atom_site_fract_y
_atom_site_fract_z
Si Si1 0.104869 0.204397 0.425709
Si Si2 0.559401 0.542739 0.426289
Si Si3 0.081718 0.640782 0.074844
Si Si4 0.279143 0.801327 0.572968
Si Si5 0.236948 0.067880 0.583310
Si Si6 0.022986 0.450887 0.926592
Si Si7 0.307362 0.326494 0.415047
Si Si8 0.507239 0.353073 0.575851
O O1 0.053490 0.250000 0.500000
O O2 0.108453 0.209901 0.250000
O O3 0.222875 0.199518 0.483928
O O4 0.028994 0.162575 0.477583
O O5 0.500000 0.500000 0.500000
O O6 0.564747 0.535770 0.250000
O O7 0.676433 0.539052 0.492152
O O8 0.501399 0.591820 0.467530
O O9 0.094151 0.646199 0.250000
O O10 0.181356 0.668278 0.005663
O O11 0.071648 0.585603 0.032019
O O12 0.282610 0.750000 0.500000
O O13 0.270759 0.794332 0.750000
O O14 0.380426 0.832181 0.529685
O O15 0.220566 0.046267 0.750000
O O16 0.277082 0.119961 0.598262
O O17 0.131017 0.068544 0.490038
O O18 0.033480 0.456249 0.750000
O O19 0.000000 0.500000 0.000000
O O20 0.310294 0.303547 0.250000
O O21 0.421406 0.321952 0.489550
O O22 0.484804 0.347020 0.750000
#
# Coordination Sequence:
#
# PCOD8232831 Si02
#       8
#     8   8   8   8   8   8   8   8
#     4  11  21  35  56  84 114 148 189 235 288 349
#     4  10  20  35  57  86 118 158 203 250 303 364
#     4   9  20  38  60  83 116 156 194 238 295 358
#     4  10  21  40  62  86 115 156 202 246 299 359
#     4  10  20  36  57  81 112 151 193 245 300 354
#     4  11  22  38  59  87 119 157 199 245 299 361
#     4  10  20  35  57  83 112 147 189 239 293 347
#     4   9  20  37  58  82 116 159 198 238 297 365
#
# _framework density 19.663900999999999
#
# number of rings (size 3 to 8) (size 9 to 14) (size 15 to 20)
#    0.000    2.000    1.250    2.250    0.000    3.500 
#    0.000    5.625    0.000    0.000    0.000    0.000 
#    0.000    0.000    0.000    0.000    0.000    0.000 
#
# Total GULP energy -793373.447989 kJ/mol
# GULP energy per Si atom -12396.460125 kJ/mol
# Density = 1.961914 g / cm^3
# Si number density = 19.663901 Si / 1000 Ang^3
#
#
#
# Elastic Constant Matrix: (Units=GPa)
#
#
# Indices 1 2 3 4 5 6 
#
# 1 137.3414 57.4169 50.6791 0.0000 0.0000 0.0000
# 2 57.4169 99.3409 42.3517 0.0000 0.0000 0.0000
# 3 50.6791 42.3517 94.3468 0.0000 0.0000 0.0000
# 4 0.0000 0.0000 0.0000 33.3214 0.0000 0.0000
# 5 0.0000 0.0000 0.0000 0.0000 27.6042 0.0000
# 6 0.0000 0.0000 0.0000 0.0000 0.0000 31.1091
#
#
#
# Elastic Compliance Matrix: (Units=1/GPa)
#
#
# Indices 1 2 3 4 5 6 
#
# 1 0.010509 -0.004535 -0.003609 0.000000 0.000000 0.000000
# 2 -0.004535 0.014406 -0.004031 0.000000 0.000000 0.000000
# 3 -0.003609 -0.004031 0.014347 0.000000 0.000000 0.000000
# 4 0.000000 0.000000 0.000000 0.030011 0.000000 0.000000
# 5 0.000000 0.000000 0.000000 0.000000 0.036226 0.000000
# 6 0.000000 0.000000 0.000000 0.000000 0.000000 0.032145
#
#
# Mechanical properties :
#
#
# Convention : Reuss Voigt Hill
#
# Bulk Modulus (GPa) = 67.05949 70.21381 68.63665
# Shear Modulus (GPa) = 29.94645 30.44570 30.19607
#
# Velocity S-wave (km/s) = 3.90669 3.93912 3.92294
# Velocity P-wave (km/s) = 7.38421 7.51488 7.44983
#
# Compressibility (1/GPa) = 0.01491213
#
# Stress axis : x y z
#
# Youngs Moduli (GPa) = 95.15753 69.41554 69.70027
#
# Poissons Ratio (x) = 0.31482 0.25155
# Poissons Ratio (y) = 0.43156 0.28093
# Poissons Ratio (z) = 0.34343 0.27979
#
# Static dielectric constant tensor:
#      x y z
#    x 3.853490 0.000000 0.000000 
#    y 0.000000 3.482060 0.000000 
#    z 0.000000 0.000000 3.628760 
# 
# 
# High freq. dielectric constant tensor:
#      x y z
#    x 1.769430 0.000000 0.000000 
#    y 0.000000 1.767850 0.000000 
#    z 0.000000 0.000000 1.761830 
# 
# From -- ./inp_files/3812.got.cif
#   From: 2010.03.12/outbox.cif.g09.slc.cpg/sg57_2_cif.got.tgz:3812.got - 2010.04.16 15:48:40.
