data_PCOD8232855
_publ_section_title
;
Structure prediction by ZEFSAII (Michael W. Deem and Ramdas Pophale) SiO2 
 PCOD8232855
Probable space group: P B C M
;
_chemical_formula_sum "Si O2"
_cell_formula_units_Z 56
_cell_length_a 21.020121
_cell_length_b 15.380850
_cell_length_c 8.693966
_cell_angle_alpha 90.000000
_cell_angle_beta 90.000000
_cell_angle_gamma 90.000000
_cell_volume 2810.822918
_symmetry_space_group_name_H-M "P B C M"
_symmetry_group_IT_number 57
_symmetry_cell_setting 'orthorhombic'
loop_
_space_group_symop_operation_xyz
x,y,z
-x,-y,1/2+z
x,1/2-y,-z
-x,1/2+y,1/2-z
-x,-y,-z
x,y,1/2-z
-x,1/2+y,z
x,1/2-y,1/2+z
loop_
_atom_site_type_symbol
_atom_site_label
_atom_site_fract_x
_atom_site_fract_y
_atom_site_fract_z
Si Si1 0.419055 0.160193 0.930543
Si Si2 0.864238 0.659739 0.568288
Si Si3 0.877877 0.161795 0.567975
Si Si4 0.205902 0.497549 0.571976
Si Si5 0.004966 0.095593 0.432619
Si Si6 0.562968 0.340310 0.431737
Si Si7 0.352792 0.998992 0.428418
O O1 0.417685 0.169300 0.750000
O O2 0.490952 0.141374 0.988849
O O3 0.393222 0.250000 0.000000
O O4 0.372212 0.084588 0.981014
O O5 0.837401 0.750000 0.500000
O O6 0.873267 0.666728 0.750000
O O7 0.813797 0.584545 0.530156
O O8 0.931109 0.640664 0.488607
O O9 0.846942 0.250000 0.500000
O O10 0.884654 0.168285 0.750000
O O11 0.946679 0.152734 0.491309
O O12 0.834002 0.081200 0.518805
O O13 0.192401 0.475486 0.750000
O O14 0.279094 0.520086 0.542351
O O15 0.004863 0.090003 0.250000
O O16 0.000000 0.000000 0.500000
O O17 0.588595 0.250000 0.500000
O O18 0.567101 0.333775 0.250000
O O19 0.607406 0.417598 0.494188
O O20 0.368136 0.013959 0.250000
#
# Coordination Sequence:
#
# PCOD8232855 Si02
#       7
#     8   8   8   8   8   8   8
#     4  10  20  35  57  86 117 152 192 241 293 348
#     4  12  25  42  65  90 119 155 197 245 297 353
#     4  11  23  40  62  88 120 156 197 244 294 350
#     4  10  23  42  61  83 117 158 199 243 292 348
#     4  12  23  39  64  93 123 154 193 242 298 352
#     4   9  19  35  57  86 119 152 192 239 292 346
#     4  10  21  38  59  84 116 155 196 242 293 346
#
# _framework density 19.922989999999999
#
# number of rings (size 3 to 8) (size 9 to 14) (size 15 to 20)
#    0.000    1.429    1.429    4.286    0.000    3.429 
#    0.000    0.000    0.000    0.000    0.000    0.000 
#    0.000    0.000    0.000    0.000    0.000    0.000 
#
# Total GULP energy -694721.979012 kJ/mol
# GULP energy per Si atom -12405.749625 kJ/mol
# Density = 1.987764 g / cm^3
# Si number density = 19.922990 Si / 1000 Ang^3
#
#
#
# Elastic Constant Matrix: (Units=GPa)
#
#
# Indices 1 2 3 4 5 6 
#
# 1 66.2182 29.4505 18.8333 0.0000 0.0000 0.0000
# 2 29.4505 136.2775 40.1027 0.0000 0.0000 0.0000
# 3 18.8333 40.1027 90.5190 0.0000 0.0000 0.0000
# 4 0.0000 0.0000 0.0000 39.7596 0.0000 0.0000
# 5 0.0000 0.0000 0.0000 0.0000 25.6207 0.0000
# 6 0.0000 0.0000 0.0000 0.0000 0.0000 11.3916
#
#
#
# Elastic Compliance Matrix: (Units=1/GPa)
#
#
# Indices 1 2 3 4 5 6 
#
# 1 0.017082 -0.003042 -0.002206 0.000000 0.000000 0.000000
# 2 -0.003042 0.008980 -0.003345 0.000000 0.000000 0.000000
# 3 -0.002206 -0.003345 0.012989 0.000000 0.000000 0.000000
# 4 0.000000 0.000000 0.000000 0.025151 0.000000 0.000000
# 5 0.000000 0.000000 0.000000 0.000000 0.039031 0.000000
# 6 0.000000 0.000000 0.000000 0.000000 0.000000 0.087784
#
#
# Mechanical properties :
#
#
# Convention : Reuss Voigt Hill
#
# Bulk Modulus (GPa) = 45.74009 52.19862 48.96936
# Shear Modulus (GPa) = 23.20269 28.99626 26.09947
#
# Velocity S-wave (km/s) = 3.41635 3.81913 3.62334
# Velocity P-wave (km/s) = 6.21050 6.76053 6.49134
#
# Compressibility (1/GPa) = 0.02186266
#
# Stress axis : x y z
#
# Youngs Moduli (GPa) = 58.54063 111.35992 76.99089
#
# Poissons Ratio (x) = 0.33879 0.16986
# Poissons Ratio (y) = 0.17810 0.25756
# Poissons Ratio (z) = 0.12916 0.37254
#
# Static dielectric constant tensor:
#      x y z
#    x 3.636610 0.000000 0.000000 
#    y 0.000000 4.661650 0.000000 
#    z 0.000000 0.000000 3.606730 
# 
# 
# High freq. dielectric constant tensor:
#      x y z
#    x 1.770740 0.000000 0.000000 
#    y 0.000000 1.793720 0.000000 
#    z 0.000000 0.000000 1.779410 
# 
# From -- ./inp_files/8016.got.cif
#   From: 2010.03.12/outbox.cif.g09.slc.cpg/sg57_5_cif.got.tgz:8016.got - 2010.04.16 15:48:40.
