data_PCOD8232414
_publ_section_title
;
Structure prediction by ZEFSAII (Michael W. Deem and Ramdas Pophale) SiO2 
 PCOD8232414
Probable space group: P B C M
;
_chemical_formula_sum "Si O2"
_cell_formula_units_Z 48
_cell_length_a 12.593481
_cell_length_b 23.443780
_cell_length_c 8.778115
_cell_angle_alpha 90.000000
_cell_angle_beta 90.000000
_cell_angle_gamma 90.000000
_cell_volume 2591.640121
_symmetry_space_group_name_H-M "P B C M"
_symmetry_group_IT_number 57
_symmetry_cell_setting 'orthorhombic'
loop_
_space_group_symop_operation_xyz
x,y,z
-x,-y,1/2+z
x,1/2-y,-z
-x,1/2+y,1/2-z
-x,-y,-z
x,y,1/2-z
-x,1/2+y,z
x,1/2-y,1/2+z
loop_
_atom_site_type_symbol
_atom_site_label
_atom_site_fract_x
_atom_site_fract_y
_atom_site_fract_z
Si Si1 0.001811 0.310755 0.071140
Si Si2 0.617853 0.809585 0.429594
Si Si3 0.792551 0.376356 0.071184
Si Si4 0.189706 0.391008 0.071422
Si Si5 0.883980 0.002486 0.570963
Si Si6 0.393186 0.810323 0.930304
O O1 0.013717 0.304598 0.250000
O O2 0.886588 0.333479 0.024122
O O3 0.090406 0.354413 0.010140
O O4 0.023706 0.250000 0.000000
O O5 0.658336 0.750000 0.500000
O O6 0.602748 0.801276 0.250000
O O7 0.701977 0.858525 0.468376
O O8 0.507251 0.828307 0.504329
O O9 0.767753 0.372467 0.250000
O O10 0.825065 0.439744 0.021542
O O11 0.689070 0.359295 0.976471
O O12 0.178455 0.402898 0.250000
O O13 0.190157 0.450987 0.984697
O O14 0.899158 0.000508 0.750000
O O15 0.000000 0.000000 0.500000
O O16 0.399584 0.804399 0.750000
O O17 0.355938 0.750000 0.000000
#
# Coordination Sequence:
#
# PCOD8232414 Si02
#       6
#     8   8   8   8   8   8
#     4  10  20  34  52  79 114 144 178 227 279 333
#     4  10  20  36  60  85 116 152 188 234 284 338
#     4  10  21  38  57  80 113 148 188 234 281 331
#     4  10  21  38  57  82 115 149 188 233 281 334
#     4  11  22  38  60  83 113 152 191 234 280 337
#     4  11  22  37  59  85 115 149 190 234 282 341
#
# _framework density 18.521089
#
# number of rings (size 3 to 8) (size 9 to 14) (size 15 to 20)
#    0.000    1.667    1.667    4.500    0.000    5.333 
#    0.000    0.833    0.000    0.000    0.000    0.000 
#    0.000    0.000    0.000    0.000    0.000    0.000 
#
# Total GULP energy -595407.696186 kJ/mol
# GULP energy per Si atom -12404.327004 kJ/mol
# Density = 1.847893 g / cm^3
# Si number density = 18.521089 Si / 1000 Ang^3
#
#
#
# Elastic Constant Matrix: (Units=GPa)
#
#
# Indices 1 2 3 4 5 6 
#
# 1 107.2762 58.4922 50.2242 0.0000 0.0000 0.0000
# 2 58.4922 120.9361 47.6924 0.0000 0.0000 0.0000
# 3 50.2242 47.6924 84.7994 0.0000 0.0000 0.0000
# 4 0.0000 0.0000 0.0000 34.6763 0.0000 0.0000
# 5 0.0000 0.0000 0.0000 0.0000 26.0681 0.0000
# 6 0.0000 0.0000 0.0000 0.0000 0.0000 34.0761
#
#
#
# Elastic Compliance Matrix: (Units=1/GPa)
#
#
# Indices 1 2 3 4 5 6 
#
# 1 0.014747 -0.004739 -0.006069 0.000000 0.000000 0.000000
# 2 -0.004739 0.012149 -0.004026 0.000000 0.000000 0.000000
# 3 -0.006069 -0.004026 0.017651 0.000000 0.000000 0.000000
# 4 0.000000 0.000000 0.000000 0.028838 0.000000 0.000000
# 5 0.000000 0.000000 0.000000 0.000000 0.038361 0.000000
# 6 0.000000 0.000000 0.000000 0.000000 0.000000 0.029346
#
#
# Mechanical properties :
#
#
# Convention : Reuss Voigt Hill
#
# Bulk Modulus (GPa) = 67.20781 69.53660 68.37220
# Shear Modulus (GPa) = 28.45451 29.40430 28.92940
#
# Velocity S-wave (km/s) = 3.92386 3.98881 3.95647
# Velocity P-wave (km/s) = 7.54287 7.67073 7.60707
#
# Compressibility (1/GPa) = 0.01487922
#
# Stress axis : x y z
#
# Youngs Moduli (GPa) = 67.80988 82.31409 56.65419
#
# Poissons Ratio (x) = 0.39011 0.34382
# Poissons Ratio (y) = 0.32137 0.22807
# Poissons Ratio (z) = 0.41153 0.33136
#
# Static dielectric constant tensor:
#      x y z
#    x 3.442310 0.000000 0.000000 
#    y 0.000000 3.540360 0.000000 
#    z 0.000000 0.000000 3.369840 
# 
# 
# High freq. dielectric constant tensor:
#      x y z
#    x 1.721880 0.000000 0.000000 
#    y 0.000000 1.720540 0.000000 
#    z 0.000000 0.000000 1.721220 
# 
# From -- ./inp_files/3139.got.cif
#   From: 2010.03.12/outbox.cif.g09.slc.cpg/sg57_2_cif.got.tgz:3139.got - 2010.04.16 15:48:40.
