data_PCOD8232515
_publ_section_title
;
Structure prediction by ZEFSAII (Michael W. Deem and Ramdas Pophale) SiO2 
 PCOD8232515
Probable space group: P B C M
;
_chemical_formula_sum "Si O2"
_cell_formula_units_Z 48
_cell_length_a 31.259650
_cell_length_b 9.107616
_cell_length_c 8.661273
_cell_angle_alpha 90.000000
_cell_angle_beta 90.000000
_cell_angle_gamma 90.000000
_cell_volume 2465.872119
_symmetry_space_group_name_H-M "P B C M"
_symmetry_group_IT_number 57
_symmetry_cell_setting 'orthorhombic'
loop_
_space_group_symop_operation_xyz
x,y,z
-x,-y,1/2+z
x,1/2-y,-z
-x,1/2+y,1/2-z
-x,-y,-z
x,y,1/2-z
-x,1/2+y,z
x,1/2-y,1/2+z
loop_
_atom_site_type_symbol
_atom_site_label
_atom_site_fract_x
_atom_site_fract_y
_atom_site_fract_z
Si Si1 0.039644 0.088150 0.933863
Si Si2 0.539217 0.088958 0.067355
Si Si3 0.622168 0.588235 0.931668
Si Si4 0.292979 0.410935 0.568453
Si Si5 0.117861 0.911264 0.433543
Si Si6 0.800676 0.590513 0.069361
O O1 0.037655 0.091224 0.750000
O O2 0.037322 0.250000 0.000000
O O3 0.083154 0.015143 0.989618
O O4 0.000000 0.000000 0.000000
O O5 0.535072 0.095250 0.250000
O O6 0.582914 0.011475 0.013655
O O7 0.538603 0.250000 0.000000
O O8 0.500000 0.000000 0.000000
O O9 0.624263 0.602491 0.750000
O O10 0.616045 0.750000 0.000000
O O11 0.666078 0.508625 0.991768
O O12 0.293443 0.250000 0.500000
O O13 0.300077 0.407252 0.750000
O O14 0.246195 0.476737 0.524598
O O15 0.112446 0.750000 0.500000
O O16 0.111786 0.909232 0.250000
O O17 0.164023 0.973757 0.485133
O O18 0.803349 0.615636 0.250000
O O19 0.809664 0.750000 0.000000
#
# Coordination Sequence:
#
# PCOD8232515 Si02
#       6
#     8   8   8   8   8   8
#     4  12  25  43  65  91 120 153 191 234 283 337
#     4  11  24  40  59  82 110 143 183 227 277 332
#     4  10  20  34  54  82 111 143 181 225 274 329
#     4   9  16  29  51  79 109 144 183 227 274 327
#     4  11  23  40  59  84 117 154 194 238 286 338
#     4   9  19  34  55  82 112 145 187 233 280 331
#
# _framework density 19.465729
#
# number of rings (size 3 to 8) (size 9 to 14) (size 15 to 20)
#    0.000    1.667    0.000    6.000    0.000    7.333 
#    0.000    0.833    0.000    4.000    0.000    0.000 
#    0.000    0.000    0.000    0.000    0.000    0.000 
#
# Total GULP energy -595068.434948 kJ/mol
# GULP energy per Si atom -12397.259061 kJ/mol
# Density = 1.942142 g / cm^3
# Si number density = 19.465729 Si / 1000 Ang^3
#
#
#
# Elastic Constant Matrix: (Units=GPa)
#
#
# Indices 1 2 3 4 5 6 
#
# 1 201.1738 85.0623 71.9713 0.0000 0.0000 0.0000
# 2 85.0623 129.7543 48.6266 0.0000 0.0000 0.0000
# 3 71.9713 48.6266 102.2741 0.0000 0.0000 0.0000
# 4 0.0000 0.0000 0.0000 30.8464 0.0000 0.0000
# 5 0.0000 0.0000 0.0000 0.0000 29.5692 0.0000
# 6 0.0000 0.0000 0.0000 0.0000 0.0000 29.6304
#
#
#
# Elastic Compliance Matrix: (Units=1/GPa)
#
#
# Indices 1 2 3 4 5 6 
#
# 1 0.007919 -0.003776 -0.003777 0.000000 0.000000 0.000000
# 2 -0.003776 0.011178 -0.002658 0.000000 0.000000 0.000000
# 3 -0.003777 -0.002658 0.013699 0.000000 0.000000 0.000000
# 4 0.000000 0.000000 0.000000 0.032419 0.000000 0.000000
# 5 0.000000 0.000000 0.000000 0.000000 0.033819 0.000000
# 6 0.000000 0.000000 0.000000 0.000000 0.000000 0.033749
#
#
# Mechanical properties :
#
#
# Convention : Reuss Voigt Hill
#
# Bulk Modulus (GPa) = 80.80920 93.83587 87.32254
# Shear Modulus (GPa) = 31.78055 33.17866 32.47960
#
# Velocity S-wave (km/s) = 4.04498 4.13300 4.08922
# Velocity P-wave (km/s) = 7.96364 8.43124 8.20077
#
# Compressibility (1/GPa) = 0.01237483
#
# Stress axis : x y z
#
# Youngs Moduli (GPa) = 126.28487 89.46129 72.99604
#
# Poissons Ratio (x) = 0.33777 0.27573
# Poissons Ratio (y) = 0.47680 0.19400
# Poissons Ratio (z) = 0.47701 0.23776
#
# Static dielectric constant tensor:
#      x y z
#    x 4.747280 0.000000 0.000000 
#    y 0.000000 3.468660 0.000000 
#    z 0.000000 0.000000 3.721290 
# 
# 
# High freq. dielectric constant tensor:
#      x y z
#    x 1.789070 0.000000 0.000000 
#    y 0.000000 1.736060 0.000000 
#    z 0.000000 0.000000 1.772270 
# 
# From -- ./inp_files/10050.got.cif
#   From: 2010.03.12/outbox.cif.g09.slc.cpg/sg57_6_cif.got.tgz:10050.got - 2010.04.16 15:48:40.
