data_PCOD8232691
_publ_section_title
;
Structure prediction by ZEFSAII (Michael W. Deem and Ramdas Pophale) SiO2 
 PCOD8232691
Probable space group: P B C M
;
_chemical_formula_sum "Si O2"
_cell_formula_units_Z 56
_cell_length_a 19.348221
_cell_length_b 15.875108
_cell_length_c 9.134860
_cell_angle_alpha 90.000000
_cell_angle_beta 90.000000
_cell_angle_gamma 90.000000
_cell_volume 2805.818818
_symmetry_space_group_name_H-M "P B C M"
_symmetry_group_IT_number 57
_symmetry_cell_setting 'orthorhombic'
loop_
_space_group_symop_operation_xyz
x,y,z
-x,-y,1/2+z
x,1/2-y,-z
-x,1/2+y,1/2-z
-x,-y,-z
x,y,1/2-z
-x,1/2+y,z
x,1/2-y,1/2+z
loop_
_atom_site_type_symbol
_atom_site_label
_atom_site_fract_x
_atom_site_fract_y
_atom_site_fract_z
Si Si1 0.212586 0.082020 0.418731
Si Si2 0.646222 0.336555 0.579086
Si Si3 0.074433 0.162399 0.419831
Si Si4 0.076639 0.837464 0.919795
Si Si5 0.649792 0.666598 0.417851
Si Si6 0.573865 0.494652 0.425865
Si Si7 0.785954 0.419523 0.583362
O O1 0.207802 0.058103 0.250000
O O2 0.136797 0.105556 0.482161
O O3 0.267766 0.156594 0.444655
O O4 0.241623 0.000002 0.497740
O O5 0.623954 0.250000 0.500000
O O6 0.623075 0.334904 0.750000
O O7 0.611737 0.414438 0.495644
O O8 0.729400 0.345721 0.567418
O O9 0.076443 0.250000 0.500000
O O10 0.088115 0.180589 0.250000
O O11 0.998913 0.118892 0.444174
O O12 0.090342 0.819287 0.750000
O O13 0.139468 0.892830 0.983227
O O14 0.076934 0.750000 0.000000
O O15 0.622813 0.750000 0.500000
O O16 0.632228 0.682550 0.250000
O O17 0.612353 0.581268 0.470593
O O18 0.500000 0.500000 0.500000
O O19 0.569853 0.484101 0.250000
O O20 0.795349 0.447154 0.750000
#
# Coordination Sequence:
#
# PCOD8232691 Si02
#       7
#     8   8   8   8   8   8   8
#     4  10  20  35  54  80 113 150 193 243 297 351
#     4  11  23  40  64  93 123 162 206 251 303 358
#     4   9  18  32  51  74 106 146 190 241 294 350
#     4   9  18  33  50  74 107 145 191 242 295 350
#     4  10  22  39  62  90 121 157 198 243 294 350
#     4  11  24  44  67  94 128 162 198 246 297 359
#     4  10  21  35  54  81 114 151 196 247 297 351
#
# _framework density 19.958521999999999
#
# number of rings (size 3 to 8) (size 9 to 14) (size 15 to 20)
#    0.000    2.000    1.429    1.714    0.000    4.571 
#    0.000    1.429    0.000    0.000    0.000    0.000 
#    0.000    0.000    0.000    0.000    0.000    0.000 
#
# Total GULP energy -694152.377835 kJ/mol
# GULP energy per Si atom -12395.578176 kJ/mol
# Density = 1.991310 g / cm^3
# Si number density = 19.958522 Si / 1000 Ang^3
#
#
#
# Elastic Constant Matrix: (Units=GPa)
#
#
# Indices 1 2 3 4 5 6 
#
# 1 118.2582 48.9321 42.5110 0.0000 0.0000 0.0000
# 2 48.9321 132.5001 55.5837 0.0000 0.0000 0.0000
# 3 42.5110 55.5837 72.5830 0.0000 0.0000 0.0000
# 4 0.0000 0.0000 0.0000 36.5867 0.0000 0.0000
# 5 0.0000 0.0000 0.0000 0.0000 24.3210 0.0000
# 6 0.0000 0.0000 0.0000 0.0000 0.0000 24.2947
#
#
#
# Elastic Compliance Matrix: (Units=1/GPa)
#
#
# Indices 1 2 3 4 5 6 
#
# 1 0.011065 -0.002015 -0.004937 0.000000 0.000000 0.000000
# 2 -0.002015 0.011486 -0.007616 0.000000 0.000000 0.000000
# 3 -0.004937 -0.007616 0.022501 0.000000 0.000000 0.000000
# 4 0.000000 0.000000 0.000000 0.027332 0.000000 0.000000
# 5 0.000000 0.000000 0.000000 0.000000 0.041117 0.000000
# 6 0.000000 0.000000 0.000000 0.000000 0.000000 0.041161
#
#
# Mechanical properties :
#
#
# Convention : Reuss Voigt Hill
#
# Bulk Modulus (GPa) = 62.83126 68.59943 65.71534
# Shear Modulus (GPa) = 26.44044 28.79477 27.61760
#
# Velocity S-wave (km/s) = 3.64369 3.80245 3.72391
# Velocity P-wave (km/s) = 7.01792 7.32965 7.17548
#
# Compressibility (1/GPa) = 0.01591564
#
# Stress axis : x y z
#
# Youngs Moduli (GPa) = 90.37756 87.06146 44.44175
#
# Poissons Ratio (x) = 0.17542 0.21943
# Poissons Ratio (y) = 0.18210 0.33846
# Poissons Ratio (z) = 0.44623 0.66305
#
# Static dielectric constant tensor:
#      x y z
#    x 4.063750 0.000000 0.000000 
#    y 0.000000 3.496320 0.000000 
#    z 0.000000 0.000000 3.585060 
# 
# 
# High freq. dielectric constant tensor:
#      x y z
#    x 1.793350 0.000000 0.000000 
#    y 0.000000 1.766320 0.000000 
#    z 0.000000 0.000000 1.774830 
# 
# From -- ./inp_files/7992.got.cif
#   From: 2010.03.12/outbox.cif.g09.slc.cpg/sg57_4_cif.got.tgz:7992.got - 2010.04.16 15:48:40.
