data_PCOD8232647
_publ_section_title
;
Structure prediction by ZEFSAII (Michael W. Deem and Ramdas Pophale) SiO2 
 PCOD8232647
Probable space group: P B C M
;
_chemical_formula_sum "Si O2"
_cell_formula_units_Z 48
_cell_length_a 9.695630
_cell_length_b 30.789367
_cell_length_c 8.953545
_cell_angle_alpha 90.000000
_cell_angle_beta 90.000000
_cell_angle_gamma 90.000000
_cell_volume 2672.832939
_symmetry_space_group_name_H-M "P B C M"
_symmetry_group_IT_number 57
_symmetry_cell_setting 'orthorhombic'
loop_
_space_group_symop_operation_xyz
x,y,z
-x,-y,1/2+z
x,1/2-y,-z
-x,1/2+y,1/2-z
-x,-y,-z
x,y,1/2-z
-x,1/2+y,z
x,1/2-y,1/2+z
loop_
_atom_site_type_symbol
_atom_site_label
_atom_site_fract_x
_atom_site_fract_y
_atom_site_fract_z
Si Si1 0.826025 0.291876 0.083158
Si Si2 0.664679 0.960591 0.078352
Si Si3 0.152606 0.290803 0.086708
Si Si4 0.162014 0.619047 0.426962
Si Si5 0.127333 0.385150 0.072659
Si Si6 0.653864 0.048929 0.922075
O O1 0.763166 0.295417 0.250000
O O2 0.988984 0.285969 0.094015
O O3 0.761243 0.250000 0.000000
O O4 0.788412 0.334831 0.991053
O O5 0.690974 0.973903 0.250000
O O6 0.762637 0.921368 0.028298
O O7 0.508865 0.944972 0.055052
O O8 0.700599 0.001124 0.973601
O O9 0.219132 0.288409 0.250000
O O10 0.185359 0.338225 0.015710
O O11 0.218597 0.250000 0.000000
O O12 0.151226 0.622349 0.250000
O O13 0.274661 0.583918 0.473197
O O14 0.015629 0.603786 0.492411
O O15 0.099467 0.382593 0.250000
O O16 0.697544 0.055374 0.750000
#
# Coordination Sequence:
#
# PCOD8232647 Si02
#       6
#     8   8   8   8   8   8
#     4   9  16  28  46  70 100 132 165 203 246 291
#     4   9  19  36  56  74  94 126 166 206 252 305
#     4   8  14  24  41  65  94 125 154 188 231 280
#     4  11  21  32  49  75 104 134 168 205 245 290
#     4   9  18  33  51  73 100 128 162 205 250 294
#     4  10  20  35  54  74  97 128 165 206 252 302
#
# _framework density 17.958473000000001
#
# number of rings (size 3 to 8) (size 9 to 14) (size 15 to 20)
#    0.000    2.667    0.000    3.500    0.000    6.000 
#    0.000    0.000    0.000    1.000    0.000    2.333 
#    0.000    0.000    0.000    0.000    0.000    0.000 
#
# Total GULP energy -595085.863622 kJ/mol
# GULP energy per Si atom -12397.622159 kJ/mol
# Density = 1.791760 g / cm^3
# Si number density = 17.958473 Si / 1000 Ang^3
#
#
#
# Elastic Constant Matrix: (Units=GPa)
#
#
# Indices 1 2 3 4 5 6 
#
# 1 44.8698 53.5325 31.8453 0.0000 0.0000 0.0000
# 2 53.5325 137.4809 57.9052 0.0000 0.0000 0.0000
# 3 31.8453 57.9052 100.5246 0.0000 0.0000 0.0000
# 4 0.0000 0.0000 0.0000 36.6767 0.0000 0.0000
# 5 0.0000 0.0000 0.0000 0.0000 16.9218 0.0000
# 6 0.0000 0.0000 0.0000 0.0000 0.0000 -1.8702
#
#
#
# Elastic Compliance Matrix: (Units=1/GPa)
#
#
# Indices 1 2 3 4 5 6 
#
# 1 0.043688 -0.014764 -0.005335 0.000000 0.000000 0.000000
# 2 -0.014764 0.014593 -0.003729 0.000000 0.000000 0.000000
# 3 -0.005335 -0.003729 0.013786 0.000000 0.000000 0.000000
# 4 0.000000 0.000000 0.000000 0.027265 0.000000 0.000000
# 5 0.000000 0.000000 0.000000 0.000000 0.059095 0.000000
# 6 0.000000 0.000000 0.000000 0.000000 0.000000 -0.534694
#
#
# Mechanical properties :
#
#
# Convention : Reuss Voigt Hill
#
# Bulk Modulus (GPa) = 40.96648 63.27126 52.11887
# Shear Modulus (GPa) = -15.60195 19.65181 2.02493
#
# Velocity S-wave (km/s) = -2.95070 3.31160 1.06302
# Velocity P-wave (km/s) = 3.35446 7.06617 5.53096
#
# Compressibility (1/GPa) = 0.02441020
#
# Stress axis : x y z
#
# Youngs Moduli (GPa) = 22.88970 68.52516 72.53718
#
# Poissons Ratio (x) = 1.01171 0.38701
# Poissons Ratio (y) = 0.33794 0.27049
# Poissons Ratio (z) = 0.12212 0.25553
#
# Static dielectric constant tensor:
#      x y z
#    x 2.907950 0.000000 0.000000 
#    y 0.000000 3.577970 0.000000 
#    z 0.000000 0.000000 3.458930 
# 
# 
# High freq. dielectric constant tensor:
#      x y z
#    x 1.647370 0.000000 0.000000 
#    y 0.000000 1.711450 0.000000 
#    z 0.000000 0.000000 1.699530 
# 
# From -- ./inp_files/3289.got.cif
#   From: 2010.03.12/outbox.cif.g09.slc.cpg/sg57_2_cif.got.tgz:3289.got - 2010.04.16 15:48:40.
