data_PCOD8232788
_publ_section_title
;
Structure prediction by ZEFSAII (Michael W. Deem and Ramdas Pophale) SiO2 
 PCOD8232788
Probable space group: P B C M
;
_chemical_formula_sum "Si O2"
_cell_formula_units_Z 64
_cell_length_a 21.380325
_cell_length_b 17.912415
_cell_length_c 8.887781
_cell_angle_alpha 90.000000
_cell_angle_beta 90.000000
_cell_angle_gamma 90.000000
_cell_volume 3403.782412
_symmetry_space_group_name_H-M "P B C M"
_symmetry_group_IT_number 57
_symmetry_cell_setting 'orthorhombic'
loop_
_space_group_symop_operation_xyz
x,y,z
-x,-y,1/2+z
x,1/2-y,-z
-x,1/2+y,1/2-z
-x,-y,-z
x,y,1/2-z
-x,1/2+y,z
x,1/2-y,1/2+z
loop_
_atom_site_type_symbol
_atom_site_label
_atom_site_fract_x
_atom_site_fract_y
_atom_site_fract_z
Si Si1 0.384070 0.425379 0.925152
Si Si2 0.751304 0.406411 0.073915
Si Si3 0.938623 0.032141 0.074569
Si Si4 0.738519 0.669978 0.425880
Si Si5 0.189201 0.046558 0.574709
Si Si6 0.373833 0.915312 0.572320
Si Si7 0.502941 0.329970 0.927159
Si Si8 0.878072 0.171706 0.926554
O O1 0.387013 0.447165 0.750000
O O2 0.325025 0.373747 0.960899
O O3 0.445626 0.381685 0.978312
O O4 0.380313 0.499675 0.022119
O O5 0.742579 0.418786 0.250000
O O6 0.805941 0.347656 0.037008
O O7 0.766068 0.486441 0.003099
O O8 0.687036 0.376577 0.002188
O O9 0.949728 0.046079 0.250000
O O10 0.883073 0.973284 0.045883
O O11 0.923471 0.110679 0.997814
O O12 0.000000 0.000000 0.000000
O O13 0.732933 0.750000 0.500000
O O14 0.751292 0.678820 0.250000
O O15 0.796972 0.626493 0.500263
O O16 0.205486 0.048133 0.750000
O O17 0.366685 0.912079 0.750000
O O18 0.433443 0.868588 0.516178
O O19 0.502826 0.319129 0.750000
O O20 0.495035 0.250000 0.000000
O O21 0.890707 0.174873 0.750000
O O22 0.895109 0.250000 0.000000
#
# Coordination Sequence:
#
# PCOD8232788 Si02
#       8
#     8   8   8   8   8   8   8   8
#     4  10  21  38  58  80 108 143 189 235 283 344
#     4  10  20  35  56  82 112 148 187 230 283 339
#     4  10  21  38  62  90 120 157 197 237 281 335
#     4  11  22  35  56  84 114 148 187 233 287 341
#     4  10  20  36  58  84 115 147 185 231 277 330
#     4  11  22  35  56  83 110 144 188 235 285 342
#     4  10  23  40  55  77 108 145 188 235 287 344
#     4  10  21  37  59  87 120 156 195 240 289 340
#
# _framework density 18.802612
#
# number of rings (size 3 to 8) (size 9 to 14) (size 15 to 20)
#    0.000    1.750    1.250    3.000    0.000    5.500 
#    0.000    3.125    0.000    3.000    0.000    0.000 
#    0.000    0.000    0.000    0.000    0.000    0.000 
#
# Total GULP energy -793905.162503 kJ/mol
# GULP energy per Si atom -12404.768164 kJ/mol
# Density = 1.875982 g / cm^3
# Si number density = 18.802612 Si / 1000 Ang^3
#
#
#
# Elastic Constant Matrix: (Units=GPa)
#
#
# Indices 1 2 3 4 5 6 
#
# 1 125.2368 47.6270 53.4548 0.0000 0.0000 0.0000
# 2 47.6270 76.6655 45.8369 0.0000 0.0000 0.0000
# 3 53.4548 45.8369 90.3133 0.0000 0.0000 0.0000
# 4 0.0000 0.0000 0.0000 34.8848 0.0000 0.0000
# 5 0.0000 0.0000 0.0000 0.0000 31.7558 0.0000
# 6 0.0000 0.0000 0.0000 0.0000 0.0000 23.6072
#
#
#
# Elastic Compliance Matrix: (Units=1/GPa)
#
#
# Indices 1 2 3 4 5 6 
#
# 1 0.011664 -0.004477 -0.004632 0.000000 0.000000 0.000000
# 2 -0.004477 0.020444 -0.007726 0.000000 0.000000 0.000000
# 3 -0.004632 -0.007726 0.017735 0.000000 0.000000 0.000000
# 4 0.000000 0.000000 0.000000 0.028666 0.000000 0.000000
# 5 0.000000 0.000000 0.000000 0.000000 0.031490 0.000000
# 6 0.000000 0.000000 0.000000 0.000000 0.000000 0.042360
#
#
# Mechanical properties :
#
#
# Convention : Reuss Voigt Hill
#
# Bulk Modulus (GPa) = 61.82761 65.11699 63.47230
# Shear Modulus (GPa) = 26.12035 27.73603 26.92819
#
# Velocity S-wave (km/s) = 3.73122 3.84489 3.78848
# Velocity P-wave (km/s) = 7.17750 7.37685 7.27786
#
# Compressibility (1/GPa) = 0.01617400
#
# Stress axis : x y z
#
# Youngs Moduli (GPa) = 85.73065 48.91315 56.38472
#
# Poissons Ratio (x) = 0.21899 0.26116
# Poissons Ratio (y) = 0.38383 0.43564
# Poissons Ratio (z) = 0.39708 0.37792
#
# Static dielectric constant tensor:
#      x y z
#    x 3.634730 0.000000 0.000000 
#    y 0.000000 3.374990 0.000000 
#    z 0.000000 0.000000 3.482130 
# 
# 
# High freq. dielectric constant tensor:
#      x y z
#    x 1.733930 0.000000 0.000000 
#    y 0.000000 1.727470 0.000000 
#    z 0.000000 0.000000 1.742140 
# 
# From -- ./inp_files/8415.got.cif
#   From: 2010.03.12/outbox.cif.g09.slc.cpg/sg57_5_cif.got.tgz:8415.got - 2010.04.16 15:48:40.
