data_PCOD8232367
_publ_section_title
;
Structure prediction by ZEFSAII (Michael W. Deem and Ramdas Pophale) SiO2 
 PCOD8232367
Probable space group: P B C M
;
_chemical_formula_sum "Si O2"
_cell_formula_units_Z 48
_cell_length_a 13.323117
_cell_length_b 13.081502
_cell_length_c 15.546901
_cell_angle_alpha 90.000000
_cell_angle_beta 90.000000
_cell_angle_gamma 90.000000
_cell_volume 2709.613122
_symmetry_space_group_name_H-M "P B C M"
_symmetry_group_IT_number 57
_symmetry_cell_setting 'orthorhombic'
loop_
_space_group_symop_operation_xyz
x,y,z
-x,-y,1/2+z
x,1/2-y,-z
-x,1/2+y,1/2-z
-x,-y,-z
x,y,1/2-z
-x,1/2+y,z
x,1/2-y,1/2+z
loop_
_atom_site_type_symbol
_atom_site_label
_atom_site_fract_x
_atom_site_fract_y
_atom_site_fract_z
Si Si1 0.615432 0.024897 0.992234
Si Si2 0.287023 0.875842 0.157127
Si Si3 0.787708 0.630621 0.500914
Si Si4 0.247456 0.823550 0.581586
Si Si5 0.120493 0.497553 0.149730
Si Si6 0.887859 0.975722 0.847890
O O1 0.624821 0.086431 0.903771
O O2 0.679120 0.921017 0.988794
O O3 0.658369 0.100643 0.065636
O O4 0.500000 0.000000 0.000000
O O5 0.320683 0.913223 0.250000
O O6 0.276616 0.753088 0.157846
O O7 0.179798 0.924965 0.131241
O O8 0.768809 0.750000 0.500000
O O9 0.834558 0.593657 0.591686
O O10 0.860080 0.608130 0.419492
O O11 0.221027 0.750000 0.500000
O O12 0.153516 0.892680 0.610678
O O13 0.154354 0.485873 0.250000
O O14 0.001641 0.489911 0.141357
O O15 0.869160 0.934785 0.750000
#
# Coordination Sequence:
#
# PCOD8232367 Si02
#       6
#     8   8   8   8   8   8
#     4   9  19  36  54  71  96 130 165 206 257 305
#     4   9  17  32  52  75  99 127 165 208 247 292
#     4  10  21  34  51  74 103 137 172 212 254 300
#     4   9  18  32  53  77 101 130 167 209 252 299
#     4  10  20  34  51  77 110 141 170 206 250 300
#     4   9  19  34  52  74 104 139 174 207 246 296
#
# _framework density 17.714706
#
# number of rings (size 3 to 8) (size 9 to 14) (size 15 to 20)
#    0.000    2.667    0.000    2.000    0.000    4.667 
#    0.000    7.500    0.000    4.000    0.000    0.000 
#    0.000    0.000    0.000    0.000    0.000    0.000 
#
# Total GULP energy -594871.975536 kJ/mol
# GULP energy per Si atom -12393.166157 kJ/mol
# Density = 1.767439 g / cm^3
# Si number density = 17.714706 Si / 1000 Ang^3
#
#
#
# Elastic Constant Matrix: (Units=GPa)
#
#
# Indices 1 2 3 4 5 6 
#
# 1 102.1962 33.3093 37.9382 0.0000 0.0000 0.0000
# 2 33.3093 122.3571 36.2333 0.0000 0.0000 0.0000
# 3 37.9382 36.2333 90.4987 0.0000 0.0000 0.0000
# 4 0.0000 0.0000 0.0000 14.9796 0.0000 0.0000
# 5 0.0000 0.0000 0.0000 0.0000 15.9471 0.0000
# 6 0.0000 0.0000 0.0000 0.0000 0.0000 13.3430
#
#
#
# Elastic Compliance Matrix: (Units=1/GPa)
#
#
# Indices 1 2 3 4 5 6 
#
# 1 0.012012 -0.002018 -0.004228 0.000000 0.000000 0.000000
# 2 -0.002018 0.009611 -0.003002 0.000000 0.000000 0.000000
# 3 -0.004228 -0.003002 0.014024 0.000000 0.000000 0.000000
# 4 0.000000 0.000000 0.000000 0.066758 0.000000 0.000000
# 5 0.000000 0.000000 0.000000 0.000000 0.062707 0.000000
# 6 0.000000 0.000000 0.000000 0.000000 0.000000 0.074946
#
#
# Mechanical properties :
#
#
# Convention : Reuss Voigt Hill
#
# Bulk Modulus (GPa) = 58.30277 58.89040 58.59659
# Shear Modulus (GPa) = 18.91993 22.69200 20.80596
#
# Velocity S-wave (km/s) = 3.27163 3.58295 3.43082
# Velocity P-wave (km/s) = 6.87422 7.10159 6.98883
#
# Compressibility (1/GPa) = 0.01715184
#
# Stress axis : x y z
#
# Youngs Moduli (GPa) = 83.24766 104.04537 71.30572
#
# Poissons Ratio (x) = 0.20998 0.30146
# Poissons Ratio (y) = 0.16801 0.21406
# Poissons Ratio (z) = 0.35195 0.31235
#
# Static dielectric constant tensor:
#      x y z
#    x 3.015920 0.000000 0.000000 
#    y 0.000000 3.302340 0.000000 
#    z 0.000000 0.000000 3.632020 
# 
# 
# High freq. dielectric constant tensor:
#      x y z
#    x 1.664410 0.000000 0.000000 
#    y 0.000000 1.682030 0.000000 
#    z 0.000000 0.000000 1.698500 
# 
# From -- ./inp_files/21845.got.cif
#   From: 2010.03.12/outbox.cif.g09.slc.cpg/sg57_11_cif.got.tgz:21845.got - 2010.04.16 15:48:40.
