data_PCOD8232136
_publ_section_title
;
Structure prediction by ZEFSAII (Michael W. Deem and Ramdas Pophale) SiO2 
 PCOD8232136
Probable space group: P B C M
;
_chemical_formula_sum "Si O2"
_cell_formula_units_Z 40
_cell_length_a 13.939488
_cell_length_b 18.259154
_cell_length_c 9.022288
_cell_angle_alpha 90.000000
_cell_angle_beta 90.000000
_cell_angle_gamma 90.000000
_cell_volume 2296.382137
_symmetry_space_group_name_H-M "P B C M"
_symmetry_group_IT_number 57
_symmetry_cell_setting 'orthorhombic'
loop_
_space_group_symop_operation_xyz
x,y,z
-x,-y,1/2+z
x,1/2-y,-z
-x,1/2+y,1/2-z
-x,-y,-z
x,y,1/2-z
-x,1/2+y,z
x,1/2-y,1/2+z
loop_
_atom_site_type_symbol
_atom_site_label
_atom_site_fract_x
_atom_site_fract_y
_atom_site_fract_z
Si Si1 0.543853 0.929558 0.076349
Si Si2 0.721820 0.533988 0.417188
Si Si3 0.351149 0.869141 0.413473
Si Si4 0.901123 0.478563 0.574007
Si Si5 0.176018 0.679103 0.077879
O O1 0.560588 0.945163 0.250000
O O2 0.465815 0.863899 0.053130
O O3 0.646081 0.911362 0.998703
O O4 0.500000 0.000000 0.000000
O O5 0.741241 0.562012 0.250000
O O6 0.676620 0.453987 0.416492
O O7 0.820787 0.533027 0.508785
O O8 0.328520 0.836949 0.250000
O O9 0.288552 0.825310 0.532843
O O10 0.905482 0.488256 0.750000
O O11 0.878812 0.394507 0.528744
O O12 0.000000 0.500000 0.500000
O O13 0.168508 0.691700 0.250000
O O14 0.128317 0.750000 0.000000
#
# Coordination Sequence:
#
# PCOD8232136 Si02
#       5
#     8   8   8   8   8
#     4   9  15  23  37  59  87 118 148 179 216 261
#     4   9  16  26  41  62  89 120 151 188 231 275
#     4   8  15  26  40  60  88 119 149 182 222 268
#     4  10  20  33  49  70  95 125 161 204 251 297
#     4  10  20  32  48  69  94 124 158 195 239 291
#
# _framework density 17.418704000000002
#
# number of rings (size 3 to 8) (size 9 to 14) (size 15 to 20)
#    0.000    2.800    0.000    3.600    0.000    8.000 
#    0.000    0.000    0.000    0.000    0.000    1.400 
#    0.000    3.200    0.000    0.000    0.000    0.000 
#
# Total GULP energy -495665.744286 kJ/mol
# GULP energy per Si atom -12391.643607 kJ/mol
# Density = 1.737906 g / cm^3
# Si number density = 17.418704 Si / 1000 Ang^3
#
#
#
# Elastic Constant Matrix: (Units=GPa)
#
#
# Indices 1 2 3 4 5 6 
#
# 1 138.0868 30.8784 59.7626 0.0000 0.0000 0.0000
# 2 30.8784 40.3295 28.8146 0.0000 0.0000 0.0000
# 3 59.7626 28.8146 107.8757 0.0000 0.0000 0.0000
# 4 0.0000 0.0000 0.0000 20.0467 0.0000 0.0000
# 5 0.0000 0.0000 0.0000 0.0000 35.3773 0.0000
# 6 0.0000 0.0000 0.0000 0.0000 0.0000 12.5957
#
#
#
# Elastic Compliance Matrix: (Units=1/GPa)
#
#
# Indices 1 2 3 4 5 6 
#
# 1 0.010187 -0.004656 -0.004400 0.000000 0.000000 0.000000
# 2 -0.004656 0.032772 -0.006174 0.000000 0.000000 0.000000
# 3 -0.004400 -0.006174 0.013357 0.000000 0.000000 0.000000
# 4 0.000000 0.000000 0.000000 0.049884 0.000000 0.000000
# 5 0.000000 0.000000 0.000000 0.000000 0.028267 0.000000
# 6 0.000000 0.000000 0.000000 0.000000 0.000000 0.079392
#
#
# Mechanical properties :
#
#
# Convention : Reuss Voigt Hill
#
# Bulk Modulus (GPa) = 38.67688 58.35592 48.51640
# Shear Modulus (GPa) = 19.76771 24.72637 22.24704
#
# Velocity S-wave (km/s) = 3.37242 3.77175 3.57766
# Velocity P-wave (km/s) = 6.11692 7.24864 6.70669
#
# Compressibility (1/GPa) = 0.02585524
#
# Stress axis : x y z
#
# Youngs Moduli (GPa) = 98.16148 30.51374 74.86885
#
# Poissons Ratio (x) = 0.14208 0.32942
# Poissons Ratio (y) = 0.45706 0.46226
# Poissons Ratio (z) = 0.43191 0.18840
#
# Static dielectric constant tensor:
#      x y z
#    x 3.803110 0.000000 0.000000 
#    y 0.000000 3.010720 0.000000 
#    z 0.000000 0.000000 3.425780 
# 
# 
# High freq. dielectric constant tensor:
#      x y z
#    x 1.668940 0.000000 0.000000 
#    y 0.000000 1.612930 0.000000 
#    z 0.000000 0.000000 1.690110 
# 
# From -- ./inp_files/2893.got.cif
#   From: 2010.03.12/outbox.cif.g09.slc.cpg/sg57_2_cif.got.tgz:2893.got - 2010.04.16 15:48:40.
