data_PCOD8232217
_publ_section_title
;
Structure prediction by ZEFSAII (Michael W. Deem and Ramdas Pophale) SiO2 
 PCOD8232217
Probable space group: P B C M
;
_chemical_formula_sum "Si O2"
_cell_formula_units_Z 48
_cell_length_a 30.646576
_cell_length_b 10.030326
_cell_length_c 8.973262
_cell_angle_alpha 90.000000
_cell_angle_beta 90.000000
_cell_angle_gamma 90.000000
_cell_volume 2758.337201
_symmetry_space_group_name_H-M "P B C M"
_symmetry_group_IT_number 57
_symmetry_cell_setting 'orthorhombic'
loop_
_space_group_symop_operation_xyz
x,y,z
-x,-y,1/2+z
x,1/2-y,-z
-x,1/2+y,1/2-z
-x,-y,-z
x,y,1/2-z
-x,1/2+y,z
x,1/2-y,1/2+z
loop_
_atom_site_type_symbol
_atom_site_label
_atom_site_fract_x
_atom_site_fract_y
_atom_site_fract_z
Si Si1 0.968833 0.106049 0.923989
Si Si2 0.471128 0.111699 0.574827
Si Si3 0.790894 0.393096 0.576399
Si Si4 0.629175 0.886529 0.076132
Si Si5 0.305383 0.891569 0.576195
Si Si6 0.128109 0.891811 0.077989
O O1 0.980341 0.122137 0.750000
O O2 0.919870 0.044953 0.943755
O O3 0.974332 0.250000 0.000000
O O4 0.000000 0.000000 0.000000
O O5 0.484741 0.250000 0.500000
O O6 0.480537 0.119433 0.750000
O O7 0.420829 0.078026 0.540205
O O8 0.500000 0.000000 0.500000
O O9 0.789915 0.250000 0.500000
O O10 0.800643 0.379934 0.750000
O O11 0.742915 0.455212 0.547073
O O12 0.831680 0.474061 0.500374
O O13 0.637192 0.867717 0.250000
O O14 0.659204 0.005063 0.011782
O O15 0.643696 0.750000 0.000000
O O16 0.312364 0.750000 0.500000
O O17 0.312761 0.866903 0.750000
O O18 0.139730 0.875104 0.250000
O O19 0.125827 0.750000 0.000000
#
# Coordination Sequence:
#
# PCOD8232217 Si02
#       6
#     8   8   8   8   8   8
#     4  10  20  33  50  72  98 128 162 201 244 291
#     4  10  20  35  54  75 100 130 164 203 246 291
#     4   9  15  24  41  64  91 120 150 190 236 278
#     4   9  19  35  52  71  97 129 163 197 235 284
#     4   9  18  31  47  71  99 124 156 196 237 280
#     4   9  16  26  42  65  92 121 155 193 234 282
#
# _framework density 17.401789999999998
#
# number of rings (size 3 to 8) (size 9 to 14) (size 15 to 20)
#    0.000    2.667    0.000    3.000    0.000    4.667 
#    0.000    1.667    0.000    1.000    0.000    4.667 
#    0.000    0.000    0.000    0.000    0.000    0.000 
#
# Total GULP energy -594766.729384 kJ/mol
# GULP energy per Si atom -12390.973529 kJ/mol
# Density = 1.736218 g / cm^3
# Si number density = 17.401790 Si / 1000 Ang^3
#
#
#
# Elastic Constant Matrix: (Units=GPa)
#
#
# Indices 1 2 3 4 5 6 
#
# 1 137.7217 80.0399 67.9148 0.0000 0.0000 0.0000
# 2 80.0399 91.8460 51.4005 0.0000 0.0000 0.0000
# 3 67.9148 51.4005 106.1105 0.0000 0.0000 0.0000
# 4 0.0000 0.0000 0.0000 25.9434 0.0000 0.0000
# 5 0.0000 0.0000 0.0000 0.0000 24.9937 0.0000
# 6 0.0000 0.0000 0.0000 0.0000 0.0000 24.3628
#
#
#
# Elastic Compliance Matrix: (Units=1/GPa)
#
#
# Indices 1 2 3 4 5 6 
#
# 1 0.016378 -0.011533 -0.004896 0.000000 0.000000 0.000000
# 2 -0.011533 0.023058 -0.003788 0.000000 0.000000 0.000000
# 3 -0.004896 -0.003788 0.014393 0.000000 0.000000 0.000000
# 4 0.000000 0.000000 0.000000 0.038545 0.000000 0.000000
# 5 0.000000 0.000000 0.000000 0.000000 0.040010 0.000000
# 6 0.000000 0.000000 0.000000 0.000000 0.000000 0.041046
#
#
# Mechanical properties :
#
#
# Convention : Reuss Voigt Hill
#
# Bulk Modulus (GPa) = 74.65390 81.59872 78.12631
# Shear Modulus (GPa) = 22.90130 24.14819 23.52474
#
# Velocity S-wave (km/s) = 3.63165 3.72920 3.68075
# Velocity P-wave (km/s) = 7.78321 8.09539 7.94084
#
# Compressibility (1/GPa) = 0.01339515
#
# Stress axis : x y z
#
# Youngs Moduli (GPa) = 61.05840 43.36912 69.47963
#
# Poissons Ratio (x) = 0.50016 0.34017
# Poissons Ratio (y) = 0.70416 0.26319
# Poissons Ratio (z) = 0.29894 0.16429
#
# Static dielectric constant tensor:
#      x y z
#    x 4.369190 0.000000 0.000000 
#    y 0.000000 2.816470 0.000000 
#    z 0.000000 0.000000 3.300990 
# 
# 
# High freq. dielectric constant tensor:
#      x y z
#    x 1.695080 0.000000 0.000000 
#    y 0.000000 1.621670 0.000000 
#    z 0.000000 0.000000 1.686060 
# 
# From -- ./inp_files/10233.got.cif
#   From: 2010.03.12/outbox.cif.g09.slc.cpg/sg57_6_cif.got.tgz:10233.got - 2010.04.16 15:48:40.
