data_PCOD8232145
_publ_section_title
;
Structure prediction by ZEFSAII (Michael W. Deem and Ramdas Pophale) SiO2 
 PCOD8232145
Probable space group: P B C M
;
_chemical_formula_sum "Si O2"
_cell_formula_units_Z 64
_cell_length_a 21.247972
_cell_length_b 18.987213
_cell_length_c 8.795241
_cell_angle_alpha 90.000000
_cell_angle_beta 90.000000
_cell_angle_gamma 90.000000
_cell_volume 3548.350008
_symmetry_space_group_name_H-M "P B C M"
_symmetry_group_IT_number 57
_symmetry_cell_setting 'orthorhombic'
loop_
_space_group_symop_operation_xyz
x,y,z
-x,-y,1/2+z
x,1/2-y,-z
-x,1/2+y,1/2-z
-x,-y,-z
x,y,1/2-z
-x,1/2+y,z
x,1/2-y,1/2+z
loop_
_atom_site_type_symbol
_atom_site_label
_atom_site_fract_x
_atom_site_fract_y
_atom_site_fract_z
Si Si1 0.032102 0.175022 0.930199
Si Si2 0.726883 0.639475 0.082534
Si Si3 0.191771 0.949853 0.926102
Si Si4 0.392670 0.180185 0.573709
Si Si5 0.314708 0.520587 0.919909
Si Si6 0.141616 0.089561 0.070720
Si Si7 0.436054 0.472177 0.069364
Si Si8 0.099214 0.822577 0.926619
O O1 0.031126 0.180908 0.750000
O O2 0.051715 0.250000 0.000000
O O3 0.081183 0.116007 0.980882
O O4 0.963972 0.151184 0.990347
O O5 0.716570 0.673075 0.250000
O O6 0.709882 0.558111 0.088935
O O7 0.800066 0.642703 0.033262
O O8 0.682079 0.679294 0.963834
O O9 0.196434 0.971561 0.750000
O O10 0.153842 0.878542 0.951159
O O11 0.261923 0.935014 0.990298
O O12 0.156129 0.010896 0.016572
O O13 0.423800 0.250000 0.500000
O O14 0.402852 0.186749 0.750000
O O15 0.425346 0.108590 0.512873
O O16 0.324262 0.551477 0.750000
O O17 0.380671 0.522881 0.009488
O O18 0.128391 0.088088 0.250000
O O19 0.437795 0.476032 0.250000
O O20 0.500000 0.500000 0.000000
O O21 0.083551 0.810586 0.750000
O O22 0.123137 0.750000 0.000000
#
# Coordination Sequence:
#
# PCOD8232145 Si02
#       8
#     8   8   8   8   8   8   8   8
#     4  11  22  36  53  71  97 133 172 216 264 316
#     4   8  16  30  47  68  96 129 163 200 242 289
#     4  10  20  34  54  80 106 133 167 212 263 310
#     4  10  20  32  49  73 102 136 173 212 251 294
#     4   9  17  31  52  77 104 133 164 202 247 296
#     4  10  20  34  52  75 103 136 174 213 257 309
#     4  10  20  34  54  80 108 141 178 213 254 305
#     4  10  21  37  56  76 100 131 170 215 265 321
#
# _framework density 18.036553000000001
#
# number of rings (size 3 to 8) (size 9 to 14) (size 15 to 20)
#    0.000    2.250    0.000    4.875    0.000    8.000 
#    0.000    0.000    0.000    0.750    0.000    5.250 
#    0.000    0.000    0.000    0.000    0.000    0.000 
#
# Total GULP energy -793508.651216 kJ/mol
# GULP energy per Si atom -12398.572675 kJ/mol
# Density = 1.799550 g / cm^3
# Si number density = 18.036553 Si / 1000 Ang^3
#
#
#
# Elastic Constant Matrix: (Units=GPa)
#
#
# Indices 1 2 3 4 5 6 
#
# 1 127.9812 54.9802 58.7143 0.0000 0.0000 0.0000
# 2 54.9802 68.6795 41.6763 0.0000 0.0000 0.0000
# 3 58.7143 41.6763 118.1876 0.0000 0.0000 0.0000
# 4 0.0000 0.0000 0.0000 27.9860 0.0000 0.0000
# 5 0.0000 0.0000 0.0000 0.0000 33.2496 0.0000
# 6 0.0000 0.0000 0.0000 0.0000 0.0000 19.2251
#
#
#
# Elastic Compliance Matrix: (Units=1/GPa)
#
#
# Indices 1 2 3 4 5 6 
#
# 1 0.012979 -0.008241 -0.003542 0.000000 0.000000 0.000000
# 2 -0.008241 0.023757 -0.004283 0.000000 0.000000 0.000000
# 3 -0.003542 -0.004283 0.011731 0.000000 0.000000 0.000000
# 4 0.000000 0.000000 0.000000 0.035732 0.000000 0.000000
# 5 0.000000 0.000000 0.000000 0.000000 0.030076 0.000000
# 6 0.000000 0.000000 0.000000 0.000000 0.000000 0.052015
#
#
# Mechanical properties :
#
#
# Convention : Reuss Voigt Hill
#
# Bulk Modulus (GPa) = 61.21926 69.50997 65.36461
# Shear Modulus (GPa) = 24.52595 26.72398 25.62496
#
# Velocity S-wave (km/s) = 3.69154 3.85341 3.77334
# Velocity P-wave (km/s) = 7.22394 7.64332 7.43659
#
# Compressibility (1/GPa) = 0.01633473
#
# Stress axis : x y z
#
# Youngs Moduli (GPa) = 77.04958 42.09369 85.24370
#
# Poissons Ratio (x) = 0.34688 0.30191
# Poissons Ratio (y) = 0.63494 0.36513
# Poissons Ratio (z) = 0.27289 0.18030
#
# Static dielectric constant tensor:
#      x y z
#    x 3.411350 0.000000 0.000000 
#    y 0.000000 3.210640 0.000000 
#    z 0.000000 0.000000 3.519510 
# 
# 
# High freq. dielectric constant tensor:
#      x y z
#    x 1.691630 0.000000 0.000000 
#    y 0.000000 1.673750 0.000000 
#    z 0.000000 0.000000 1.715380 
# 
# From -- ./inp_files/8562.got.cif
#   From: 2010.03.12/outbox.cif.g09.slc.cpg/sg57_5_cif.got.tgz:8562.got - 2010.04.16 15:48:40.
