data_PCOD8232978
_publ_section_title
;
Structure prediction by ZEFSAII (Michael W. Deem and Ramdas Pophale) SiO2 
 PCOD8232978
Probable space group: P B C M
;
_chemical_formula_sum "Si O2"
_cell_formula_units_Z 64
_cell_length_a 12.207012
_cell_length_b 18.039567
_cell_length_c 14.599779
_cell_angle_alpha 90.000000
_cell_angle_beta 90.000000
_cell_angle_gamma 90.000000
_cell_volume 3215.005812
_symmetry_space_group_name_H-M "P B C M"
_symmetry_group_IT_number 57
_symmetry_cell_setting 'orthorhombic'
loop_
_space_group_symop_operation_xyz
x,y,z
-x,-y,1/2+z
x,1/2-y,-z
-x,1/2+y,1/2-z
-x,-y,-z
x,y,1/2-z
-x,1/2+y,z
x,1/2-y,1/2+z
loop_
_atom_site_type_symbol
_atom_site_label
_atom_site_fract_x
_atom_site_fract_y
_atom_site_fract_z
Si Si1 0.764998 0.421953 0.643774
Si Si2 0.641421 0.893131 0.854155
Si Si3 0.920729 0.543774 0.932003
Si Si4 0.894421 0.135950 0.645861
Si Si5 0.932520 0.202649 0.141505
Si Si6 0.158208 0.327947 0.950504
Si Si7 0.450526 0.921645 0.523419
Si Si8 0.328387 0.568102 0.854495
O O1 0.732566 0.419736 0.750000
O O2 0.844641 0.490653 0.626661
O O3 0.829067 0.347580 0.613955
O O4 0.654912 0.430642 0.587043
O O5 0.606117 0.875073 0.750000
O O6 0.744306 0.841593 0.878556
O O7 0.540987 0.872585 0.923160
O O8 0.670878 0.979605 0.863236
O O9 0.997533 0.587147 0.861252
O O10 0.841039 0.603290 0.979768
O O11 0.000000 0.500000 0.000000
O O12 0.866874 0.152641 0.750000
O O13 0.912723 0.215743 0.597609
O O14 0.789897 0.092651 0.605971
O O15 0.948919 0.205397 0.250000
O O16 0.042368 0.168558 0.100315
O O17 0.179156 0.250000 0.000000
O O18 0.415007 0.890991 0.422651
O O19 0.500000 0.000000 0.500000
O O20 0.352549 0.593168 0.750000
#
# Coordination Sequence:
#
# PCOD8232978 Si02
#       8
#     8   8   8   8   8   8   8   8
#     4  11  23  38  61  93 121 158 206 259 312 364
#     4  10  21  39  62  85 115 161 208 255 299 359
#     4  12  21  34  56  86 123 157 197 241 296 369
#     4  10  20  36  55  84 124 159 189 234 300 370
#     4  10  22  39  58  85 123 158 194 245 304 368
#     4  12  23  38  57  84 121 161 204 243 305 367
#     4  10  20  39  62  87 120 154 205 260 311 357
#     4   9  19  35  62  92 119 154 199 248 305 365
#
# _framework density 19.906651
#
# number of rings (size 3 to 8) (size 9 to 14) (size 15 to 20)
#    0.000    1.500    2.500    4.125    0.000    0.500 
#    0.000    1.250    0.000    3.000    0.000    0.000 
#    0.000    0.000    0.000    0.000    0.000    0.000 
#
# Total GULP energy -793431.460961 kJ/mol
# GULP energy per Si atom -12397.366578 kJ/mol
# Density = 1.986134 g / cm^3
# Si number density = 19.906651 Si / 1000 Ang^3
#
#
#
# Elastic Constant Matrix: (Units=GPa)
#
#
# Indices 1 2 3 4 5 6 
#
# 1 125.4770 29.0692 59.8428 0.0000 0.0000 0.0000
# 2 29.0692 80.9298 27.7578 0.0000 0.0000 0.0000
# 3 59.8428 27.7578 92.1648 0.0000 0.0000 0.0000
# 4 0.0000 0.0000 0.0000 26.9256 0.0000 0.0000
# 5 0.0000 0.0000 0.0000 0.0000 41.1280 0.0000
# 6 0.0000 0.0000 0.0000 0.0000 0.0000 19.2325
#
#
#
# Elastic Compliance Matrix: (Units=1/GPa)
#
#
# Indices 1 2 3 4 5 6 
#
# 1 0.011773 -0.001792 -0.007105 0.000000 0.000000 0.000000
# 2 -0.001792 0.014053 -0.003069 0.000000 0.000000 0.000000
# 3 -0.007105 -0.003069 0.016387 0.000000 0.000000 0.000000
# 4 0.000000 0.000000 0.000000 0.037139 0.000000 0.000000
# 5 0.000000 0.000000 0.000000 0.000000 0.024314 0.000000
# 6 0.000000 0.000000 0.000000 0.000000 0.000000 0.051995
#
#
# Mechanical properties :
#
#
# Convention : Reuss Voigt Hill
#
# Bulk Modulus (GPa) = 54.69743 59.10125 56.89934
# Shear Modulus (GPa) = 26.92705 29.58400 28.25552
#
# Velocity S-wave (km/s) = 3.68185 3.85923 3.77158
# Velocity P-wave (km/s) = 6.75361 7.04357 6.90011
#
# Compressibility (1/GPa) = 0.01828239
#
# Stress axis : x y z
#
# Youngs Moduli (GPa) = 84.93956 71.16121 61.02257
#
# Poissons Ratio (x) = 0.12752 0.43354
# Poissons Ratio (y) = 0.15221 0.18726
# Poissons Ratio (z) = 0.60346 0.21838
#
# Static dielectric constant tensor:
#      x y z
#    x 3.783260 0.000000 0.000000 
#    y 0.000000 3.664140 0.000000 
#    z 0.000000 0.000000 3.873720 
# 
# 
# High freq. dielectric constant tensor:
#      x y z
#    x 1.777130 0.000000 0.000000 
#    y 0.000000 1.759610 0.000000 
#    z 0.000000 0.000000 1.789750 
# 
# From -- ./inp_files/18008.got.cif
#   From: 2010.03.12/outbox.cif.g09.slc.cpg/sg57_10_cif.got.tgz:18008.got - 2010.04.16 15:48:40.
