data_PCOD8232842
_publ_section_title
;
Structure prediction by ZEFSAII (Michael W. Deem and Ramdas Pophale) SiO2 
 PCOD8232842
Probable space group: P B C M
;
_chemical_formula_sum "Si O2"
_cell_formula_units_Z 48
_cell_length_a 9.464315
_cell_length_b 30.527608
_cell_length_c 8.829788
_cell_angle_alpha 90.000000
_cell_angle_beta 90.000000
_cell_angle_gamma 90.000000
_cell_volume 2551.127940
_symmetry_space_group_name_H-M "P B C M"
_symmetry_group_IT_number 57
_symmetry_cell_setting 'orthorhombic'
loop_
_space_group_symop_operation_xyz
x,y,z
-x,-y,1/2+z
x,1/2-y,-z
-x,1/2+y,1/2-z
-x,-y,-z
x,y,1/2-z
-x,1/2+y,z
x,1/2-y,1/2+z
loop_
_atom_site_type_symbol
_atom_site_label
_atom_site_fract_x
_atom_site_fract_y
_atom_site_fract_z
Si Si1 0.980659 0.130677 0.076513
Si Si2 0.406083 0.361220 0.424569
Si Si3 0.776641 0.565404 0.426189
Si Si4 0.792305 0.703545 0.072155
Si Si5 0.351886 0.986461 0.928411
Si Si6 0.706247 0.104340 0.576991
O O1 0.931190 0.133522 0.250000
O O2 0.069217 0.086216 0.048268
O O3 0.076575 0.172145 0.033315
O O4 0.845175 0.131293 0.968946
O O5 0.359188 0.362252 0.250000
O O6 0.344500 0.403639 0.507037
O O7 0.350125 0.316653 0.500746
O O8 0.574986 0.362646 0.442832
O O9 0.743101 0.559312 0.250000
O O10 0.770301 0.518739 0.509726
O O11 0.768372 0.708110 0.250000
O O12 0.826342 0.750000 0.000000
O O13 0.363285 0.991340 0.750000
O O14 0.309131 0.937416 0.969484
O O15 0.500000 0.000000 0.000000
O O16 0.717700 0.088254 0.750000
#
# Coordination Sequence:
#
# PCOD8232842 Si02
#       6
#     8   8   8   8   8   8
#     4   9  21  39  58  83 115 152 190 232 287 343
#     4  10  20  35  57  84 114 147 187 232 281 336
#     4  10  20  36  57  81 111 151 197 240 281 333
#     4  10  21  39  64  90 114 144 186 231 282 346
#     4  12  23  35  55  81 113 153 197 244 288 334
#     4  11  23  37  56  84 116 152 193 236 285 339
#
# _framework density 18.815206
#
# number of rings (size 3 to 8) (size 9 to 14) (size 15 to 20)
#    0.000    1.667    1.667    4.500    0.000    6.667 
#    0.000    0.833    0.000    2.000    0.000    0.000 
#    0.000    0.000    0.000    0.000    0.000    0.000 
#
# Total GULP energy -595412.142632 kJ/mol
# GULP energy per Si atom -12404.419638 kJ/mol
# Density = 1.877238 g / cm^3
# Si number density = 18.815206 Si / 1000 Ang^3
#
#
#
# Elastic Constant Matrix: (Units=GPa)
#
#
# Indices 1 2 3 4 5 6 
#
# 1 106.1050 39.1320 59.0036 0.0000 0.0000 0.0000
# 2 39.1320 102.3846 48.5962 0.0000 0.0000 0.0000
# 3 59.0036 48.5962 141.5001 0.0000 0.0000 0.0000
# 4 0.0000 0.0000 0.0000 33.4959 0.0000 0.0000
# 5 0.0000 0.0000 0.0000 0.0000 33.1449 0.0000
# 6 0.0000 0.0000 0.0000 0.0000 0.0000 20.2496
#
#
#
# Elastic Compliance Matrix: (Units=1/GPa)
#
#
# Indices 1 2 3 4 5 6 
#
# 1 0.012929 -0.002847 -0.004413 0.000000 0.000000 0.000000
# 2 -0.002847 0.012296 -0.003036 0.000000 0.000000 0.000000
# 3 -0.004413 -0.003036 0.009950 0.000000 0.000000 0.000000
# 4 0.000000 0.000000 0.000000 0.029854 0.000000 0.000000
# 5 0.000000 0.000000 0.000000 0.000000 0.030171 0.000000
# 6 0.000000 0.000000 0.000000 0.000000 0.000000 0.049384
#
#
# Mechanical properties :
#
#
# Convention : Reuss Voigt Hill
#
# Bulk Modulus (GPa) = 68.57329 71.49481 70.03405
# Shear Modulus (GPa) = 29.40543 30.92860 30.16702
#
# Velocity S-wave (km/s) = 3.95758 4.05879 4.00851
# Velocity P-wave (km/s) = 7.57681 7.74893 7.66336
#
# Compressibility (1/GPa) = 0.01458294
#
# Stress axis : x y z
#
# Youngs Moduli (GPa) = 77.34703 81.32683 100.50120
#
# Poissons Ratio (x) = 0.23151 0.44356
# Poissons Ratio (y) = 0.22018 0.30511
# Poissons Ratio (z) = 0.34137 0.24690
#
# Static dielectric constant tensor:
#      x y z
#    x 3.444960 0.000000 0.000000 
#    y 0.000000 3.395720 0.000000 
#    z 0.000000 0.000000 3.584470 
# 
# 
# High freq. dielectric constant tensor:
#      x y z
#    x 1.725550 0.000000 0.000000 
#    y 0.000000 1.717160 0.000000 
#    z 0.000000 0.000000 1.748160 
# 
# From -- ./inp_files/1990.got.cif
#   From: 2010.03.12/outbox.cif.g09.slc.cpg/sg57_1_cif.got.tgz:1990.got - 2010.04.16 15:48:40.
