data_PCOD8232917
_publ_section_title
;
Structure prediction by ZEFSAII (Michael W. Deem and Ramdas Pophale) SiO2 
 PCOD8232917
Probable space group: P B C M
;
_chemical_formula_sum "Si O2"
_cell_formula_units_Z 40
_cell_length_a 18.825836
_cell_length_b 5.255729
_cell_length_c 19.517061
_cell_angle_alpha 90.000000
_cell_angle_beta 90.000000
_cell_angle_gamma 90.000000
_cell_volume 1931.086173
_symmetry_space_group_name_H-M "P B C M"
_symmetry_group_IT_number 57
_symmetry_cell_setting 'orthorhombic'
loop_
_space_group_symop_operation_xyz
x,y,z
-x,-y,1/2+z
x,1/2-y,-z
-x,1/2+y,1/2-z
-x,-y,-z
x,y,1/2-z
-x,1/2+y,z
x,1/2-y,1/2+z
loop_
_atom_site_type_symbol
_atom_site_label
_atom_site_fract_x
_atom_site_fract_y
_atom_site_fract_z
Si Si1 0.807423 0.296021 0.374230
Si Si2 0.330604 0.901367 0.673111
Si Si3 0.034622 0.769371 0.170935
Si Si4 0.247692 0.304536 0.425955
Si Si5 0.545552 0.251747 0.921505
O O1 0.740989 0.269734 0.321603
O O2 0.880809 0.268091 0.334694
O O3 0.804523 0.572824 0.408270
O O4 0.799401 0.064402 0.429198
O O5 0.356938 0.968375 0.750000
O O6 0.388971 0.744190 0.630856
O O7 0.311248 0.159285 0.629950
O O8 0.012480 0.768615 0.250000
O O9 0.000160 0.519078 0.135675
O O10 0.282804 0.250000 0.500000
O O11 0.500482 0.503370 0.906231
O O12 0.573504 0.250000 0.000000
#
# Coordination Sequence:
#
# PCOD8232917 Si02
#       5
#     8   8   8   8   8
#     4  10  22  39  63  93 130 158 220 269 318 376
#     4  10  25  40  67 100 128 165 213 276 330 370
#     4  10  20  35  59  89 127 171 209 257 324 386
#     4  10  23  39  65  91 123 169 212 259 319 388
#     4  10  24  43  65  92 127 172 212 252 309 385
#
# _framework density 20.713730999999999
#
# number of rings (size 3 to 8) (size 9 to 14) (size 15 to 20)
#    1.200    0.800    0.000    2.400    5.600    3.200 
#    0.000    0.000    0.000   12.000    0.000    0.000 
#    0.000    0.000    0.000    0.000    0.000    0.000 
#
# Total GULP energy -495631.830728 kJ/mol
# GULP energy per Si atom -12390.795768 kJ/mol
# Density = 2.066659 g / cm^3
# Si number density = 20.713731 Si / 1000 Ang^3
#
#
#
# Elastic Constant Matrix: (Units=GPa)
#
#
# Indices 1 2 3 4 5 6 
#
# 1 126.3847 48.9561 44.1431 0.0000 0.0000 0.0000
# 2 48.9561 168.1279 37.3753 0.0000 0.0000 0.0000
# 3 44.1431 37.3753 109.7763 0.0000 0.0000 0.0000
# 4 0.0000 0.0000 0.0000 10.8421 0.0000 0.0000
# 5 0.0000 0.0000 0.0000 0.0000 27.9253 0.0000
# 6 0.0000 0.0000 0.0000 0.0000 0.0000 25.9710
#
#
#
# Elastic Compliance Matrix: (Units=1/GPa)
#
#
# Indices 1 2 3 4 5 6 
#
# 1 0.009879 -0.002157 -0.003238 0.000000 0.000000 0.000000
# 2 -0.002157 0.006906 -0.001484 0.000000 0.000000 0.000000
# 3 -0.003238 -0.001484 0.010917 0.000000 0.000000 0.000000
# 4 0.000000 0.000000 0.000000 0.092233 0.000000 0.000000
# 5 0.000000 0.000000 0.000000 0.000000 0.035810 0.000000
# 6 0.000000 0.000000 0.000000 0.000000 0.000000 0.038504
#
#
# Mechanical properties :
#
#
# Convention : Reuss Voigt Hill
#
# Bulk Modulus (GPa) = 71.71680 73.91532 72.81606
# Shear Modulus (GPa) = 23.51232 31.20196 27.35714
#
# Velocity S-wave (km/s) = 3.37279 3.88537 3.63812
# Velocity P-wave (km/s) = 7.06156 7.47595 7.27171
#
# Compressibility (1/GPa) = 0.01394373
#
# Stress axis : x y z
#
# Youngs Moduli (GPa) = 101.22719 144.80733 91.60199
#
# Poissons Ratio (x) = 0.31230 0.29662
# Poissons Ratio (y) = 0.21831 0.13593
# Poissons Ratio (z) = 0.32779 0.21488
#
# Static dielectric constant tensor:
#      x y z
#    x 3.443770 0.000000 0.000000 
#    y 0.000000 3.966440 0.000000 
#    z 0.000000 0.000000 3.414310 
# 
# 
# High freq. dielectric constant tensor:
#      x y z
#    x 1.796530 0.000000 0.000000 
#    y 0.000000 1.824600 0.000000 
#    z 0.000000 0.000000 1.780180 
# 
# From -- ./inp_files/25529.got.cif
#   From: 2010.03.12/outbox.cif.g09.slc.cpg/sg57_13_cif.got.tgz:25529.got - 2010.04.16 15:48:40.
