data_PCOD8232117
_publ_section_title
;
Structure prediction by ZEFSAII (Michael W. Deem and Ramdas Pophale) SiO2 
 PCOD8232117
Probable space group: P B C M
;
_chemical_formula_sum "Si O2"
_cell_formula_units_Z 64
_cell_length_a 22.498770
_cell_length_b 19.936235
_cell_length_c 8.979374
_cell_angle_alpha 90.000000
_cell_angle_beta 90.000000
_cell_angle_gamma 90.000000
_cell_volume 4027.615292
_symmetry_space_group_name_H-M "P B C M"
_symmetry_group_IT_number 57
_symmetry_cell_setting 'orthorhombic'
loop_
_space_group_symop_operation_xyz
x,y,z
-x,-y,1/2+z
x,1/2-y,-z
-x,1/2+y,1/2-z
-x,-y,-z
x,y,1/2-z
-x,1/2+y,z
x,1/2-y,1/2+z
loop_
_atom_site_type_symbol
_atom_site_label
_atom_site_fract_x
_atom_site_fract_y
_atom_site_fract_z
Si Si1 0.982673 0.604503 0.080680
Si Si2 0.414787 0.970004 0.085593
Si Si3 0.492684 0.397119 0.915536
Si Si4 0.919323 0.487877 0.579838
Si Si5 0.891113 0.816366 0.078875
Si Si6 0.392554 0.321072 0.072441
Si Si7 0.805941 0.558590 0.581401
Si Si8 0.315737 0.066015 0.425615
O O1 0.969260 0.624372 0.250000
O O2 0.053446 0.587451 0.057202
O O3 0.948843 0.535916 0.041533
O O4 0.957363 0.664696 0.980081
O O5 0.409522 0.938410 0.250000
O O6 0.457774 0.033677 0.090536
O O7 0.350849 0.997554 0.030188
O O8 0.441221 0.912235 0.978961
O O9 0.498820 0.366269 0.750000
O O10 0.457911 0.344854 0.020059
O O11 0.933961 0.512623 0.750000
O O12 0.847787 0.492552 0.559104
O O13 0.897288 0.799849 0.250000
O O14 0.845114 0.875827 0.045776
O O15 0.866513 0.750000 0.000000
O O16 0.391255 0.316208 0.250000
O O17 0.377493 0.250000 0.000000
O O18 0.341581 0.371628 0.017449
O O19 0.781034 0.561757 0.750000
O O20 0.752624 0.554729 0.465290
O O21 0.323515 0.080685 0.250000
#
# Coordination Sequence:
#
# PCOD8232117 Si02
#       8
#     8   8   8   8   8   8   8   8
#     4   9  15  25  43  63  82 106 136 173 217 258
#     4   8  15  27  42  61  84 109 137 172 214 256
#     4   9  16  27  44  65  85 106 137 175 215 257
#     4   8  15  27  42  61  84 108 136 172 214 259
#     4  10  20  32  44  60  84 114 148 183 216 255
#     4  11  21  33  47  62  85 116 148 181 216 253
#     4   9  18  31  44  60  85 116 148 180 213 250
#     4  10  20  32  45  63  87 115 149 183 214 251
#
# _framework density 15.890295999999999
#
# number of rings (size 3 to 8) (size 9 to 14) (size 15 to 20)
#    0.000    2.750    0.000    4.125    0.000    7.000 
#    0.000    1.250    0.000    0.000    0.000    0.000 
#    0.000    1.000    0.000    7.750    0.000    5.250 
#
# Total GULP energy -793048.919570 kJ/mol
# GULP energy per Si atom -12391.389368 kJ/mol
# Density = 1.585413 g / cm^3
# Si number density = 15.890296 Si / 1000 Ang^3
#
#
#
# Elastic Constant Matrix: (Units=GPa)
#
#
# Indices 1 2 3 4 5 6 
#
# 1 94.9395 37.6411 48.8875 0.0000 0.0000 0.0000
# 2 37.6411 16.8585 19.7037 0.0000 0.0000 0.0000
# 3 48.8875 19.7037 95.5032 0.0000 0.0000 0.0000
# 4 0.0000 0.0000 0.0000 21.4879 0.0000 0.0000
# 5 0.0000 0.0000 0.0000 0.0000 25.2846 0.0000
# 6 0.0000 0.0000 0.0000 0.0000 0.0000 13.2139
#
#
#
# Elastic Compliance Matrix: (Units=1/GPa)
#
#
# Indices 1 2 3 4 5 6 
#
# 1 0.094647 -0.203855 -0.006391 0.000000 0.000000 0.000000
# 2 -0.203855 0.517236 -0.002361 0.000000 0.000000 0.000000
# 3 -0.006391 -0.002361 0.014230 0.000000 0.000000 0.000000
# 4 0.000000 0.000000 0.000000 0.046538 0.000000 0.000000
# 5 0.000000 0.000000 0.000000 0.000000 0.039550 0.000000
# 6 0.000000 0.000000 0.000000 0.000000 0.000000 0.075678
#
#
# Mechanical properties :
#
#
# Convention : Reuss Voigt Hill
#
# Bulk Modulus (GPa) = 4.97764 46.64065 25.80915
# Shear Modulus (GPa) = 3.90607 18.73520 11.32063
#
# Velocity S-wave (km/s) = 1.56955 3.43743 2.67202
# Velocity P-wave (km/s) = 2.53455 6.72086 5.07907
#
# Compressibility (1/GPa) = 0.20089828
#
# Stress axis : x y z
#
# Youngs Moduli (GPa) = 10.56555 1.93335 70.27613
#
# Poissons Ratio (x) = 0.39412 0.44914
# Poissons Ratio (y) = 2.15384 0.16595
# Poissons Ratio (z) = 0.06753 0.00457
#
# Static dielectric constant tensor:
#      x y z
#    x 3.101750 0.000000 0.000000 
#    y 0.000000 2.826260 0.000000 
#    z 0.000000 0.000000 3.174550 
# 
# 
# High freq. dielectric constant tensor:
#      x y z
#    x 1.593160 0.000000 0.000000 
#    y 0.000000 1.566090 0.000000 
#    z 0.000000 0.000000 1.625890 
# 
# From -- ./inp_files/8673.got.cif
#   From: 2010.03.12/outbox.cif.g09.slc.cpg/sg57_5_cif.got.tgz:8673.got - 2010.04.16 15:48:40.
