data_PCOD8232947
_publ_section_title
;
Structure prediction by ZEFSAII (Michael W. Deem and Ramdas Pophale) SiO2 
 PCOD8232947
Probable space group: P B C M
;
_chemical_formula_sum "Si O2"
_cell_formula_units_Z 44
_cell_length_a 22.698643
_cell_length_b 5.096829
_cell_length_c 19.043992
_cell_angle_alpha 90.000000
_cell_angle_beta 90.000000
_cell_angle_gamma 90.000000
_cell_volume 2203.220419
_symmetry_space_group_name_H-M "P B C M"
_symmetry_group_IT_number 57
_symmetry_cell_setting 'orthorhombic'
loop_
_space_group_symop_operation_xyz
x,y,z
-x,-y,1/2+z
x,1/2-y,-z
-x,1/2+y,1/2-z
-x,-y,-z
x,y,1/2-z
-x,1/2+y,z
x,1/2-y,1/2+z
loop_
_atom_site_type_symbol
_atom_site_label
_atom_site_fract_x
_atom_site_fract_y
_atom_site_fract_z
Si Si1 0.534050 0.186816 0.333553
Si Si2 0.767887 0.250000 0.000000
Si Si3 0.334148 0.911142 0.830865
Si Si4 0.033245 0.225358 0.583548
Si Si5 0.726664 0.585747 0.386512
Si Si6 0.836642 0.641995 0.921747
O O1 0.532291 0.186915 0.250000
O O2 0.504787 0.449144 0.363991
O O3 0.601385 0.167914 0.358845
O O4 0.726111 0.478545 0.032530
O O5 0.808312 0.147422 0.065558
O O6 0.334877 0.002278 0.750000
O O7 0.292177 0.656070 0.836948
O O8 0.314672 0.160332 0.877243
O O9 0.032281 0.250000 0.500000
O O10 0.098212 0.144595 0.611645
O O11 0.011990 0.505968 0.612693
O O12 0.793823 0.684969 0.371767
O O13 0.840998 0.750000 0.000000
#
# Coordination Sequence:
#
# PCOD8232947 Si02
#       6
#     8   4   8   8   8   8
#     4   9  17  31  51  75 104 135 164 201 259 326
#     4  10  20  36  52  76 104 148 190 218 254 310
#     4  11  22  35  54  83 113 137 168 216 270 323
#     4   9  18  26  41  66  98 134 165 202 259 317
#     4  11  21  35  53  77 108 145 179 219 260 308
#     4   9  19  31  50  70 105 137 177 214 255 307
#
# _framework density 19.970766000000001
#
# number of rings (size 3 to 8) (size 9 to 14) (size 15 to 20)
#    0.000    2.182    1.818    1.636    8.909    2.909 
#    0.000    0.000    0.000    0.000    0.000   12.727 
#    0.000   14.545    0.000    0.000    0.000    0.000 
#
# Total GULP energy -545104.152312 kJ/mol
# GULP energy per Si atom -12388.730734 kJ/mol
# Density = 1.992531 g / cm^3
# Si number density = 19.970766 Si / 1000 Ang^3
#
#
#
# Elastic Constant Matrix: (Units=GPa)
#
#
# Indices 1 2 3 4 5 6 
#
# 1 133.7519 51.0473 30.3111 0.0000 0.0000 0.0000
# 2 51.0473 134.9853 13.7971 0.0000 0.0000 0.0000
# 3 30.3111 13.7971 16.4456 0.0000 0.0000 0.0000
# 4 0.0000 0.0000 0.0000 23.9856 0.0000 0.0000
# 5 0.0000 0.0000 0.0000 0.0000 18.1347 0.0000
# 6 0.0000 0.0000 0.0000 0.0000 0.0000 35.8054
#
#
#
# Elastic Compliance Matrix: (Units=1/GPa)
#
#
# Indices 1 2 3 4 5 6 
#
# 1 0.013780 -0.002861 -0.022999 0.000000 0.000000 0.000000
# 2 -0.002861 0.008697 -0.002024 0.000000 0.000000 0.000000
# 3 -0.022999 -0.002024 0.104894 0.000000 0.000000 0.000000
# 4 0.000000 0.000000 0.000000 0.041692 0.000000 0.000000
# 5 0.000000 0.000000 0.000000 0.000000 0.055143 0.000000
# 6 0.000000 0.000000 0.000000 0.000000 0.000000 0.027929
#
#
# Mechanical properties :
#
#
# Convention : Reuss Voigt Hill
#
# Bulk Modulus (GPa) = 13.96558 52.83263 33.39911
# Shear Modulus (GPa) = 15.07072 28.25364 21.66218
#
# Velocity S-wave (km/s) = 2.75005 3.76540 3.29704
# Velocity P-wave (km/s) = 4.13423 6.73919 5.59055
#
# Compressibility (1/GPa) = 0.07160461
#
# Stress axis : x y z
#
# Youngs Moduli (GPa) = 72.56740 114.98405 9.53343
#
# Poissons Ratio (x) = 0.32892 0.21926
# Poissons Ratio (y) = 0.20758 0.01930
# Poissons Ratio (z) = 1.66896 0.23272
#
# Static dielectric constant tensor:
#      x y z
#    x 3.977240 0.000000 0.000000 
#    y 0.000000 4.076990 0.000000 
#    z 0.000000 0.000000 2.978500 
# 
# 
# High freq. dielectric constant tensor:
#      x y z
#    x 1.785070 0.000000 0.000000 
#    y 0.000000 1.805490 0.000000 
#    z 0.000000 0.000000 1.690070 
# 
# From -- ./inp_files/27542.got.cif
#   From: 2010.03.12/outbox.cif.g09.slc.cpg/sg57_14_cif.got.tgz:27542.got - 2010.04.16 15:48:40.
