data_PCOD8232561
_publ_section_title
;
Structure prediction by ZEFSAII (Michael W. Deem and Ramdas Pophale) SiO2 
 PCOD8232561
Probable space group: P B C M
;
_chemical_formula_sum "Si O2"
_cell_formula_units_Z 48
_cell_length_a 11.073122
_cell_length_b 22.963525
_cell_length_c 8.849624
_cell_angle_alpha 90.000000
_cell_angle_beta 90.000000
_cell_angle_gamma 90.000000
_cell_volume 2250.263929
_symmetry_space_group_name_H-M "P B C M"
_symmetry_group_IT_number 57
_symmetry_cell_setting 'orthorhombic'
loop_
_space_group_symop_operation_xyz
x,y,z
-x,-y,1/2+z
x,1/2-y,-z
-x,1/2+y,1/2-z
-x,-y,-z
x,y,1/2-z
-x,1/2+y,z
x,1/2-y,1/2+z
loop_
_atom_site_type_symbol
_atom_site_label
_atom_site_fract_x
_atom_site_fract_y
_atom_site_fract_z
Si Si1 0.557551 0.594127 0.427264
Si Si2 0.697177 0.809803 0.079539
Si Si3 0.855410 0.313344 0.928293
Si Si4 0.309145 0.597968 0.574850
Si Si5 0.792230 0.976618 0.576475
Si Si6 0.062702 0.115283 0.580258
O O1 0.533568 0.595617 0.250000
O O2 0.592879 0.658343 0.485046
O O3 0.435671 0.574924 0.510641
O O4 0.662140 0.548892 0.473271
O O5 0.651169 0.799693 0.250000
O O6 0.818407 0.846431 0.078402
O O7 0.728619 0.750000 0.000000
O O8 0.849875 0.306022 0.750000
O O9 0.870104 0.250000 0.000000
O O10 0.733533 0.344273 0.987123
O O11 0.966593 0.354271 0.972723
O O12 0.324355 0.613258 0.750000
O O13 0.210666 0.546237 0.551858
O O14 0.815661 0.959872 0.750000
O O15 0.901158 0.949087 0.479041
O O16 0.009415 0.109631 0.750000
#
# Coordination Sequence:
#
# PCOD8232561 Si02
#       6
#     8   8   8   8   8   8
#     4  10  20  36  58  86 119 155 195 239 291 346
#     4  10  20  34  55  84 115 150 193 242 294 346
#     4  12  26  44  64  86 116 155 198 242 291 348
#     4  11  23  40  61  87 120 157 197 239 288 346
#     4   9  20  38  62  91 122 155 192 239 291 345
#     4  10  21  38  62  90 119 152 193 242 294 348
#
# _framework density 21.330829999999999
#
# number of rings (size 3 to 8) (size 9 to 14) (size 15 to 20)
#    0.000    1.667    0.000    4.500    0.000    6.667 
#    0.000    3.333    0.000    0.000    0.000    0.000 
#    0.000    0.000    0.000    0.000    0.000    0.000 
#
# Total GULP energy -595394.170850 kJ/mol
# GULP energy per Si atom -12404.045226 kJ/mol
# Density = 2.128228 g / cm^3
# Si number density = 21.330830 Si / 1000 Ang^3
#
#
#
# Elastic Constant Matrix: (Units=GPa)
#
#
# Indices 1 2 3 4 5 6 
#
# 1 45.1923 15.6327 33.1045 0.0000 0.0000 0.0000
# 2 15.6327 78.0668 41.2969 0.0000 0.0000 0.0000
# 3 33.1045 41.2969 142.9443 0.0000 0.0000 0.0000
# 4 0.0000 0.0000 0.0000 35.7420 0.0000 0.0000
# 5 0.0000 0.0000 0.0000 0.0000 35.7965 0.0000
# 6 0.0000 0.0000 0.0000 0.0000 0.0000 6.4218
#
#
#
# Elastic Compliance Matrix: (Units=1/GPa)
#
#
# Indices 1 2 3 4 5 6 
#
# 1 0.027050 -0.002482 -0.005547 0.000000 0.000000 0.000000
# 2 -0.002482 0.015348 -0.003859 0.000000 0.000000 0.000000
# 3 -0.005547 -0.003859 0.009395 0.000000 0.000000 0.000000
# 4 0.000000 0.000000 0.000000 0.027978 0.000000 0.000000
# 5 0.000000 0.000000 0.000000 0.000000 0.027936 0.000000
# 6 0.000000 0.000000 0.000000 0.000000 0.000000 0.155720
#
#
# Mechanical properties :
#
#
# Convention : Reuss Voigt Hill
#
# Bulk Modulus (GPa) = 35.69415 49.58575 42.63995
# Shear Modulus (GPa) = 16.86096 27.33669 22.09883
#
# Velocity S-wave (km/s) = 2.81454 3.58377 3.22219
# Velocity P-wave (km/s) = 5.22802 6.35775 5.82036
#
# Compressibility (1/GPa) = 0.02801579
#
# Stress axis : x y z
#
# Youngs Moduli (GPa) = 36.96877 65.15460 106.43506
#
# Poissons Ratio (x) = 0.16172 0.59044
# Poissons Ratio (y) = 0.09176 0.41076
# Poissons Ratio (z) = 0.20508 0.25145
#
# Static dielectric constant tensor:
#      x y z
#    x 3.767070 0.000000 0.000000 
#    y 0.000000 3.875420 0.000000 
#    z 0.000000 0.000000 3.974510 
# 
# 
# High freq. dielectric constant tensor:
#      x y z
#    x 1.834560 0.000000 0.000000 
#    y 0.000000 1.841100 0.000000 
#    z 0.000000 0.000000 1.844640 
# 
# From -- ./inp_files/3131.got.cif
#   From: 2010.03.12/outbox.cif.g09.slc.cpg/sg57_2_cif.got.tgz:3131.got - 2010.04.16 15:48:40.
