data_PCOD8232016
_publ_section_title
;
Structure prediction by ZEFSAII (Michael W. Deem and Ramdas Pophale) SiO2 
 PCOD8232016
Probable space group: P B C M
;
_chemical_formula_sum "Si O2"
_cell_formula_units_Z 56
_cell_length_a 14.772592
_cell_length_b 8.321815
_cell_length_c 20.896782
_cell_angle_alpha 90.000000
_cell_angle_beta 90.000000
_cell_angle_gamma 90.000000
_cell_volume 2568.941250
_symmetry_space_group_name_H-M "P B C M"
_symmetry_group_IT_number 57
_symmetry_cell_setting 'orthorhombic'
loop_
_space_group_symop_operation_xyz
x,y,z
-x,-y,1/2+z
x,1/2-y,-z
-x,1/2+y,1/2-z
-x,-y,-z
x,y,1/2-z
-x,1/2+y,z
x,1/2-y,1/2+z
loop_
_atom_site_type_symbol
_atom_site_label
_atom_site_fract_x
_atom_site_fract_y
_atom_site_fract_z
Si Si1 0.371105 0.359296 0.678304
Si Si2 0.793652 0.102751 0.120867
Si Si3 0.193170 0.984066 0.127523
Si Si4 0.917786 0.046315 0.750000
Si Si5 0.899168 0.440962 0.501028
Si Si6 0.609044 0.153087 0.435770
Si Si7 0.881080 0.076367 0.250000
Si Si8 0.507704 0.594005 0.872152
O O1 0.333103 0.352871 0.750000
O O2 0.289762 0.425793 0.633620
O O3 0.403820 0.181878 0.656923
O O4 0.460174 0.472752 0.677462
O O5 0.798286 0.293579 0.127170
O O6 0.857250 0.012894 0.069384
O O7 0.693353 0.065500 0.097027
O O8 0.820651 0.025267 0.188819
O O9 0.126890 0.032879 0.186330
O O10 0.151715 0.028874 0.058114
O O11 0.902407 0.235891 0.750000
O O12 0.024927 0.018929 0.750000
O O13 0.892477 0.250000 0.500000
O O14 0.000000 0.500000 0.500000
O O15 0.633235 0.250000 0.500000
O O16 0.571244 0.284205 0.387945
O O17 0.536431 0.006033 0.437043
#
# Coordination Sequence:
#
# PCOD8232016 Si02
#       8
#     8   8   8   4   8   8   4   8
#     4  11  21  41  61  94 133 172 216 263 323 385
#     4  10  21  38  64  88 123 164 211 264 319 399
#     4  10  19  36  64  87 124 171 212 255 327 392
#     4  10  20  38  60  89 121 164 208 259 323 384
#     4  10  21  39  61  86 118 162 209 264 325 389
#     4  11  21  42  64  92 127 164 215 265 324 383
#     4  10  22  40  60  93 119 164 210 259 333 396
#     4  10  24  38  63  95 123 172 214 267 317 382
#
# _framework density 21.798863000000001
#
# number of rings (size 3 to 8) (size 9 to 14) (size 15 to 20)
#    0.000    1.714    2.143    3.000    0.000    0.000 
#   11.571    0.000    0.000    0.000    0.000    0.000 
#    0.000    0.000    0.000    0.000    0.000    0.000 
#
# Total GULP energy -693826.878414 kJ/mol
# GULP energy per Si atom -12389.765686 kJ/mol
# Density = 2.174925 g / cm^3
# Si number density = 21.798863 Si / 1000 Ang^3
#
#
#
# Elastic Constant Matrix: (Units=GPa)
#
#
# Indices 1 2 3 4 5 6 
#
# 1 117.0700 17.3383 57.6484 0.0000 0.0000 0.0000
# 2 17.3383 40.4407 20.6682 0.0000 0.0000 0.0000
# 3 57.6484 20.6682 165.5867 0.0000 0.0000 0.0000
# 4 0.0000 0.0000 0.0000 16.6960 0.0000 0.0000
# 5 0.0000 0.0000 0.0000 0.0000 40.9820 0.0000
# 6 0.0000 0.0000 0.0000 0.0000 0.0000 47.2220
#
#
#
# Elastic Compliance Matrix: (Units=1/GPa)
#
#
# Indices 1 2 3 4 5 6 
#
# 1 0.010606 -0.002841 -0.003338 0.000000 0.000000 0.000000
# 2 -0.002841 0.027174 -0.002403 0.000000 0.000000 0.000000
# 3 -0.003338 -0.002403 0.007501 0.000000 0.000000 0.000000
# 4 0.000000 0.000000 0.000000 0.059895 0.000000 0.000000
# 5 0.000000 0.000000 0.000000 0.000000 0.024401 0.000000
# 6 0.000000 0.000000 0.000000 0.000000 0.000000 0.021177
#
#
# Mechanical properties :
#
#
# Convention : Reuss Voigt Hill
#
# Bulk Modulus (GPa) = 35.56515 57.15637 46.36076
# Shear Modulus (GPa) = 28.20245 36.14283 32.17264
#
# Velocity S-wave (km/s) = 3.60079 4.07629 3.84589
# Velocity P-wave (km/s) = 5.79984 6.95929 6.40585
#
# Compressibility (1/GPa) = 0.02811741
#
# Stress axis : x y z
#
# Youngs Moduli (GPa) = 94.28273 36.80039 133.31378
#
# Poissons Ratio (x) = 0.10456 0.44499
# Poissons Ratio (y) = 0.26789 0.32029
# Poissons Ratio (z) = 0.31471 0.08841
#
# Static dielectric constant tensor:
#      x y z
#    x 3.926660 0.000000 0.000000 
#    y 0.000000 3.875690 0.000000 
#    z 0.000000 0.000000 4.267960 
# 
# 
# High freq. dielectric constant tensor:
#      x y z
#    x 1.865710 0.000000 0.000000 
#    y 0.000000 1.839590 0.000000 
#    z 0.000000 0.000000 1.855910 
# 
# From -- ./inp_files/25473.got.cif
#   From: 2010.03.12/outbox.cif.g09.slc.cpg/sg57_13_cif.got.tgz:25473.got - 2010.04.16 15:48:40.
