data_PCOD8232840
_publ_section_title
;
Structure prediction by ZEFSAII (Michael W. Deem and Ramdas Pophale) SiO2 
 PCOD8232840
Probable space group: P B C M
;
_chemical_formula_sum "Si O2"
_cell_formula_units_Z 56
_cell_length_a 20.770356
_cell_length_b 15.202350
_cell_length_c 9.232663
_cell_angle_alpha 90.000000
_cell_angle_beta 90.000000
_cell_angle_gamma 90.000000
_cell_volume 2915.289249
_symmetry_space_group_name_H-M "P B C M"
_symmetry_group_IT_number 57
_symmetry_cell_setting 'orthorhombic'
loop_
_space_group_symop_operation_xyz
x,y,z
-x,-y,1/2+z
x,1/2-y,-z
-x,1/2+y,1/2-z
-x,-y,-z
x,y,1/2-z
-x,1/2+y,z
x,1/2-y,1/2+z
loop_
_atom_site_type_symbol
_atom_site_label
_atom_site_fract_x
_atom_site_fract_y
_atom_site_fract_z
Si Si1 0.368561 0.337069 0.581553
Si Si2 0.641190 0.335889 0.918415
Si Si3 0.058610 0.163174 0.918177
Si Si4 0.506205 0.090452 0.417569
Si Si5 0.090080 0.661706 0.920035
Si Si6 0.855518 0.999374 0.083067
Si Si7 0.293144 0.015773 0.584796
O O1 0.344694 0.250000 0.500000
O O2 0.352588 0.326770 0.750000
O O3 0.444406 0.349111 0.553473
O O4 0.330507 0.420473 0.522210
O O5 0.641304 0.313692 0.750000
O O6 0.569176 0.358419 0.973576
O O7 0.688953 0.415840 0.955704
O O8 0.667138 0.250000 0.000000
O O9 0.069627 0.181162 0.750000
O O10 0.984533 0.142523 0.954422
O O11 0.100123 0.080561 0.971847
O O12 0.082778 0.250000 0.000000
O O13 0.514091 0.066167 0.250000
O O14 0.500000 0.000000 0.500000
O O15 0.103082 0.671958 0.750000
O O16 0.112823 0.750000 0.000000
O O17 0.131867 0.582426 0.982028
O O18 0.871009 0.023620 0.250000
O O19 0.782334 0.969431 0.064082
O O20 0.314422 0.035799 0.750000
#
# Coordination Sequence:
#
# PCOD8232840 Si02
#       7
#     8   8   8   8   8   8   8
#     4  11  23  38  59  85 112 147 188 232 282 335
#     4  10  21  37  57  81 109 143 182 226 277 329
#     4   9  19  35  56  83 113 144 183 230 280 332
#     4  10  20  35  58  85 111 141 180 229 283 333
#     4  10  20  35  57  84 113 146 183 229 280 331
#     4  10  21  37  57  82 113 149 188 230 279 330
#     4  10  22  40  58  79 113 152 188 232 278 326
#
# _framework density 19.209073
#
# number of rings (size 3 to 8) (size 9 to 14) (size 15 to 20)
#    0.000    2.000    1.429    1.714    0.000    4.571 
#    0.000    2.857    0.000    0.000    0.000    0.000 
#    0.000    0.000    0.000    0.000    0.000    0.000 
#
# Total GULP energy -694683.455680 kJ/mol
# GULP energy per Si atom -12405.061709 kJ/mol
# Density = 1.916535 g / cm^3
# Si number density = 19.209073 Si / 1000 Ang^3
#
#
#
# Elastic Constant Matrix: (Units=GPa)
#
#
# Indices 1 2 3 4 5 6 
#
# 1 47.9139 10.4463 23.0809 0.0000 0.0000 0.0000
# 2 10.4463 96.3418 51.6754 0.0000 0.0000 0.0000
# 3 23.0809 51.6754 80.5864 0.0000 0.0000 0.0000
# 4 0.0000 0.0000 0.0000 43.5257 0.0000 0.0000
# 5 0.0000 0.0000 0.0000 0.0000 23.1515 0.0000
# 6 0.0000 0.0000 0.0000 0.0000 0.0000 11.7283
#
#
#
# Elastic Compliance Matrix: (Units=1/GPa)
#
#
# Indices 1 2 3 4 5 6 
#
# 1 0.024388 0.001680 -0.008062 0.000000 0.000000 0.000000
# 2 0.001680 0.015937 -0.010701 0.000000 0.000000 0.000000
# 3 -0.008062 -0.010701 0.021580 0.000000 0.000000 0.000000
# 4 0.000000 0.000000 0.000000 0.022975 0.000000 0.000000
# 5 0.000000 0.000000 0.000000 0.000000 0.043194 0.000000
# 6 0.000000 0.000000 0.000000 0.000000 0.000000 0.085264
#
#
# Mechanical properties :
#
#
# Convention : Reuss Voigt Hill
#
# Bulk Modulus (GPa) = 36.05008 43.91638 39.98323
# Shear Modulus (GPa) = 19.47414 24.99039 22.23227
#
# Velocity S-wave (km/s) = 3.18748 3.61081 3.40572
# Velocity P-wave (km/s) = 5.68811 6.34790 6.02704
#
# Compressibility (1/GPa) = 0.02773919
#
# Stress axis : x y z
#
# Youngs Moduli (GPa) = 41.00326 62.74629 46.33908
#
# Poissons Ratio (x) = -0.10542 0.37361
# Poissons Ratio (y) = -0.06889 0.49587
# Poissons Ratio (z) = 0.33059 0.67144
#
# Static dielectric constant tensor:
#      x y z
#    x 3.546490 0.000000 0.000000 
#    y 0.000000 3.493880 0.000000 
#    z 0.000000 0.000000 3.604860 
# 
# 
# High freq. dielectric constant tensor:
#      x y z
#    x 1.744190 0.000000 0.000000 
#    y 0.000000 1.753560 0.000000 
#    z 0.000000 0.000000 1.745330 
# 
# From -- ./inp_files/8020.got.cif
#   From: 2010.03.12/outbox.cif.g09.slc.cpg/sg57_5_cif.got.tgz:8020.got - 2010.04.16 15:48:40.
