data_PCOD8232769
_publ_section_title
;
Structure prediction by ZEFSAII (Michael W. Deem and Ramdas Pophale) SiO2 
 PCOD8232769
Probable space group: P B C M
;
_chemical_formula_sum "Si O2"
_cell_formula_units_Z 64
_cell_length_a 16.724849
_cell_length_b 22.360266
_cell_length_c 9.073443
_cell_angle_alpha 90.000000
_cell_angle_beta 90.000000
_cell_angle_gamma 90.000000
_cell_volume 3393.214283
_symmetry_space_group_name_H-M "P B C M"
_symmetry_group_IT_number 57
_symmetry_cell_setting 'orthorhombic'
loop_
_space_group_symop_operation_xyz
x,y,z
-x,-y,1/2+z
x,1/2-y,-z
-x,1/2+y,1/2-z
-x,-y,-z
x,y,1/2-z
-x,1/2+y,z
x,1/2-y,1/2+z
loop_
_atom_site_type_symbol
_atom_site_label
_atom_site_fract_x
_atom_site_fract_y
_atom_site_fract_z
Si Si1 0.204403 0.811420 0.076318
Si Si2 0.385249 0.040449 0.576518
Si Si3 0.920217 0.008293 0.086621
Si Si4 0.535237 0.080600 0.418132
Si Si5 0.116502 0.184994 0.424726
Si Si6 0.649227 0.188202 0.421008
Si Si7 0.059854 0.855581 0.586351
Si Si8 0.212271 0.082824 0.574092
O O1 0.211363 0.811991 0.250000
O O2 0.230793 0.750000 0.000000
O O3 0.276454 0.848941 0.000868
O O4 0.112894 0.822038 0.033371
O O5 0.383831 0.047597 0.750000
O O6 0.454355 0.082570 0.512415
O O7 0.299386 0.063031 0.516151
O O8 0.403871 0.971952 0.528683
O O9 0.936594 0.984453 0.250000
O O10 0.903039 0.078449 0.085234
O O11 0.846705 0.970681 0.020442
O O12 0.000000 0.000000 0.000000
O O13 0.511450 0.067443 0.250000
O O14 0.573945 0.145021 0.436912
O O15 0.115994 0.250000 0.500000
O O16 0.130413 0.191864 0.250000
O O17 0.186326 0.144661 0.495462
O O18 0.032764 0.150739 0.459084
O O19 0.623827 0.250000 0.500000
O O20 0.671046 0.199759 0.250000
O O21 0.071390 0.827698 0.750000
O O22 0.209808 0.091790 0.750000
#
# Coordination Sequence:
#
# PCOD8232769 Si02
#       8
#     8   8   8   8   8   8   8   8
#     4  11  22  35  52  77 109 146 187 228 271 321
#     4   9  19  36  59  85 112 143 181 227 278 333
#     4  10  20  35  56  81 113 147 181 224 274 327
#     4   9  19  36  59  85 112 146 182 222 276 333
#     4  11  23  39  59  81 109 147 192 238 284 331
#     4  10  20  35  56  80 113 149 184 224 273 332
#     4  10  21  36  55  80 110 147 187 229 278 326
#     4  10  21  37  59  85 114 149 186 228 280 333
#
# _framework density 18.861172
#
# number of rings (size 3 to 8) (size 9 to 14) (size 15 to 20)
#    0.000    2.000    1.250    3.000    1.750    4.000 
#    0.000    0.625    0.000    1.500    0.000    0.000 
#    0.000    0.000    0.000    0.000    0.000    0.000 
#
# Total GULP energy -793125.313092 kJ/mol
# GULP energy per Si atom -12392.583017 kJ/mol
# Density = 1.881824 g / cm^3
# Si number density = 18.861172 Si / 1000 Ang^3
#
#
#
# Elastic Constant Matrix: (Units=GPa)
#
#
# Indices 1 2 3 4 5 6 
#
# 1 142.5411 53.7299 54.1306 0.0000 0.0000 0.0000
# 2 53.7299 86.3797 38.3877 0.0000 0.0000 0.0000
# 3 54.1306 38.3877 92.6149 0.0000 0.0000 0.0000
# 4 0.0000 0.0000 0.0000 25.2302 0.0000 0.0000
# 5 0.0000 0.0000 0.0000 0.0000 33.9905 0.0000
# 6 0.0000 0.0000 0.0000 0.0000 0.0000 29.3101
#
#
#
# Elastic Compliance Matrix: (Units=1/GPa)
#
#
# Indices 1 2 3 4 5 6 
#
# 1 0.010309 -0.004578 -0.004128 0.000000 0.000000 0.000000
# 2 -0.004578 0.016224 -0.004049 0.000000 0.000000 0.000000
# 3 -0.004128 -0.004049 0.014888 0.000000 0.000000 0.000000
# 4 0.000000 0.000000 0.000000 0.039635 0.000000 0.000000
# 5 0.000000 0.000000 0.000000 0.000000 0.029420 0.000000
# 6 0.000000 0.000000 0.000000 0.000000 0.000000 0.034118
#
#
# Mechanical properties :
#
#
# Convention : Reuss Voigt Hill
#
# Bulk Modulus (GPa) = 62.84699 68.22578 65.53639
# Shear Modulus (GPa) = 28.50533 29.39199 28.94866
#
# Velocity S-wave (km/s) = 3.89179 3.95186 3.92194
# Velocity P-wave (km/s) = 7.32038 7.55473 7.43848
#
# Compressibility (1/GPa) = 0.01591166
#
# Stress axis : x y z
#
# Youngs Moduli (GPa) = 97.00676 61.63852 67.16784
#
# Poissons Ratio (x) = 0.28217 0.27724
# Poissons Ratio (y) = 0.44408 0.27196
# Poissons Ratio (z) = 0.40041 0.24957
#
# Static dielectric constant tensor:
#      x y z
#    x 3.660900 0.000000 0.000000 
#    y 0.000000 3.822430 0.000000 
#    z 0.000000 0.000000 3.619790 
# 
# 
# High freq. dielectric constant tensor:
#      x y z
#    x 1.733510 0.000000 0.000000 
#    y 0.000000 1.723860 0.000000 
#    z 0.000000 0.000000 1.732990 
# 
# From -- ./inp_files/5701.got.cif
#   From: 2010.03.12/outbox.cif.g09.slc.cpg/sg57_3_cif.got.tgz:5701.got - 2010.04.16 15:48:40.
