data_PCOD8232556
_publ_section_title
;
Structure prediction by ZEFSAII (Michael W. Deem and Ramdas Pophale) SiO2 
 PCOD8232556
Probable space group: P B C M
;
_chemical_formula_sum "Si O2"
_cell_formula_units_Z 64
_cell_length_a 21.002334
_cell_length_b 18.443508
_cell_length_c 9.014050
_cell_angle_alpha 90.000000
_cell_angle_beta 90.000000
_cell_angle_gamma 90.000000
_cell_volume 3491.652798
_symmetry_space_group_name_H-M "P B C M"
_symmetry_group_IT_number 57
_symmetry_cell_setting 'orthorhombic'
loop_
_space_group_symop_operation_xyz
x,y,z
-x,-y,1/2+z
x,1/2-y,-z
-x,1/2+y,1/2-z
-x,-y,-z
x,y,1/2-z
-x,1/2+y,z
x,1/2-y,1/2+z
loop_
_atom_site_type_symbol
_atom_site_label
_atom_site_fract_x
_atom_site_fract_y
_atom_site_fract_z
Si Si1 0.816241 0.033849 0.077834
Si Si2 0.510927 0.575507 0.077108
Si Si3 0.398295 0.819014 0.580904
Si Si4 0.255315 0.677038 0.074651
Si Si5 0.123099 0.322389 0.924083
Si Si6 0.063790 0.473508 0.575605
Si Si7 0.617532 0.827902 0.425822
Si Si8 0.757119 0.882617 0.079500
O O1 0.835645 0.038336 0.250000
O O2 0.784828 0.108012 0.020744
O O3 0.766418 0.968398 0.051424
O O4 0.879221 0.023422 0.981788
O O5 0.528997 0.567371 0.250000
O O6 0.443003 0.613028 0.055867
O O7 0.500000 0.500000 0.000000
O O8 0.565725 0.618631 0.993343
O O9 0.428934 0.750000 0.500000
O O10 0.393357 0.796227 0.750000
O O11 0.327702 0.836547 0.519853
O O12 0.250811 0.685440 0.250000
O O13 0.227608 0.750000 0.000000
O O14 0.125634 0.310074 0.750000
O O15 0.077505 0.389675 0.966898
O O16 0.095092 0.250000 0.000000
O O17 0.194686 0.336501 0.979796
O O18 0.057509 0.483568 0.750000
O O19 0.000000 0.500000 0.500000
O O20 0.609794 0.750000 0.500000
O O21 0.607352 0.821076 0.250000
O O22 0.685988 0.861330 0.466078
O O23 0.771149 0.862749 0.250000
#
# Coordination Sequence:
#
# PCOD8232556 Si02
#       8
#     8   8   8   8   8   8   8   8
#     4   9  18  34  57  81 108 144 181 219 269 322
#     4  11  24  39  56  78 106 142 184 232 282 334
#     4   9  19  35  56  77 102 136 177 223 272 327
#     4   9  18  33  55  80 107 138 177 223 272 325
#     4  10  20  34  55  83 114 144 180 225 268 318
#     4  10  21  37  57  82 112 145 182 223 264 313
#     4  11  23  38  57  80 111 146 184 227 276 333
#     4   9  19  34  56  82 109 145 182 223 274 327
#
# _framework density 18.329426999999999
#
# number of rings (size 3 to 8) (size 9 to 14) (size 15 to 20)
#    0.000    2.250    0.000    2.250    1.750    6.000 
#    0.000    0.625    0.000    0.000    0.000    0.000 
#    0.000    0.000    0.000    0.000    0.000    0.000 
#
# Total GULP energy -793704.985542 kJ/mol
# GULP energy per Si atom -12401.640399 kJ/mol
# Density = 1.828771 g / cm^3
# Si number density = 18.329427 Si / 1000 Ang^3
#
#
#
# Elastic Constant Matrix: (Units=GPa)
#
#
# Indices 1 2 3 4 5 6 
#
# 1 113.9449 76.8482 60.7231 0.0000 0.0000 0.0000
# 2 76.8482 153.8551 69.4601 0.0000 0.0000 0.0000
# 3 60.7231 69.4601 86.7895 0.0000 0.0000 0.0000
# 4 0.0000 0.0000 0.0000 35.5470 0.0000 0.0000
# 5 0.0000 0.0000 0.0000 0.0000 30.7989 0.0000
# 6 0.0000 0.0000 0.0000 0.0000 0.0000 21.2612
#
#
#
# Elastic Compliance Matrix: (Units=1/GPa)
#
#
# Indices 1 2 3 4 5 6 
#
# 1 0.015788 -0.004539 -0.007414 0.000000 0.000000 0.000000
# 2 -0.004539 0.011482 -0.006013 0.000000 0.000000 0.000000
# 3 -0.007414 -0.006013 0.021522 0.000000 0.000000 0.000000
# 4 0.000000 0.000000 0.000000 0.028132 0.000000 0.000000
# 5 0.000000 0.000000 0.000000 0.000000 0.032469 0.000000
# 6 0.000000 0.000000 0.000000 0.000000 0.000000 0.047034
#
#
# Mechanical properties :
#
#
# Convention : Reuss Voigt Hill
#
# Bulk Modulus (GPa) = 77.76254 85.40582 81.58418
# Shear Modulus (GPa) = 25.42654 27.35861 26.39258
#
# Velocity S-wave (km/s) = 3.72855 3.86762 3.79872
# Velocity P-wave (km/s) = 7.81365 8.16338 7.99043
#
# Compressibility (1/GPa) = 0.01285966
#
# Stress axis : x y z
#
# Youngs Moduli (GPa) = 63.33792 87.09632 46.46440
#
# Poissons Ratio (x) = 0.39533 0.34448
# Poissons Ratio (y) = 0.28749 0.27940
# Poissons Ratio (z) = 0.46957 0.52373
#
# Static dielectric constant tensor:
#      x y z
#    x 3.567200 0.000000 0.000000 
#    y 0.000000 3.534300 0.000000 
#    z 0.000000 0.000000 3.435960 
# 
# 
# High freq. dielectric constant tensor:
#      x y z
#    x 1.702730 0.000000 0.000000 
#    y 0.000000 1.719770 0.000000 
#    z 0.000000 0.000000 1.715700 
# 
# From -- ./inp_files/8595.got.cif
#   From: 2010.03.12/outbox.cif.g09.slc.cpg/sg57_5_cif.got.tgz:8595.got - 2010.04.16 15:48:40.
