data_PCOD8232492
_publ_section_title
;
Structure prediction by ZEFSAII (Michael W. Deem and Ramdas Pophale) SiO2 
 PCOD8232492
Probable space group: P B C M
;
_chemical_formula_sum "Si O2"
_cell_formula_units_Z 64
_cell_length_a 22.839622
_cell_length_b 16.071124
_cell_length_c 8.707584
_cell_angle_alpha 90.000000
_cell_angle_beta 90.000000
_cell_angle_gamma 90.000000
_cell_volume 3196.191827
_symmetry_space_group_name_H-M "P B C M"
_symmetry_group_IT_number 57
_symmetry_cell_setting 'orthorhombic'
loop_
_space_group_symop_operation_xyz
x,y,z
-x,-y,1/2+z
x,1/2-y,-z
-x,1/2+y,1/2-z
-x,-y,-z
x,y,1/2-z
-x,1/2+y,z
x,1/2-y,1/2+z
loop_
_atom_site_type_symbol
_atom_site_label
_atom_site_fract_x
_atom_site_fract_y
_atom_site_fract_z
Si Si1 0.561660 0.163408 0.069080
Si Si2 0.813881 0.837049 0.574743
Si Si3 0.070667 0.072893 0.425472
Si Si4 0.426921 0.163837 0.430488
Si Si5 0.130163 0.579754 0.073826
Si Si6 0.031753 0.664995 0.929023
Si Si7 0.246423 0.494234 0.429424
Si Si8 0.370311 0.992117 0.069111
O O1 0.569845 0.167163 0.250000
O O2 0.494223 0.153334 0.019579
O O3 0.586792 0.250000 0.000000
O O4 0.594930 0.083267 0.006694
O O5 0.797443 0.750000 0.500000
O O6 0.791724 0.839324 0.750000
O O7 0.884083 0.849931 0.567877
O O8 0.778833 0.906162 0.481062
O O9 0.065170 0.039330 0.250000
O O10 0.006764 0.094356 0.489358
O O11 0.096561 0.004776 0.538056
O O12 0.401066 0.250000 0.500000
O O13 0.419630 0.170885 0.250000
O O14 0.392817 0.082122 0.492621
O O15 0.120512 0.604691 0.250000
O O16 0.198794 0.567130 0.037345
O O17 0.100549 0.650971 0.968430
O O18 0.020346 0.665197 0.750000
O O19 0.009323 0.750000 0.000000
O O20 0.261881 0.489819 0.250000
O O21 0.302724 0.518443 0.527024
O O22 0.379507 0.986175 0.250000
#
# Coordination Sequence:
#
# PCOD8232492 Si02
#       8
#     8   8   8   8   8   8   8   8
#     4  10  20  37  60  87 118 152 193 238 287 339
#     4  10  20  34  54  79 109 145 183 226 276 330
#     4  10  20  35  56  82 110 140 176 217 266 325
#     4   9  20  36  57  87 122 158 192 231 280 336
#     4  10  21  39  59  78 104 139 179 221 269 323
#     4  12  24  37  55  80 109 138 172 217 271 327
#     4  10  22  39  58  79 106 144 189 233 276 327
#     4  11  22  37  58  86 119 154 194 239 286 337
#
# _framework density 20.023828999999999
#
# number of rings (size 3 to 8) (size 9 to 14) (size 15 to 20)
#    0.000    1.750    0.000    4.500    0.000    6.000 
#    0.000    1.875    0.000    3.000    0.000    0.000 
#    0.000    0.000    0.000    0.000    0.000    0.000 
#
# Total GULP energy -793598.893578 kJ/mol
# GULP energy per Si atom -12399.982712 kJ/mol
# Density = 1.997825 g / cm^3
# Si number density = 20.023829 Si / 1000 Ang^3
#
#
#
# Elastic Constant Matrix: (Units=GPa)
#
#
# Indices 1 2 3 4 5 6 
#
# 1 90.3457 34.4041 30.5836 0.0000 0.0000 0.0000
# 2 34.4041 89.1972 28.1280 0.0000 0.0000 0.0000
# 3 30.5836 28.1280 70.8457 0.0000 0.0000 0.0000
# 4 0.0000 0.0000 0.0000 35.6127 0.0000 0.0000
# 5 0.0000 0.0000 0.0000 0.0000 31.5793 0.0000
# 6 0.0000 0.0000 0.0000 0.0000 0.0000 -0.5049
#
#
#
# Elastic Compliance Matrix: (Units=1/GPa)
#
#
# Indices 1 2 3 4 5 6 
#
# 1 0.014126 -0.004030 -0.004498 0.000000 0.000000 0.000000
# 2 -0.004030 0.013965 -0.003805 0.000000 0.000000 0.000000
# 3 -0.004498 -0.003805 0.017568 0.000000 0.000000 0.000000
# 4 0.000000 0.000000 0.000000 0.028080 0.000000 0.000000
# 5 0.000000 0.000000 0.000000 0.000000 0.031666 0.000000
# 6 0.000000 0.000000 0.000000 0.000000 0.000000 -1.980700
#
#
# Mechanical properties :
#
#
# Convention : Reuss Voigt Hill
#
# Bulk Modulus (GPa) = 47.63512 48.51334 48.07423
# Shear Modulus (GPa) = -2.71204 23.82229 10.55513
#
# Velocity S-wave (km/s) = -1.16505 3.45294 2.29842
# Velocity P-wave (km/s) = 4.69373 6.33857 5.57712
#
# Compressibility (1/GPa) = 0.02099292
#
# Stress axis : x y z
#
# Youngs Moduli (GPa) = 70.79191 71.60540 56.92287
#
# Poissons Ratio (x) = 0.28857 0.25604
# Poissons Ratio (y) = 0.28529 0.21659
# Poissons Ratio (z) = 0.31842 0.27246
#
# Static dielectric constant tensor:
#      x y z
#    x 3.748510 0.000000 0.000000 
#    y 0.000000 3.688040 0.000000 
#    z 0.000000 0.000000 3.667180 
# 
# 
# High freq. dielectric constant tensor:
#      x y z
#    x 1.774110 0.000000 0.000000 
#    y 0.000000 1.778800 0.000000 
#    z 0.000000 0.000000 1.791140 
# 
# From -- ./inp_files/9500.got.cif
#   From: 2010.03.12/outbox.cif.g09.slc.cpg/sg57_5_cif.got.tgz:9500.got - 2010.04.16 15:48:40.
