data_PCOD8232071
_publ_section_title
;
Structure prediction by ZEFSAII (Michael W. Deem and Ramdas Pophale) SiO2 
 PCOD8232071
Probable space group: P B C M
;
_chemical_formula_sum "Si O2"
_cell_formula_units_Z 48
_cell_length_a 8.446729
_cell_length_b 9.659239
_cell_length_c 30.051453
_cell_angle_alpha 90.000000
_cell_angle_beta 90.000000
_cell_angle_gamma 90.000000
_cell_volume 2451.867223
_symmetry_space_group_name_H-M "P B C M"
_symmetry_group_IT_number 57
_symmetry_cell_setting 'orthorhombic'
loop_
_space_group_symop_operation_xyz
x,y,z
-x,-y,1/2+z
x,1/2-y,-z
-x,1/2+y,1/2-z
-x,-y,-z
x,y,1/2-z
-x,1/2+y,z
x,1/2-y,1/2+z
loop_
_atom_site_type_symbol
_atom_site_label
_atom_site_fract_x
_atom_site_fract_y
_atom_site_fract_z
Si Si1 0.831152 0.618426 0.201255
Si Si2 0.326629 0.428423 0.609388
Si Si3 0.081166 0.093238 0.670413
Si Si4 0.305509 0.960764 0.600515
Si Si5 0.871853 0.182598 0.909087
Si Si6 0.808781 0.799831 0.048352
O O1 0.758419 0.582380 0.250000
O O2 0.710631 0.577088 0.162033
O O3 0.861875 0.783748 0.202494
O O4 0.992469 0.529694 0.196311
O O5 0.507469 0.468605 0.604543
O O6 0.221220 0.540186 0.582810
O O7 0.282943 0.283832 0.586864
O O8 0.965763 0.172938 0.636779
O O9 0.228344 0.024487 0.644777
O O10 0.255494 0.803298 0.593495
O O11 0.246511 0.042647 0.556548
O O12 0.000461 0.211039 0.947830
O O13 0.753997 0.750000 0.000000
#
# Coordination Sequence:
#
# PCOD8232071 Si02
#       6
#     8   8   8   8   8   8
#     4  11  21  38  63  91 122 159 208 250 296 360
#     4  11  23  39  62  89 126 160 197 251 310 362
#     4  10  19  38  61  89 118 159 203 248 292 354
#     4  11  21  39  64  88 125 160 195 247 311 359
#     4  10  20  37  63  86 116 159 202 242 294 356
#     4  11  23  41  64  90 119 157 207 251 299 367
#
# _framework density 19.576915
#
# number of rings (size 3 to 8) (size 9 to 14) (size 15 to 20)
#    0.000    1.333    5.000    3.500    0.000    3.333 
#    0.000    3.333    0.000    0.000    0.000    0.000 
#    0.000    0.000    0.000    0.000    0.000    0.000 
#
# Total GULP energy -595155.397755 kJ/mol
# GULP energy per Si atom -12399.070787 kJ/mol
# Density = 1.953236 g / cm^3
# Si number density = 19.576915 Si / 1000 Ang^3
#
#
#
# Elastic Constant Matrix: (Units=GPa)
#
#
# Indices 1 2 3 4 5 6 
#
# 1 105.8115 9.6229 31.6690 0.0000 0.0000 0.0000
# 2 9.6229 76.1413 8.6065 0.0000 0.0000 0.0000
# 3 31.6690 8.6065 76.2992 0.0000 0.0000 0.0000
# 4 0.0000 0.0000 0.0000 10.1112 0.0000 0.0000
# 5 0.0000 0.0000 0.0000 0.0000 9.9409 0.0000
# 6 0.0000 0.0000 0.0000 0.0000 0.0000 29.8958
#
#
#
# Elastic Compliance Matrix: (Units=1/GPa)
#
#
# Indices 1 2 3 4 5 6 
#
# 1 0.010848 -0.000873 -0.004404 0.000000 0.000000 0.000000
# 2 -0.000873 0.013373 -0.001146 0.000000 0.000000 0.000000
# 3 -0.004404 -0.001146 0.015064 0.000000 0.000000 0.000000
# 4 0.000000 0.000000 0.000000 0.098901 0.000000 0.000000
# 5 0.000000 0.000000 0.000000 0.000000 0.100595 0.000000
# 6 0.000000 0.000000 0.000000 0.000000 0.000000 0.033449
#
#
# Mechanical properties :
#
#
# Convention : Reuss Voigt Hill
#
# Bulk Modulus (GPa) = 37.82393 39.78318 38.80356
# Shear Modulus (GPa) = 17.01318 23.87982 20.44650
#
# Velocity S-wave (km/s) = 2.95115 3.49635 3.23525
# Velocity P-wave (km/s) = 5.56552 6.05515 5.81549
#
# Compressibility (1/GPa) = 0.02643829
#
# Stress axis : x y z
#
# Youngs Moduli (GPa) = 92.17981 74.77544 66.38515
#
# Poissons Ratio (x) = 0.06529 0.29238
# Poissons Ratio (y) = 0.08049 0.07608
# Poissons Ratio (z) = 0.40598 0.08570
#
# Static dielectric constant tensor:
#      x y z
#    x 3.442570 0.000000 0.000000 
#    y 0.000000 3.747700 0.000000 
#    z 0.000000 0.000000 3.366220 
# 
# 
# High freq. dielectric constant tensor:
#      x y z
#    x 1.749110 0.000000 0.000000 
#    y 0.000000 1.783400 0.000000 
#    z 0.000000 0.000000 1.743410 
# 
# From -- ./inp_files/29457.got.cif
#   From: 2010.03.12/outbox.cif.g09.slc.cpg/sg57_15_cif.got.tgz:29457.got - 2010.04.16 15:48:40.
