data_PCOD8232809
_publ_section_title
;
Structure prediction by ZEFSAII (Michael W. Deem and Ramdas Pophale) SiO2 
 PCOD8232809
Probable space group: P B C M
;
_chemical_formula_sum "Si O2"
_cell_formula_units_Z 48
_cell_length_a 14.797100
_cell_length_b 18.905094
_cell_length_c 8.630289
_cell_angle_alpha 90.000000
_cell_angle_beta 90.000000
_cell_angle_gamma 90.000000
_cell_volume 2414.241933
_symmetry_space_group_name_H-M "P B C M"
_symmetry_group_IT_number 57
_symmetry_cell_setting 'orthorhombic'
loop_
_space_group_symop_operation_xyz
x,y,z
-x,-y,1/2+z
x,1/2-y,-z
-x,1/2+y,1/2-z
-x,-y,-z
x,y,1/2-z
-x,1/2+y,z
x,1/2-y,1/2+z
loop_
_atom_site_type_symbol
_atom_site_label
_atom_site_fract_x
_atom_site_fract_y
_atom_site_fract_z
Si Si1 0.535872 0.827633 0.566740
Si Si2 0.679515 0.925116 0.067407
Si Si3 0.949738 0.097857 0.931586
Si Si4 0.871987 0.553974 0.430753
Si Si5 0.790682 0.176454 0.433731
Si Si6 0.370847 0.921282 0.933599
O O1 0.520578 0.750000 0.500000
O O2 0.531625 0.822284 0.750000
O O3 0.631944 0.858793 0.514438
O O4 0.458211 0.880198 0.500377
O O5 0.667862 0.917716 0.250000
O O6 0.633646 0.998038 0.005161
O O7 0.784775 0.922980 0.026723
O O8 0.968023 0.103156 0.750000
O O9 0.898519 0.025673 0.976952
O O10 0.887858 0.161776 0.990166
O O11 0.045047 0.104206 0.020010
O O12 0.851568 0.562267 0.250000
O O13 0.753938 0.250000 0.500000
O O14 0.799620 0.179098 0.250000
O O15 0.719687 0.117636 0.490543
O O16 0.374228 0.920812 0.750000
#
# Coordination Sequence:
#
# PCOD8232809 Si02
#       6
#     8   8   8   8   8   8
#     4  11  23  41  60  85 118 157 199 244 296 354
#     4  11  21  38  62  90 119 154 196 246 297 349
#     4  10  20  35  56  84 116 153 194 237 288 346
#     4  10  20  35  58  87 116 150 192 240 288 342
#     4  11  21  36  56  84 121 160 198 245 297 354
#     4   9  20  37  60  87 118 153 197 245 294 348
#
# _framework density 19.882016
#
# number of rings (size 3 to 8) (size 9 to 14) (size 15 to 20)
#    0.000    1.667    1.667    3.500    0.000    1.333 
#    0.000    5.833    0.000    0.000    0.000    0.000 
#    0.000    0.000    0.000    0.000    0.000    0.000 
#
# Total GULP energy -595395.436573 kJ/mol
# GULP energy per Si atom -12404.071595 kJ/mol
# Density = 1.983676 g / cm^3
# Si number density = 19.882016 Si / 1000 Ang^3
#
#
#
# Elastic Constant Matrix: (Units=GPa)
#
#
# Indices 1 2 3 4 5 6 
#
# 1 111.7959 33.8580 22.8615 0.0000 0.0000 0.0000
# 2 33.8580 67.4614 21.8109 0.0000 0.0000 0.0000
# 3 22.8615 21.8109 58.2755 0.0000 0.0000 0.0000
# 4 0.0000 0.0000 0.0000 30.7514 0.0000 0.0000
# 5 0.0000 0.0000 0.0000 0.0000 29.0252 0.0000
# 6 0.0000 0.0000 0.0000 0.0000 0.0000 0.6994
#
#
#
# Elastic Compliance Matrix: (Units=1/GPa)
#
#
# Indices 1 2 3 4 5 6 
#
# 1 0.010866 -0.004636 -0.002527 0.000000 0.000000 0.000000
# 2 -0.004636 0.018842 -0.005233 0.000000 0.000000 0.000000
# 3 -0.002527 -0.005233 0.020110 0.000000 0.000000 0.000000
# 4 0.000000 0.000000 0.000000 0.032519 0.000000 0.000000
# 5 0.000000 0.000000 0.000000 0.000000 0.034453 0.000000
# 6 0.000000 0.000000 0.000000 0.000000 0.000000 1.429737
#
#
# Mechanical properties :
#
#
# Convention : Reuss Voigt Hill
#
# Bulk Modulus (GPa) = 39.96158 43.84374 41.90266
# Shear Modulus (GPa) = 3.16523 22.69538 12.93031
#
# Velocity S-wave (km/s) = 1.26312 3.38228 2.55297
# Velocity P-wave (km/s) = 4.71914 6.11170 5.46000
#
# Compressibility (1/GPa) = 0.02502404
#
# Stress axis : x y z
#
# Youngs Moduli (GPa) = 92.03162 53.07253 49.72639
#
# Poissons Ratio (x) = 0.24606 0.12568
# Poissons Ratio (y) = 0.42668 0.26023
# Poissons Ratio (z) = 0.23260 0.27774
#
# Static dielectric constant tensor:
#      x y z
#    x 3.694840 0.000000 0.000000 
#    y 0.000000 3.775090 0.000000 
#    z 0.000000 0.000000 3.446590 
# 
# 
# High freq. dielectric constant tensor:
#      x y z
#    x 1.784800 0.000000 0.000000 
#    y 0.000000 1.762420 0.000000 
#    z 0.000000 0.000000 1.771220 
# 
# From -- ./inp_files/4671.got.cif
#   From: 2010.03.12/outbox.cif.g09.slc.cpg/sg57_3_cif.got.tgz:4671.got - 2010.04.16 15:48:40.
