data_PCOD8232067
_publ_section_title
;
Structure prediction by ZEFSAII (Michael W. Deem and Ramdas Pophale) SiO2 
 PCOD8232067
Probable space group: P B C M
;
_chemical_formula_sum "Si O2"
_cell_formula_units_Z 48
_cell_length_a 8.392842
_cell_length_b 9.680567
_cell_length_c 30.026668
_cell_angle_alpha 90.000000
_cell_angle_beta 90.000000
_cell_angle_gamma 90.000000
_cell_volume 2439.590787
_symmetry_space_group_name_H-M "P B C M"
_symmetry_group_IT_number 57
_symmetry_cell_setting 'orthorhombic'
loop_
_space_group_symop_operation_xyz
x,y,z
-x,-y,1/2+z
x,1/2-y,-z
-x,1/2+y,1/2-z
-x,-y,-z
x,y,1/2-z
-x,1/2+y,z
x,1/2-y,1/2+z
loop_
_atom_site_type_symbol
_atom_site_label
_atom_site_fract_x
_atom_site_fract_y
_atom_site_fract_z
Si Si1 0.083203 0.588744 0.572849
Si Si2 0.171215 0.197331 0.454781
Si Si3 0.811235 0.985040 0.800933
Si Si4 0.673912 0.746406 0.360769
Si Si5 0.695176 0.280854 0.142910
Si Si6 0.126110 0.504180 0.347264
O O1 0.138388 0.466942 0.539387
O O2 0.234752 0.654392 0.597696
O O3 0.991058 0.712151 0.548302
O O4 0.972298 0.506713 0.607374
O O5 0.258489 0.250000 0.500000
O O6 0.282293 0.223788 0.412301
O O7 0.767909 0.954947 0.750000
O O8 0.702385 0.891204 0.832747
O O9 0.000497 0.961501 0.808066
O O10 0.765877 0.141459 0.813907
O O11 0.493372 0.794421 0.358537
O O12 0.783840 0.861589 0.337516
O O13 0.743186 0.122142 0.147829
#
# Coordination Sequence:
#
# PCOD8232067 Si02
#       6
#     8   8   8   8   8   8
#     4  10  19  38  60  89 117 158 203 251 291 349
#     4  11  21  38  63  92 123 163 210 249 293 359
#     4  11  23  41  64  88 116 156 204 249 300 369
#     4  11  23  39  62  89 128 159 194 252 309 360
#     4  11  21  39  62  87 122 159 193 248 313 355
#     4  10  20  37  63  86 116 158 205 238 297 357
#
# _framework density 19.675432000000001
#
# number of rings (size 3 to 8) (size 9 to 14) (size 15 to 20)
#    0.000    1.333    5.000    3.500    0.000    3.333 
#    0.000    3.333    0.000    0.000    0.000    0.000 
#    0.000    0.000    0.000    0.000    0.000    0.000 
#
# Total GULP energy -595246.514170 kJ/mol
# GULP energy per Si atom -12400.969045 kJ/mol
# Density = 1.963065 g / cm^3
# Si number density = 19.675432 Si / 1000 Ang^3
#
#
#
# Elastic Constant Matrix: (Units=GPa)
#
#
# Indices 1 2 3 4 5 6 
#
# 1 93.6036 10.4568 19.8964 0.0000 0.0000 0.0000
# 2 10.4568 82.8180 16.0487 0.0000 0.0000 0.0000
# 3 19.8964 16.0487 103.1961 0.0000 0.0000 0.0000
# 4 0.0000 0.0000 0.0000 13.2469 0.0000 0.0000
# 5 0.0000 0.0000 0.0000 0.0000 9.4875 0.0000
# 6 0.0000 0.0000 0.0000 0.0000 0.0000 30.1830
#
#
#
# Elastic Compliance Matrix: (Units=1/GPa)
#
#
# Indices 1 2 3 4 5 6 
#
# 1 0.011224 -0.001029 -0.002004 0.000000 0.000000 0.000000
# 2 -0.001029 0.012544 -0.001752 0.000000 0.000000 0.000000
# 3 -0.002004 -0.001752 0.010349 0.000000 0.000000 0.000000
# 4 0.000000 0.000000 0.000000 0.075490 0.000000 0.000000
# 5 0.000000 0.000000 0.000000 0.000000 0.105401 0.000000
# 6 0.000000 0.000000 0.000000 0.000000 0.000000 0.033131
#
#
# Mechanical properties :
#
#
# Convention : Reuss Voigt Hill
#
# Bulk Modulus (GPa) = 40.73830 41.38015 41.05923
# Shear Modulus (GPa) = 18.80457 26.13120 22.46789
#
# Velocity S-wave (km/s) = 3.09486 3.64828 3.38291
# Velocity P-wave (km/s) = 5.78973 6.23086 6.01434
#
# Compressibility (1/GPa) = 0.02454692
#
# Stress axis : x y z
#
# Youngs Moduli (GPa) = 89.09264 79.71832 96.62572
#
# Poissons Ratio (x) = 0.08202 0.19364
# Poissons Ratio (y) = 0.09166 0.16933
# Poissons Ratio (z) = 0.17855 0.13970
#
# Static dielectric constant tensor:
#      x y z
#    x 3.433720 0.000000 0.000000 
#    y 0.000000 3.764920 0.000000 
#    z 0.000000 0.000000 3.422800 
# 
# 
# High freq. dielectric constant tensor:
#      x y z
#    x 1.752470 0.000000 0.000000 
#    y 0.000000 1.788010 0.000000 
#    z 0.000000 0.000000 1.746950 
# 
# From -- ./inp_files/29440.got.cif
#   From: 2010.03.12/outbox.cif.g09.slc.cpg/sg57_15_cif.got.tgz:29440.got - 2010.04.16 15:48:40.
