data_PCOD8232571
_publ_section_title
;
Structure prediction by ZEFSAII (Michael W. Deem and Ramdas Pophale) SiO2 
 PCOD8232571
Probable space group: P B C M
;
_chemical_formula_sum "Si O2"
_cell_formula_units_Z 48
_cell_length_a 28.036113
_cell_length_b 5.087605
_cell_length_c 17.173124
_cell_angle_alpha 90.000000
_cell_angle_beta 90.000000
_cell_angle_gamma 90.000000
_cell_volume 2449.517198
_symmetry_space_group_name_H-M "P B C M"
_symmetry_group_IT_number 57
_symmetry_cell_setting 'orthorhombic'
loop_
_space_group_symop_operation_xyz
x,y,z
-x,-y,1/2+z
x,1/2-y,-z
-x,1/2+y,1/2-z
-x,-y,-z
x,y,1/2-z
-x,1/2+y,z
x,1/2-y,1/2+z
loop_
_atom_site_type_symbol
_atom_site_label
_atom_site_fract_x
_atom_site_fract_y
_atom_site_fract_z
Si Si1 0.222845 0.502096 0.051563
Si Si2 0.029343 0.999857 0.841831
Si Si3 0.319497 0.176764 0.590699
Si Si4 0.634147 0.174129 0.841369
Si Si5 0.527585 0.436664 0.342637
Si Si6 0.118022 0.994532 0.552801
O O1 0.265969 0.430890 0.110710
O O2 0.171049 0.557382 0.090254
O O3 0.239736 0.750000 0.000000
O O4 0.213707 0.250000 0.000000
O O5 0.035791 0.005806 0.750000
O O6 0.082037 0.022205 0.876073
O O7 0.003419 0.737979 0.871251
O O8 0.324202 0.250000 0.500000
O O9 0.329093 0.438894 0.640430
O O10 0.355268 0.943021 0.612895
O O11 0.635535 0.238167 0.750000
O O12 0.582111 0.083024 0.870331
O O13 0.525772 0.434643 0.250000
O O14 0.504119 0.699728 0.376602
O O15 0.102965 0.750000 0.500000
O O16 0.115758 0.250000 0.500000
#
# Coordination Sequence:
#
# PCOD8232571 Si02
#       6
#     8   8   8   8   8   8
#     4   9  18  34  55  79 105 138 179 220 263 318
#     4  10  21  36  52  74 109 146 174 208 265 329
#     4  11  21  37  59  80 110 151 184 214 272 345
#     4  11  22  36  57  86 113 137 181 238 274 309
#     4   9  17  31  52  76 103 139 179 218 266 322
#     4  10  20  34  56  81 103 132 180 232 263 297
#
# _framework density 19.595700000000001
#
# number of rings (size 3 to 8) (size 9 to 14) (size 15 to 20)
#    0.000    2.000    0.000    5.000    0.000    4.667 
#    0.000    1.667    0.000   12.000    0.000    0.000 
#    0.000    0.000    0.000    0.000    0.000    0.000 
#
# Total GULP energy -595050.423530 kJ/mol
# GULP energy per Si atom -12396.883824 kJ/mol
# Density = 1.955110 g / cm^3
# Si number density = 19.595700 Si / 1000 Ang^3
#
#
#
# Elastic Constant Matrix: (Units=GPa)
#
#
# Indices 1 2 3 4 5 6 
#
# 1 123.9704 20.6301 41.3339 0.0000 0.0000 0.0000
# 2 20.6301 115.5561 23.3889 0.0000 0.0000 0.0000
# 3 41.3339 23.3889 35.2702 0.0000 0.0000 0.0000
# 4 0.0000 0.0000 0.0000 21.1220 0.0000 0.0000
# 5 0.0000 0.0000 0.0000 0.0000 25.5963 0.0000
# 6 0.0000 0.0000 0.0000 0.0000 0.0000 36.0402
#
#
#
# Elastic Compliance Matrix: (Units=1/GPa)
#
#
# Indices 1 2 3 4 5 6 
#
# 1 0.013321 0.000903 -0.016209 0.000000 0.000000 0.000000
# 2 0.000903 0.010057 -0.007727 0.000000 0.000000 0.000000
# 3 -0.016209 -0.007727 0.052473 0.000000 0.000000 0.000000
# 4 0.000000 0.000000 0.000000 0.047344 0.000000 0.000000
# 5 0.000000 0.000000 0.000000 0.000000 0.039068 0.000000
# 6 0.000000 0.000000 0.000000 0.000000 0.000000 0.027747
#
#
# Mechanical properties :
#
#
# Convention : Reuss Voigt Hill
#
# Bulk Modulus (GPa) = 33.57631 49.50028 41.53829
# Shear Modulus (GPa) = 20.32490 29.18130 24.75310
#
# Velocity S-wave (km/s) = 3.22407 3.86316 3.55799
# Velocity P-wave (km/s) = 5.57057 6.72416 6.17436
#
# Compressibility (1/GPa) = 0.02978291
#
# Stress axis : x y z
#
# Youngs Moduli (GPa) = 75.07094 99.43747 19.05753
#
# Poissons Ratio (x) = -0.08976 0.30891
# Poissons Ratio (y) = -0.06777 0.14725
# Poissons Ratio (z) = 1.21686 0.76833
#
# Static dielectric constant tensor:
#      x y z
#    x 4.015530 0.000000 0.000000 
#    y 0.000000 3.939890 0.000000 
#    z 0.000000 0.000000 3.095170 
# 
# 
# High freq. dielectric constant tensor:
#      x y z
#    x 1.781120 0.000000 0.000000 
#    y 0.000000 1.790630 0.000000 
#    z 0.000000 0.000000 1.711630 
# 
# From -- ./inp_files/19564.got.cif
#   From: 2010.03.12/outbox.cif.g09.slc.cpg/sg57_10_cif.got.tgz:19564.got - 2010.04.16 15:48:40.
