data_PCOD8232987
_publ_section_title
;
Structure prediction by ZEFSAII (Michael W. Deem and Ramdas Pophale) SiO2 
 PCOD8232987
Probable space group: P B C M
;
_chemical_formula_sum "Si O2"
_cell_formula_units_Z 48
_cell_length_a 9.880071
_cell_length_b 30.209526
_cell_length_c 8.867223
_cell_angle_alpha 90.000000
_cell_angle_beta 90.000000
_cell_angle_gamma 90.000000
_cell_volume 2646.620104
_symmetry_space_group_name_H-M "P B C M"
_symmetry_group_IT_number 57
_symmetry_cell_setting 'orthorhombic'
loop_
_space_group_symop_operation_xyz
x,y,z
-x,-y,1/2+z
x,1/2-y,-z
-x,1/2+y,1/2-z
-x,-y,-z
x,y,1/2-z
-x,1/2+y,z
x,1/2-y,1/2+z
loop_
_atom_site_type_symbol
_atom_site_label
_atom_site_fract_x
_atom_site_fract_y
_atom_site_fract_z
Si Si1 0.906076 0.036385 0.073525
Si Si2 0.110042 0.630078 0.570866
Si Si3 0.597386 0.465557 0.576788
Si Si4 0.592271 0.796044 0.428424
Si Si5 0.393620 0.634179 0.070187
Si Si6 0.097455 0.295031 0.074163
O O1 0.937519 0.041406 0.250000
O O2 0.752264 0.021094 0.045706
O O3 0.934854 0.082952 0.994209
O O4 0.000000 0.000000 0.000000
O O5 0.125818 0.626836 0.750000
O O6 0.249095 0.647587 0.498696
O O7 0.993979 0.664221 0.520526
O O8 0.500000 0.500000 0.500000
O O9 0.561242 0.467667 0.750000
O O10 0.571360 0.415778 0.518073
O O11 0.542352 0.750000 0.500000
O O12 0.568142 0.794948 0.250000
O O13 0.508692 0.835144 0.503126
O O14 0.747953 0.804924 0.472222
O O15 0.385219 0.638304 0.250000
O O16 0.084811 0.287628 0.250000
O O17 0.043837 0.250000 0.000000
#
# Coordination Sequence:
#
# PCOD8232987 Si02
#       6
#     8   8   8   8   8   8
#     4  10  21  37  55  79 108 140 177 219 264 316
#     4  10  20  36  56  80 108 140 177 220 266 315
#     4   9  20  36  54  77 106 137 175 218 261 310
#     4  10  20  36  56  79 106 139 175 217 264 312
#     4  10  21  37  54  78 109 141 177 218 261 314
#     4   9  20  36  55  79 107 137 175 218 263 313
#
# _framework density 18.136339
#
# number of rings (size 3 to 8) (size 9 to 14) (size 15 to 20)
#    0.000    2.333    0.000    3.000    0.000    8.000 
#    0.000    6.667    0.000    0.000    0.000    0.000 
#    0.000    0.000    0.000    0.000    0.000    0.000 
#
# Total GULP energy -595281.796047 kJ/mol
# GULP energy per Si atom -12401.704084 kJ/mol
# Density = 1.809506 g / cm^3
# Si number density = 18.136339 Si / 1000 Ang^3
#
#
#
# Elastic Constant Matrix: (Units=GPa)
#
#
# Indices 1 2 3 4 5 6 
#
# 1 101.4676 82.6019 52.6177 0.0000 0.0000 0.0000
# 2 82.6019 119.9932 56.8997 0.0000 0.0000 0.0000
# 3 52.6177 56.8997 85.1845 0.0000 0.0000 0.0000
# 4 0.0000 0.0000 0.0000 37.5950 0.0000 0.0000
# 5 0.0000 0.0000 0.0000 0.0000 31.7463 0.0000
# 6 0.0000 0.0000 0.0000 0.0000 0.0000 41.4310
#
#
#
# Elastic Compliance Matrix: (Units=1/GPa)
#
#
# Indices 1 2 3 4 5 6 
#
# 1 0.024098 -0.013948 -0.005568 0.000000 0.000000 0.000000
# 2 -0.013948 0.020271 -0.004924 0.000000 0.000000 0.000000
# 3 -0.005568 -0.004924 0.018468 0.000000 0.000000 0.000000
# 4 0.000000 0.000000 0.000000 0.026599 0.000000 0.000000
# 5 0.000000 0.000000 0.000000 0.000000 0.031500 0.000000
# 6 0.000000 0.000000 0.000000 0.000000 0.000000 0.024137
#
#
# Mechanical properties :
#
#
# Convention : Reuss Voigt Hill
#
# Bulk Modulus (GPa) = 71.65904 76.76486 74.21195
# Shear Modulus (GPa) = 25.17571 29.78952 27.48261
#
# Velocity S-wave (km/s) = 3.72981 4.05721 3.89695
# Velocity P-wave (km/s) = 7.62534 8.02287 7.82663
#
# Compressibility (1/GPa) = 0.01395497
#
# Stress axis : x y z
#
# Youngs Moduli (GPa) = 41.49795 49.33252 54.14839
#
# Poissons Ratio (x) = 0.68810 0.30150
# Poissons Ratio (y) = 0.57882 0.26664
# Poissons Ratio (z) = 0.23106 0.24293
#
# Static dielectric constant tensor:
#      x y z
#    x 3.460020 0.000000 0.000000 
#    y 0.000000 3.807900 0.000000 
#    z 0.000000 0.000000 3.430920 
# 
# 
# High freq. dielectric constant tensor:
#      x y z
#    x 1.704130 0.000000 0.000000 
#    y 0.000000 1.709020 0.000000 
#    z 0.000000 0.000000 1.713980 
# 
# From -- ./inp_files/2105.got.cif
#   From: 2010.03.12/outbox.cif.g09.slc.cpg/sg57_2_cif.got.tgz:2105.got - 2010.04.16 15:48:40.
