data_PCOD8232593
_publ_section_title
;
Structure prediction by ZEFSAII (Michael W. Deem and Ramdas Pophale) SiO2 
 PCOD8232593
Probable space group: P B C M
;
_chemical_formula_sum "Si O2"
_cell_formula_units_Z 56
_cell_length_a 5.599594
_cell_length_b 25.008527
_cell_length_c 21.107035
_cell_angle_alpha 90.000000
_cell_angle_beta 90.000000
_cell_angle_gamma 90.000000
_cell_volume 2955.778477
_symmetry_space_group_name_H-M "P B C M"
_symmetry_group_IT_number 57
_symmetry_cell_setting 'orthorhombic'
loop_
_space_group_symop_operation_xyz
x,y,z
-x,-y,1/2+z
x,1/2-y,-z
-x,1/2+y,1/2-z
-x,-y,-z
x,y,1/2-z
-x,1/2+y,z
x,1/2-y,1/2+z
loop_
_atom_site_type_symbol
_atom_site_label
_atom_site_fract_x
_atom_site_fract_y
_atom_site_fract_z
Si Si1 0.074130 0.361378 0.095155
Si Si2 0.554797 0.713962 0.063303
Si Si3 0.600247 0.708258 0.822717
Si Si4 0.055133 0.657821 0.461857
Si Si5 0.308065 0.603120 0.819501
Si Si6 0.814745 0.457671 0.974870
Si Si7 0.565931 0.551748 0.920962
O O1 0.168790 0.318589 0.145533
O O2 0.256934 0.400397 0.058272
O O3 0.916298 0.402445 0.135015
O O4 0.942122 0.330625 0.037866
O O5 0.526277 0.744541 0.130160
O O6 0.307347 0.680864 0.063022
O O7 0.806719 0.681099 0.067311
O O8 0.568964 0.750000 0.000000
O O9 0.655411 0.727570 0.750000
O O10 0.390836 0.664647 0.820266
O O11 0.060727 0.594354 0.444620
O O12 0.241414 0.583251 0.750000
O O13 0.506466 0.562911 0.847276
O O14 0.656493 0.490696 0.924206
O O15 0.656613 0.437840 0.033342
O O16 0.000000 0.500000 0.000000
#
# Coordination Sequence:
#
# PCOD8232593 Si02
#       7
#     8   8   8   8   8   8   8
#     4  11  19  36  57  93 123 157 199 260 313 383
#     4  12  25  40  61  91 127 166 206 263 312 368
#     4  10  23  40  60  87 124 170 211 253 317 381
#     4  12  24  38  61  93 128 159 211 255 316 372
#     4  10  20  35  59  87 120 157 203 257 313 379
#     4  11  21  35  59  87 120 160 194 251 309 378
#     4  10  20  34  56  87 125 155 195 248 313 371
#
# _framework density 18.945938999999999
#
# number of rings (size 3 to 8) (size 9 to 14) (size 15 to 20)
#    0.000    1.143    4.286    2.571    4.000    0.571 
#    0.000    0.000    0.000    1.714    0.000    0.000 
#    0.000    0.000    0.000    0.000    0.000    0.000 
#
# Total GULP energy -693750.104150 kJ/mol
# GULP energy per Si atom -12388.394717 kJ/mol
# Density = 1.890282 g / cm^3
# Si number density = 18.945939 Si / 1000 Ang^3
#
#
#
# Elastic Constant Matrix: (Units=GPa)
#
#
# Indices 1 2 3 4 5 6 
#
# 1 111.1859 46.7877 35.9731 0.0000 0.0000 0.0000
# 2 46.7877 102.7853 49.0982 0.0000 0.0000 0.0000
# 3 35.9731 49.0982 132.3191 0.0000 0.0000 0.0000
# 4 0.0000 0.0000 0.0000 25.4129 0.0000 0.0000
# 5 0.0000 0.0000 0.0000 0.0000 20.2108 0.0000
# 6 0.0000 0.0000 0.0000 0.0000 0.0000 33.0178
#
#
#
# Elastic Compliance Matrix: (Units=1/GPa)
#
#
# Indices 1 2 3 4 5 6 
#
# 1 0.011340 -0.004484 -0.001419 0.000000 0.000000 0.000000
# 2 -0.004484 0.013598 -0.003827 0.000000 0.000000 0.000000
# 3 -0.001419 -0.003827 0.009363 0.000000 0.000000 0.000000
# 4 0.000000 0.000000 0.000000 0.039350 0.000000 0.000000
# 5 0.000000 0.000000 0.000000 0.000000 0.049478 0.000000
# 6 0.000000 0.000000 0.000000 0.000000 0.000000 0.030287
#
#
# Mechanical properties :
#
#
# Convention : Reuss Voigt Hill
#
# Bulk Modulus (GPa) = 67.37788 67.77867 67.57827
# Shear Modulus (GPa) = 28.11780 30.02372 29.07076
#
# Velocity S-wave (km/s) = 3.85659 3.98515 3.92140
# Velocity P-wave (km/s) = 7.44792 7.55167 7.49997
#
# Compressibility (1/GPa) = 0.01484167
#
# Stress axis : x y z
#
# Youngs Moduli (GPa) = 88.18332 73.54000 106.80122
#
# Poissons Ratio (x) = 0.32976 0.15156
# Poissons Ratio (y) = 0.39542 0.40869
# Poissons Ratio (z) = 0.12514 0.28141
#
# Static dielectric constant tensor:
#      x y z
#    x 3.784680 0.000000 0.000000 
#    y 0.000000 3.631550 0.000000 
#    z 0.000000 0.000000 3.494390 
# 
# 
# High freq. dielectric constant tensor:
#      x y z
#    x 1.756720 0.000000 0.000000 
#    y 0.000000 1.721540 0.000000 
#    z 0.000000 0.000000 1.712590 
# 
# From -- ./inp_files/23773.got.cif
#   From: 2010.03.12/outbox.cif.g09.slc.cpg/sg57_12_cif.got.tgz:23773.got - 2010.04.16 15:48:40.
