data_PCOD8232162
_publ_section_title
;
Structure prediction by ZEFSAII (Michael W. Deem and Ramdas Pophale) SiO2 
 PCOD8232162
Probable space group: P B C M
;
_chemical_formula_sum "Si O2"
_cell_formula_units_Z 56
_cell_length_a 12.164227
_cell_length_b 21.376613
_cell_length_c 11.505648
_cell_angle_alpha 90.000000
_cell_angle_beta 90.000000
_cell_angle_gamma 90.000000
_cell_volume 2991.813339
_symmetry_space_group_name_H-M "P B C M"
_symmetry_group_IT_number 57
_symmetry_cell_setting 'orthorhombic'
loop_
_space_group_symop_operation_xyz
x,y,z
-x,-y,1/2+z
x,1/2-y,-z
-x,1/2+y,1/2-z
-x,-y,-z
x,y,1/2-z
-x,1/2+y,z
x,1/2-y,1/2+z
loop_
_atom_site_type_symbol
_atom_site_label
_atom_site_fract_x
_atom_site_fract_y
_atom_site_fract_z
Si Si1 0.107945 0.639688 0.378629
Si Si2 0.312457 0.938899 0.887999
Si Si3 0.194606 0.178070 0.618585
Si Si4 0.004824 0.250000 0.000000
Si Si5 0.529169 0.868382 0.883707
Si Si6 0.733067 0.939399 0.974280
Si Si7 0.047022 0.028978 0.120420
Si Si8 0.622018 0.750000 0.000000
O O1 0.145478 0.659307 0.250000
O O2 0.207475 0.599889 0.435870
O O3 0.081278 0.702184 0.446079
O O4 0.997478 0.599120 0.375721
O O5 0.308313 0.945890 0.750000
O O6 0.421600 0.903608 0.931533
O O7 0.312049 0.008825 0.937532
O O8 0.191473 0.155337 0.750000
O O9 0.082269 0.215429 0.593180
O O10 0.205188 0.116402 0.541113
O O11 0.298824 0.223872 0.601392
O O12 0.514127 0.851139 0.750000
O O13 0.542949 0.804120 0.953344
O O14 0.633178 0.913400 0.898855
O O15 0.821191 0.969910 0.886933
O O16 0.017199 0.997984 0.250000
O O17 0.000000 0.000000 0.000000
#
# Coordination Sequence:
#
# PCOD8232162 Si02
#       8
#     8   8   8   4   8   8   8   4
#     4  10  21  37  55  79 114 152 190 232 286 344
#     4  10  21  37  58  81 112 152 194 237 289 352
#     4  10  20  32  52  82 114 144 184 239 295 348
#     4  11  20  35  52  82 110 153 195 234 288 342
#     4  10  21  37  58  83 110 148 192 237 290 347
#     4  11  20  36  57  86 113 149 186 244 293 351
#     4  11  22  38  60  87 119 155 191 236 294 354
#     4   9  20  35  54  78 108 145 187 234 290 346
#
# _framework density 18.717745000000001
#
# number of rings (size 3 to 8) (size 9 to 14) (size 15 to 20)
#    0.000    1.714    2.857    2.143    0.000    1.143 
#    0.000    0.000    0.000    2.571    0.000    0.000 
#    0.000    0.000    0.000    0.000    0.000    0.000 
#
# Total GULP energy -694172.454019 kJ/mol
# GULP energy per Si atom -12395.936679 kJ/mol
# Density = 1.867514 g / cm^3
# Si number density = 18.717745 Si / 1000 Ang^3
#
#
#
# Elastic Constant Matrix: (Units=GPa)
#
#
# Indices 1 2 3 4 5 6 
#
# 1 96.6308 34.3344 19.3139 0.0000 0.0000 0.0000
# 2 34.3344 96.7041 27.7094 0.0000 0.0000 0.0000
# 3 19.3139 27.7094 85.2929 0.0000 0.0000 0.0000
# 4 0.0000 0.0000 0.0000 23.9139 0.0000 0.0000
# 5 0.0000 0.0000 0.0000 0.0000 21.6398 0.0000
# 6 0.0000 0.0000 0.0000 0.0000 0.0000 30.4131
#
#
#
# Elastic Compliance Matrix: (Units=1/GPa)
#
#
# Indices 1 2 3 4 5 6 
#
# 1 0.012008 -0.003842 -0.001471 0.000000 0.000000 0.000000
# 2 -0.003842 0.012631 -0.003234 0.000000 0.000000 0.000000
# 3 -0.001471 -0.003234 0.013108 0.000000 0.000000 0.000000
# 4 0.000000 0.000000 0.000000 0.041817 0.000000 0.000000
# 5 0.000000 0.000000 0.000000 0.000000 0.046211 0.000000
# 6 0.000000 0.000000 0.000000 0.000000 0.000000 0.032881
#
#
# Mechanical properties :
#
#
# Convention : Reuss Voigt Hill
#
# Bulk Modulus (GPa) = 48.41628 49.03813 48.72721
# Shear Modulus (GPa) = 27.37730 28.34471 27.86100
#
# Velocity S-wave (km/s) = 3.82860 3.89565 3.86227
# Velocity P-wave (km/s) = 6.74291 6.81839 6.78075
#
# Compressibility (1/GPa) = 0.02065421
#
# Stress axis : x y z
#
# Youngs Moduli (GPa) = 83.27971 79.16779 76.28980
#
# Poissons Ratio (x) = 0.30415 0.11222
# Poissons Ratio (y) = 0.31994 0.24669
# Poissons Ratio (z) = 0.12250 0.25600
#
# Static dielectric constant tensor:
#      x y z
#    x 3.543410 0.000000 0.000000 
#    y 0.000000 3.370500 0.000000 
#    z 0.000000 0.000000 3.398740 
# 
# 
# High freq. dielectric constant tensor:
#      x y z
#    x 1.728590 0.000000 0.000000 
#    y 0.000000 1.724940 0.000000 
#    z 0.000000 0.000000 1.718640 
# 
# From -- ./inp_files/13123.got.cif
#   From: 2010.03.12/outbox.cif.g09.slc.cpg/sg57_7_cif.got.tgz:13123.got - 2010.04.16 15:48:40.
