data_PCOD8232185
_publ_section_title
;
Structure prediction by ZEFSAII (Michael W. Deem and Ramdas Pophale) SiO2 
 PCOD8232185
Probable space group: P B C M
;
_chemical_formula_sum "Si O2"
_cell_formula_units_Z 48
_cell_length_a 17.696581
_cell_length_b 13.513927
_cell_length_c 8.955140
_cell_angle_alpha 90.000000
_cell_angle_beta 90.000000
_cell_angle_gamma 90.000000
_cell_volume 2141.624451
_symmetry_space_group_name_H-M "P B C M"
_symmetry_group_IT_number 57
_symmetry_cell_setting 'orthorhombic'
loop_
_space_group_symop_operation_xyz
x,y,z
-x,-y,1/2+z
x,1/2-y,-z
-x,1/2+y,1/2-z
-x,-y,-z
x,y,1/2-z
-x,1/2+y,z
x,1/2-y,1/2+z
loop_
_atom_site_type_symbol
_atom_site_label
_atom_site_fract_x
_atom_site_fract_y
_atom_site_fract_z
Si Si1 0.762255 0.051306 0.927256
Si Si2 0.464380 0.350607 0.424675
Si Si3 0.093468 0.601497 0.420599
Si Si4 0.211597 0.156599 0.919848
Si Si5 0.045870 0.378669 0.086836
Si Si6 0.391630 0.556449 0.424503
O O1 0.759729 0.052228 0.750000
O O2 0.830599 0.122377 0.984149
O O3 0.684455 0.092353 0.994613
O O4 0.772101 0.940275 0.985771
O O5 0.432966 0.250000 0.500000
O O6 0.479041 0.333393 0.250000
O O7 0.403871 0.438565 0.450496
O O8 0.542138 0.379859 0.503483
O O9 0.111144 0.626446 0.250000
O O10 0.072552 0.488757 0.452215
O O11 0.019100 0.662419 0.474419
O O12 0.241999 0.142362 0.750000
O O13 0.122361 0.184575 0.917237
O O14 0.252204 0.250000 0.000000
O O15 0.008042 0.376538 0.250000
O O16 0.387298 0.581369 0.250000
#
# Coordination Sequence:
#
# PCOD8232185 Si02
#       6
#     8   8   8   8   8   8
#     4  11  21  33  51  75 106 141 178 221 272 327
#     4  10  21  38  62  89 116 149 187 228 277 333
#     4   9  16  27  45  68  93 123 163 209 258 309
#     4  10  20  33  48  69 100 138 180 225 276 331
#     4   8  15  27  43  64  90 122 163 209 255 308
#     4  10  21  38  59  85 118 151 189 234 278 332
#
# _framework density 22.412894000000001
#
# number of rings (size 3 to 8) (size 9 to 14) (size 15 to 20)
#    0.000    2.333    0.000    4.500    0.000    7.333 
#    0.000    1.667    0.000    1.000    0.000    4.667 
#    0.000    0.000    0.000    0.000    0.000    0.000 
#
# Total GULP energy -594955.540132 kJ/mol
# GULP energy per Si atom -12394.907086 kJ/mol
# Density = 2.236188 g / cm^3
# Si number density = 22.412894 Si / 1000 Ang^3
#
#
#
# Elastic Constant Matrix: (Units=GPa)
#
#
# Indices 1 2 3 4 5 6 
#
# 1 93.7824 -18.4905 54.5722 0.0000 0.0000 0.0000
# 2 -18.4905 33.2724 5.5717 0.0000 0.0000 0.0000
# 3 54.5722 5.5717 162.1238 0.0000 0.0000 0.0000
# 4 0.0000 0.0000 0.0000 25.6783 0.0000 0.0000
# 5 0.0000 0.0000 0.0000 0.0000 39.7395 0.0000
# 6 0.0000 0.0000 0.0000 0.0000 0.0000 -131.8360
#
#
#
# Elastic Compliance Matrix: (Units=1/GPa)
#
#
# Indices 1 2 3 4 5 6 
#
# 1 0.015905 0.009792 -0.005690 0.000000 0.000000 0.000000
# 2 0.009792 0.036257 -0.004542 0.000000 0.000000 0.000000
# 3 -0.005690 -0.004542 0.008240 0.000000 0.000000 0.000000
# 4 0.000000 0.000000 0.000000 0.038943 0.000000 0.000000
# 5 0.000000 0.000000 0.000000 0.000000 0.025164 0.000000
# 6 0.000000 0.000000 0.000000 0.000000 0.000000 -0.007585
#
#
# Mechanical properties :
#
#
# Convention : Reuss Voigt Hill
#
# Bulk Modulus (GPa) = 16.80106 41.38728 29.09417
# Shear Modulus (GPa) = 36.32549 3.21802 19.77176
#
# Velocity S-wave (km/s) = 4.03021 1.19954 2.97334
# Velocity P-wave (km/s) = 5.40085 4.51934 4.97964
#
# Compressibility (1/GPa) = 0.05952004
#
# Stress axis : x y z
#
# Youngs Moduli (GPa) = 62.87485 27.58090 121.36566
#
# Poissons Ratio (x) = -0.27006 0.69059
# Poissons Ratio (y) = -0.61564 0.55124
# Poissons Ratio (z) = 0.35777 0.12527
#
# Static dielectric constant tensor:
#      x y z
#    x 4.258240 0.000000 0.000000 
#    y 0.000000 3.726750 0.000000 
#    z 0.000000 0.000000 4.034850 
# 
# 
# High freq. dielectric constant tensor:
#      x y z
#    x 1.883750 0.000000 0.000000 
#    y 0.000000 1.858700 0.000000 
#    z 0.000000 0.000000 1.891130 
# 
# From -- ./inp_files/6545.got.cif
#   From: 2010.03.12/outbox.cif.g09.slc.cpg/sg57_4_cif.got.tgz:6545.got - 2010.04.16 15:48:40.
