data_PCOD8232201
_publ_section_title
;
Structure prediction by ZEFSAII (Michael W. Deem and Ramdas Pophale) SiO2 
 PCOD8232201
Probable space group: P B C M
;
_chemical_formula_sum "Si O2"
_cell_formula_units_Z 64
_cell_length_a 21.493769
_cell_length_b 19.540328
_cell_length_c 8.900248
_cell_angle_alpha 90.000000
_cell_angle_beta 90.000000
_cell_angle_gamma 90.000000
_cell_volume 3738.062295
_symmetry_space_group_name_H-M "P B C M"
_symmetry_group_IT_number 57
_symmetry_cell_setting 'orthorhombic'
loop_
_space_group_symop_operation_xyz
x,y,z
-x,-y,1/2+z
x,1/2-y,-z
-x,1/2+y,1/2-z
-x,-y,-z
x,y,1/2-z
-x,1/2+y,z
x,1/2-y,1/2+z
loop_
_atom_site_type_symbol
_atom_site_label
_atom_site_fract_x
_atom_site_fract_y
_atom_site_fract_z
Si Si1 0.673471 0.541043 0.927683
Si Si2 0.987350 0.606152 0.581436
Si Si3 0.122527 0.320981 0.572416
Si Si4 0.195905 0.457090 0.573612
Si Si5 0.439987 0.965276 0.427091
Si Si6 0.381065 0.317107 0.426175
Si Si7 0.089085 0.532358 0.081483
Si Si8 0.521638 0.182976 0.575194
O O1 0.668573 0.530830 0.750000
O O2 0.659118 0.618411 0.977289
O O3 0.741882 0.524570 0.984791
O O4 0.623968 0.491890 0.005372
O O5 0.000432 0.633427 0.750000
O O6 0.052112 0.596144 0.492046
O O7 0.945088 0.661064 0.494407
O O8 0.954441 0.533364 0.590021
O O9 0.146637 0.250000 0.500000
O O10 0.116307 0.312549 0.750000
O O11 0.171226 0.381182 0.530715
O O12 0.207639 0.463203 0.750000
O O13 0.147590 0.515235 0.523408
O O14 0.443216 0.978969 0.250000
O O15 0.439603 0.884548 0.464503
O O16 0.500000 0.000000 0.500000
O O17 0.350597 0.250000 0.500000
O O18 0.379628 0.307566 0.250000
O O19 0.451358 0.327658 0.485674
O O20 0.110481 0.552702 0.250000
O O21 0.552528 0.250000 0.500000
O O22 0.520227 0.197030 0.750000
#
# Coordination Sequence:
#
# PCOD8232201 Si02
#       8
#     8   8   8   8   8   8   8   8
#     4  11  22  36  51  72 101 134 175 218 263 315
#     4   9  16  27  46  71  97 125 160 202 246 288
#     4  10  20  33  49  70 101 138 177 214 251 297
#     4  10  21  35  49  69  97 133 174 212 253 302
#     4  11  21  35  54  77 104 132 167 213 266 317
#     4   9  18  32  47  67  95 127 165 206 249 302
#     4   9  16  28  47  70  95 124 158 200 248 290
#     4   9  18  33  51  74 100 126 159 200 250 308
#
# _framework density 17.121168999999998
#
# number of rings (size 3 to 8) (size 9 to 14) (size 15 to 20)
#    0.000    2.250    1.250    2.250    0.000    7.000 
#    0.000    2.500    0.000    0.000    0.000    0.875 
#    0.000    2.000    0.000    0.000    0.000    0.000 
#
# Total GULP energy -793572.708258 kJ/mol
# GULP energy per Si atom -12399.573567 kJ/mol
# Density = 1.708220 g / cm^3
# Si number density = 17.121169 Si / 1000 Ang^3
#
#
#
# Elastic Constant Matrix: (Units=GPa)
#
#
# Indices 1 2 3 4 5 6 
#
# 1 88.6795 45.5812 34.2583 0.0000 0.0000 0.0000
# 2 45.5812 64.0247 40.5990 0.0000 0.0000 0.0000
# 3 34.2583 40.5990 84.4791 0.0000 0.0000 0.0000
# 4 0.0000 0.0000 0.0000 28.8377 0.0000 0.0000
# 5 0.0000 0.0000 0.0000 0.0000 28.5260 0.0000
# 6 0.0000 0.0000 0.0000 0.0000 0.0000 18.5672
#
#
#
# Elastic Compliance Matrix: (Units=1/GPa)
#
#
# Indices 1 2 3 4 5 6 
#
# 1 0.017940 -0.011735 -0.001636 0.000000 0.000000 0.000000
# 2 -0.011735 0.030141 -0.009726 0.000000 0.000000 0.000000
# 3 -0.001636 -0.009726 0.017175 0.000000 0.000000 0.000000
# 4 0.000000 0.000000 0.000000 0.034677 0.000000 0.000000
# 5 0.000000 0.000000 0.000000 0.000000 0.035056 0.000000
# 6 0.000000 0.000000 0.000000 0.000000 0.000000 0.053859
#
#
# Mechanical properties :
#
#
# Convention : Reuss Voigt Hill
#
# Bulk Modulus (GPa) = 52.45992 53.11782 52.78887
# Shear Modulus (GPa) = 20.71288 22.96914 21.84101
#
# Velocity S-wave (km/s) = 3.48197 3.66671 3.57553
# Velocity P-wave (km/s) = 6.84634 7.00131 6.92426
#
# Compressibility (1/GPa) = 0.01906217
#
# Stress axis : x y z
#
# Youngs Moduli (GPa) = 55.74058 33.17710 58.22470
#
# Poissons Ratio (x) = 0.38934 0.09523
# Poissons Ratio (y) = 0.65412 0.56632
# Poissons Ratio (z) = 0.09117 0.32269
#
# Static dielectric constant tensor:
#      x y z
#    x 3.064060 0.000000 0.000000 
#    y 0.000000 3.190400 0.000000 
#    z 0.000000 0.000000 3.279860 
# 
# 
# High freq. dielectric constant tensor:
#      x y z
#    x 1.637980 0.000000 0.000000 
#    y 0.000000 1.639940 0.000000 
#    z 0.000000 0.000000 1.675970 
# 
# From -- ./inp_files/7179.got.cif
#   From: 2010.03.12/outbox.cif.g09.slc.cpg/sg57_4_cif.got.tgz:7179.got - 2010.04.16 15:48:40.
