data_PCOD8232651
_publ_section_title
;
Structure prediction by ZEFSAII (Michael W. Deem and Ramdas Pophale) SiO2 
 PCOD8232651
Probable space group: P B C M
;
_chemical_formula_sum "Si O2"
_cell_formula_units_Z 40
_cell_length_a 12.660367
_cell_length_b 19.807996
_cell_length_c 8.817119
_cell_angle_alpha 90.000000
_cell_angle_beta 90.000000
_cell_angle_gamma 90.000000
_cell_volume 2211.126233
_symmetry_space_group_name_H-M "P B C M"
_symmetry_group_IT_number 57
_symmetry_cell_setting 'orthorhombic'
loop_
_space_group_symop_operation_xyz
x,y,z
-x,-y,1/2+z
x,1/2-y,-z
-x,1/2+y,1/2-z
-x,-y,-z
x,y,1/2-z
-x,1/2+y,z
x,1/2-y,1/2+z
loop_
_atom_site_type_symbol
_atom_site_label
_atom_site_fract_x
_atom_site_fract_y
_atom_site_fract_z
Si Si1 0.775562 0.323891 0.428963
Si Si2 0.618467 0.424335 0.925112
Si Si3 0.374479 0.064504 0.426359
Si Si4 0.214914 0.177370 0.073232
Si Si5 0.017891 0.677079 0.072638
O O1 0.762044 0.250000 0.500000
O O2 0.781183 0.317410 0.250000
O O3 0.676070 0.368477 0.475089
O O4 0.883543 0.360345 0.490976
O O5 0.648980 0.415291 0.750000
O O6 0.494545 0.413227 0.953369
O O7 0.653792 0.498359 0.978147
O O8 0.352513 0.049005 0.250000
O O9 0.300370 0.124371 0.489218
O O10 0.231231 0.189061 0.250000
O O11 0.097991 0.145441 0.041093
O O12 0.233053 0.250000 0.000000
O O13 0.042516 0.681581 0.250000
O O14 0.013722 0.750000 0.000000
#
# Coordination Sequence:
#
# PCOD8232651 Si02
#       5
#     8   8   8   8   8
#     4  11  21  34  53  76 103 133 168 209 251 296
#     4  10  20  35  54  75 101 134 171 209 252 302
#     4   9  19  36  54  74 102 135 169 207 253 301
#     4   9  18  32  52  77 104 132 164 205 249 297
#     4   9  16  29  49  73 101 131 163 200 247 298
#
# _framework density 18.090329000000001
#
# number of rings (size 3 to 8) (size 9 to 14) (size 15 to 20)
#    0.000    2.400    0.000    4.200    0.000    3.200 
#    0.000    3.000    0.000    0.000    0.000    0.000 
#    0.000    0.000    0.000    0.000    0.000    0.000 
#
# Total GULP energy -495832.272554 kJ/mol
# GULP energy per Si atom -12395.806814 kJ/mol
# Density = 1.804915 g / cm^3
# Si number density = 18.090329 Si / 1000 Ang^3
#
#
#
# Elastic Constant Matrix: (Units=GPa)
#
#
# Indices 1 2 3 4 5 6 
#
# 1 114.2910 68.7653 55.6330 0.0000 0.0000 0.0000
# 2 68.7653 84.4937 46.0675 0.0000 0.0000 0.0000
# 3 55.6330 46.0675 107.1648 0.0000 0.0000 0.0000
# 4 0.0000 0.0000 0.0000 29.3147 0.0000 0.0000
# 5 0.0000 0.0000 0.0000 0.0000 24.7677 0.0000
# 6 0.0000 0.0000 0.0000 0.0000 0.0000 9.3156
#
#
#
# Elastic Compliance Matrix: (Units=1/GPa)
#
#
# Indices 1 2 3 4 5 6 
#
# 1 0.018411 -0.012764 -0.004071 0.000000 0.000000 0.000000
# 2 -0.012764 0.024308 -0.003823 0.000000 0.000000 0.000000
# 3 -0.004071 -0.003823 0.013088 0.000000 0.000000 0.000000
# 4 0.000000 0.000000 0.000000 0.034113 0.000000 0.000000
# 5 0.000000 0.000000 0.000000 0.000000 0.040375 0.000000
# 6 0.000000 0.000000 0.000000 0.000000 0.000000 0.107347
#
#
# Mechanical properties :
#
#
# Convention : Reuss Voigt Hill
#
# Bulk Modulus (GPa) = 69.00885 71.87568 70.44226
# Shear Modulus (GPa) = 17.61880 21.71186 19.66533
#
# Velocity S-wave (km/s) = 3.12418 3.46814 3.30064
# Velocity P-wave (km/s) = 7.15847 7.47363 7.31774
#
# Compressibility (1/GPa) = 0.01449090
#
# Stress axis : x y z
#
# Youngs Moduli (GPa) = 54.31532 41.13902 76.40563
#
# Poissons Ratio (x) = 0.52511 0.31103
# Poissons Ratio (y) = 0.69330 0.29209
# Poissons Ratio (z) = 0.22110 0.15727
#
# Static dielectric constant tensor:
#      x y z
#    x 4.125100 0.000000 0.000000 
#    y 0.000000 3.102960 0.000000 
#    z 0.000000 0.000000 3.344390 
# 
# 
# High freq. dielectric constant tensor:
#      x y z
#    x 1.716600 0.000000 0.000000 
#    y 0.000000 1.669990 0.000000 
#    z 0.000000 0.000000 1.709840 
# 
# From -- ./inp_files/2865.got.cif
#   From: 2010.03.12/outbox.cif.g09.slc.cpg/sg57_2_cif.got.tgz:2865.got - 2010.04.16 15:48:40.
