data_PCOD8232663
_publ_section_title
;
Structure prediction by ZEFSAII (Michael W. Deem and Ramdas Pophale) SiO2 
 PCOD8232663
Probable space group: P B C M
;
_chemical_formula_sum "Si O2"
_cell_formula_units_Z 56
_cell_length_a 20.456787
_cell_length_b 15.180241
_cell_length_c 9.380879
_cell_angle_alpha 90.000000
_cell_angle_beta 90.000000
_cell_angle_gamma 90.000000
_cell_volume 2913.128378
_symmetry_space_group_name_H-M "P B C M"
_symmetry_group_IT_number 57
_symmetry_cell_setting 'orthorhombic'
loop_
_space_group_symop_operation_xyz
x,y,z
-x,-y,1/2+z
x,1/2-y,-z
-x,1/2+y,1/2-z
-x,-y,-z
x,y,1/2-z
-x,1/2+y,z
x,1/2-y,1/2+z
loop_
_atom_site_type_symbol
_atom_site_label
_atom_site_fract_x
_atom_site_fract_y
_atom_site_fract_z
Si Si1 0.858907 0.523940 0.915455
Si Si2 0.289419 0.023768 0.915126
Si Si3 0.092895 0.666138 0.413293
Si Si4 0.456497 0.597737 0.089963
Si Si5 0.941063 0.663237 0.082602
Si Si6 0.323953 0.670505 0.090640
Si Si7 0.593761 0.937644 0.913460
O O1 0.878708 0.539361 0.750000
O O2 0.784500 0.553886 0.943960
O O3 0.866488 0.420905 0.954420
O O4 0.904407 0.579178 0.019498
O O5 0.307605 0.029957 0.750000
O O6 0.299050 0.923363 0.969047
O O7 0.340497 0.087342 0.998783
O O8 0.119513 0.750000 0.500000
O O9 0.103012 0.690999 0.250000
O O10 0.017192 0.647543 0.447374
O O11 0.452767 0.554678 0.250000
O O12 0.403466 0.676297 0.084463
O O13 0.532117 0.630271 0.065892
O O14 0.435604 0.529553 0.968354
O O15 0.925499 0.673090 0.250000
O O16 0.916210 0.750000 0.000000
O O17 0.297211 0.682937 0.250000
O O18 0.293602 0.750000 0.000000
O O19 0.615294 0.945475 0.750000
#
# Coordination Sequence:
#
# PCOD8232663 Si02
#       7
#     8   8   8   8   8   8   8
#     4  10  20  35  54  76 105 142 180 216 259 312
#     4   9  19  33  46  64  96 133 163 197 247 300
#     4   9  19  34  53  79 110 142 175 214 262 313
#     4   8  15  27  42  61  86 114 144 187 242 287
#     4  10  20  35  56  81 106 133 170 219 270 317
#     4   9  17  29  43  62  91 125 159 196 240 290
#     4   9  15  25  44  66  85 109 149 196 236 283
#
# _framework density 19.223320000000001
#
# number of rings (size 3 to 8) (size 9 to 14) (size 15 to 20)
#    0.000    2.857    0.000    2.143    0.000    5.143 
#    0.000    0.000    0.000    0.857    0.000    4.000 
#    0.000    0.000    0.000    0.000    0.000    0.000 
#
# Total GULP energy -693903.421492 kJ/mol
# GULP energy per Si atom -12391.132527 kJ/mol
# Density = 1.917957 g / cm^3
# Si number density = 19.223320 Si / 1000 Ang^3
#
#
#
# Elastic Constant Matrix: (Units=GPa)
#
#
# Indices 1 2 3 4 5 6 
#
# 1 71.8324 7.9548 28.5573 0.0000 0.0000 0.0000
# 2 7.9548 32.3663 19.8994 0.0000 0.0000 0.0000
# 3 28.5573 19.8994 72.9937 0.0000 0.0000 0.0000
# 4 0.0000 0.0000 0.0000 29.1446 0.0000 0.0000
# 5 0.0000 0.0000 0.0000 0.0000 23.8379 0.0000
# 6 0.0000 0.0000 0.0000 0.0000 0.0000 10.8445
#
#
#
# Elastic Compliance Matrix: (Units=1/GPa)
#
#
# Indices 1 2 3 4 5 6 
#
# 1 0.016486 -0.000104 -0.006421 0.000000 0.000000 0.000000
# 2 -0.000104 0.037118 -0.010079 0.000000 0.000000 0.000000
# 3 -0.006421 -0.010079 0.018960 0.000000 0.000000 0.000000
# 4 0.000000 0.000000 0.000000 0.034312 0.000000 0.000000
# 5 0.000000 0.000000 0.000000 0.000000 0.041950 0.000000
# 6 0.000000 0.000000 0.000000 0.000000 0.000000 0.092213
#
#
# Mechanical properties :
#
#
# Convention : Reuss Voigt Hill
#
# Bulk Modulus (GPa) = 25.40897 32.22395 28.81646
# Shear Modulus (GPa) = 17.39954 20.81745 19.10849
#
# Velocity S-wave (km/s) = 3.01180 3.29436 3.15624
# Velocity P-wave (km/s) = 5.03399 5.59193 5.32028
#
# Compressibility (1/GPa) = 0.03935618
#
# Stress axis : x y z
#
# Youngs Moduli (GPa) = 60.65890 26.94090 52.74358
#
# Poissons Ratio (x) = 0.00280 0.33869
# Poissons Ratio (y) = 0.00629 0.53158
# Poissons Ratio (z) = 0.38951 0.27152
#
# Static dielectric constant tensor:
#      x y z
#    x 3.753650 0.000000 0.000000 
#    y 0.000000 3.137340 0.000000 
#    z 0.000000 0.000000 3.541190 
# 
# 
# High freq. dielectric constant tensor:
#      x y z
#    x 1.755110 0.000000 0.000000 
#    y 0.000000 1.698490 0.000000 
#    z 0.000000 0.000000 1.748530 
# 
# From -- ./inp_files/8018.got.cif
#   From: 2010.03.12/outbox.cif.g09.slc.cpg/sg57_5_cif.got.tgz:8018.got - 2010.04.16 15:48:40.
