data_PCOD8232494
_publ_section_title
;
Structure prediction by ZEFSAII (Michael W. Deem and Ramdas Pophale) SiO2 
 PCOD8232494
Probable space group: P B C M
;
_chemical_formula_sum "Si O2"
_cell_formula_units_Z 32
_cell_length_a 20.853326
_cell_length_b 9.274258
_cell_length_c 8.587564
_cell_angle_alpha 90.000000
_cell_angle_beta 90.000000
_cell_angle_gamma 90.000000
_cell_volume 1660.827368
_symmetry_space_group_name_H-M "P B C M"
_symmetry_group_IT_number 57
_symmetry_cell_setting 'orthorhombic'
loop_
_space_group_symop_operation_xyz
x,y,z
-x,-y,1/2+z
x,1/2-y,-z
-x,1/2+y,1/2-z
-x,-y,-z
x,y,1/2-z
-x,1/2+y,z
x,1/2-y,1/2+z
loop_
_atom_site_type_symbol
_atom_site_label
_atom_site_fract_x
_atom_site_fract_y
_atom_site_fract_z
Si Si1 0.674922 0.911742 0.433779
Si Si2 0.804176 0.592579 0.068169
Si Si3 0.055942 0.406957 0.930235
Si Si4 0.558786 0.089871 0.565475
O O1 0.668642 0.750000 0.500000
O O2 0.664071 0.909634 0.250000
O O3 0.744760 0.980529 0.476568
O O4 0.623983 0.014789 0.513595
O O5 0.786560 0.599439 0.250000
O O6 0.873826 0.518086 0.039914
O O7 0.812007 0.750000 0.000000
O O8 0.043110 0.390534 0.750000
O O9 0.052761 0.250000 0.000000
O O10 0.000000 0.500000 0.000000
O O11 0.555655 0.250000 0.500000
O O12 0.554588 0.095288 0.750000
O O13 0.500000 0.000000 0.500000
#
# Coordination Sequence:
#
# PCOD8232494 Si02
#       4
#     8   8   8   8
#     4  11  21  36  59  87 115 148 186 229 277 329
#     4   9  17  31  52  79 108 143 184 229 276 330
#     4  10  20  34  54  79 110 145 186 231 280 332
#     4  12  25  43  63  87 117 150 187 229 275 327
#
# _framework density 19.267503999999999
#
# number of rings (size 3 to 8) (size 9 to 14) (size 15 to 20)
#    0.000    1.500    0.000    8.250    0.000    3.000 
#    0.000    1.250    0.000    6.000    0.000    0.000 
#    0.000    0.000    0.000    0.000    0.000    0.000 
#
# Total GULP energy -396615.040720 kJ/mol
# GULP energy per Si atom -12394.220023 kJ/mol
# Density = 1.922365 g / cm^3
# Si number density = 19.267504 Si / 1000 Ang^3
#
#
#
# Elastic Constant Matrix: (Units=GPa)
#
#
# Indices 1 2 3 4 5 6 
#
# 1 185.8248 74.6540 76.4852 0.0000 0.0000 0.0000
# 2 74.6540 94.3676 53.4541 0.0000 0.0000 0.0000
# 3 76.4852 53.4541 169.2896 0.0000 0.0000 0.0000
# 4 0.0000 0.0000 0.0000 32.0007 0.0000 0.0000
# 5 0.0000 0.0000 0.0000 0.0000 38.9454 0.0000
# 6 0.0000 0.0000 0.0000 0.0000 0.0000 39.5878
#
#
#
# Elastic Compliance Matrix: (Units=1/GPa)
#
#
# Indices 1 2 3 4 5 6 
#
# 1 0.008449 -0.005507 -0.002079 0.000000 0.000000 0.000000
# 2 -0.005507 0.016494 -0.002720 0.000000 0.000000 0.000000
# 3 -0.002079 -0.002720 0.007705 0.000000 0.000000 0.000000
# 4 0.000000 0.000000 0.000000 0.031249 0.000000 0.000000
# 5 0.000000 0.000000 0.000000 0.000000 0.025677 0.000000
# 6 0.000000 0.000000 0.000000 0.000000 0.000000 0.025260
#
#
# Mechanical properties :
#
#
# Convention : Reuss Voigt Hill
#
# Bulk Modulus (GPa) = 83.07459 95.40764 89.24112
# Shear Modulus (GPa) = 35.85299 38.43271 37.14285
#
# Velocity S-wave (km/s) = 4.31838 4.47104 4.39537
# Velocity P-wave (km/s) = 8.25073 8.73376 8.49568
#
# Compressibility (1/GPa) = 0.01203737
#
# Stress axis : x y z
#
# Youngs Moduli (GPa) = 118.35335 60.62791 129.78522
#
# Poissons Ratio (x) = 0.33386 0.26977
# Poissons Ratio (y) = 0.65175 0.35303
# Poissons Ratio (z) = 0.24601 0.16491
#
# Static dielectric constant tensor:
#      x y z
#    x 4.718420 0.000000 0.000000 
#    y 0.000000 3.221390 0.000000 
#    z 0.000000 0.000000 3.795090 
# 
# 
# High freq. dielectric constant tensor:
#      x y z
#    x 1.782280 0.000000 0.000000 
#    y 0.000000 1.709810 0.000000 
#    z 0.000000 0.000000 1.774570 
# 
# From -- ./inp_files/7533.got.cif
#   From: 2010.03.12/outbox.cif.g09.slc.cpg/sg57_4_cif.got.tgz:7533.got - 2010.04.16 15:48:40.
