data_PCOD8232115
_publ_section_title
;
Structure prediction by ZEFSAII (Michael W. Deem and Ramdas Pophale) SiO2 
 PCOD8232115
Probable space group: P B C M
;
_chemical_formula_sum "Si O2"
_cell_formula_units_Z 64
_cell_length_a 19.317576
_cell_length_b 22.752972
_cell_length_c 9.377818
_cell_angle_alpha 90.000000
_cell_angle_beta 90.000000
_cell_angle_gamma 90.000000
_cell_volume 4121.853594
_symmetry_space_group_name_H-M "P B C M"
_symmetry_group_IT_number 57
_symmetry_cell_setting 'orthorhombic'
loop_
_space_group_symop_operation_xyz
x,y,z
-x,-y,1/2+z
x,1/2-y,-z
-x,1/2+y,1/2-z
-x,-y,-z
x,y,1/2-z
-x,1/2+y,z
x,1/2-y,1/2+z
loop_
_atom_site_type_symbol
_atom_site_label
_atom_site_fract_x
_atom_site_fract_y
_atom_site_fract_z
Si Si1 0.819195 0.881218 0.918862
Si Si2 0.951560 0.690581 0.418944
Si Si3 0.544818 0.689395 0.583120
Si Si4 0.897334 0.992788 0.907220
Si Si5 0.482551 0.908318 0.913934
Si Si6 0.684889 0.618011 0.590246
Si Si7 0.036274 0.581318 0.406783
Si Si8 0.411223 0.019396 0.911994
O O1 0.812222 0.882282 0.750000
O O2 0.875955 0.833032 0.965073
O O3 0.842741 0.946053 0.973267
O O4 0.746045 0.863484 0.985318
O O5 0.968321 0.750000 0.500000
O O6 0.954277 0.700382 0.250000
O O7 0.010381 0.643955 0.467484
O O8 0.545925 0.750000 0.500000
O O9 0.529532 0.699248 0.750000
O O10 0.483478 0.649277 0.514414
O O11 0.617915 0.657605 0.556512
O O12 0.873015 0.011820 0.750000
O O13 0.971156 0.961622 0.897768
O O14 0.902987 0.052395 0.998874
O O15 0.494966 0.889160 0.750000
O O16 0.411807 0.947877 0.928283
O O17 0.542262 0.952780 0.964003
O O18 0.711194 0.630115 0.750000
O O19 0.664737 0.548840 0.570447
O O20 0.068003 0.590085 0.250000
O O21 0.437919 0.035749 0.750000
#
# Coordination Sequence:
#
# PCOD8232115 Si02
#       8
#     8   8   8   8   8   8   8   8
#     4   9  18  30  41  56  81 110 139 171 202 233
#     4   9  18  30  41  56  80 108 138 170 201 234
#     4  10  20  32  43  58  82 110 142 176 206 240
#     4   8  14  25  40  57  76  98 126 162 203 242
#     4   9  15  25  43  62  79 102 131 166 210 250
#     4   9  18  30  42  58  81 109 141 173 200 233
#     4   8  14  25  40  57  76  97 124 162 204 242
#     4   8  15  27  41  59  82 104 130 167 207 246
#
# _framework density 15.526994999999999
#
# number of rings (size 3 to 8) (size 9 to 14) (size 15 to 20)
#    0.000    3.250    0.000    3.000    0.000    5.000 
#    0.000    5.000    0.000    0.000    0.000    0.000 
#    0.000    1.000    0.000    9.000    0.000    6.500 
#
# Total GULP energy -792844.266822 kJ/mol
# GULP energy per Si atom -12388.191669 kJ/mol
# Density = 1.549166 g / cm^3
# Si number density = 15.526995 Si / 1000 Ang^3
#
#
#
# Elastic Constant Matrix: (Units=GPa)
#
#
# Indices 1 2 3 4 5 6 
#
# 1 7.5165 27.0423 12.5506 0.0000 0.0000 0.0000
# 2 27.0423 110.5688 49.1031 0.0000 0.0000 0.0000
# 3 12.5506 49.1031 65.8862 0.0000 0.0000 0.0000
# 4 0.0000 0.0000 0.0000 28.0902 0.0000 0.0000
# 5 0.0000 0.0000 0.0000 0.0000 19.0722 0.0000
# 6 0.0000 0.0000 0.0000 0.0000 0.0000 14.2243
#
#
#
# Elastic Compliance Matrix: (Units=1/GPa)
#
#
# Indices 1 2 3 4 5 6 
#
# 1 1.116113 -0.266887 -0.013704 0.000000 0.000000 0.000000
# 2 -0.266887 0.077337 -0.006798 0.000000 0.000000 0.000000
# 3 -0.013704 -0.006798 0.022854 0.000000 0.000000 0.000000
# 4 0.000000 0.000000 0.000000 0.035600 0.000000 0.000000
# 5 0.000000 0.000000 0.000000 0.000000 0.052432 0.000000
# 6 0.000000 0.000000 0.000000 0.000000 0.000000 0.070302
#
#
# Mechanical properties :
#
#
# Convention : Reuss Voigt Hill
#
# Bulk Modulus (GPa) = 1.55878 40.15150 20.85514
# Shear Modulus (GPa) = 2.31133 18.62904 10.47018
#
# Velocity S-wave (km/s) = 1.22140 3.46755 2.59959
# Velocity P-wave (km/s) = 1.73066 6.47666 4.74038
#
# Compressibility (1/GPa) = 0.64152680
#
# Stress axis : x y z
#
# Youngs Moduli (GPa) = 0.89597 12.93044 43.75526
#
# Poissons Ratio (x) = 3.45097 0.59961
# Poissons Ratio (y) = 0.23912 0.29745
# Poissons Ratio (z) = 0.01228 0.08790
#
# Static dielectric constant tensor:
#      x y z
#    x 2.667300 0.000000 0.000000 
#    y 0.000000 3.108040 0.000000 
#    z 0.000000 0.000000 3.106600 
# 
# 
# High freq. dielectric constant tensor:
#      x y z
#    x 1.540950 0.000000 0.000000 
#    y 0.000000 1.589200 0.000000 
#    z 0.000000 0.000000 1.603350 
# 
# From -- ./inp_files/8811.got.cif
#   From: 2010.03.12/outbox.cif.g09.slc.cpg/sg57_5_cif.got.tgz:8811.got - 2010.04.16 15:48:40.
