data_PCOD8232919
_publ_section_title
;
Structure prediction by ZEFSAII (Michael W. Deem and Ramdas Pophale) SiO2 
 PCOD8232919
Probable space group: P B C M
;
_chemical_formula_sum "Si O2"
_cell_formula_units_Z 64
_cell_length_a 23.898663
_cell_length_b 15.140768
_cell_length_c 8.817001
_cell_angle_alpha 90.000000
_cell_angle_beta 90.000000
_cell_angle_gamma 90.000000
_cell_volume 3190.379897
_symmetry_space_group_name_H-M "P B C M"
_symmetry_group_IT_number 57
_symmetry_cell_setting 'orthorhombic'
loop_
_space_group_symop_operation_xyz
x,y,z
-x,-y,1/2+z
x,1/2-y,-z
-x,1/2+y,1/2-z
-x,-y,-z
x,y,1/2-z
-x,1/2+y,z
x,1/2-y,1/2+z
loop_
_atom_site_type_symbol
_atom_site_label
_atom_site_fract_x
_atom_site_fract_y
_atom_site_fract_z
Si Si1 0.506120 0.849657 0.929661
Si Si2 0.880434 0.614923 0.079227
Si Si3 0.420329 0.002198 0.928889
Si Si4 0.891910 0.087295 0.578565
Si Si5 0.230026 0.163197 0.927886
Si Si6 0.706247 0.005963 0.069839
Si Si7 0.214831 0.839345 0.929784
Si Si8 0.004559 0.657885 0.069928
O O1 0.511823 0.837514 0.750000
O O2 0.452599 0.911273 0.972647
O O3 0.502408 0.750000 0.000000
O O4 0.558029 0.907805 0.991287
O O5 0.873549 0.652113 0.250000
O O6 0.869256 0.511370 0.077158
O O7 0.941910 0.636500 0.014603
O O8 0.835387 0.659705 0.970626
O O9 0.424169 0.019142 0.750000
O O10 0.357302 0.987392 0.987329
O O11 0.897526 0.123170 0.750000
O O12 0.848170 0.146593 0.487382
O O13 0.952363 0.086685 0.497575
O O14 0.235839 0.167586 0.750000
O O15 0.264829 0.081818 0.996075
O O16 0.257551 0.250000 0.000000
O O17 0.708107 0.004958 0.250000
O O18 0.742484 0.087244 0.007860
O O19 0.213745 0.835159 0.750000
O O20 0.238784 0.750000 0.000000
O O21 0.008424 0.657163 0.250000
O O22 0.024324 0.750000 0.000000
#
# Coordination Sequence:
#
# PCOD8232919 Si02
#       8
#     8   8   8   8   8   8   8   8
#     4  10  20  35  59  90 124 162 199 243 293 345
#     4  10  22  39  59  83 110 142 186 236 290 351
#     4   9  19  38  61  86 120 159 202 248 291 342
#     4  11  22  38  59  83 110 143 186 237 291 349
#     4  11  22  38  60  85 114 152 193 238 291 348
#     4   9  20  39  61  85 117 156 197 242 292 341
#     4  11  22  39  60  85 115 152 195 238 292 350
#     4  11  23  38  55  79 109 142 182 232 288 351
#
# _framework density 20.060305
#
# number of rings (size 3 to 8) (size 9 to 14) (size 15 to 20)
#    0.000    1.750    1.250    3.000    0.000    4.000 
#    0.000    3.750    0.000    0.000    0.000    0.000 
#    0.000    0.000    0.000    0.000    0.000    0.000 
#
# Total GULP energy -793579.223238 kJ/mol
# GULP energy per Si atom -12399.675363 kJ/mol
# Density = 2.001465 g / cm^3
# Si number density = 20.060305 Si / 1000 Ang^3
#
#
#
# Elastic Constant Matrix: (Units=GPa)
#
#
# Indices 1 2 3 4 5 6 
#
# 1 131.9955 54.4492 34.1637 0.0000 0.0000 0.0000
# 2 54.4492 146.2206 43.7256 0.0000 0.0000 0.0000
# 3 34.1637 43.7256 80.2338 0.0000 0.0000 0.0000
# 4 0.0000 0.0000 0.0000 31.8473 0.0000 0.0000
# 5 0.0000 0.0000 0.0000 0.0000 24.3675 0.0000
# 6 0.0000 0.0000 0.0000 0.0000 0.0000 15.3003
#
#
#
# Elastic Compliance Matrix: (Units=1/GPa)
#
#
# Indices 1 2 3 4 5 6 
#
# 1 0.009349 -0.002737 -0.002489 0.000000 0.000000 0.000000
# 2 -0.002737 0.008972 -0.003724 0.000000 0.000000 0.000000
# 3 -0.002489 -0.003724 0.015553 0.000000 0.000000 0.000000
# 4 0.000000 0.000000 0.000000 0.031400 0.000000 0.000000
# 5 0.000000 0.000000 0.000000 0.000000 0.041038 0.000000
# 6 0.000000 0.000000 0.000000 0.000000 0.000000 0.065358
#
#
# Mechanical properties :
#
#
# Convention : Reuss Voigt Hill
#
# Bulk Modulus (GPa) = 62.60401 69.23634 65.92017
# Shear Modulus (GPa) = 25.65473 29.37710 27.51591
#
# Velocity S-wave (km/s) = 3.58002 3.83095 3.70761
# Velocity P-wave (km/s) = 6.95445 7.35916 7.15967
#
# Compressibility (1/GPa) = 0.01597342
#
# Stress axis : x y z
#
# Youngs Moduli (GPa) = 106.95876 111.45994 64.29614
#
# Poissons Ratio (x) = 0.30508 0.16005
# Poissons Ratio (y) = 0.29276 0.23944
# Poissons Ratio (z) = 0.26626 0.41508
#
# Static dielectric constant tensor:
#      x y z
#    x 3.692120 0.000000 0.000000 
#    y 0.000000 3.840270 0.000000 
#    z 0.000000 0.000000 3.520830 
# 
# 
# High freq. dielectric constant tensor:
#      x y z
#    x 1.778810 0.000000 0.000000 
#    y 0.000000 1.795760 0.000000 
#    z 0.000000 0.000000 1.774480 
# 
# From -- ./inp_files/9395.got.cif
#   From: 2010.03.12/outbox.cif.g09.slc.cpg/sg57_5_cif.got.tgz:9395.got - 2010.04.16 15:48:40.
