data_PCOD8232856
_publ_section_title
;
Structure prediction by ZEFSAII (Michael W. Deem and Ramdas Pophale) SiO2 
 PCOD8232856
Probable space group: P B C M
;
_chemical_formula_sum "Si O2"
_cell_formula_units_Z 56
_cell_length_a 21.007278
_cell_length_b 15.331860
_cell_length_c 8.733474
_cell_angle_alpha 90.000000
_cell_angle_beta 90.000000
_cell_angle_gamma 90.000000
_cell_volume 2812.882941
_symmetry_space_group_name_H-M "P B C M"
_symmetry_group_IT_number 57
_symmetry_cell_setting 'orthorhombic'
loop_
_space_group_symop_operation_xyz
x,y,z
-x,-y,1/2+z
x,1/2-y,-z
-x,1/2+y,1/2-z
-x,-y,-z
x,y,1/2-z
-x,1/2+y,z
x,1/2-y,1/2+z
loop_
_atom_site_type_symbol
_atom_site_label
_atom_site_fract_x
_atom_site_fract_y
_atom_site_fract_z
Si Si1 0.133334 0.338832 0.070550
Si Si2 0.995983 0.904269 0.568334
Si Si3 0.582849 0.659970 0.070100
Si Si4 0.205058 0.513993 0.426130
Si Si5 0.561302 0.159688 0.430743
Si Si6 0.876903 0.338095 0.069585
Si Si7 0.351969 0.502246 0.428587
O O1 0.120328 0.327896 0.250000
O O2 0.183443 0.415623 0.037320
O O3 0.162445 0.250000 0.000000
O O4 0.067606 0.357339 0.985352
O O5 0.997671 0.910933 0.750000
O O6 0.054934 0.848217 0.509720
O O7 0.000000 0.000000 0.500000
O O8 0.585027 0.668840 0.250000
O O9 0.510749 0.640920 0.013262
O O10 0.608252 0.750000 0.000000
O O11 0.629369 0.584156 0.017970
O O12 0.189888 0.537477 0.250000
O O13 0.167847 0.580020 0.534575
O O14 0.279082 0.523775 0.463428
O O15 0.586867 0.250000 0.500000
O O16 0.565649 0.167218 0.250000
O O17 0.605780 0.082055 0.491877
O O18 0.885500 0.329687 0.250000
O O19 0.845769 0.250000 0.000000
O O20 0.364314 0.486160 0.250000
#
# Coordination Sequence:
#
# PCOD8232856 Si02
#       7
#     8   8   8   8   8   8   8
#     4  11  23  40  62  87 118 155 197 245 297 354
#     4  12  23  39  64  93 123 153 192 243 300 355
#     4  10  20  35  57  86 117 153 194 243 294 350
#     4  10  23  42  61  84 119 159 200 246 294 349
#     4   9  19  35  57  85 118 152 193 241 296 350
#     4  12  25  42  65  90 120 158 199 245 297 353
#     4  10  21  38  59  85 118 156 195 243 295 348
#
# _framework density 19.9084
#
# number of rings (size 3 to 8) (size 9 to 14) (size 15 to 20)
#    0.000    1.429    1.429    4.286    0.000    3.429 
#    0.000    2.857    0.000    0.000    0.000    0.000 
#    0.000    0.000    0.000    0.000    0.000    0.000 
#
# Total GULP energy -694723.226131 kJ/mol
# GULP energy per Si atom -12405.771895 kJ/mol
# Density = 1.986309 g / cm^3
# Si number density = 19.908400 Si / 1000 Ang^3
#
#
#
# Elastic Constant Matrix: (Units=GPa)
#
#
# Indices 1 2 3 4 5 6 
#
# 1 54.4492 14.5214 27.4993 0.0000 0.0000 0.0000
# 2 14.5214 110.0404 45.1332 0.0000 0.0000 0.0000
# 3 27.4993 45.1332 110.0372 0.0000 0.0000 0.0000
# 4 0.0000 0.0000 0.0000 40.1116 0.0000 0.0000
# 5 0.0000 0.0000 0.0000 0.0000 22.8104 0.0000
# 6 0.0000 0.0000 0.0000 0.0000 0.0000 10.2074
#
#
#
# Elastic Compliance Matrix: (Units=1/GPa)
#
#
# Indices 1 2 3 4 5 6 
#
# 1 0.021069 -0.000746 -0.004959 0.000000 0.000000 0.000000
# 2 -0.000746 0.010952 -0.004306 0.000000 0.000000 0.000000
# 3 -0.004959 -0.004306 0.012093 0.000000 0.000000 0.000000
# 4 0.000000 0.000000 0.000000 0.024930 0.000000 0.000000
# 5 0.000000 0.000000 0.000000 0.000000 0.043840 0.000000
# 6 0.000000 0.000000 0.000000 0.000000 0.000000 0.097968
#
#
# Mechanical properties :
#
#
# Convention : Reuss Voigt Hill
#
# Bulk Modulus (GPa) = 41.50728 49.87051 45.68890
# Shear Modulus (GPa) = 20.92871 27.11740 24.02306
#
# Velocity S-wave (km/s) = 3.24582 3.69468 3.47750
# Velocity P-wave (km/s) = 5.91113 6.58067 6.25487
#
# Compressibility (1/GPa) = 0.02409216
#
# Stress axis : x y z
#
# Youngs Moduli (GPa) = 47.46206 91.30749 82.69103
#
# Poissons Ratio (x) = 0.06815 0.41009
# Poissons Ratio (y) = 0.03542 0.35603
# Poissons Ratio (z) = 0.23538 0.39313
#
# Static dielectric constant tensor:
#      x y z
#    x 3.634820 0.000000 0.000000 
#    y 0.000000 0.996490 0.000000 
#    z 0.000000 0.000000 3.638000 
# 
# 
# High freq. dielectric constant tensor:
#      x y z
#    x 1.768850 0.000000 0.000000 
#    y 0.000000 1.793280 0.000000 
#    z 0.000000 0.000000 1.780090 
# 
# From -- ./inp_files/8058.got.cif
#   From: 2010.03.12/outbox.cif.g09.slc.cpg/sg57_5_cif.got.tgz:8058.got - 2010.04.16 15:48:40.
