data_PCOD8232247
_publ_section_title
;
Structure prediction by ZEFSAII (Michael W. Deem and Ramdas Pophale) SiO2 
 PCOD8232247
Probable space group: P B C M
;
_chemical_formula_sum "Si O2"
_cell_formula_units_Z 56
_cell_length_a 14.852452
_cell_length_b 20.759575
_cell_length_c 9.188102
_cell_angle_alpha 90.000000
_cell_angle_beta 90.000000
_cell_angle_gamma 90.000000
_cell_volume 2832.972922
_symmetry_space_group_name_H-M "P B C M"
_symmetry_group_IT_number 57
_symmetry_cell_setting 'orthorhombic'
loop_
_space_group_symop_operation_xyz
x,y,z
-x,-y,1/2+z
x,1/2-y,-z
-x,1/2+y,1/2-z
-x,-y,-z
x,y,1/2-z
-x,1/2+y,z
x,1/2-y,1/2+z
loop_
_atom_site_type_symbol
_atom_site_label
_atom_site_fract_x
_atom_site_fract_y
_atom_site_fract_z
Si Si1 0.730778 0.510525 0.585875
Si Si2 0.053188 0.312142 0.586113
Si Si3 0.155280 0.692346 0.091678
Si Si4 0.554347 0.185030 0.583499
Si Si5 0.732155 0.110116 0.914398
Si Si6 0.932495 0.551773 0.575846
Si Si7 0.543078 0.940071 0.417206
O O1 0.734649 0.483282 0.750000
O O2 0.694737 0.456248 0.476518
O O3 0.829187 0.534715 0.540160
O O4 0.652297 0.564047 0.572235
O O5 0.095717 0.250000 0.500000
O O6 0.096300 0.319090 0.750000
O O7 0.058605 0.377192 0.491977
O O8 0.949429 0.297345 0.609796
O O9 0.201729 0.691533 0.250000
O O10 0.199111 0.750000 0.000000
O O11 0.178387 0.626618 0.007272
O O12 0.532307 0.250000 0.500000
O O13 0.528669 0.197255 0.750000
O O14 0.658624 0.165807 0.566853
O O15 0.493791 0.127111 0.518008
O O16 0.763026 0.100628 0.750000
O O17 0.951210 0.553209 0.750000
O O18 0.000000 0.500000 0.500000
O O19 0.510986 0.946399 0.250000
O O20 0.500000 0.000000 0.500000
#
# Coordination Sequence:
#
# PCOD8232247 Si02
#       7
#     8   8   8   8   8   8   8
#     4  10  22  38  59  84 113 152 194 240 297 353
#     4  10  21  38  59  82 111 153 200 248 303 360
#     4  10  20  33  50  75 108 146 189 233 288 353
#     4  10  22  37  55  83 116 150 190 236 287 344
#     4  11  21  33  52  81 114 147 189 237 287 350
#     4  11  23  39  59  88 122 158 201 251 305 359
#     4  10  20  39  62  85 114 150 193 240 287 343
#
# _framework density 19.767220999999999
#
# number of rings (size 3 to 8) (size 9 to 14) (size 15 to 20)
#    0.000    1.714    1.429    3.000    0.000    9.143 
#    0.000    0.714    0.000    1.714    0.000    0.000 
#    0.000    0.000    0.000    0.000    0.000    0.000 
#
# Total GULP energy -694044.349467 kJ/mol
# GULP energy per Si atom -12393.649098 kJ/mol
# Density = 1.972223 g / cm^3
# Si number density = 19.767221 Si / 1000 Ang^3
#
#
#
# Elastic Constant Matrix: (Units=GPa)
#
#
# Indices 1 2 3 4 5 6 
#
# 1 69.8587 28.5011 32.5251 0.0000 0.0000 0.0000
# 2 28.5011 148.0507 70.3424 0.0000 0.0000 0.0000
# 3 32.5251 70.3424 133.8751 0.0000 0.0000 0.0000
# 4 0.0000 0.0000 0.0000 35.7009 0.0000 0.0000
# 5 0.0000 0.0000 0.0000 0.0000 19.1590 0.0000
# 6 0.0000 0.0000 0.0000 0.0000 0.0000 29.0334
#
#
#
# Elastic Compliance Matrix: (Units=1/GPa)
#
#
# Indices 1 2 3 4 5 6 
#
# 1 0.016452 -0.001690 -0.003109 0.000000 0.000000 0.000000
# 2 -0.001690 0.009175 -0.004410 0.000000 0.000000 0.000000
# 3 -0.003109 -0.004410 0.010542 0.000000 0.000000 0.000000
# 4 0.000000 0.000000 0.000000 0.028010 0.000000 0.000000
# 5 0.000000 0.000000 0.000000 0.000000 0.052195 0.000000
# 6 0.000000 0.000000 0.000000 0.000000 0.000000 0.034443
#
#
# Mechanical properties :
#
#
# Convention : Reuss Voigt Hill
#
# Bulk Modulus (GPa) = 56.33632 68.28020 62.30826
# Shear Modulus (GPa) = 28.54648 31.47307 30.00977
#
# Velocity S-wave (km/s) = 3.80430 3.99455 3.90058
# Velocity P-wave (km/s) = 6.91799 7.47612 7.20246
#
# Compressibility (1/GPa) = 0.01775054
#
# Stress axis : x y z
#
# Youngs Moduli (GPa) = 60.78445 108.98878 94.85548
#
# Poissons Ratio (x) = 0.18418 0.29490
# Poissons Ratio (y) = 0.10272 0.41835
# Poissons Ratio (z) = 0.18898 0.48069
#
# Static dielectric constant tensor:
#      x y z
#    x 3.496510 0.000000 0.000000 
#    y 0.000000 3.629030 0.000000 
#    z 0.000000 0.000000 3.905160 
# 
# 
# High freq. dielectric constant tensor:
#      x y z
#    x 1.752820 0.000000 0.000000 
#    y 0.000000 1.768190 0.000000 
#    z 0.000000 0.000000 1.782500 
# 
# From -- ./inp_files/5272.got.cif
#   From: 2010.03.12/outbox.cif.g09.slc.cpg/sg57_3_cif.got.tgz:5272.got - 2010.04.16 15:48:40.
