data_PCOD8232005
_publ_section_title
;
Structure prediction by ZEFSAII (Michael W. Deem and Ramdas Pophale) SiO2 
 PCOD8232005
Probable space group: P B C M
;
_chemical_formula_sum "Si O2"
_cell_formula_units_Z 48
_cell_length_a 4.995111
_cell_length_b 17.536537
_cell_length_c 27.008656
_cell_angle_alpha 90.000000
_cell_angle_beta 90.000000
_cell_angle_gamma 90.000000
_cell_volume 2365.875859
_symmetry_space_group_name_H-M "P B C M"
_symmetry_group_IT_number 57
_symmetry_cell_setting 'orthorhombic'
loop_
_space_group_symop_operation_xyz
x,y,z
-x,-y,1/2+z
x,1/2-y,-z
-x,1/2+y,1/2-z
-x,-y,-z
x,y,1/2-z
-x,1/2+y,z
x,1/2-y,1/2+z
loop_
_atom_site_type_symbol
_atom_site_label
_atom_site_fract_x
_atom_site_fract_y
_atom_site_fract_z
Si Si1 0.050685 0.155878 0.194701
Si Si2 0.542896 0.158831 0.903510
Si Si3 0.956644 0.740697 0.557162
Si Si4 0.959442 0.408369 0.903809
Si Si5 0.549280 0.241074 0.694628
Si Si6 0.539350 0.507773 0.441744
O O1 0.025157 0.121239 0.250000
O O2 0.995968 0.087250 0.155845
O O3 0.844449 0.225294 0.187323
O O4 0.344717 0.189708 0.185386
O O5 0.843006 0.178655 0.919897
O O6 0.503148 0.173727 0.844915
O O7 0.483265 0.070960 0.913929
O O8 0.343610 0.210936 0.935497
O O9 0.021173 0.750000 0.500000
O O10 0.987933 0.821034 0.583506
O O11 0.660188 0.429461 0.919575
O O12 0.159395 0.464840 0.931976
O O13 0.511479 0.207058 0.750000
O O14 0.500000 0.500000 0.500000
#
# Coordination Sequence:
#
# PCOD8232005 Si02
#       6
#     8   8   8   8   8   8
#     4  10  20  37  63  92 119 152 200 259 313 354
#     4  12  22  41  59  89 121 160 204 249 312 360
#     4  12  23  38  64  89 117 155 217 261 288 356
#     4  12  22  41  62  89 120 161 208 250 308 361
#     4  10  19  36  61  90 117 152 198 256 312 360
#     4  12  26  41  59  87 132 170 197 247 317 367
#
# _framework density 20.288468000000002
#
# number of rings (size 3 to 8) (size 9 to 14) (size 15 to 20)
#    0.000    0.667    3.333    6.000    0.000    0.000 
#    0.000    1.667    0.000    0.000    0.000    0.000 
#    0.000    0.000    0.000    0.000    0.000    0.000 
#
# Total GULP energy -595493.144913 kJ/mol
# GULP energy per Si atom -12406.107186 kJ/mol
# Density = 2.024229 g / cm^3
# Si number density = 20.288468 Si / 1000 Ang^3
#
#
#
# Elastic Constant Matrix: (Units=GPa)
#
#
# Indices 1 2 3 4 5 6 
#
# 1 69.4928 10.6775 18.4878 0.0000 0.0000 0.0000
# 2 10.6775 70.8777 19.0581 0.0000 0.0000 0.0000
# 3 18.4878 19.0581 150.5942 0.0000 0.0000 0.0000
# 4 0.0000 0.0000 0.0000 30.3364 0.0000 0.0000
# 5 0.0000 0.0000 0.0000 0.0000 30.7986 0.0000
# 6 0.0000 0.0000 0.0000 0.0000 0.0000 23.7578
#
#
#
# Elastic Compliance Matrix: (Units=1/GPa)
#
#
# Indices 1 2 3 4 5 6 
#
# 1 0.015104 -0.001839 -0.001621 0.000000 0.000000 0.000000
# 2 -0.001839 0.014830 -0.001651 0.000000 0.000000 0.000000
# 3 -0.001621 -0.001651 0.007048 0.000000 0.000000 0.000000
# 4 0.000000 0.000000 0.000000 0.032964 0.000000 0.000000
# 5 0.000000 0.000000 0.000000 0.000000 0.032469 0.000000
# 6 0.000000 0.000000 0.000000 0.000000 0.000000 0.042091
#
#
# Mechanical properties :
#
#
# Convention : Reuss Voigt Hill
#
# Bulk Modulus (GPa) = 37.37119 43.04572 40.20845
# Shear Modulus (GPa) = 30.55311 33.16130 31.85721
#
# Velocity S-wave (km/s) = 3.88485 4.04727 3.96689
# Velocity P-wave (km/s) = 6.21149 6.56532 6.39085
#
# Compressibility (1/GPa) = 0.02675858
#
# Stress axis : x y z
#
# Youngs Moduli (GPa) = 66.20779 67.43166 141.87709
#
# Poissons Ratio (x) = 0.12403 0.23005
# Poissons Ratio (y) = 0.12178 0.23423
# Poissons Ratio (z) = 0.10735 0.11133
#
# Static dielectric constant tensor:
#      x y z
#    x 3.870980 0.000000 0.000000 
#    y 0.000000 3.396590 0.000000 
#    z 0.000000 0.000000 4.158110 
# 
# 
# High freq. dielectric constant tensor:
#      x y z
#    x 1.812910 0.000000 0.000000 
#    y 0.000000 1.758880 0.000000 
#    z 0.000000 0.000000 1.813650 
# 
# From -- ./inp_files/27965.got.cif
#   From: 2010.03.12/outbox.cif.g09.slc.cpg/sg57_14_cif.got.tgz:27965.got - 2010.04.16 15:48:40.
