data_PCOD8232304
_publ_section_title
;
Structure prediction by ZEFSAII (Michael W. Deem and Ramdas Pophale) SiO2 
 PCOD8232304
Probable space group: P B C M
;
_chemical_formula_sum "Si O2"
_cell_formula_units_Z 64
_cell_length_a 15.483121
_cell_length_b 23.175085
_cell_length_c 8.832119
_cell_angle_alpha 90.000000
_cell_angle_beta 90.000000
_cell_angle_gamma 90.000000
_cell_volume 3169.164303
_symmetry_space_group_name_H-M "P B C M"
_symmetry_group_IT_number 57
_symmetry_cell_setting 'orthorhombic'
loop_
_space_group_symop_operation_xyz
x,y,z
-x,-y,1/2+z
x,1/2-y,-z
-x,1/2+y,1/2-z
-x,-y,-z
x,y,1/2-z
-x,1/2+y,z
x,1/2-y,1/2+z
loop_
_atom_site_type_symbol
_atom_site_label
_atom_site_fract_x
_atom_site_fract_y
_atom_site_fract_z
Si Si1 0.840627 0.120807 0.922686
Si Si2 0.907268 0.996602 0.924765
Si Si3 0.379529 0.472212 0.578008
Si Si4 0.224424 0.082391 0.925900
Si Si5 0.981383 0.307862 0.573267
Si Si6 0.336733 0.814782 0.069111
Si Si7 0.177051 0.191888 0.072097
Si Si8 0.442880 0.586403 0.425172
O O1 0.859688 0.138317 0.750000
O O2 0.750210 0.149500 0.974131
O O3 0.843506 0.051791 0.943530
O O4 0.919262 0.140676 0.026784
O O5 0.921068 0.981393 0.750000
O O6 0.862341 0.943659 0.006063
O O7 0.000000 0.000000 0.000000
O O8 0.343971 0.475077 0.750000
O O9 0.306399 0.456542 0.459327
O O10 0.405235 0.536511 0.531199
O O11 0.454228 0.423782 0.567350
O O12 0.211771 0.091354 0.750000
O O13 0.239642 0.143142 0.007624
O O14 0.943400 0.250000 0.500000
O O15 0.979560 0.299289 0.750000
O O16 0.078675 0.319761 0.516819
O O17 0.349008 0.810549 0.250000
O O18 0.333601 0.750000 0.000000
O O19 0.415645 0.851299 0.994788
O O20 0.184928 0.195205 0.250000
O O21 0.212792 0.250000 0.000000
O O22 0.411606 0.582037 0.250000
#
# Coordination Sequence:
#
# PCOD8232304 Si02
#       8
#     8   8   8   8   8   8   8   8
#     4  10  22  37  54  78 111 151 194 240 289 343
#     4  11  23  39  58  84 120 160 201 248 303 357
#     4  10  21  39  64  92 121 152 189 238 293 349
#     4  12  24  38  59  87 117 151 192 236 285 343
#     4  10  20  33  53  77 104 142 187 234 280 329
#     4  11  23  39  59  85 120 161 202 248 303 361
#     4  10  21  38  58  81 110 145 186 233 285 338
#     4  10  21  39  64  92 119 150 191 237 290 354
#
# _framework density 20.194599
#
# number of rings (size 3 to 8) (size 9 to 14) (size 15 to 20)
#    0.000    1.500    0.000    5.250    0.000    9.000 
#    0.000    0.625    0.000    3.000    0.000    0.000 
#    0.000    0.000    0.000    0.000    0.000    0.000 
#
# Total GULP energy -793612.863404 kJ/mol
# GULP energy per Si atom -12400.200991 kJ/mol
# Density = 2.014864 g / cm^3
# Si number density = 20.194599 Si / 1000 Ang^3
#
#
#
# Elastic Constant Matrix: (Units=GPa)
#
#
# Indices 1 2 3 4 5 6 
#
# 1 58.3438 29.0455 26.2870 0.0000 0.0000 0.0000
# 2 29.0455 104.4539 41.1799 0.0000 0.0000 0.0000
# 3 26.2870 41.1799 111.0291 0.0000 0.0000 0.0000
# 4 0.0000 0.0000 0.0000 38.1444 0.0000 0.0000
# 5 0.0000 0.0000 0.0000 0.0000 30.6914 0.0000
# 6 0.0000 0.0000 0.0000 0.0000 0.0000 33.1665
#
#
#
# Elastic Compliance Matrix: (Units=1/GPa)
#
#
# Indices 1 2 3 4 5 6 
#
# 1 0.020857 -0.004513 -0.003264 0.000000 0.000000 0.000000
# 2 -0.004513 0.012190 -0.003453 0.000000 0.000000 0.000000
# 3 -0.003264 -0.003453 0.011060 0.000000 0.000000 0.000000
# 4 0.000000 0.000000 0.000000 0.026216 0.000000 0.000000
# 5 0.000000 0.000000 0.000000 0.000000 0.032582 0.000000
# 6 0.000000 0.000000 0.000000 0.000000 0.000000 0.030151
#
#
# Mechanical properties :
#
#
# Convention : Reuss Voigt Hill
#
# Bulk Modulus (GPa) = 46.19503 51.87240 49.03371
# Shear Modulus (GPa) = 30.72545 32.22144 31.47344
#
# Velocity S-wave (km/s) = 3.90483 3.99876 3.95208
# Velocity P-wave (km/s) = 6.57684 6.86019 6.72001
#
# Compressibility (1/GPa) = 0.02164735
#
# Stress axis : x y z
#
# Youngs Moduli (GPa) = 47.94513 82.03697 90.41558
#
# Poissons Ratio (x) = 0.37022 0.29515
# Poissons Ratio (y) = 0.21637 0.31217
# Poissons Ratio (z) = 0.15651 0.28324
#
# Static dielectric constant tensor:
#      x y z
#    x 3.583440 0.000000 0.000000 
#    y 0.000000 3.781060 0.000000 
#    z 0.000000 0.000000 3.714800 
# 
# 
# High freq. dielectric constant tensor:
#      x y z
#    x 1.774970 0.000000 0.000000 
#    y 0.000000 1.795180 0.000000 
#    z 0.000000 0.000000 1.801560 
# 
# From -- ./inp_files/5747.got.cif
#   From: 2010.03.12/outbox.cif.g09.slc.cpg/sg57_3_cif.got.tgz:5747.got - 2010.04.16 15:48:40.
