data_PCOD8232951
_publ_section_title
;
Structure prediction by ZEFSAII (Michael W. Deem and Ramdas Pophale) SiO2 
 PCOD8232951
Probable space group: P B C M
;
_chemical_formula_sum "Si O2"
_cell_formula_units_Z 56
_cell_length_a 19.042401
_cell_length_b 17.705538
_cell_length_c 9.494554
_cell_angle_alpha 90.000000
_cell_angle_beta 90.000000
_cell_angle_gamma 90.000000
_cell_volume 3201.145417
_symmetry_space_group_name_H-M "P B C M"
_symmetry_group_IT_number 57
_symmetry_cell_setting 'orthorhombic'
loop_
_space_group_symop_operation_xyz
x,y,z
-x,-y,1/2+z
x,1/2-y,-z
-x,1/2+y,1/2-z
-x,-y,-z
x,y,1/2-z
-x,1/2+y,z
x,1/2-y,1/2+z
loop_
_atom_site_type_symbol
_atom_site_label
_atom_site_fract_x
_atom_site_fract_y
_atom_site_fract_z
Si Si1 0.049752 0.555364 0.414824
Si Si2 0.306516 0.515155 0.589412
Si Si3 0.563542 0.530707 0.591036
Si Si4 0.661625 0.320341 0.411513
Si Si5 0.496840 0.685670 0.595876
Si Si6 0.848502 0.528730 0.412205
Si Si7 0.061557 0.326178 0.911797
O O1 0.053545 0.533778 0.250000
O O2 0.124911 0.541121 0.489232
O O3 0.000000 0.500000 0.500000
O O4 0.017481 0.639753 0.432638
O O5 0.334900 0.506830 0.750000
O O6 0.362183 0.482703 0.480825
O O7 0.293633 0.604118 0.557845
O O8 0.235140 0.468344 0.569121
O O9 0.500000 0.500000 0.500000
O O10 0.562618 0.496612 0.750000
O O11 0.553175 0.619818 0.597486
O O12 0.691817 0.250000 0.500000
O O13 0.667513 0.296269 0.250000
O O14 0.580959 0.339627 0.456809
O O15 0.529831 0.750000 0.500000
O O16 0.487728 0.720797 0.750000
O O17 0.869581 0.511731 0.250000
O O18 0.881514 0.609693 0.457701
O O19 0.073917 0.304095 0.750000
O O20 0.071560 0.250000 0.000000
#
# Coordination Sequence:
#
# PCOD8232951 Si02
#       7
#     8   8   8   8   8   8   8
#     4   9  17  31  52  77 104 131 169 211 249 297
#     4  10  20  36  54  74 104 141 176 215 265 319
#     4  11  21  34  52  76 102 130 173 223 265 315
#     4   9  17  31  49  70  95 125 164 209 260 315
#     4   9  18  32  49  71  96 123 163 211 262 316
#     4   9  19  35  54  76 106 142 178 213 260 313
#     4   9  18  32  52  80 106 137 176 213 252 302
#
# _framework density 17.493738
#
# number of rings (size 3 to 8) (size 9 to 14) (size 15 to 20)
#    0.000    2.571    1.429    1.714    0.000    5.143 
#    0.000    1.429    0.000    6.857    0.000    0.000 
#    0.000    0.000    0.000    0.000    0.000    0.000 
#
# Total GULP energy -693983.200429 kJ/mol
# GULP energy per Si atom -12392.557151 kJ/mol
# Density = 1.745392 g / cm^3
# Si number density = 17.493738 Si / 1000 Ang^3
#
#
#
# Elastic Constant Matrix: (Units=GPa)
#
#
# Indices 1 2 3 4 5 6 
#
# 1 77.6220 39.8931 53.5343 0.0000 0.0000 0.0000
# 2 39.8931 97.1002 57.3380 0.0000 0.0000 0.0000
# 3 53.5343 57.3380 109.8407 0.0000 0.0000 0.0000
# 4 0.0000 0.0000 0.0000 33.6330 0.0000 0.0000
# 5 0.0000 0.0000 0.0000 0.0000 25.7531 0.0000
# 6 0.0000 0.0000 0.0000 0.0000 0.0000 20.9021
#
#
#
# Elastic Compliance Matrix: (Units=1/GPa)
#
#
# Indices 1 2 3 4 5 6 
#
# 1 0.020241 -0.003600 -0.007986 0.000000 0.000000 0.000000
# 2 -0.003600 0.015528 -0.006351 0.000000 0.000000 0.000000
# 3 -0.007986 -0.006351 0.016311 0.000000 0.000000 0.000000
# 4 0.000000 0.000000 0.000000 0.029733 0.000000 0.000000
# 5 0.000000 0.000000 0.000000 0.000000 0.038830 0.000000
# 6 0.000000 0.000000 0.000000 0.000000 0.000000 0.047842
#
#
# Mechanical properties :
#
#
# Convention : Reuss Voigt Hill
#
# Bulk Modulus (GPa) = 61.70414 65.12153 63.41283
# Shear Modulus (GPa) = 23.83657 24.97747 24.40702
#
# Velocity S-wave (km/s) = 3.69531 3.78272 3.73927
# Velocity P-wave (km/s) = 7.31819 7.50900 7.41420
#
# Compressibility (1/GPa) = 0.01620637
#
# Stress axis : x y z
#
# Youngs Moduli (GPa) = 49.40525 64.39896 61.30655
#
# Poissons Ratio (x) = 0.23186 0.48957
# Poissons Ratio (y) = 0.17787 0.38937
# Poissons Ratio (z) = 0.39453 0.40901
#
# Static dielectric constant tensor:
#      x y z
#    x 3.319340 0.000000 0.000000 
#    y 0.000000 3.207490 0.000000 
#    z 0.000000 0.000000 3.562310 
# 
# 
# High freq. dielectric constant tensor:
#      x y z
#    x 1.652960 0.000000 0.000000 
#    y 0.000000 1.662840 0.000000 
#    z 0.000000 0.000000 1.685490 
# 
# From -- ./inp_files/8303.got.cif
#   From: 2010.03.12/outbox.cif.g09.slc.cpg/sg57_5_cif.got.tgz:8303.got - 2010.04.16 15:48:40.
