data_PCOD8232257
_publ_section_title
;
Structure prediction by ZEFSAII (Michael W. Deem and Ramdas Pophale) SiO2 
 PCOD8232257
Probable space group: P B C M
;
_chemical_formula_sum "Si O2"
_cell_formula_units_Z 64
_cell_length_a 14.945486
_cell_length_b 23.470950
_cell_length_c 9.373403
_cell_angle_alpha 90.000000
_cell_angle_beta 90.000000
_cell_angle_gamma 90.000000
_cell_volume 3288.046871
_symmetry_space_group_name_H-M "P B C M"
_symmetry_group_IT_number 57
_symmetry_cell_setting 'orthorhombic'
loop_
_space_group_symop_operation_xyz
x,y,z
-x,-y,1/2+z
x,1/2-y,-z
-x,1/2+y,1/2-z
-x,-y,-z
x,y,1/2-z
-x,1/2+y,z
x,1/2-y,1/2+z
loop_
_atom_site_type_symbol
_atom_site_label
_atom_site_fract_x
_atom_site_fract_y
_atom_site_fract_z
Si Si1 0.154625 0.895497 0.084107
Si Si2 0.540103 0.364361 0.089892
Si Si3 0.710423 0.302004 0.408025
Si Si4 0.003295 0.190565 0.918846
Si Si5 0.644297 0.807435 0.083666
Si Si6 0.781503 0.998776 0.417983
Si Si7 0.419781 0.530023 0.417600
Si Si8 0.182072 0.127730 0.919031
O O1 0.149024 0.912060 0.250000
O O2 0.244742 0.861284 0.044751
O O3 0.072104 0.855311 0.039622
O O4 0.157668 0.953842 0.995251
O O5 0.545792 0.391324 0.250000
O O6 0.603087 0.308398 0.083860
O O7 0.438839 0.348772 0.054342
O O8 0.579107 0.405243 0.969302
O O9 0.745786 0.250000 0.500000
O O10 0.743988 0.287308 0.250000
O O11 0.004015 0.202896 0.750000
O O12 0.095604 0.162116 0.972383
O O13 0.987147 0.250000 0.000000
O O14 0.653508 0.792841 0.250000
O O15 0.731345 0.839118 0.022088
O O16 0.628307 0.750000 0.000000
O O17 0.795564 0.006876 0.250000
O O18 0.676153 0.002697 0.456567
O O19 0.817072 0.937539 0.473510
O O20 0.500000 0.500000 0.500000
O O21 0.438059 0.526310 0.250000
O O22 0.186306 0.125952 0.750000
#
# Coordination Sequence:
#
# PCOD8232257 Si02
#       8
#     8   8   8   8   8   8   8   8
#     4  10  21  37  56  82 115 148 182 228 283 329
#     4  10  20  35  53  76 109 148 185 230 282 331
#     4  10  20  33  51  75 108 143 178 224 273 325
#     4  10  21  38  61  86 114 148 186 230 282 339
#     4  10  20  35  56  80 111 148 188 235 284 337
#     4  10  21  38  59  83 112 150 192 231 278 340
#     4  11  22  35  55  81 110 149 193 235 277 332
#     4   9  19  37  58  81 112 148 185 232 286 334
#
# _framework density 19.464444
#
# number of rings (size 3 to 8) (size 9 to 14) (size 15 to 20)
#    0.000    2.000    1.250    2.250    0.000    5.000 
#    0.000    1.250    0.000    0.000    0.000    0.000 
#    0.000    0.000    0.000    0.000    0.000    0.000 
#
# Total GULP energy -793538.918433 kJ/mol
# GULP energy per Si atom -12399.045601 kJ/mol
# Density = 1.942014 g / cm^3
# Si number density = 19.464444 Si / 1000 Ang^3
#
#
#
# Elastic Constant Matrix: (Units=GPa)
#
#
# Indices 1 2 3 4 5 6 
#
# 1 109.9327 27.1995 29.8178 0.0000 0.0000 0.0000
# 2 27.1995 92.2910 44.5411 0.0000 0.0000 0.0000
# 3 29.8178 44.5411 53.9659 0.0000 0.0000 0.0000
# 4 0.0000 0.0000 0.0000 36.5900 0.0000 0.0000
# 5 0.0000 0.0000 0.0000 0.0000 19.5395 0.0000
# 6 0.0000 0.0000 0.0000 0.0000 0.0000 21.0097
#
#
#
# Elastic Compliance Matrix: (Units=1/GPa)
#
#
# Indices 1 2 3 4 5 6 
#
# 1 0.010714 -0.000500 -0.005507 0.000000 0.000000 0.000000
# 2 -0.000500 0.018032 -0.014607 0.000000 0.000000 0.000000
# 3 -0.005507 -0.014607 0.033629 0.000000 0.000000 0.000000
# 4 0.000000 0.000000 0.000000 0.027330 0.000000 0.000000
# 5 0.000000 0.000000 0.000000 0.000000 0.051178 0.000000
# 6 0.000000 0.000000 0.000000 0.000000 0.000000 0.047597
#
#
# Mechanical properties :
#
#
# Convention : Reuss Voigt Hill
#
# Bulk Modulus (GPa) = 47.28724 51.03405 49.16065
# Shear Modulus (GPa) = 21.11870 25.73659 23.42765
#
# Velocity S-wave (km/s) = 3.29749 3.64020 3.47308
# Velocity P-wave (km/s) = 6.23256 6.62904 6.43385
#
# Compressibility (1/GPa) = 0.02114735
#
# Stress axis : x y z
#
# Youngs Moduli (GPa) = 93.33673 55.45704 29.73620
#
# Poissons Ratio (x) = 0.02770 0.16377
# Poissons Ratio (y) = 0.04663 0.43435
# Poissons Ratio (z) = 0.51405 0.81005
#
# Static dielectric constant tensor:
#      x y z
#    x 3.720030 0.000000 0.000000 
#    y 0.000000 3.546950 0.000000 
#    z 0.000000 0.000000 3.437910 
# 
# 
# High freq. dielectric constant tensor:
#      x y z
#    x 1.769450 0.000000 0.000000 
#    y 0.000000 1.760250 0.000000 
#    z 0.000000 0.000000 1.736410 
# 
# From -- ./inp_files/5723.got.cif
#   From: 2010.03.12/outbox.cif.g09.slc.cpg/sg57_3_cif.got.tgz:5723.got - 2010.04.16 15:48:40.
