data_PCOD8232057
_publ_section_title
;
Structure prediction by ZEFSAII (Michael W. Deem and Ramdas Pophale) SiO2 
 PCOD8232057
Probable space group: P B C M
;
_chemical_formula_sum "Si O2"
_cell_formula_units_Z 48
_cell_length_a 11.893605
_cell_length_b 11.177256
_cell_length_c 17.047048
_cell_angle_alpha 90.000000
_cell_angle_beta 90.000000
_cell_angle_gamma 90.000000
_cell_volume 2266.198214
_symmetry_space_group_name_H-M "P B C M"
_symmetry_group_IT_number 57
_symmetry_cell_setting 'orthorhombic'
loop_
_space_group_symop_operation_xyz
x,y,z
-x,-y,1/2+z
x,1/2-y,-z
-x,1/2+y,1/2-z
-x,-y,-z
x,y,1/2-z
-x,1/2+y,z
x,1/2-y,1/2+z
loop_
_atom_site_type_symbol
_atom_site_label
_atom_site_fract_x
_atom_site_fract_y
_atom_site_fract_z
Si Si1 0.319937 0.321762 0.105637
Si Si2 0.287658 0.432574 0.558744
Si Si3 0.436695 0.660571 0.571436
Si Si4 0.218550 0.773407 0.592551
Si Si5 0.899285 0.063411 0.841438
Si Si6 0.848109 0.509519 0.836375
O O1 0.324259 0.178132 0.113878
O O2 0.448741 0.365443 0.118654
O O3 0.235325 0.376395 0.169839
O O4 0.264776 0.373195 0.025355
O O5 0.385644 0.531386 0.547292
O O6 0.176817 0.487265 0.598866
O O7 0.470643 0.750000 0.500000
O O8 0.341598 0.729102 0.622560
O O9 0.211048 0.750000 0.500000
O O10 0.124327 0.703400 0.641923
O O11 0.204588 0.913842 0.604137
O O12 0.875223 0.032875 0.750000
O O13 0.028120 0.044658 0.865158
O O14 0.856239 0.452537 0.750000
#
# Coordination Sequence:
#
# PCOD8232057 Si02
#       6
#     8   8   8   8   8   8
#     4  11  22  36  62  95 127 158 208 261 304 365
#     4  10  22  37  63  97 122 163 210 260 305 364
#     4  10  19  37  65  91 126 162 201 256 315 366
#     4  10  22  40  68  93 117 159 211 263 307 370
#     4  10  23  43  63  86 125 168 204 252 317 375
#     4  11  25  42  62  88 127 170 209 255 317 381
#
# _framework density 21.180848999999998
#
# number of rings (size 3 to 8) (size 9 to 14) (size 15 to 20)
#    0.000    1.667    1.667    4.000    4.667    3.333 
#    0.000    4.167    0.000    0.000    0.000    0.000 
#    0.000    0.000    0.000    0.000    0.000    0.000 
#
# Total GULP energy -594881.488711 kJ/mol
# GULP energy per Si atom -12393.364348 kJ/mol
# Density = 2.113264 g / cm^3
# Si number density = 21.180849 Si / 1000 Ang^3
#
#
#
# Elastic Constant Matrix: (Units=GPa)
#
#
# Indices 1 2 3 4 5 6 
#
# 1 168.0743 53.8151 39.7024 0.0000 0.0000 0.0000
# 2 53.8151 130.6363 16.6881 0.0000 0.0000 0.0000
# 3 39.7024 16.6881 49.4137 0.0000 0.0000 0.0000
# 4 0.0000 0.0000 0.0000 25.5288 0.0000 0.0000
# 5 0.0000 0.0000 0.0000 0.0000 17.7351 0.0000
# 6 0.0000 0.0000 0.0000 0.0000 0.0000 24.8675
#
#
#
# Elastic Compliance Matrix: (Units=1/GPa)
#
#
# Indices 1 2 3 4 5 6 
#
# 1 0.008123 -0.002626 -0.005640 0.000000 0.000000 0.000000
# 2 -0.002626 0.008849 -0.000879 0.000000 0.000000 0.000000
# 3 -0.005640 -0.000879 0.025065 0.000000 0.000000 0.000000
# 4 0.000000 0.000000 0.000000 0.039171 0.000000 0.000000
# 5 0.000000 0.000000 0.000000 0.000000 0.056385 0.000000
# 6 0.000000 0.000000 0.000000 0.000000 0.000000 0.040213
#
#
# Mechanical properties :
#
#
# Convention : Reuss Voigt Hill
#
# Bulk Modulus (GPa) = 42.10757 63.17061 52.63909
# Shear Modulus (GPa) = 24.50853 29.48754 26.99803
#
# Velocity S-wave (km/s) = 3.40532 3.73524 3.57409
# Velocity P-wave (km/s) = 5.94851 6.96361 6.47598
#
# Compressibility (1/GPa) = 0.02374870
#
# Stress axis : x y z
#
# Youngs Moduli (GPa) = 123.11300 113.01062 39.89582
#
# Poissons Ratio (x) = 0.29673 0.22499
# Poissons Ratio (y) = 0.32325 0.03506
# Poissons Ratio (z) = 0.69430 0.09931
#
# Static dielectric constant tensor:
#      x y z
#    x 3.909960 0.000000 0.000000 
#    y 0.000000 4.112660 0.000000 
#    z 0.000000 0.000000 3.468990 
# 
# 
# High freq. dielectric constant tensor:
#      x y z
#    x 1.838010 0.000000 0.000000 
#    y 0.000000 1.846430 0.000000 
#    z 0.000000 0.000000 1.796610 
# 
# From -- ./inp_files/21843.got.cif
#   From: 2010.03.12/outbox.cif.g09.slc.cpg/sg57_11_cif.got.tgz:21843.got - 2010.04.16 15:48:40.
