data_PCOD8232141
_publ_section_title
;
Structure prediction by ZEFSAII (Michael W. Deem and Ramdas Pophale) SiO2 
 PCOD8232141
Probable space group: P B C M
;
_chemical_formula_sum "Si O2"
_cell_formula_units_Z 56
_cell_length_a 14.006682
_cell_length_b 24.025558
_cell_length_c 8.938455
_cell_angle_alpha 90.000000
_cell_angle_beta 90.000000
_cell_angle_gamma 90.000000
_cell_volume 3007.954135
_symmetry_space_group_name_H-M "P B C M"
_symmetry_group_IT_number 57
_symmetry_cell_setting 'orthorhombic'
loop_
_space_group_symop_operation_xyz
x,y,z
-x,-y,1/2+z
x,1/2-y,-z
-x,1/2+y,1/2-z
-x,-y,-z
x,y,1/2-z
-x,1/2+y,z
x,1/2-y,1/2+z
loop_
_atom_site_type_symbol
_atom_site_label
_atom_site_fract_x
_atom_site_fract_y
_atom_site_fract_z
Si Si1 0.330857 0.585740 0.927651
Si Si2 0.787369 0.307203 0.073679
Si Si3 0.815113 0.630960 0.923753
Si Si4 0.705667 0.977013 0.426500
Si Si5 0.998085 0.806253 0.075563
Si Si6 0.535742 0.914509 0.924224
Si Si7 0.348649 0.305591 0.578328
O O1 0.342955 0.582790 0.750000
O O2 0.279507 0.642396 0.978955
O O3 0.267655 0.533792 0.986698
O O4 0.431222 0.581396 0.009449
O O5 0.782481 0.299451 0.250000
O O6 0.895336 0.321229 0.019488
O O7 0.750613 0.250000 0.000000
O O8 0.793122 0.640459 0.750000
O O9 0.787793 0.567820 0.968643
O O10 0.926072 0.642912 0.962942
O O11 0.751977 0.675082 0.012381
O O12 0.699935 0.987755 0.250000
O O13 0.603007 0.956179 0.484205
O O14 0.999407 0.794323 0.250000
O O15 0.960208 0.750000 0.000000
O O16 0.536532 0.931741 0.750000
O O17 0.570555 0.851613 0.947203
O O18 0.386310 0.250000 0.500000
O O19 0.331260 0.292302 0.750000
#
# Coordination Sequence:
#
# PCOD8232141 Si02
#       7
#     8   8   8   8   8   8   8
#     4  11  22  36  54  75 100 134 170 208 254 300
#     4   9  20  37  56  77 103 133 168 210 253 297
#     4   9  18  32  52  76 103 134 168 206 250 298
#     4  10  20  35  54  77 104 134 168 208 250 299
#     4   9  17  32  53  77 103 133 168 206 249 298
#     4  10  21  36  53  74 100 134 173 213 253 299
#     4  10  20  32  48  72 104 136 167 205 252 303
#
# _framework density 18.617304000000001
#
# number of rings (size 3 to 8) (size 9 to 14) (size 15 to 20)
#    0.000    2.286    0.000    2.571    0.000    5.714 
#    0.000    3.571    0.000    0.000    0.000    0.000 
#    0.000    0.000    0.000    0.000    0.000    0.000 
#
# Total GULP energy -694440.529205 kJ/mol
# GULP energy per Si atom -12400.723736 kJ/mol
# Density = 1.857493 g / cm^3
# Si number density = 18.617304 Si / 1000 Ang^3
#
#
#
# Elastic Constant Matrix: (Units=GPa)
#
#
# Indices 1 2 3 4 5 6 
#
# 1 65.0048 44.2602 14.0946 0.0000 0.0000 0.0000
# 2 44.2602 130.5417 34.6272 0.0000 0.0000 0.0000
# 3 14.0946 34.6272 50.0548 0.0000 0.0000 0.0000
# 4 0.0000 0.0000 0.0000 34.0113 0.0000 0.0000
# 5 0.0000 0.0000 0.0000 0.0000 21.3406 0.0000
# 6 0.0000 0.0000 0.0000 0.0000 0.0000 21.5340
#
#
#
# Elastic Compliance Matrix: (Units=1/GPa)
#
#
# Indices 1 2 3 4 5 6 
#
# 1 0.020055 -0.006493 -0.001155 0.000000 0.000000 0.000000
# 2 -0.006493 0.011484 -0.006116 0.000000 0.000000 0.000000
# 3 -0.001155 -0.006116 0.024535 0.000000 0.000000 0.000000
# 4 0.000000 0.000000 0.000000 0.029402 0.000000 0.000000
# 5 0.000000 0.000000 0.000000 0.000000 0.046859 0.000000
# 6 0.000000 0.000000 0.000000 0.000000 0.000000 0.046438
#
#
# Mechanical properties :
#
#
# Convention : Reuss Voigt Hill
#
# Bulk Modulus (GPa) = 35.03315 47.95170 41.49243
# Shear Modulus (GPa) = 23.16770 25.55179 24.35974
#
# Velocity S-wave (km/s) = 3.53146 3.70871 3.62117
# Velocity P-wave (km/s) = 5.95707 6.64468 6.31025
#
# Compressibility (1/GPa) = 0.02854439
#
# Stress axis : x y z
#
# Youngs Moduli (GPa) = 49.86269 87.07520 40.75882
#
# Poissons Ratio (x) = 0.56540 0.04709
# Poissons Ratio (y) = 0.32377 0.24929
# Poissons Ratio (z) = 0.05760 0.53258
#
# Static dielectric constant tensor:
#      x y z
#    x 3.406090 0.000000 0.000000 
#    y 0.000000 3.667500 0.000000 
#    z 0.000000 0.000000 3.455810 
# 
# 
# High freq. dielectric constant tensor:
#      x y z
#    x 1.708770 0.000000 0.000000 
#    y 0.000000 1.727150 0.000000 
#    z 0.000000 0.000000 1.728290 
# 
# From -- ./inp_files/5167.got.cif
#   From: 2010.03.12/outbox.cif.g09.slc.cpg/sg57_3_cif.got.tgz:5167.got - 2010.04.16 15:48:40.
