data_PCOD8232667
_publ_section_title
;
Structure prediction by ZEFSAII (Michael W. Deem and Ramdas Pophale) SiO2 
 PCOD8232667
Probable space group: P B C M
;
_chemical_formula_sum "Si O2"
_cell_formula_units_Z 48
_cell_length_a 30.732877
_cell_length_b 9.047204
_cell_length_c 9.078699
_cell_angle_alpha 90.000000
_cell_angle_beta 90.000000
_cell_angle_gamma 90.000000
_cell_volume 2524.301460
_symmetry_space_group_name_H-M "P B C M"
_symmetry_group_IT_number 57
_symmetry_cell_setting 'orthorhombic'
loop_
_space_group_symop_operation_xyz
x,y,z
-x,-y,1/2+z
x,1/2-y,-z
-x,1/2+y,1/2-z
-x,-y,-z
x,y,1/2-z
-x,1/2+y,z
x,1/2-y,1/2+z
loop_
_atom_site_type_symbol
_atom_site_label
_atom_site_fract_x
_atom_site_fract_y
_atom_site_fract_z
Si Si1 0.037465 0.592583 0.923116
Si Si2 0.632820 0.095738 0.580346
Si Si3 0.204428 0.906878 0.076672
Si Si4 0.876942 0.595640 0.420455
Si Si5 0.535640 0.095918 0.579236
Si Si6 0.712337 0.595454 0.077128
O O1 0.027325 0.611836 0.750000
O O2 0.082391 0.509177 0.950892
O O3 0.040714 0.750000 0.000000
O O4 0.000000 0.500000 0.000000
O O5 0.639567 0.250000 0.500000
O O6 0.642398 0.129766 0.750000
O O7 0.584197 0.029482 0.558801
O O8 0.666803 0.974431 0.520830
O O9 0.200386 0.880791 0.250000
O O10 0.165801 0.012485 0.019037
O O11 0.249747 0.982516 0.032478
O O12 0.200856 0.750000 0.000000
O O13 0.884032 0.750000 0.500000
O O14 0.871364 0.632475 0.250000
O O15 0.534567 0.250000 0.500000
O O16 0.523440 0.113625 0.750000
O O17 0.500000 0.000000 0.500000
O O18 0.711688 0.625364 0.250000
O O19 0.720665 0.750000 0.000000
#
# Coordination Sequence:
#
# PCOD8232667 Si02
#       6
#     8   8   8   8   8   8
#     4  11  23  39  59  84 114 148 188 231 277 328
#     4   9  19  35  54  77 104 136 175 217 261 314
#     4  10  21  37  57  82 110 141 179 220 264 317
#     4  10  22  38  57  83 113 145 182 225 271 321
#     4  10  20  35  54  77 106 139 177 220 267 318
#     4  10  21  36  54  79 109 139 175 217 262 314
#
# _framework density 19.015160999999999
#
# number of rings (size 3 to 8) (size 9 to 14) (size 15 to 20)
#    0.000    2.000    0.000    3.000    0.000    6.000 
#    0.000    1.667    0.000    0.000    0.000    0.000 
#    0.000    0.000    0.000    0.000    0.000    0.000 
#
# Total GULP energy -595284.020264 kJ/mol
# GULP energy per Si atom -12401.750422 kJ/mol
# Density = 1.897188 g / cm^3
# Si number density = 19.015161 Si / 1000 Ang^3
#
#
#
# Elastic Constant Matrix: (Units=GPa)
#
#
# Indices 1 2 3 4 5 6 
#
# 1 134.0563 61.0387 61.1095 0.0000 0.0000 0.0000
# 2 61.0387 135.0919 65.2824 0.0000 0.0000 0.0000
# 3 61.1095 65.2824 86.5057 0.0000 0.0000 0.0000
# 4 0.0000 0.0000 0.0000 41.2614 0.0000 0.0000
# 5 0.0000 0.0000 0.0000 0.0000 27.2000 0.0000
# 6 0.0000 0.0000 0.0000 0.0000 0.0000 34.8386
#
#
#
# Elastic Compliance Matrix: (Units=1/GPa)
#
#
# Indices 1 2 3 4 5 6 
#
# 1 0.011326 -0.001969 -0.006515 0.000000 0.000000 0.000000
# 2 -0.001969 0.011994 -0.007660 0.000000 0.000000 0.000000
# 3 -0.006515 -0.007660 0.021943 0.000000 0.000000 0.000000
# 4 0.000000 0.000000 0.000000 0.024236 0.000000 0.000000
# 5 0.000000 0.000000 0.000000 0.000000 0.036765 0.000000
# 6 0.000000 0.000000 0.000000 0.000000 0.000000 0.028704
#
#
# Mechanical properties :
#
#
# Convention : Reuss Voigt Hill
#
# Bulk Modulus (GPa) = 77.07505 81.16834 79.12170
# Shear Modulus (GPa) = 29.14088 31.87489 30.50788
#
# Velocity S-wave (km/s) = 3.91897 4.09869 4.00984
# Velocity P-wave (km/s) = 7.81660 8.07328 7.94598
#
# Compressibility (1/GPa) = 0.01297437
#
# Stress axis : x y z
#
# Youngs Moduli (GPa) = 88.29293 83.37602 45.57256
#
# Poissons Ratio (x) = 0.16418 0.29690
# Poissons Ratio (y) = 0.17386 0.34910
# Poissons Ratio (z) = 0.57521 0.63868
#
# Static dielectric constant tensor:
#      x y z
#    x 2.259300 0.000000 0.000000 
#    y 0.000000 3.357100 0.000000 
#    z 0.000000 0.000000 3.520280 
# 
# 
# High freq. dielectric constant tensor:
#      x y z
#    x 1.760580 0.000000 0.000000 
#    y 0.000000 1.742020 0.000000 
#    z 0.000000 0.000000 1.739030 
# 
# From -- ./inp_files/9940.got.cif
#   From: 2010.03.12/outbox.cif.g09.slc.cpg/sg57_5_cif.got.tgz:9940.got - 2010.04.16 15:48:40.
