data_PCOD8232085
_publ_section_title
;
Structure prediction by ZEFSAII (Michael W. Deem and Ramdas Pophale) SiO2 
 PCOD8232085
Probable space group: P B C M
;
_chemical_formula_sum "Si O2"
_cell_formula_units_Z 28
_cell_length_a 9.566171
_cell_length_b 13.622858
_cell_length_c 10.116684
_cell_angle_alpha 90.000000
_cell_angle_beta 90.000000
_cell_angle_gamma 90.000000
_cell_volume 1318.391986
_symmetry_space_group_name_H-M "P B C M"
_symmetry_group_IT_number 57
_symmetry_cell_setting 'orthorhombic'
loop_
_space_group_symop_operation_xyz
x,y,z
-x,-y,1/2+z
x,1/2-y,-z
-x,1/2+y,1/2-z
-x,-y,-z
x,y,1/2-z
-x,1/2+y,z
x,1/2-y,1/2+z
loop_
_atom_site_type_symbol
_atom_site_label
_atom_site_fract_x
_atom_site_fract_y
_atom_site_fract_z
Si Si1 0.752746 0.871844 0.750000
Si Si2 0.689009 0.335752 0.101756
Si Si3 0.403158 0.133677 0.990764
Si Si4 0.786709 0.858309 0.250000
Si Si5 0.092988 0.943340 0.250000
O O1 0.655952 0.904703 0.628267
O O2 0.803265 0.759728 0.750000
O O3 0.893245 0.938245 0.750000
O O4 0.645254 0.295420 0.250000
O O5 0.560913 0.403259 0.043842
O O6 0.827889 0.402038 0.118633
O O7 0.728218 0.250000 0.000000
O O8 0.294304 0.104022 0.877915
O O9 0.422016 0.250000 0.000000
O O10 0.934857 0.910541 0.250000
#
# Coordination Sequence:
#
# PCOD8232085 Si02
#       5
#     4   8   8   4   4
#     4  10  22  36  60  88 118 154 202 244 290 344
#     4   9  19  36  59  85 116 151 196 239 291 347
#     4   9  18  35  61  83 106 155 198 238 280 353
#     4  10  19  39  61  78 116 158 198 236 291 347
#     4  10  23  37  57  88 124 150 194 248 299 349
#
# _framework density 21.237995000000002
#
# number of rings (size 3 to 8) (size 9 to 14) (size 15 to 20)
#    0.857    1.714    1.429    0.000    6.000    5.714 
#    0.000    0.000    3.143    0.000    0.000    0.000 
#    0.000    0.000    0.000    0.000    0.000    0.000 
#
# Total GULP energy -346959.325854 kJ/mol
# GULP energy per Si atom -12391.404495 kJ/mol
# Density = 2.118966 g / cm^3
# Si number density = 21.237995 Si / 1000 Ang^3
#
#
#
# Elastic Constant Matrix: (Units=GPa)
#
#
# Indices 1 2 3 4 5 6 
#
# 1 124.1405 5.6812 26.6881 0.0000 0.0000 0.0000
# 2 5.6812 24.6824 6.7822 0.0000 0.0000 0.0000
# 3 26.6881 6.7822 137.1968 0.0000 0.0000 0.0000
# 4 0.0000 0.0000 0.0000 8.6167 0.0000 0.0000
# 5 0.0000 0.0000 0.0000 0.0000 18.3550 0.0000
# 6 0.0000 0.0000 0.0000 0.0000 0.0000 25.7603
#
#
#
# Elastic Compliance Matrix: (Units=1/GPa)
#
#
# Indices 1 2 3 4 5 6 
#
# 1 0.008463 -0.001516 -0.001571 0.000000 0.000000 0.000000
# 2 -0.001516 0.041344 -0.001749 0.000000 0.000000 0.000000
# 3 -0.001571 -0.001749 0.007681 0.000000 0.000000 0.000000
# 4 0.000000 0.000000 0.000000 0.116053 0.000000 0.000000
# 5 0.000000 0.000000 0.000000 0.000000 0.054481 0.000000
# 6 0.000000 0.000000 0.000000 0.000000 0.000000 0.038819
#
#
# Mechanical properties :
#
#
# Convention : Reuss Voigt Hill
#
# Bulk Modulus (GPa) = 20.91383 40.48029 30.69706
# Shear Modulus (GPa) = 17.09680 27.00428 22.05054
#
# Velocity S-wave (km/s) = 2.84035 3.56969 3.22570
# Velocity P-wave (km/s) = 4.54153 6.00766 5.32529
#
# Compressibility (1/GPa) = 0.04781525
#
# Stress axis : x y z
#
# Youngs Moduli (GPa) = 118.16758 24.18717 130.19319
#
# Poissons Ratio (x) = 0.03667 0.20456
# Poissons Ratio (y) = 0.17915 0.22769
# Poissons Ratio (z) = 0.18567 0.04230
#
# Static dielectric constant tensor:
#      x y z
#    x 3.673660 0.000000 0.000000 
#    y 0.000000 3.459970 0.000000 
#    z 0.000000 0.000000 4.072950 
# 
# 
# High freq. dielectric constant tensor:
#      x y z
#    x 1.823600 0.000000 0.000000 
#    y 0.000000 1.811560 0.000000 
#    z 0.000000 0.000000 1.839440 
# 
# From -- ./inp_files/2339.got.cif
#   From: 2010.03.12/outbox.cif.g09.slc.cpg/sg57_2_cif.got.tgz:2339.got - 2010.04.16 15:48:40.
