data_PCOD8232784
_publ_section_title
;
Structure prediction by ZEFSAII (Michael W. Deem and Ramdas Pophale) SiO2 
 PCOD8232784
Probable space group: P B C M
;
_chemical_formula_sum "Si O2"
_cell_formula_units_Z 64
_cell_length_a 8.857281
_cell_length_b 19.961985
_cell_length_c 18.269217
_cell_angle_alpha 90.000000
_cell_angle_beta 90.000000
_cell_angle_gamma 90.000000
_cell_volume 3230.160353
_symmetry_space_group_name_H-M "P B C M"
_symmetry_group_IT_number 57
_symmetry_cell_setting 'orthorhombic'
loop_
_space_group_symop_operation_xyz
x,y,z
-x,-y,1/2+z
x,1/2-y,-z
-x,1/2+y,1/2-z
-x,-y,-z
x,y,1/2-z
-x,1/2+y,z
x,1/2-y,1/2+z
loop_
_atom_site_type_symbol
_atom_site_label
_atom_site_fract_x
_atom_site_fract_y
_atom_site_fract_z
Si Si1 0.619685 0.410452 0.333398
Si Si2 0.374301 0.139484 0.334532
Si Si3 0.082301 0.176776 0.412072
Si Si4 0.432734 0.212641 0.665879
Si Si5 0.141696 0.176950 0.922264
Si Si6 0.931997 0.441224 0.404631
Si Si7 0.533450 0.022006 0.082548
Si Si8 0.870749 0.062833 0.073881
O O1 0.600512 0.428341 0.250000
O O2 0.583369 0.331669 0.348563
O O3 0.787889 0.430512 0.354544
O O4 0.493302 0.454764 0.372594
O O5 0.395419 0.117068 0.250000
O O6 0.198156 0.153976 0.349278
O O7 0.465632 0.208924 0.350729
O O8 0.425216 0.081595 0.390056
O O9 0.158731 0.162166 0.491199
O O10 0.046137 0.255536 0.406358
O O11 0.924743 0.136986 0.402103
O O12 0.377510 0.205283 0.750000
O O13 0.306347 0.183255 0.612123
O O14 0.051148 0.116593 0.885633
O O15 0.873558 0.441913 0.486972
O O16 0.013066 0.511484 0.387886
O O17 0.701769 0.047701 0.098661
O O18 0.500000 0.000000 0.000000
#
# Coordination Sequence:
#
# PCOD8232784 Si02
#       8
#     8   8   8   8   8   8   8   8
#     4  11  23  39  58  86 120 156 197 245 298 355
#     4  10  22  41  61  86 120 159 196 240 297 358
#     4   9  19  35  59  86 115 150 190 241 287 352
#     4   9  20  38  60  85 119 157 196 241 293 358
#     4   9  18  33  57  88 116 146 191 238 292 343
#     4  10  20  35  56  81 114 150 187 239 292 348
#     4  12  24  38  60  88 114 157 200 246 297 346
#     4  10  21  36  56  82 113 148 192 241 291 345
#
# _framework density 19.813257
#
# number of rings (size 3 to 8) (size 9 to 14) (size 15 to 20)
#    0.000    2.000    1.250    1.875    5.250    1.500 
#    0.000    2.500    0.000    0.000    0.000    0.000 
#    0.000    0.000    0.000    0.000    0.000    0.000 
#
# Total GULP energy -793440.169906 kJ/mol
# GULP energy per Si atom -12397.502655 kJ/mol
# Density = 1.976816 g / cm^3
# Si number density = 19.813257 Si / 1000 Ang^3
#
#
#
# Elastic Constant Matrix: (Units=GPa)
#
#
# Indices 1 2 3 4 5 6 
#
# 1 55.2186 20.9070 24.3916 0.0000 0.0000 0.0000
# 2 20.9070 109.3480 42.8674 0.0000 0.0000 0.0000
# 3 24.3916 42.8674 80.2392 0.0000 0.0000 0.0000
# 4 0.0000 0.0000 0.0000 28.5332 0.0000 0.0000
# 5 0.0000 0.0000 0.0000 0.0000 22.5012 0.0000
# 6 0.0000 0.0000 0.0000 0.0000 0.0000 38.8264
#
#
#
# Elastic Compliance Matrix: (Units=1/GPa)
#
#
# Indices 1 2 3 4 5 6 
#
# 1 0.021238 -0.001935 -0.005422 0.000000 0.000000 0.000000
# 2 -0.001935 0.011744 -0.005686 0.000000 0.000000 0.000000
# 3 -0.005422 -0.005686 0.017149 0.000000 0.000000 0.000000
# 4 0.000000 0.000000 0.000000 0.035047 0.000000 0.000000
# 5 0.000000 0.000000 0.000000 0.000000 0.044442 0.000000
# 6 0.000000 0.000000 0.000000 0.000000 0.000000 0.025756
#
#
# Mechanical properties :
#
#
# Convention : Reuss Voigt Hill
#
# Bulk Modulus (GPa) = 41.59020 46.79309 44.19165
# Shear Modulus (GPa) = 26.38853 28.41481 27.40167
#
# Velocity S-wave (km/s) = 3.65343 3.79110 3.72290
# Velocity P-wave (km/s) = 6.23164 6.54458 6.39003
#
# Compressibility (1/GPa) = 0.02404412
#
# Stress axis : x y z
#
# Youngs Moduli (GPa) = 47.08637 85.14867 58.31324
#
# Poissons Ratio (x) = 0.16476 0.31619
# Poissons Ratio (y) = 0.09111 0.33157
# Poissons Ratio (z) = 0.25531 0.48416
#
# Static dielectric constant tensor:
#      x y z
#    x 3.929130 0.000000 0.000000 
#    y 0.000000 3.805220 0.000000 
#    z 0.000000 0.000000 3.541470 
# 
# 
# High freq. dielectric constant tensor:
#      x y z
#    x 1.754310 0.000000 0.000000 
#    y 0.000000 1.792660 0.000000 
#    z 0.000000 0.000000 1.760810 
# 
# From -- ./inp_files/21458.got.cif
#   From: 2010.03.12/outbox.cif.g09.slc.cpg/sg57_11_cif.got.tgz:21458.got - 2010.04.16 15:48:40.
