data_PCOD8232619
_publ_section_title
;
Structure prediction by ZEFSAII (Michael W. Deem and Ramdas Pophale) SiO2 
 PCOD8232619
Probable space group: P B C M
;
_chemical_formula_sum "Si O2"
_cell_formula_units_Z 40
_cell_length_a 11.101169
_cell_length_b 8.813066
_cell_length_c 20.930861
_cell_angle_alpha 90.000000
_cell_angle_beta 90.000000
_cell_angle_gamma 90.000000
_cell_volume 2047.777799
_symmetry_space_group_name_H-M "P B C M"
_symmetry_group_IT_number 57
_symmetry_cell_setting 'orthorhombic'
loop_
_space_group_symop_operation_xyz
x,y,z
-x,-y,1/2+z
x,1/2-y,-z
-x,1/2+y,1/2-z
-x,-y,-z
x,y,1/2-z
-x,1/2+y,z
x,1/2-y,1/2+z
loop_
_atom_site_type_symbol
_atom_site_label
_atom_site_fract_x
_atom_site_fract_y
_atom_site_fract_z
Si Si1 0.361355 0.186388 0.930841
Si Si2 0.978321 0.977827 0.636729
Si Si3 0.846968 0.253728 0.074480
Si Si4 0.405237 0.836236 0.566801
Si Si5 0.832060 0.791189 0.319341
O O1 0.470403 0.284422 0.898848
O O2 0.253777 0.190911 0.879999
O O3 0.405011 0.015747 0.942431
O O4 0.316885 0.250000 0.000000
O O5 0.889025 0.080782 0.595078
O O6 0.065623 0.079677 0.679449
O O7 0.896006 0.872495 0.680975
O O8 0.055257 0.873348 0.589518
O O9 0.715409 0.215574 0.105346
O O10 0.824093 0.250000 0.000000
O O11 0.416138 0.750000 0.500000
O O12 0.766181 0.806947 0.250000
#
# Coordination Sequence:
#
# PCOD8232619 Si02
#       5
#     8   8   8   8   8
#     4  11  23  39  65  91 121 160 204 251 299 357
#     4  10  22  38  60  84 121 163 199 243 304 364
#     4  10  20  34  59  93 124 150 198 252 303 356
#     4  10  21  37  61  91 123 159 197 244 307 357
#     4  11  24  42  63  87 122 160 204 247 302 361
#
# _framework density 19.533370999999999
#
# number of rings (size 3 to 8) (size 9 to 14) (size 15 to 20)
#    0.000    1.600    2.000    3.600    8.400    3.200 
#    0.000    1.000    0.000    0.000    0.000    0.000 
#    0.000    0.000    0.000    0.000    0.000    0.000 
#
# Total GULP energy -495774.033303 kJ/mol
# GULP energy per Si atom -12394.350833 kJ/mol
# Density = 1.948891 g / cm^3
# Si number density = 19.533371 Si / 1000 Ang^3
#
#
#
# Elastic Constant Matrix: (Units=GPa)
#
#
# Indices 1 2 3 4 5 6 
#
# 1 91.5097 41.9665 40.0224 0.0000 0.0000 0.0000
# 2 41.9665 149.3965 36.1760 0.0000 0.0000 0.0000
# 3 40.0224 36.1760 92.0780 0.0000 0.0000 0.0000
# 4 0.0000 0.0000 0.0000 7.2385 0.0000 0.0000
# 5 0.0000 0.0000 0.0000 0.0000 2.0278 0.0000
# 6 0.0000 0.0000 0.0000 0.0000 0.0000 0.3927
#
#
#
# Elastic Compliance Matrix: (Units=1/GPa)
#
#
# Indices 1 2 3 4 5 6 
#
# 1 0.014489 -0.002813 -0.005193 0.000000 0.000000 0.000000
# 2 -0.002813 0.007943 -0.001898 0.000000 0.000000 0.000000
# 3 -0.005193 -0.001898 0.013863 0.000000 0.000000 0.000000
# 4 0.000000 0.000000 0.000000 0.138150 0.000000 0.000000
# 5 0.000000 0.000000 0.000000 0.000000 0.493156 0.000000
# 6 0.000000 0.000000 0.000000 0.000000 0.000000 2.546613
#
#
# Mechanical properties :
#
#
# Convention : Reuss Voigt Hill
#
# Bulk Modulus (GPa) = 60.64938 63.25713 61.95325
# Shear Modulus (GPa) = 1.54344 16.25307 8.89826
#
# Velocity S-wave (km/s) = 0.88987 2.88769 2.13666
# Velocity P-wave (km/s) = 5.67207 6.60097 6.15407
#
# Compressibility (1/GPa) = 0.01648822
#
# Stress axis : x y z
#
# Youngs Moduli (GPa) = 69.01933 125.89162 72.13359
#
# Poissons Ratio (x) = 0.35408 0.37456
# Poissons Ratio (y) = 0.19412 0.13693
# Poissons Ratio (z) = 0.35839 0.23898
#
# Static dielectric constant tensor:
#      x y z
#    x 4.134540 0.000000 0.000000 
#    y 0.000000 3.883980 0.000000 
#    z 0.000000 0.000000 3.058570 
# 
# 
# High freq. dielectric constant tensor:
#      x y z
#    x 1.773010 0.000000 0.000000 
#    y 0.000000 1.784170 0.000000 
#    z 0.000000 0.000000 1.718800 
# 
# From -- ./inp_files/24844.got.cif
#   From: 2010.03.12/outbox.cif.g09.slc.cpg/sg57_13_cif.got.tgz:24844.got - 2010.04.16 15:48:40.
