data_PCOD8232236
_publ_section_title
;
Structure prediction by ZEFSAII (Michael W. Deem and Ramdas Pophale) SiO2 
 PCOD8232236
Probable space group: P B C M
;
_chemical_formula_sum "Si O2"
_cell_formula_units_Z 64
_cell_length_a 15.615682
_cell_length_b 24.528978
_cell_length_c 8.765651
_cell_angle_alpha 90.000000
_cell_angle_beta 90.000000
_cell_angle_gamma 90.000000
_cell_volume 3357.566210
_symmetry_space_group_name_H-M "P B C M"
_symmetry_group_IT_number 57
_symmetry_cell_setting 'orthorhombic'
loop_
_space_group_symop_operation_xyz
x,y,z
-x,-y,1/2+z
x,1/2-y,-z
-x,1/2+y,1/2-z
-x,-y,-z
x,y,1/2-z
-x,1/2+y,z
x,1/2-y,1/2+z
loop_
_atom_site_type_symbol
_atom_site_label
_atom_site_fract_x
_atom_site_fract_y
_atom_site_fract_z
Si Si1 0.042962 0.550369 0.423194
Si Si2 0.621623 0.691266 0.431367
Si Si3 0.026681 0.347739 0.076587
Si Si4 0.226340 0.586434 0.422429
Si Si5 0.814417 0.805621 0.927360
Si Si6 0.445395 0.081595 0.929129
Si Si7 0.621010 0.023401 0.928197
Si Si8 0.152148 0.694369 0.571047
O O1 0.009526 0.560398 0.250000
O O2 0.145548 0.545590 0.422051
O O3 0.000000 0.500000 0.500000
O O4 0.018700 0.596254 0.542108
O O5 0.592155 0.750000 0.500000
O O6 0.611948 0.694502 0.250000
O O7 0.719430 0.678610 0.484816
O O8 0.565962 0.640839 0.493288
O O9 0.057867 0.344055 0.250000
O O10 0.950982 0.304436 0.041811
O O11 0.111629 0.347520 0.972567
O O12 0.260585 0.594405 0.250000
O O13 0.297194 0.558188 0.525694
O O14 0.200753 0.645207 0.487954
O O15 0.811096 0.797570 0.750000
O O16 0.846918 0.750000 0.000000
O O17 0.432369 0.089064 0.750000
O O18 0.539356 0.060029 0.973276
O O19 0.378988 0.035587 0.988553
O O20 0.622977 0.010862 0.750000
O O21 0.189282 0.750000 0.500000
O O22 0.172602 0.690808 0.750000
#
# Coordination Sequence:
#
# PCOD8232236 Si02
#       8
#     8   8   8   8   8   8   8   8
#     4  10  21  36  53  74 103 139 178 219 265 317
#     4  10  21  37  57  82 114 150 185 225 275 328
#     4  10  20  33  51  74 101 137 179 222 267 314
#     4  10  21  37  57  81 109 142 180 225 275 325
#     4  10  20  33  50  74 104 138 176 217 260 308
#     4  10  21  38  61  87 113 143 180 222 270 325
#     4  10  21  38  61  87 113 142 180 225 272 324
#     4  10  20  34  53  77 106 141 181 225 273 325
#
# _framework density 19.061425
#
# number of rings (size 3 to 8) (size 9 to 14) (size 15 to 20)
#    0.000    2.000    0.000    3.375    0.000    8.000 
#    0.000    0.625    0.000    3.000    0.000    0.000 
#    0.000    0.000    0.000    0.000    0.000    0.000 
#
# Total GULP energy -793343.472147 kJ/mol
# GULP energy per Si atom -12395.991752 kJ/mol
# Density = 1.901804 g / cm^3
# Si number density = 19.061425 Si / 1000 Ang^3
#
#
#
# Elastic Constant Matrix: (Units=GPa)
#
#
# Indices 1 2 3 4 5 6 
#
# 1 66.3112 44.4990 27.6457 0.0000 0.0000 0.0000
# 2 44.4990 108.6741 45.1671 0.0000 0.0000 0.0000
# 3 27.6457 45.1671 65.1942 0.0000 0.0000 0.0000
# 4 0.0000 0.0000 0.0000 37.9271 0.0000 0.0000
# 5 0.0000 0.0000 0.0000 0.0000 30.0407 0.0000
# 6 0.0000 0.0000 0.0000 0.0000 0.0000 21.3788
#
#
#
# Elastic Compliance Matrix: (Units=1/GPa)
#
#
# Indices 1 2 3 4 5 6 
#
# 1 0.021605 -0.007076 -0.004259 0.000000 0.000000 0.000000
# 2 -0.007076 0.015241 -0.007558 0.000000 0.000000 0.000000
# 3 -0.004259 -0.007558 0.022381 0.000000 0.000000 0.000000
# 4 0.000000 0.000000 0.000000 0.026366 0.000000 0.000000
# 5 0.000000 0.000000 0.000000 0.000000 0.033288 0.000000
# 6 0.000000 0.000000 0.000000 0.000000 0.000000 0.046775
#
#
# Mechanical properties :
#
#
# Convention : Reuss Voigt Hill
#
# Bulk Modulus (GPa) = 46.64262 52.75589 49.69926
# Shear Modulus (GPa) = 23.74284 26.06052 24.90168
#
# Velocity S-wave (km/s) = 3.53313 3.70156 3.61832
# Velocity P-wave (km/s) = 6.41613 6.78274 6.60198
#
# Compressibility (1/GPa) = 0.02143962
#
# Stress axis : x y z
#
# Youngs Moduli (GPa) = 46.28620 65.61367 44.68048
#
# Poissons Ratio (x) = 0.46431 0.19029
# Poissons Ratio (y) = 0.32754 0.33770
# Poissons Ratio (z) = 0.19713 0.49592
#
# Static dielectric constant tensor:
#      x y z
#    x 3.390810 0.000000 0.000000 
#    y 0.000000 3.178930 0.000000 
#    z 0.000000 0.000000 3.547260 
# 
# 
# High freq. dielectric constant tensor:
#      x y z
#    x 1.727590 0.000000 0.000000 
#    y 0.000000 1.739760 0.000000 
#    z 0.000000 0.000000 1.758090 
# 
# From -- ./inp_files/5540.got.cif
#   From: 2010.03.12/outbox.cif.g09.slc.cpg/sg57_3_cif.got.tgz:5540.got - 2010.04.16 15:48:40.
