data_PCOD8232099
_publ_section_title
;
Structure prediction by ZEFSAII (Michael W. Deem and Ramdas Pophale) SiO2 
 PCOD8232099
Probable space group: P B C M
;
_chemical_formula_sum "Si O2"
_cell_formula_units_Z 40
_cell_length_a 8.675970
_cell_length_b 14.979058
_cell_length_c 14.307719
_cell_angle_alpha 90.000000
_cell_angle_beta 90.000000
_cell_angle_gamma 90.000000
_cell_volume 1859.400512
_symmetry_space_group_name_H-M "P B C M"
_symmetry_group_IT_number 57
_symmetry_cell_setting 'orthorhombic'
loop_
_space_group_symop_operation_xyz
x,y,z
-x,-y,1/2+z
x,1/2-y,-z
-x,1/2+y,1/2-z
-x,-y,-z
x,y,1/2-z
-x,1/2+y,z
x,1/2-y,1/2+z
loop_
_atom_site_type_symbol
_atom_site_label
_atom_site_fract_x
_atom_site_fract_y
_atom_site_fract_z
Si Si1 0.425579 0.999828 0.750000
Si Si2 0.237739 0.453306 0.750000
Si Si3 0.820264 0.397237 0.107410
Si Si4 0.401360 0.818395 0.250000
Si Si5 0.331306 0.502925 0.045384
Si Si6 0.296060 0.241742 0.250000
Si Si7 0.844643 0.828825 0.427666
O O1 0.473483 0.102728 0.750000
O O2 0.328657 0.977944 0.843488
O O3 0.578743 0.941741 0.750000
O O4 0.179832 0.506652 0.659314
O O5 0.192774 0.349062 0.750000
O O6 0.706692 0.326536 0.158369
O O7 0.989806 0.358777 0.109449
O O8 0.762130 0.415497 0.002161
O O9 0.513454 0.731264 0.250000
O O10 0.245338 0.410026 0.023086
O O11 0.500000 0.500000 0.000000
O O12 0.255160 0.297265 0.158889
O O13 0.867508 0.750000 0.500000
#
# Coordination Sequence:
#
# PCOD8232099 Si02
#       7
#     4   4   8   4   8   4   8
#     4  10  20  37  64  98 115 169 215 270 329 374
#     4  10  21  39  72  94 123 171 222 265 328 397
#     4  10  22  43  65  93 137 174 216 267 333 404
#     4  10  19  41  70  93 126 170 217 282 336 379
#     4  12  20  41  69  93 129 176 228 272 319 401
#     4  12  22  43  66  97 128 166 226 279 331 386
#     4  12  26  42  66  99 137 177 215 273 344 391
#
# _framework density 21.512311
#
# number of rings (size 3 to 8) (size 9 to 14) (size 15 to 20)
#    0.000    1.200    6.000    3.000    0.000    0.000 
#    3.600    2.000    0.000    0.000    0.000    0.000 
#    0.000    0.000    0.000    0.000    0.000    0.000 
#
# Total GULP energy -495887.442102 kJ/mol
# GULP energy per Si atom -12397.186053 kJ/mol
# Density = 2.146335 g / cm^3
# Si number density = 21.512311 Si / 1000 Ang^3
#
#
#
# Elastic Constant Matrix: (Units=GPa)
#
#
# Indices 1 2 3 4 5 6 
#
# 1 139.6465 53.4458 48.3685 0.0000 0.0000 0.0000
# 2 53.4458 66.8738 35.1759 0.0000 0.0000 0.0000
# 3 48.3685 35.1759 127.7983 0.0000 0.0000 0.0000
# 4 0.0000 0.0000 0.0000 -11.5171 0.0000 0.0000
# 5 0.0000 0.0000 0.0000 0.0000 29.5649 0.0000
# 6 0.0000 0.0000 0.0000 0.0000 0.0000 27.3228
#
#
#
# Elastic Compliance Matrix: (Units=1/GPa)
#
#
# Indices 1 2 3 4 5 6 
#
# 1 0.010732 -0.007531 -0.001989 0.000000 0.000000 0.000000
# 2 -0.007531 0.022770 -0.003417 0.000000 0.000000 0.000000
# 3 -0.001989 -0.003417 0.009518 0.000000 0.000000 0.000000
# 4 0.000000 0.000000 0.000000 -0.086828 0.000000 0.000000
# 5 0.000000 0.000000 0.000000 0.000000 0.033824 0.000000
# 6 0.000000 0.000000 0.000000 0.000000 0.000000 0.036599
#
#
# Mechanical properties :
#
#
# Convention : Reuss Voigt Hill
#
# Bulk Modulus (GPa) = 58.32233 67.58879 62.95556
# Shear Modulus (GPa) = 85.90376 22.22935 54.06656
#
# Velocity S-wave (km/s) = 6.32606 3.21803 5.01871
# Velocity P-wave (km/s) = 8.97378 6.73012 7.93169
#
# Compressibility (1/GPa) = 0.01714609
#
# Stress axis : x y z
#
# Youngs Moduli (GPa) = 93.17841 43.91814 105.06280
#
# Poissons Ratio (x) = 0.33074 0.20897
# Poissons Ratio (y) = 0.70172 0.35900
# Poissons Ratio (z) = 0.18533 0.15007
#
# Static dielectric constant tensor:
#      x y z
#    x 3.850860 0.000000 0.000000 
#    y 0.000000 3.930470 0.000000 
#    z 0.000000 0.000000 3.184470 
# 
# 
# High freq. dielectric constant tensor:
#      x y z
#    x 1.844690 0.000000 0.000000 
#    y 0.000000 1.826490 0.000000 
#    z 0.000000 0.000000 1.855080 
# 
# From -- ./inp_files/16181.got.cif
#   From: 2010.03.12/outbox.cif.g09.slc.cpg/sg57_9_cif.got.tgz:16181.got - 2010.04.16 15:48:40.
