data_PCOD8232738
_publ_section_title
;
Structure prediction by ZEFSAII (Michael W. Deem and Ramdas Pophale) SiO2 
 PCOD8232738
Probable space group: P B C M
;
_chemical_formula_sum "Si O2"
_cell_formula_units_Z 64
_cell_length_a 22.629575
_cell_length_b 17.396267
_cell_length_c 8.892714
_cell_angle_alpha 90.000000
_cell_angle_beta 90.000000
_cell_angle_gamma 90.000000
_cell_volume 3500.795866
_symmetry_space_group_name_H-M "P B C M"
_symmetry_group_IT_number 57
_symmetry_cell_setting 'orthorhombic'
loop_
_space_group_symop_operation_xyz
x,y,z
-x,-y,1/2+z
x,1/2-y,-z
-x,1/2+y,1/2-z
-x,-y,-z
x,y,1/2-z
-x,1/2+y,z
x,1/2-y,1/2+z
loop_
_atom_site_type_symbol
_atom_site_label
_atom_site_fract_x
_atom_site_fract_y
_atom_site_fract_z
Si Si1 0.041808 0.061957 0.926260
Si Si2 0.058959 0.830638 0.424009
Si Si3 0.744719 0.979844 0.426165
Si Si4 0.581330 0.625680 0.576245
Si Si5 0.300243 0.328367 0.928394
Si Si6 0.137868 0.525201 0.571592
Si Si7 0.547828 0.172400 0.574182
Si Si8 0.617868 0.456100 0.580844
O O1 0.048604 0.045698 0.750000
O O2 0.009567 0.144210 0.954265
O O3 0.105183 0.051769 0.007002
O O4 0.000000 0.000000 0.000000
O O5 0.073417 0.750000 0.500000
O O6 0.070246 0.818146 0.250000
O O7 0.103593 0.897507 0.480896
O O8 0.755632 0.966137 0.250000
O O9 0.738670 0.897463 0.505530
O O10 0.797370 0.028057 0.500428
O O11 0.686490 0.030119 0.454703
O O12 0.593802 0.648336 0.750000
O O13 0.631011 0.663834 0.472827
O O14 0.518224 0.654290 0.515942
O O15 0.581481 0.534156 0.558537
O O16 0.293816 0.326667 0.750000
O O17 0.274976 0.250000 0.000000
O O18 0.141089 0.518472 0.750000
O O19 0.571386 0.250000 0.500000
O O20 0.547062 0.183162 0.750000
O O21 0.593194 0.105322 0.535041
O O22 0.609534 0.424978 0.750000
#
# Coordination Sequence:
#
# PCOD8232738 Si02
#       8
#     8   8   8   8   8   8   8   8
#     4   9  17  31  51  77 106 137 171 211 257 306
#     4   9  19  33  52  80 112 141 175 217 261 307
#     4  10  21  38  58  79 104 139 180 221 264 313
#     4   9  19  35  54  78 104 132 168 212 263 323
#     4  11  21  34  54  79 107 138 171 214 264 316
#     4  10  20  35  55  81 108 140 182 221 259 313
#     4  11  22  34  51  75 104 136 172 215 266 319
#     4   9  19  36  55  75 102 133 171 217 266 319
#
# _framework density 18.281556999999999
#
# number of rings (size 3 to 8) (size 9 to 14) (size 15 to 20)
#    0.000    2.250    0.000    4.875    0.000    7.500 
#    0.000    1.250    0.000    3.000    0.000    0.000 
#    0.000    0.000    0.000    0.000    0.000    0.000 
#
# Total GULP energy -793534.511200 kJ/mol
# GULP energy per Si atom -12398.976737 kJ/mol
# Density = 1.823995 g / cm^3
# Si number density = 18.281557 Si / 1000 Ang^3
#
#
#
# Elastic Constant Matrix: (Units=GPa)
#
#
# Indices 1 2 3 4 5 6 
#
# 1 78.8041 44.3497 42.4408 0.0000 0.0000 0.0000
# 2 44.3497 96.8146 46.5096 0.0000 0.0000 0.0000
# 3 42.4408 46.5096 98.9951 0.0000 0.0000 0.0000
# 4 0.0000 0.0000 0.0000 32.7654 0.0000 0.0000
# 5 0.0000 0.0000 0.0000 0.0000 33.1986 0.0000
# 6 0.0000 0.0000 0.0000 0.0000 0.0000 17.2107
#
#
#
# Elastic Compliance Matrix: (Units=1/GPa)
#
#
# Indices 1 2 3 4 5 6 
#
# 1 0.018990 -0.006184 -0.005236 0.000000 0.000000 0.000000
# 2 -0.006184 0.015353 -0.004562 0.000000 0.000000 0.000000
# 3 -0.005236 -0.004562 0.014490 0.000000 0.000000 0.000000
# 4 0.000000 0.000000 0.000000 0.030520 0.000000 0.000000
# 5 0.000000 0.000000 0.000000 0.000000 0.030122 0.000000
# 6 0.000000 0.000000 0.000000 0.000000 0.000000 0.058104
#
#
# Mechanical properties :
#
#
# Convention : Reuss Voigt Hill
#
# Bulk Modulus (GPa) = 59.28041 60.13489 59.70765
# Shear Modulus (GPa) = 24.37067 26.05584 25.21326
#
# Velocity S-wave (km/s) = 3.65509 3.77935 3.71774
# Velocity P-wave (km/s) = 7.09293 7.21178 7.15260
#
# Compressibility (1/GPa) = 0.01686898
#
# Stress axis : x y z
#
# Youngs Moduli (GPa) = 52.66031 65.13236 69.01448
#
# Poissons Ratio (x) = 0.40275 0.36136
# Poissons Ratio (y) = 0.32563 0.31486
# Poissons Ratio (z) = 0.27573 0.29715
#
# Static dielectric constant tensor:
#      x y z
#    x 3.434260 0.000000 0.000000 
#    y 0.000000 3.345200 0.000000 
#    z 0.000000 0.000000 3.407370 
# 
# 
# High freq. dielectric constant tensor:
#      x y z
#    x 1.698560 0.000000 0.000000 
#    y 0.000000 1.699030 0.000000 
#    z 0.000000 0.000000 1.717280 
# 
# From -- ./inp_files/9452.got.cif
#   From: 2010.03.12/outbox.cif.g09.slc.cpg/sg57_5_cif.got.tgz:9452.got - 2010.04.16 15:48:40.
