data_PCOD8232293
_publ_section_title
;
Structure prediction by ZEFSAII (Michael W. Deem and Ramdas Pophale) SiO2 
 PCOD8232293
Probable space group: P B C M
;
_chemical_formula_sum "Si O2"
_cell_formula_units_Z 64
_cell_length_a 12.629595
_cell_length_b 29.379778
_cell_length_c 8.949518
_cell_angle_alpha 90.000000
_cell_angle_beta 90.000000
_cell_angle_gamma 90.000000
_cell_volume 3320.760693
_symmetry_space_group_name_H-M "P B C M"
_symmetry_group_IT_number 57
_symmetry_cell_setting 'orthorhombic'
loop_
_space_group_symop_operation_xyz
x,y,z
-x,-y,1/2+z
x,1/2-y,-z
-x,1/2+y,1/2-z
-x,-y,-z
x,y,1/2-z
-x,1/2+y,z
x,1/2-y,1/2+z
loop_
_atom_site_type_symbol
_atom_site_label
_atom_site_fract_x
_atom_site_fract_y
_atom_site_fract_z
Si Si1 0.110323 0.295055 0.424997
Si Si2 0.957957 0.606814 0.927600
Si Si3 0.207847 0.040290 0.426184
Si Si4 0.379200 0.886719 0.427412
Si Si5 0.827361 0.438682 0.427082
Si Si6 0.653657 0.816433 0.418956
Si Si7 0.395186 0.080317 0.582061
Si Si8 0.557447 0.295401 0.926280
O O1 0.060038 0.250000 0.500000
O O2 0.096358 0.290022 0.250000
O O3 0.050321 0.340650 0.480273
O O4 0.233318 0.297777 0.470919
O O5 0.947950 0.603027 0.750000
O O6 0.069108 0.587163 0.987951
O O7 0.863373 0.577998 0.996293
O O8 0.197723 0.045102 0.250000
O O9 0.330528 0.046879 0.473135
O O10 0.170427 0.990698 0.482709
O O11 0.379028 0.878219 0.250000
O O12 0.277273 0.913599 0.487625
O O13 0.483152 0.915809 0.472522
O O14 0.379549 0.838069 0.507247
O O15 0.824390 0.437272 0.250000
O O16 0.624198 0.800859 0.250000
O O17 0.660184 0.870705 0.424356
O O18 0.566964 0.797608 0.533321
O O19 0.390401 0.060651 0.750000
O O20 0.572077 0.294025 0.750000
O O21 0.606721 0.250000 0.000000
#
# Coordination Sequence:
#
# PCOD8232293 Si02
#       8
#     8   8   8   8   8   8   8   8
#     4  10  20  33  52  78 107 141 178 216 267 326
#     4  10  20  39  60  78 108 149 186 221 273 334
#     4  11  21  33  55  88 115 139 181 232 277 324
#     4   9  19  38  58  77 107 146 187 230 276 328
#     4   9  20  38  60  81 105 144 190 232 276 327
#     4   9  17  32  51  76 109 144 179 218 267 325
#     4   9  17  32  54  79 111 147 176 213 272 334
#     4  11  21  33  52  80 109 143 184 227 275 326
#
# _framework density 19.272691999999999
#
# number of rings (size 3 to 8) (size 9 to 14) (size 15 to 20)
#    0.000    2.250    1.250    3.000    0.000    4.500 
#    0.000    3.125    0.000    1.500    0.000    0.000 
#    0.000    0.000    0.000    0.000    0.000    0.000 
#
# Total GULP energy -793609.379236 kJ/mol
# GULP energy per Si atom -12400.146551 kJ/mol
# Density = 1.922883 g / cm^3
# Si number density = 19.272692 Si / 1000 Ang^3
#
#
#
# Elastic Constant Matrix: (Units=GPa)
#
#
# Indices 1 2 3 4 5 6 
#
# 1 98.3671 58.2318 28.7229 0.0000 0.0000 0.0000
# 2 58.2318 132.2607 38.7791 0.0000 0.0000 0.0000
# 3 28.7229 38.7791 54.5931 0.0000 0.0000 0.0000
# 4 0.0000 0.0000 0.0000 27.3099 0.0000 0.0000
# 5 0.0000 0.0000 0.0000 0.0000 16.9101 0.0000
# 6 0.0000 0.0000 0.0000 0.0000 0.0000 14.6568
#
#
#
# Elastic Compliance Matrix: (Units=1/GPa)
#
#
# Indices 1 2 3 4 5 6 
#
# 1 0.014370 -0.005191 -0.003873 0.000000 0.000000 0.000000
# 2 -0.005191 0.011425 -0.005384 0.000000 0.000000 0.000000
# 3 -0.003873 -0.005384 0.024180 0.000000 0.000000 0.000000
# 4 0.000000 0.000000 0.000000 0.036617 0.000000 0.000000
# 5 0.000000 0.000000 0.000000 0.000000 0.059136 0.000000
# 6 0.000000 0.000000 0.000000 0.000000 0.000000 0.068228
#
#
# Mechanical properties :
#
#
# Convention : Reuss Voigt Hill
#
# Bulk Modulus (GPa) = 47.44354 59.63206 53.53780
# Shear Modulus (GPa) = 20.00970 22.40783 21.20876
#
# Velocity S-wave (km/s) = 3.22567 3.41350 3.32091
# Velocity P-wave (km/s) = 6.20836 6.82234 6.52258
#
# Compressibility (1/GPa) = 0.02107768
#
# Stress axis : x y z
#
# Youngs Moduli (GPa) = 69.58908 87.52618 41.35714
#
# Poissons Ratio (x) = 0.45438 0.16017
# Poissons Ratio (y) = 0.36126 0.22268
# Poissons Ratio (z) = 0.26951 0.47127
#
# Static dielectric constant tensor:
#      x y z
#    x 3.533260 0.000000 0.000000 
#    y 0.000000 3.691360 0.000000 
#    z 0.000000 0.000000 3.251620 
# 
# 
# High freq. dielectric constant tensor:
#      x y z
#    x 1.735800 0.000000 0.000000 
#    y 0.000000 1.758190 0.000000 
#    z 0.000000 0.000000 1.728100 
# 
# From -- ./inp_files/3721.got.cif
#   From: 2010.03.12/outbox.cif.g09.slc.cpg/sg57_2_cif.got.tgz:3721.got - 2010.04.16 15:48:40.
