data_PCOD8232580
_publ_section_title
;
Structure prediction by ZEFSAII (Michael W. Deem and Ramdas Pophale) SiO2 
 PCOD8232580
Probable space group: P B C M
;
_chemical_formula_sum "Si O2"
_cell_formula_units_Z 64
_cell_length_a 15.095621
_cell_length_b 24.135358
_cell_length_c 9.012180
_cell_angle_alpha 90.000000
_cell_angle_beta 90.000000
_cell_angle_gamma 90.000000
_cell_volume 3283.481593
_symmetry_space_group_name_H-M "P B C M"
_symmetry_group_IT_number 57
_symmetry_cell_setting 'orthorhombic'
loop_
_space_group_symop_operation_xyz
x,y,z
-x,-y,1/2+z
x,1/2-y,-z
-x,1/2+y,1/2-z
-x,-y,-z
x,y,1/2-z
-x,1/2+y,z
x,1/2-y,1/2+z
loop_
_atom_site_type_symbol
_atom_site_label
_atom_site_fract_x
_atom_site_fract_y
_atom_site_fract_z
Si Si1 0.904558 0.002076 0.427047
Si Si2 0.017194 0.690665 0.576120
Si Si3 0.853110 0.618764 0.925550
Si Si4 0.349563 0.600873 0.075834
Si Si5 0.531863 0.627550 0.920996
Si Si6 0.587884 0.511940 0.582684
Si Si7 0.304700 0.306666 0.424763
Si Si8 0.175055 0.609257 0.924241
O O1 0.913104 0.006807 0.250000
O O2 0.850890 0.053980 0.488381
O O3 0.854723 0.945429 0.475479
O O4 0.000000 0.000000 0.500000
O O5 0.018231 0.750000 0.500000
O O6 0.005861 0.700501 0.750000
O O7 0.107975 0.658761 0.539595
O O8 0.937224 0.653099 0.511676
O O9 0.858470 0.620712 0.750000
O O10 0.762836 0.646540 0.984724
O O11 0.338766 0.613739 0.250000
O O12 0.339516 0.534381 0.036587
O O13 0.445436 0.623990 0.023937
O O14 0.270887 0.629810 0.984212
O O15 0.499867 0.629955 0.750000
O O16 0.604979 0.577211 0.940499
O O17 0.592735 0.679660 0.965758
O O18 0.500000 0.500000 0.500000
O O19 0.565622 0.497747 0.750000
O O20 0.276701 0.250000 0.500000
O O21 0.294062 0.300233 0.250000
O O22 0.178316 0.596273 0.750000
#
# Coordination Sequence:
#
# PCOD8232580 Si02
#       8
#     8   8   8   8   8   8   8   8
#     4  11  21  37  61  88 123 159 196 239 293 356
#     4  10  21  39  60  83 112 150 193 239 288 340
#     4   9  19  37  60  85 117 154 188 233 293 350
#     4  10  20  34  56  84 112 147 190 237 287 341
#     4   9  18  34  55  78 108 148 187 228 286 344
#     4   8  15  28  48  74 103 135 175 218 268 329
#     4  10  21  37  59  83 113 152 195 241 293 347
#     4  11  23  39  57  85 124 159 195 240 293 352
#
# _framework density 19.491506000000001
#
# number of rings (size 3 to 8) (size 9 to 14) (size 15 to 20)
#    0.000    2.250    1.250    1.500    1.750    2.000 
#    0.000    1.875    0.000    0.000    0.000    0.000 
#    0.000    0.000    0.000    0.000    0.000    0.000 
#
# Total GULP energy -792989.080231 kJ/mol
# GULP energy per Si atom -12390.454379 kJ/mol
# Density = 1.944714 g / cm^3
# Si number density = 19.491506 Si / 1000 Ang^3
#
#
#
# Elastic Constant Matrix: (Units=GPa)
#
#
# Indices 1 2 3 4 5 6 
#
# 1 101.3677 33.0070 35.0115 0.0000 0.0000 0.0000
# 2 33.0070 102.5447 33.2354 0.0000 0.0000 0.0000
# 3 35.0115 33.2354 59.2025 0.0000 0.0000 0.0000
# 4 0.0000 0.0000 0.0000 30.3408 0.0000 0.0000
# 5 0.0000 0.0000 0.0000 0.0000 26.7730 0.0000
# 6 0.0000 0.0000 0.0000 0.0000 0.0000 26.3772
#
#
#
# Elastic Compliance Matrix: (Units=1/GPa)
#
#
# Indices 1 2 3 4 5 6 
#
# 1 0.012733 -0.002027 -0.006392 0.000000 0.000000 0.000000
# 2 -0.002027 0.012243 -0.005675 0.000000 0.000000 0.000000
# 3 -0.006392 -0.005675 0.023857 0.000000 0.000000 0.000000
# 4 0.000000 0.000000 0.000000 0.032959 0.000000 0.000000
# 5 0.000000 0.000000 0.000000 0.000000 0.037351 0.000000
# 6 0.000000 0.000000 0.000000 0.000000 0.000000 0.037911
#
#
# Mechanical properties :
#
#
# Convention : Reuss Voigt Hill
#
# Bulk Modulus (GPa) = 48.43533 51.73587 50.08560
# Shear Modulus (GPa) = 26.02484 27.48895 26.75690
#
# Velocity S-wave (km/s) = 3.65799 3.75948 3.70908
# Velocity P-wave (km/s) = 6.53793 6.74131 6.64040
#
# Compressibility (1/GPa) = 0.02064609
#
# Stress axis : x y z
#
# Youngs Moduli (GPa) = 78.53719 81.67666 41.91611
#
# Poissons Ratio (x) = 0.16553 0.26794
# Poissons Ratio (y) = 0.15917 0.23786
# Poissons Ratio (z) = 0.50203 0.46349
#
# Static dielectric constant tensor:
#      x y z
#    x 3.694890 0.000000 0.000000 
#    y 0.000000 3.361690 0.000000 
#    z 0.000000 0.000000 3.375630 
# 
# 
# High freq. dielectric constant tensor:
#      x y z
#    x 1.763510 0.000000 0.000000 
#    y 0.000000 1.754360 0.000000 
#    z 0.000000 0.000000 1.744480 
# 
# From -- ./inp_files/5568.got.cif
#   From: 2010.03.12/outbox.cif.g09.slc.cpg/sg57_3_cif.got.tgz:5568.got - 2010.04.16 15:48:40.
