data_PCOD8232675
_publ_section_title
;
Structure prediction by ZEFSAII (Michael W. Deem and Ramdas Pophale) SiO2 
 PCOD8232675
Probable space group: P B C M
;
_chemical_formula_sum "Si O2"
_cell_formula_units_Z 40
_cell_length_a 25.599358
_cell_length_b 9.111631
_cell_length_c 9.033558
_cell_angle_alpha 90.000000
_cell_angle_beta 90.000000
_cell_angle_gamma 90.000000
_cell_volume 2107.094603
_symmetry_space_group_name_H-M "P B C M"
_symmetry_group_IT_number 57
_symmetry_cell_setting 'orthorhombic'
loop_
_space_group_symop_operation_xyz
x,y,z
-x,-y,1/2+z
x,1/2-y,-z
-x,1/2+y,1/2-z
-x,-y,-z
x,y,1/2-z
-x,1/2+y,z
x,1/2-y,1/2+z
loop_
_atom_site_type_symbol
_atom_site_label
_atom_site_fract_x
_atom_site_fract_y
_atom_site_fract_z
Si Si1 0.255273 0.094408 0.924978
Si Si2 0.545278 0.907576 0.075281
Si Si3 0.042796 0.596382 0.077997
Si Si4 0.840387 0.403509 0.579263
Si Si5 0.647128 0.095584 0.078142
O O1 0.257461 0.118250 0.750000
O O2 0.200193 0.025442 0.978203
O O3 0.300670 0.984721 0.979139
O O4 0.263365 0.250000 0.000000
O O5 0.534479 0.890561 0.250000
O O6 0.599139 0.989616 0.042293
O O7 0.548082 0.750000 0.000000
O O8 0.500000 0.000000 0.000000
O O9 0.029048 0.612339 0.250000
O O10 0.101212 0.532523 0.053908
O O11 0.039873 0.750000 0.000000
O O12 0.000000 0.500000 0.000000
O O13 0.830972 0.250000 0.500000
O O14 0.830074 0.369946 0.750000
O O15 0.651484 0.130310 0.250000
O O16 0.639013 0.250000 0.000000
#
# Coordination Sequence:
#
# PCOD8232675 Si02
#       5
#     8   8   8   8   8
#     4  10  21  37  55  80 110 140 176 220 267 319
#     4  11  23  39  59  85 115 149 187 229 274 324
#     4  10  20  35  54  78 107 141 179 222 269 321
#     4   9  19  35  55  78 105 137 177 219 264 318
#     4  10  22  38  58  83 111 143 182 224 270 322
#
# _framework density 18.983485999999999
#
# number of rings (size 3 to 8) (size 9 to 14) (size 15 to 20)
#    0.000    2.000    0.000    3.000    0.000    6.400 
#    0.000    2.000    0.000    0.000    0.000    0.000 
#    0.000    0.000    0.000    0.000    0.000    0.000 
#
# Total GULP energy -496045.095486 kJ/mol
# GULP energy per Si atom -12401.127387 kJ/mol
# Density = 1.894028 g / cm^3
# Si number density = 18.983486 Si / 1000 Ang^3
#
#
#
# Elastic Constant Matrix: (Units=GPa)
#
#
# Indices 1 2 3 4 5 6 
#
# 1 150.1286 77.3660 69.6034 0.0000 0.0000 0.0000
# 2 77.3660 141.6789 68.7695 0.0000 0.0000 0.0000
# 3 69.6034 68.7695 90.3807 0.0000 0.0000 0.0000
# 4 0.0000 0.0000 0.0000 41.5216 0.0000 0.0000
# 5 0.0000 0.0000 0.0000 0.0000 28.2722 0.0000
# 6 0.0000 0.0000 0.0000 0.0000 0.0000 33.6816
#
#
#
# Elastic Compliance Matrix: (Units=1/GPa)
#
#
# Indices 1 2 3 4 5 6 
#
# 1 0.011128 -0.003040 -0.006257 0.000000 0.000000 0.000000
# 2 -0.003040 0.012022 -0.006806 0.000000 0.000000 0.000000
# 3 -0.006257 -0.006806 0.021062 0.000000 0.000000 0.000000
# 4 0.000000 0.000000 0.000000 0.024084 0.000000 0.000000
# 5 0.000000 0.000000 0.000000 0.000000 0.035370 0.000000
# 6 0.000000 0.000000 0.000000 0.000000 0.000000 0.029690
#
#
# Mechanical properties :
#
#
# Convention : Reuss Voigt Hill
#
# Bulk Modulus (GPa) = 83.29447 90.40735 86.85091
# Shear Modulus (GPa) = 29.48724 31.79170 30.63947
#
# Velocity S-wave (km/s) = 3.94548 4.09675 4.02183
# Velocity P-wave (km/s) = 8.04539 8.37290 8.21078
#
# Compressibility (1/GPa) = 0.01200560
#
# Stress axis : x y z
#
# Youngs Moduli (GPa) = 89.86007 83.18228 47.47872
#
# Poissons Ratio (x) = 0.25284 0.29709
# Poissons Ratio (y) = 0.27314 0.32316
# Poissons Ratio (z) = 0.56229 0.56617
#
# Static dielectric constant tensor:
#      x y z
#    x 3.447640 0.000000 0.000000 
#    y 0.000000 3.346080 0.000000 
#    z 0.000000 0.000000 3.536950 
# 
# 
# High freq. dielectric constant tensor:
#      x y z
#    x 1.758830 0.000000 0.000000 
#    y 0.000000 1.739950 0.000000 
#    z 0.000000 0.000000 1.740190 
# 
# From -- ./inp_files/8895.got.cif
#   From: 2010.03.12/outbox.cif.g09.slc.cpg/sg57_5_cif.got.tgz:8895.got - 2010.04.16 15:48:40.
