data_PCOD8232660
_publ_section_title
;
Structure prediction by ZEFSAII (Michael W. Deem and Ramdas Pophale) SiO2 
 PCOD8232660
Probable space group: P B C M
;
_chemical_formula_sum "Si O2"
_cell_formula_units_Z 40
_cell_length_a 25.099705
_cell_length_b 9.749057
_cell_length_c 8.625318
_cell_angle_alpha 90.000000
_cell_angle_beta 90.000000
_cell_angle_gamma 90.000000
_cell_volume 2110.601986
_symmetry_space_group_name_H-M "P B C M"
_symmetry_group_IT_number 57
_symmetry_cell_setting 'orthorhombic'
loop_
_space_group_symop_operation_xyz
x,y,z
-x,-y,1/2+z
x,1/2-y,-z
-x,1/2+y,1/2-z
-x,-y,-z
x,y,1/2-z
-x,1/2+y,z
x,1/2-y,1/2+z
loop_
_atom_site_type_symbol
_atom_site_label
_atom_site_fract_x
_atom_site_fract_y
_atom_site_fract_z
Si Si1 0.753502 0.607667 0.567558
Si Si2 0.631891 0.897650 0.434098
Si Si3 0.453458 0.904491 0.434707
Si Si4 0.838579 0.104556 0.066964
Si Si5 0.042053 0.896540 0.932659
O O1 0.773170 0.750000 0.500000
O O2 0.757904 0.614311 0.750000
O O3 0.693005 0.575573 0.517749
O O4 0.794413 0.497456 0.497579
O O5 0.612503 0.750000 0.500000
O O6 0.622653 0.898072 0.250000
O O7 0.601174 0.023840 0.512461
O O8 0.457315 0.750000 0.500000
O O9 0.457125 0.897406 0.250000
O O10 0.500000 0.000000 0.500000
O O11 0.834880 0.111963 0.250000
O O12 0.898152 0.059908 0.015624
O O13 0.823112 0.250000 0.000000
O O14 0.036888 0.891272 0.750000
O O15 0.027217 0.750000 0.000000
O O16 0.000000 0.000000 0.000000
#
# Coordination Sequence:
#
# PCOD8232660 Si02
#       5
#     8   8   8   8   8
#     4   9  19  35  55  80 110 142 180 221 265 317
#     4  10  20  37  59  84 114 148 184 225 271 321
#     4  12  25  42  62  86 115 148 186 227 272 323
#     4   9  19  35  53  76 105 139 177 220 267 320
#     4  10  20  35  54  76 105 139 179 223 272 325
#
# _framework density 18.951938999999999
#
# number of rings (size 3 to 8) (size 9 to 14) (size 15 to 20)
#    0.000    2.000    0.000    3.600    0.000    4.000 
#    0.000    4.000    0.000    0.000    0.000    0.000 
#    0.000    0.000    0.000    0.000    0.000    0.000 
#
# Total GULP energy -495980.219128 kJ/mol
# GULP energy per Si atom -12399.505478 kJ/mol
# Density = 1.890880 g / cm^3
# Si number density = 18.951939 Si / 1000 Ang^3
#
#
#
# Elastic Constant Matrix: (Units=GPa)
#
#
# Indices 1 2 3 4 5 6 
#
# 1 130.2177 111.1223 40.1797 0.0000 0.0000 0.0000
# 2 111.1223 175.1199 58.0136 0.0000 0.0000 0.0000
# 3 40.1797 58.0136 73.8755 0.0000 0.0000 0.0000
# 4 0.0000 0.0000 0.0000 37.6187 0.0000 0.0000
# 5 0.0000 0.0000 0.0000 0.0000 22.0011 0.0000
# 6 0.0000 0.0000 0.0000 0.0000 0.0000 45.6392
#
#
#
# Elastic Compliance Matrix: (Units=1/GPa)
#
#
# Indices 1 2 3 4 5 6 
#
# 1 0.016807 -0.010322 -0.001035 0.000000 0.000000 0.000000
# 2 -0.010322 0.014058 -0.005425 0.000000 0.000000 0.000000
# 3 -0.001035 -0.005425 0.018360 0.000000 0.000000 0.000000
# 4 0.000000 0.000000 0.000000 0.026583 0.000000 0.000000
# 5 0.000000 0.000000 0.000000 0.000000 0.045452 0.000000
# 6 0.000000 0.000000 0.000000 0.000000 0.000000 0.021911
#
#
# Mechanical properties :
#
#
# Convention : Reuss Voigt Hill
#
# Bulk Modulus (GPa) = 63.86004 88.64935 76.25470
# Shear Modulus (GPa) = 27.47921 32.37828 29.92874
#
# Velocity S-wave (km/s) = 3.81194 4.13781 3.97822
# Velocity P-wave (km/s) = 7.28996 8.34902 7.83740
#
# Compressibility (1/GPa) = 0.01565924
#
# Stress axis : x y z
#
# Youngs Moduli (GPa) = 59.49765 71.13634 54.46684
#
# Poissons Ratio (x) = 0.73428 0.05640
# Poissons Ratio (y) = 0.61414 0.29549
# Poissons Ratio (z) = 0.06161 0.38593
#
# Static dielectric constant tensor:
#      x y z
#    x 3.931400 0.000000 0.000000 
#    y 0.000000 3.648010 0.000000 
#    z 0.000000 0.000000 3.518460 
# 
# 
# High freq. dielectric constant tensor:
#      x y z
#    x 1.748520 0.000000 0.000000 
#    y 0.000000 1.739710 0.000000 
#    z 0.000000 0.000000 1.742560 
# 
# From -- ./inp_files/8857.got.cif
#   From: 2010.03.12/outbox.cif.g09.slc.cpg/sg57_5_cif.got.tgz:8857.got - 2010.04.16 15:48:40.
