data_PCOD8232997
_publ_section_title
;
Structure prediction by ZEFSAII (Michael W. Deem and Ramdas Pophale) SiO2 
 PCOD8232997
Probable space group: P B C M
;
_chemical_formula_sum "Si O2"
_cell_formula_units_Z 40
_cell_length_a 12.380014
_cell_length_b 18.344498
_cell_length_c 9.619901
_cell_angle_alpha 90.000000
_cell_angle_beta 90.000000
_cell_angle_gamma 90.000000
_cell_volume 2184.728983
_symmetry_space_group_name_H-M "P B C M"
_symmetry_group_IT_number 57
_symmetry_cell_setting 'orthorhombic'
loop_
_space_group_symop_operation_xyz
x,y,z
-x,-y,1/2+z
x,1/2-y,-z
-x,1/2+y,1/2-z
-x,-y,-z
x,y,1/2-z
-x,1/2+y,z
x,1/2-y,1/2+z
loop_
_atom_site_type_symbol
_atom_site_label
_atom_site_fract_x
_atom_site_fract_y
_atom_site_fract_z
Si Si1 0.174869 0.410754 0.911411
Si Si2 0.615716 0.821579 0.909581
Si Si3 0.964288 0.178711 0.089019
Si Si4 0.197073 0.949168 0.911960
Si Si5 0.555806 0.061093 0.090465
O O1 0.172849 0.433403 0.750000
O O2 0.288879 0.375992 0.955086
O O3 0.082289 0.352542 0.945586
O O4 0.154290 0.482462 0.001347
O O5 0.630985 0.798339 0.750000
O O6 0.501939 0.861531 0.935353
O O7 0.619815 0.750000 0.000000
O O8 0.954639 0.200019 0.250000
O O9 0.874491 0.119887 0.046758
O O10 0.942392 0.250000 0.000000
O O11 0.184321 0.968460 0.750000
O O12 0.319878 0.929932 0.952009
O O13 0.542935 0.036908 0.250000
O O14 0.500000 0.000000 0.000000
#
# Coordination Sequence:
#
# PCOD8232997 Si02
#       5
#     8   8   8   8   8
#     4  10  20  36  57  81 110 143 183 228 272 325
#     4  10  21  35  53  80 110 141 180 224 271 322
#     4  10  22  38  55  80 113 147 183 225 273 325
#     4  10  21  36  57  83 110 142 184 229 273 326
#     4  10  20  36  56  79 109 143 181 225 270 323
#
# _framework density 18.308907000000001
#
# number of rings (size 3 to 8) (size 9 to 14) (size 15 to 20)
#    0.000    2.000    2.000    1.200    0.000    4.000 
#    0.000    0.000    0.000    0.000    0.000    0.000 
#    0.000    0.000    0.000    0.000    0.000    0.000 
#
# Total GULP energy -496193.025771 kJ/mol
# GULP energy per Si atom -12404.825644 kJ/mol
# Density = 1.826723 g / cm^3
# Si number density = 18.308907 Si / 1000 Ang^3
#
#
#
# Elastic Constant Matrix: (Units=GPa)
#
#
# Indices 1 2 3 4 5 6 
#
# 1 58.3610 28.6171 23.0885 0.0000 0.0000 0.0000
# 2 28.6171 130.9929 70.0026 0.0000 0.0000 0.0000
# 3 23.0885 70.0026 67.0920 0.0000 0.0000 0.0000
# 4 0.0000 0.0000 0.0000 44.4452 0.0000 0.0000
# 5 0.0000 0.0000 0.0000 0.0000 21.4533 0.0000
# 6 0.0000 0.0000 0.0000 0.0000 0.0000 23.9124
#
#
#
# Elastic Compliance Matrix: (Units=1/GPa)
#
#
# Indices 1 2 3 4 5 6 
#
# 1 0.019975 -0.001560 -0.005246 0.000000 0.000000 0.000000
# 2 -0.001560 0.017377 -0.017594 0.000000 0.000000 0.000000
# 3 -0.005246 -0.017594 0.035068 0.000000 0.000000 0.000000
# 4 0.000000 0.000000 0.000000 0.022500 0.000000 0.000000
# 5 0.000000 0.000000 0.000000 0.000000 0.046613 0.000000
# 6 0.000000 0.000000 0.000000 0.000000 0.000000 0.041819
#
#
# Mechanical properties :
#
#
# Convention : Reuss Voigt Hill
#
# Bulk Modulus (GPa) = 42.33873 55.54025 48.93949
# Shear Modulus (GPa) = 20.83112 26.94470 23.88791
#
# Velocity S-wave (km/s) = 3.37673 3.84040 3.61600
# Velocity P-wave (km/s) = 6.19499 7.07572 6.64995
#
# Compressibility (1/GPa) = 0.02361903
#
# Stress axis : x y z
#
# Youngs Moduli (GPa) = 50.06193 57.54695 28.51642
#
# Poissons Ratio (x) = 0.08979 0.14960
# Poissons Ratio (y) = 0.07811 0.50172
# Poissons Ratio (z) = 0.26263 1.01248
#
# Static dielectric constant tensor:
#      x y z
#    x 3.744120 0.000000 0.000000 
#    y 0.000000 3.204180 0.000000 
#    z 0.000000 0.000000 3.340440 
# 
# 
# High freq. dielectric constant tensor:
#      x y z
#    x 1.727250 0.000000 0.000000 
#    y 0.000000 1.705380 0.000000 
#    z 0.000000 0.000000 1.707090 
# 
# From -- ./inp_files/2620.got.cif
#   From: 2010.03.12/outbox.cif.g09.slc.cpg/sg57_2_cif.got.tgz:2620.got - 2010.04.16 15:48:40.
