data_PCOD8232592
_publ_section_title
;
Structure prediction by ZEFSAII (Michael W. Deem and Ramdas Pophale) SiO2 
 PCOD8232592
Probable space group: P B C M
;
_chemical_formula_sum "Si O2"
_cell_formula_units_Z 32
_cell_length_a 10.311431
_cell_length_b 19.001623
_cell_length_c 8.609698
_cell_angle_alpha 90.000000
_cell_angle_beta 90.000000
_cell_angle_gamma 90.000000
_cell_volume 1686.931917
_symmetry_space_group_name_H-M "P B C M"
_symmetry_group_IT_number 57
_symmetry_cell_setting 'orthorhombic'
loop_
_space_group_symop_operation_xyz
x,y,z
-x,-y,1/2+z
x,1/2-y,-z
-x,1/2+y,1/2-z
-x,-y,-z
x,y,1/2-z
-x,1/2+y,z
x,1/2-y,1/2+z
loop_
_atom_site_type_symbol
_atom_site_label
_atom_site_fract_x
_atom_site_fract_y
_atom_site_fract_z
Si Si1 0.006292 0.178605 0.571682
Si Si2 0.270722 0.825096 0.566916
Si Si3 0.873067 0.965984 0.071087
Si Si4 0.625651 0.036645 0.932762
O O1 0.065589 0.250000 0.500000
O O2 0.966644 0.191543 0.750000
O O3 0.114434 0.118405 0.556510
O O4 0.876217 0.156358 0.481420
O O5 0.314954 0.750000 0.500000
O O6 0.281955 0.823247 0.750000
O O7 0.365001 0.885094 0.501886
O O8 0.857843 0.989447 0.250000
O O9 0.749302 0.989612 0.975004
O O10 0.000000 0.000000 0.000000
O O11 0.613613 0.042635 0.750000
O O12 0.500000 0.000000 0.000000
#
# Coordination Sequence:
#
# PCOD8232592 Si02
#       4
#     8   8   8   8
#     4  10  20  34  56  87 121 155 197 246 299 354
#     4  11  21  36  60  88 120 156 199 246 299 358
#     4  11  22  37  60  89 120 156 199 247 300 356
#     4  12  25  42  62  88 122 160 205 252 306 363
#
# _framework density 18.969349000000001
#
# number of rings (size 3 to 8) (size 9 to 14) (size 15 to 20)
#    0.000    1.000    2.500    7.500    0.000    3.000 
#    0.000    1.250    0.000    3.000    0.000    0.000 
#    0.000    0.000    0.000    0.000    0.000    0.000 
#
# Total GULP energy -396941.174920 kJ/mol
# GULP energy per Si atom -12404.411716 kJ/mol
# Density = 1.892617 g / cm^3
# Si number density = 18.969349 Si / 1000 Ang^3
#
#
#
# Elastic Constant Matrix: (Units=GPa)
#
#
# Indices 1 2 3 4 5 6 
#
# 1 104.6591 61.8278 48.1756 0.0000 0.0000 0.0000
# 2 61.8278 142.6844 69.9524 0.0000 0.0000 0.0000
# 3 48.1756 69.9524 187.7739 0.0000 0.0000 0.0000
# 4 0.0000 0.0000 0.0000 38.2752 0.0000 0.0000
# 5 0.0000 0.0000 0.0000 0.0000 32.1914 0.0000
# 6 0.0000 0.0000 0.0000 0.0000 0.0000 28.1997
#
#
#
# Elastic Compliance Matrix: (Units=1/GPa)
#
#
# Indices 1 2 3 4 5 6 
#
# 1 0.013195 -0.004965 -0.001536 0.000000 0.000000 0.000000
# 2 -0.004965 0.010442 -0.002616 0.000000 0.000000 0.000000
# 3 -0.001536 -0.002616 0.006694 0.000000 0.000000 0.000000
# 4 0.000000 0.000000 0.000000 0.026127 0.000000 0.000000
# 5 0.000000 0.000000 0.000000 0.000000 0.031064 0.000000
# 6 0.000000 0.000000 0.000000 0.000000 0.000000 0.035461
#
#
# Mechanical properties :
#
#
# Convention : Reuss Voigt Hill
#
# Bulk Modulus (GPa) = 82.65970 88.33656 85.49813
# Shear Modulus (GPa) = 34.42353 36.74405 35.58379
#
# Velocity S-wave (km/s) = 4.26454 4.40594 4.33582
# Velocity P-wave (km/s) = 8.24126 8.51776 8.38065
#
# Compressibility (1/GPa) = 0.01209779
#
# Stress axis : x y z
#
# Youngs Moduli (GPa) = 75.78878 95.76305 149.38088
#
# Poissons Ratio (x) = 0.47542 0.22941
# Poissons Ratio (y) = 0.37626 0.39085
# Poissons Ratio (z) = 0.11639 0.25056
#
# Static dielectric constant tensor:
#      x y z
#    x 2.456530 0.000000 0.000000 
#    y 0.000000 3.966400 0.000000 
#    z 0.000000 0.000000 3.811510 
# 
# 
# High freq. dielectric constant tensor:
#      x y z
#    x 1.702700 0.000000 0.000000 
#    y 0.000000 1.758530 0.000000 
#    z 0.000000 0.000000 1.763100 
# 
# From -- ./inp_files/1249.got.cif
#   From: 2010.03.12/outbox.cif.g09.slc.cpg/sg57_1_cif.got.tgz:1249.got - 2010.04.16 15:48:40.
