data_PCOD8232763
_publ_section_title
;
Structure prediction by ZEFSAII (Michael W. Deem and Ramdas Pophale) SiO2 
 PCOD8232763
Probable space group: P B C M
;
_chemical_formula_sum "Si O2"
_cell_formula_units_Z 48
_cell_length_a 18.642954
_cell_length_b 14.523706
_cell_length_c 9.276262
_cell_angle_alpha 90.000000
_cell_angle_beta 90.000000
_cell_angle_gamma 90.000000
_cell_volume 2511.685066
_symmetry_space_group_name_H-M "P B C M"
_symmetry_group_IT_number 57
_symmetry_cell_setting 'orthorhombic'
loop_
_space_group_symop_operation_xyz
x,y,z
-x,-y,1/2+z
x,1/2-y,-z
-x,1/2+y,1/2-z
-x,-y,-z
x,y,1/2-z
-x,1/2+y,z
x,1/2-y,1/2+z
loop_
_atom_site_type_symbol
_atom_site_label
_atom_site_fract_x
_atom_site_fract_y
_atom_site_fract_z
Si Si1 0.264407 0.478869 0.912898
Si Si2 0.644970 0.838057 0.084356
Si Si3 0.099032 0.474767 0.582528
Si Si4 0.489915 0.592606 0.584186
Si Si5 0.340606 0.666187 0.587403
Si Si6 0.991294 0.152147 0.920871
O O1 0.278125 0.443382 0.750000
O O2 0.182218 0.467279 0.957197
O O3 0.283567 0.585332 0.925725
O O4 0.316016 0.426897 0.022205
O O5 0.666350 0.828056 0.250000
O O6 0.559422 0.843864 0.063650
O O7 0.674464 0.750000 0.000000
O O8 0.083988 0.452150 0.750000
O O9 0.062073 0.396672 0.484840
O O10 0.072895 0.579210 0.548461
O O11 0.500000 0.500000 0.500000
O O12 0.477037 0.565986 0.750000
O O13 0.419027 0.641724 0.522163
O O14 0.306773 0.750000 0.500000
O O15 0.350811 0.698982 0.750000
O O16 0.001076 0.170084 0.750000
O O17 0.976236 0.250000 0.000000
#
# Coordination Sequence:
#
# PCOD8232763 Si02
#       6
#     8   8   8   8   8   8
#     4  10  21  39  59  80 113 149 184 229 277 327
#     4  11  23  37  56  82 110 146 189 233 282 334
#     4   9  20  38  59  84 113 148 186 225 271 323
#     4  10  20  35  56  80 106 141 186 234 282 329
#     4  10  21  36  55  80 109 144 183 227 278 328
#     4  10  20  36  60  88 116 146 182 224 270 324
#
# _framework density 19.110676999999999
#
# number of rings (size 3 to 8) (size 9 to 14) (size 15 to 20)
#    0.000    2.000    1.667    1.500    0.000    4.667 
#    0.000    0.000    0.000    0.000    0.000    0.000 
#    0.000    0.000    0.000    0.000    0.000    0.000 
#
# Total GULP energy -595206.813470 kJ/mol
# GULP energy per Si atom -12400.141947 kJ/mol
# Density = 1.906718 g / cm^3
# Si number density = 19.110677 Si / 1000 Ang^3
#
#
#
# Elastic Constant Matrix: (Units=GPa)
#
#
# Indices 1 2 3 4 5 6 
#
# 1 63.1759 -5.7236 21.1698 0.0000 0.0000 0.0000
# 2 -5.7236 79.5619 43.2017 0.0000 0.0000 0.0000
# 3 21.1698 43.2017 87.7438 0.0000 0.0000 0.0000
# 4 0.0000 0.0000 0.0000 40.7773 0.0000 0.0000
# 5 0.0000 0.0000 0.0000 0.0000 24.0644 0.0000
# 6 0.0000 0.0000 0.0000 0.0000 0.0000 13.4013
#
#
#
# Elastic Compliance Matrix: (Units=1/GPa)
#
#
# Indices 1 2 3 4 5 6 
#
# 1 0.018658 0.005168 -0.007046 0.000000 0.000000 0.000000
# 2 0.005168 0.018587 -0.010398 0.000000 0.000000 0.000000
# 3 -0.007046 -0.010398 0.018217 0.000000 0.000000 0.000000
# 4 0.000000 0.000000 0.000000 0.024523 0.000000 0.000000
# 5 0.000000 0.000000 0.000000 0.000000 0.041555 0.000000
# 6 0.000000 0.000000 0.000000 0.000000 0.000000 0.074620
#
#
# Mechanical properties :
#
#
# Convention : Reuss Voigt Hill
#
# Bulk Modulus (GPa) = 32.35303 38.64194 35.49748
# Shear Modulus (GPa) = 21.64350 27.10417 24.37383
#
# Velocity S-wave (km/s) = 3.36897 3.77008 3.57515
# Velocity P-wave (km/s) = 5.66562 6.26222 5.97137
#
# Compressibility (1/GPa) = 0.03090901
#
# Stress axis : x y z
#
# Youngs Moduli (GPa) = 53.59559 53.80115 54.89470
#
# Poissons Ratio (x) = -0.27807 0.38681
# Poissons Ratio (y) = -0.27700 0.57082
# Poissons Ratio (z) = 0.37765 0.55945
#
# Static dielectric constant tensor:
#      x y z
#    x 4.080920 0.000000 0.000000 
#    y 0.000000 3.430380 0.000000 
#    z 0.000000 0.000000 3.512370 
# 
# 
# High freq. dielectric constant tensor:
#      x y z
#    x 1.738990 0.000000 0.000000 
#    y 0.000000 1.744630 0.000000 
#    z 0.000000 0.000000 1.745390 
# 
# From -- ./inp_files/6499.got.cif
#   From: 2010.03.12/outbox.cif.g09.slc.cpg/sg57_4_cif.got.tgz:6499.got - 2010.04.16 15:48:40.
