data_PCOD8232630
_publ_section_title
;
Structure prediction by ZEFSAII (Michael W. Deem and Ramdas Pophale) SiO2 
 PCOD8232630
Probable space group: P B C M
;
_chemical_formula_sum "Si O2"
_cell_formula_units_Z 56
_cell_length_a 11.673891
_cell_length_b 9.614421
_cell_length_c 26.245469
_cell_angle_alpha 90.000000
_cell_angle_beta 90.000000
_cell_angle_gamma 90.000000
_cell_volume 2945.731149
_symmetry_space_group_name_H-M "P B C M"
_symmetry_group_IT_number 57
_symmetry_cell_setting 'orthorhombic'
loop_
_space_group_symop_operation_xyz
x,y,z
-x,-y,1/2+z
x,1/2-y,-z
-x,1/2+y,1/2-z
-x,-y,-z
x,y,1/2-z
-x,1/2+y,z
x,1/2-y,1/2+z
loop_
_atom_site_type_symbol
_atom_site_label
_atom_site_fract_x
_atom_site_fract_y
_atom_site_fract_z
Si Si1 0.245358 0.262639 0.944474
Si Si2 0.839583 0.020080 0.887584
Si Si3 0.752552 0.600842 0.848095
Si Si4 0.999819 0.633587 0.533602
Si Si5 0.203678 0.710267 0.161320
Si Si6 0.619843 0.216862 0.250000
Si Si7 0.061496 0.197467 0.309787
Si Si8 0.595710 0.590189 0.750000
O O1 0.231600 0.423553 0.927056
O O2 0.303296 0.177103 0.897893
O O3 0.122636 0.194228 0.952525
O O4 0.310363 0.250000 0.000000
O O5 0.884820 0.935410 0.838775
O O6 0.765561 0.156258 0.873547
O O7 0.947514 0.094052 0.913063
O O8 0.774247 0.440471 0.864050
O O9 0.874039 0.666277 0.831061
O O10 0.667561 0.623535 0.800791
O O11 0.067337 0.750000 0.500000
O O12 0.000000 0.500000 0.500000
O O13 0.296934 0.731937 0.203469
O O14 0.073519 0.716395 0.181442
O O15 0.522302 0.330189 0.250000
O O16 0.557044 0.069075 0.250000
O O17 0.084987 0.175832 0.250000
#
# Coordination Sequence:
#
# PCOD8232630 Si02
#       8
#     8   8   8   8   8   4   8   4
#     4  10  20  35  50  77 114 149 198 231 277 337
#     4  11  22  32  50  81 112 160 198 229 279 332
#     4  10  22  38  57  82 116 157 191 234 289 344
#     4  11  20  33  50  73 113 161 202 240 273 326
#     4  11  22  35  55  84 118 149 195 235 283 344
#     4  10  24  41  60  86 112 147 189 248 289 348
#     4  11  21  34  54  80 123 160 187 224 281 355
#     4  10  22  43  62  84 112 145 195 240 299 344
#
# _framework density 19.010560999999999
#
# number of rings (size 3 to 8) (size 9 to 14) (size 15 to 20)
#    0.000    1.429    4.286    3.429    3.000    3.429 
#    0.000    0.000    0.000    0.000    0.000   10.000 
#    0.000    0.000    0.000    0.000    0.000    0.000 
#
# Total GULP energy -693746.533327 kJ/mol
# GULP energy per Si atom -12388.330952 kJ/mol
# Density = 1.896729 g / cm^3
# Si number density = 19.010561 Si / 1000 Ang^3
#
#
#
# Elastic Constant Matrix: (Units=GPa)
#
#
# Indices 1 2 3 4 5 6 
#
# 1 47.2410 18.8563 9.4592 0.0000 0.0000 0.0000
# 2 18.8563 132.0135 53.7864 0.0000 0.0000 0.0000
# 3 9.4592 53.7864 129.6551 0.0000 0.0000 0.0000
# 4 0.0000 0.0000 0.0000 68.8227 0.0000 0.0000
# 5 0.0000 0.0000 0.0000 0.0000 17.6519 0.0000
# 6 0.0000 0.0000 0.0000 0.0000 0.0000 22.1143
#
#
#
# Elastic Compliance Matrix: (Units=1/GPa)
#
#
# Indices 1 2 3 4 5 6 
#
# 1 0.022463 -0.003058 -0.000370 0.000000 0.000000 0.000000
# 2 -0.003058 0.009532 -0.003731 0.000000 0.000000 0.000000
# 3 -0.000370 -0.003731 0.009288 0.000000 0.000000 0.000000
# 4 0.000000 0.000000 0.000000 0.014530 0.000000 0.000000
# 5 0.000000 0.000000 0.000000 0.000000 0.056651 0.000000
# 6 0.000000 0.000000 0.000000 0.000000 0.000000 0.045220
#
#
# Mechanical properties :
#
#
# Convention : Reuss Voigt Hill
#
# Bulk Modulus (GPa) = 37.08657 52.56814 44.82735
# Shear Modulus (GPa) = 27.62593 36.83829 32.23211
#
# Velocity S-wave (km/s) = 3.81621 4.40680 4.12209
# Velocity P-wave (km/s) = 6.24249 7.32156 6.80345
#
# Compressibility (1/GPa) = 0.02696394
#
# Stress axis : x y z
#
# Youngs Moduli (GPa) = 44.51839 104.91084 107.67004
#
# Poissons Ratio (x) = 0.32077 0.03988
# Poissons Ratio (y) = 0.13612 0.40173
# Poissons Ratio (z) = 0.01649 0.39144
#
# Static dielectric constant tensor:
#      x y z
#    x 2.907850 0.000000 0.000000 
#    y 0.000000 4.079750 0.000000 
#    z 0.000000 0.000000 3.970330 
# 
# 
# High freq. dielectric constant tensor:
#      x y z
#    x 1.675000 0.000000 0.000000 
#    y 0.000000 1.763680 0.000000 
#    z 0.000000 0.000000 1.757450 
# 
# From -- ./inp_files/28602.got.cif
#   From: 2010.03.12/outbox.cif.g09.slc.cpg/sg57_15_cif.got.tgz:28602.got - 2010.04.16 15:48:40.
