data_PCOD8232946
_publ_section_title
;
Structure prediction by ZEFSAII (Michael W. Deem and Ramdas Pophale) SiO2 
 PCOD8232946
Probable space group: P B C M
;
_chemical_formula_sum "Si O2"
_cell_formula_units_Z 64
_cell_length_a 18.638462
_cell_length_b 9.281633
_cell_length_c 16.847262
_cell_angle_alpha 90.000000
_cell_angle_beta 90.000000
_cell_angle_gamma 90.000000
_cell_volume 2914.498222
_symmetry_space_group_name_H-M "P B C M"
_symmetry_group_IT_number 57
_symmetry_cell_setting 'orthorhombic'
loop_
_space_group_symop_operation_xyz
x,y,z
-x,-y,1/2+z
x,1/2-y,-z
-x,1/2+y,1/2-z
-x,-y,-z
x,y,1/2-z
-x,1/2+y,z
x,1/2-y,1/2+z
loop_
_atom_site_type_symbol
_atom_site_label
_atom_site_fract_x
_atom_site_fract_y
_atom_site_fract_z
Si Si1 0.711577 0.035478 0.941087
Si Si2 0.919994 0.175400 0.415925
Si Si3 0.302572 0.468386 0.381148
Si Si4 0.944319 0.669191 0.584023
Si Si5 0.450845 0.339778 0.158675
Si Si6 0.229101 0.770533 0.835773
Si Si7 0.796186 0.775827 0.593587
Si Si8 0.453192 0.039727 0.422192
O O1 0.725259 0.189844 0.903362
O O2 0.630853 0.982592 0.931135
O O3 0.770973 0.939556 0.893678
O O4 0.725150 0.031810 0.034595
O O5 0.901250 0.250000 0.500000
O O6 0.851027 0.188331 0.361073
O O7 0.983555 0.270109 0.373421
O O8 0.941560 0.005056 0.424578
O O9 0.386794 0.439914 0.374233
O O10 0.274997 0.585145 0.318937
O O11 0.263852 0.318141 0.362848
O O12 0.948974 0.750000 0.500000
O O13 0.874082 0.732727 0.628954
O O14 0.439022 0.293700 0.250000
O O15 0.521091 0.439154 0.150426
O O16 0.463407 0.205484 0.100951
O O17 0.226199 0.690260 0.750000
O O18 0.795727 0.750000 0.500000
O O19 0.500000 0.000000 0.500000
#
# Coordination Sequence:
#
# PCOD8232946 Si02
#       8
#     8   8   8   8   8   8   8   8
#     4  11  24  43  73  99 132 174 238 289 339 403
#     4  11  22  39  67 100 135 176 227 285 346 408
#     4  11  21  45  72  97 125 173 228 288 338 405
#     4  10  20  35  66 104 132 165 223 293 344 403
#     4  12  27  45  68 101 143 183 225 284 357 417
#     4  12  28  44  63  98 143 184 228 284 352 420
#     4   9  19  36  67  99 125 160 221 281 334 396
#     4  12  26  46  73 100 139 182 236 287 340 421
#
# _framework density 21.959184
#
# number of rings (size 3 to 8) (size 9 to 14) (size 15 to 20)
#    0.000    1.000    3.750    3.750    7.000    2.000 
#    0.000    0.625    0.000    0.000    0.000    0.000 
#    0.000    0.000    0.000    0.000    0.000    0.000 
#
# Total GULP energy -793042.188773 kJ/mol
# GULP energy per Si atom -12391.284200 kJ/mol
# Density = 2.190920 g / cm^3
# Si number density = 21.959184 Si / 1000 Ang^3
#
#
#
# Elastic Constant Matrix: (Units=GPa)
#
#
# Indices 1 2 3 4 5 6 
#
# 1 101.9272 50.7029 22.6678 0.0000 0.0000 0.0000
# 2 50.7029 116.8742 32.3657 0.0000 0.0000 0.0000
# 3 22.6678 32.3657 81.8328 0.0000 0.0000 0.0000
# 4 0.0000 0.0000 0.0000 19.0588 0.0000 0.0000
# 5 0.0000 0.0000 0.0000 0.0000 8.7674 0.0000
# 6 0.0000 0.0000 0.0000 0.0000 0.0000 42.0105
#
#
#
# Elastic Compliance Matrix: (Units=1/GPa)
#
#
# Indices 1 2 3 4 5 6 
#
# 1 0.012673 -0.005082 -0.001500 0.000000 0.000000 0.000000
# 2 -0.005082 0.011647 -0.003199 0.000000 0.000000 0.000000
# 3 -0.001500 -0.003199 0.013901 0.000000 0.000000 0.000000
# 4 0.000000 0.000000 0.000000 0.052469 0.000000 0.000000
# 5 0.000000 0.000000 0.000000 0.000000 0.114059 0.000000
# 6 0.000000 0.000000 0.000000 0.000000 0.000000 0.023804
#
#
# Mechanical properties :
#
#
# Convention : Reuss Voigt Hill
#
# Bulk Modulus (GPa) = 53.59666 56.90078 55.24872
# Shear Modulus (GPa) = 19.65921 26.96052 23.30986
#
# Velocity S-wave (km/s) = 2.99534 3.50774 3.26161
# Velocity P-wave (km/s) = 6.03516 6.50953 6.27682
#
# Compressibility (1/GPa) = 0.01865788
#
# Stress axis : x y z
#
# Youngs Moduli (GPa) = 78.90970 85.86038 71.93881
#
# Poissons Ratio (x) = 0.43637 0.10793
# Poissons Ratio (y) = 0.40104 0.23011
# Poissons Ratio (z) = 0.11839 0.27464
#
# Static dielectric constant tensor:
#      x y z
#    x 4.512050 0.000000 0.000000 
#    y 0.000000 4.119060 0.000000 
#    z 0.000000 0.000000 3.663690 
# 
# 
# High freq. dielectric constant tensor:
#      x y z
#    x 1.882770 0.000000 0.000000 
#    y 0.000000 1.875220 0.000000 
#    z 0.000000 0.000000 1.827190 
# 
# From -- ./inp_files/23052.got.cif
#   From: 2010.03.12/outbox.cif.g09.slc.cpg/sg57_12_cif.got.tgz:23052.got - 2010.04.16 15:48:40.
