data_PCOD8232207
_publ_section_title
;
Structure prediction by ZEFSAII (Michael W. Deem and Ramdas Pophale) SiO2 
 PCOD8232207
Probable space group: P B C M
;
_chemical_formula_sum "Si O2"
_cell_formula_units_Z 64
_cell_length_a 14.680870
_cell_length_b 29.661760
_cell_length_c 9.068900
_cell_angle_alpha 90.000000
_cell_angle_beta 90.000000
_cell_angle_gamma 90.000000
_cell_volume 3949.147207
_symmetry_space_group_name_H-M "P B C M"
_symmetry_group_IT_number 57
_symmetry_cell_setting 'orthorhombic'
loop_
_space_group_symop_operation_xyz
x,y,z
-x,-y,1/2+z
x,1/2-y,-z
-x,1/2+y,1/2-z
-x,-y,-z
x,y,1/2-z
-x,1/2+y,z
x,1/2-y,1/2+z
loop_
_atom_site_type_symbol
_atom_site_label
_atom_site_fract_x
_atom_site_fract_y
_atom_site_fract_z
Si Si1 0.369464 0.025042 0.579697
Si Si2 0.700855 0.113398 0.424505
Si Si3 0.559864 0.062346 0.580414
Si Si4 0.141671 0.939543 0.421575
Si Si5 0.027782 0.393799 0.922148
Si Si6 0.992431 0.294205 0.578531
Si Si7 0.810818 0.959694 0.919017
Si Si8 0.216483 0.706425 0.077875
O O1 0.360260 0.009919 0.750000
O O2 0.450770 0.061406 0.561904
O O3 0.276085 0.047125 0.524067
O O4 0.392777 0.982560 0.479774
O O5 0.703817 0.108045 0.250000
O O6 0.599592 0.104171 0.487039
O O7 0.769203 0.077349 0.494324
O O8 0.727550 0.163277 0.475619
O O9 0.588571 0.067306 0.750000
O O10 0.149299 0.927289 0.250000
O O11 0.052207 0.916384 0.485436
O O12 0.136877 0.993276 0.447412
O O13 0.000768 0.397553 0.750000
O O14 0.041740 0.341098 0.965909
O O15 0.121137 0.419171 0.958488
O O16 0.035562 0.250000 0.500000
O O17 0.001654 0.284702 0.750000
O O18 0.887827 0.300413 0.529262
O O19 0.778180 0.956662 0.750000
O O20 0.225067 0.713738 0.250000
O O21 0.259432 0.750000 0.000000
#
# Coordination Sequence:
#
# PCOD8232207 Si02
#       8
#     8   8   8   8   8   8   8   8
#     4  10  20  33  50  70  96 128 160 200 242 280
#     4  11  20  32  50  72  98 131 164 196 241 292
#     4  10  20  33  49  72  97 124 162 200 239 285
#     4  11  21  31  45  70  99 131 169 202 231 279
#     4  10  20  35  50  67  96 133 165 199 242 288
#     4   9  17  31  48  67  92 122 158 199 242 285
#     4  10  21  34  49  69  97 131 168 205 240 283
#     4   9  18  31  47  69  95 125 160 196 238 290
#
# _framework density 16.206030999999999
#
# number of rings (size 3 to 8) (size 9 to 14) (size 15 to 20)
#    0.000    2.000    2.500    1.875    0.000    4.000 
#    0.000    0.000    0.000    0.000    0.000    0.875 
#    0.000    2.000    0.000    0.000    0.000    0.000 
#
# Total GULP energy -793618.234163 kJ/mol
# GULP energy per Si atom -12400.284909 kJ/mol
# Density = 1.616915 g / cm^3
# Si number density = 16.206031 Si / 1000 Ang^3
#
#
#
# Elastic Constant Matrix: (Units=GPa)
#
#
# Indices 1 2 3 4 5 6 
#
# 1 72.7743 45.2747 36.7745 0.0000 0.0000 0.0000
# 2 45.2747 123.6488 43.4287 0.0000 0.0000 0.0000
# 3 36.7745 43.4287 68.0107 0.0000 0.0000 0.0000
# 4 0.0000 0.0000 0.0000 26.3471 0.0000 0.0000
# 5 0.0000 0.0000 0.0000 0.0000 26.9717 0.0000
# 6 0.0000 0.0000 0.0000 0.0000 0.0000 20.9801
#
#
#
# Elastic Compliance Matrix: (Units=1/GPa)
#
#
# Indices 1 2 3 4 5 6 
#
# 1 0.020860 -0.004739 -0.008253 0.000000 0.000000 0.000000
# 2 -0.004739 0.011502 -0.004782 0.000000 0.000000 0.000000
# 3 -0.008253 -0.004782 0.022220 0.000000 0.000000 0.000000
# 4 0.000000 0.000000 0.000000 0.037955 0.000000 0.000000
# 5 0.000000 0.000000 0.000000 0.000000 0.037076 0.000000
# 6 0.000000 0.000000 0.000000 0.000000 0.000000 0.047664
#
#
# Mechanical properties :
#
#
# Convention : Reuss Voigt Hill
#
# Bulk Modulus (GPa) = 52.54032 57.26551 54.90291
# Shear Modulus (GPa) = 22.81325 24.12351 23.46838
#
# Velocity S-wave (km/s) = 3.75600 3.86236 3.80955
# Velocity P-wave (km/s) = 7.16245 7.43660 7.30081
#
# Compressibility (1/GPa) = 0.01903300
#
# Stress axis : x y z
#
# Youngs Moduli (GPa) = 47.93861 86.93807 45.00472
#
# Poissons Ratio (x) = 0.41203 0.37142
# Poissons Ratio (y) = 0.22720 0.21523
# Poissons Ratio (z) = 0.39564 0.41577
#
# Static dielectric constant tensor:
#      x y z
#    x 3.066800 0.000000 0.000000 
#    y 0.000000 3.160360 0.000000 
#    z 0.000000 0.000000 3.137890 
# 
# 
# High freq. dielectric constant tensor:
#      x y z
#    x 1.600370 0.000000 0.000000 
#    y 0.000000 1.612420 0.000000 
#    z 0.000000 0.000000 1.633410 
# 
# From -- ./inp_files/6041.got.cif
#   From: 2010.03.12/outbox.cif.g09.slc.cpg/sg57_4_cif.got.tgz:6041.got - 2010.04.16 15:48:40.
