data_PCOD8232581
_publ_section_title
;
Structure prediction by ZEFSAII (Michael W. Deem and Ramdas Pophale) SiO2 
 PCOD8232581
Probable space group: P B C M
;
_chemical_formula_sum "Si O2"
_cell_formula_units_Z 56
_cell_length_a 16.067402
_cell_length_b 20.123849
_cell_length_c 8.391515
_cell_angle_alpha 90.000000
_cell_angle_beta 90.000000
_cell_angle_gamma 90.000000
_cell_volume 2713.295439
_symmetry_space_group_name_H-M "P B C M"
_symmetry_group_IT_number 57
_symmetry_cell_setting 'orthorhombic'
loop_
_space_group_symop_operation_xyz
x,y,z
-x,-y,1/2+z
x,1/2-y,-z
-x,1/2+y,1/2-z
-x,-y,-z
x,y,1/2-z
-x,1/2+y,z
x,1/2-y,1/2+z
loop_
_atom_site_type_symbol
_atom_site_label
_atom_site_fract_x
_atom_site_fract_y
_atom_site_fract_z
Si Si1 0.828628 0.416163 0.436232
Si Si2 0.486420 0.819177 0.063153
Si Si3 0.028818 0.678435 0.939263
Si Si4 0.754045 0.950881 0.939115
Si Si5 0.305575 0.678616 0.435954
Si Si6 0.565804 0.946572 0.938669
Si Si7 0.154592 0.178730 0.438445
O O1 0.842644 0.421792 0.250000
O O2 0.814274 0.490507 0.506995
O O3 0.745028 0.376026 0.468783
O O4 0.909038 0.378337 0.509099
O O5 0.467004 0.814571 0.250000
O O6 0.524912 0.750000 0.000000
O O7 0.402116 0.834704 0.968593
O O8 0.551364 0.876555 0.024557
O O9 0.028686 0.679711 0.750000
O O10 0.060227 0.750000 0.000000
O O11 0.937451 0.662271 0.001441
O O12 0.759423 0.949963 0.750000
O O13 0.659195 0.966633 0.990416
O O14 0.784994 0.879418 0.004448
O O15 0.277511 0.750000 0.500000
O O16 0.286308 0.673255 0.250000
O O17 0.557025 0.938804 0.750000
O O18 0.500000 0.000000 0.000000
O O19 0.186899 0.250000 0.500000
O O20 0.153397 0.181195 0.250000
#
# Coordination Sequence:
#
# PCOD8232581 Si02
#       7
#     8   8   8   8   8   8   8
#     4  10  20  36  56  81 115 151 188 229 278 335
#     4  11  22  38  58  82 112 147 189 239 293 346
#     4  10  20  34  56  84 114 149 187 228 275 329
#     4   9  21  39  59  82 111 148 185 229 286 340
#     4  11  21  34  54  82 114 150 191 233 282 337
#     4  11  22  39  61  86 116 152 194 237 289 348
#     4  10  20  38  61  83 110 146 187 232 283 335
#
# _framework density 20.639108
#
# number of rings (size 3 to 8) (size 9 to 14) (size 15 to 20)
#    0.000    1.714    0.000    6.857    0.000    4.571 
#    0.000    6.429    0.000    0.000    0.000    0.000 
#    0.000    0.000    0.000    0.000    0.000    0.000 
#
# Total GULP energy -694382.295182 kJ/mol
# GULP energy per Si atom -12399.683843 kJ/mol
# Density = 2.059213 g / cm^3
# Si number density = 20.639108 Si / 1000 Ang^3
#
#
#
# Elastic Constant Matrix: (Units=GPa)
#
#
# Indices 1 2 3 4 5 6 
#
# 1 103.5275 86.2426 21.5732 0.0000 0.0000 0.0000
# 2 86.2426 167.9678 19.7102 0.0000 0.0000 0.0000
# 3 21.5732 19.7102 45.2888 0.0000 0.0000 0.0000
# 4 0.0000 0.0000 0.0000 29.0156 0.0000 0.0000
# 5 0.0000 0.0000 0.0000 0.0000 23.7599 0.0000
# 6 0.0000 0.0000 0.0000 0.0000 0.0000 50.8265
#
#
#
# Elastic Compliance Matrix: (Units=1/GPa)
#
#
# Indices 1 2 3 4 5 6 
#
# 1 0.017795 -0.008580 -0.004742 0.000000 0.000000 0.000000
# 2 -0.008580 0.010411 -0.000444 0.000000 0.000000 0.000000
# 3 -0.004742 -0.000444 0.024533 0.000000 0.000000 0.000000
# 4 0.000000 0.000000 0.000000 0.034464 0.000000 0.000000
# 5 0.000000 0.000000 0.000000 0.000000 0.042088 0.000000
# 6 0.000000 0.000000 0.000000 0.000000 0.000000 0.019675
#
#
# Mechanical properties :
#
#
# Convention : Reuss Voigt Hill
#
# Bulk Modulus (GPa) = 39.67334 63.53735 51.60535
# Shear Modulus (GPa) = 27.04144 33.33762 30.18953
#
# Velocity S-wave (km/s) = 3.62360 4.02340 3.82872
# Velocity P-wave (km/s) = 6.06395 7.24123 6.67858
#
# Compressibility (1/GPa) = 0.02520584
#
# Stress axis : x y z
#
# Youngs Moduli (GPa) = 56.19429 96.05018 40.76192
#
# Poissons Ratio (x) = 0.82416 0.19331
# Poissons Ratio (y) = 0.48217 0.01809
# Poissons Ratio (z) = 0.26650 0.04263
#
# Static dielectric constant tensor:
#      x y z
#    x 3.828490 0.000000 0.000000 
#    y 0.000000 4.166080 0.000000 
#    z 0.000000 0.000000 3.614770 
# 
# 
# High freq. dielectric constant tensor:
#      x y z
#    x 1.801970 0.000000 0.000000 
#    y 0.000000 1.820630 0.000000 
#    z 0.000000 0.000000 1.798270 
# 
# From -- ./inp_files/5225.got.cif
#   From: 2010.03.12/outbox.cif.g09.slc.cpg/sg57_3_cif.got.tgz:5225.got - 2010.04.16 15:48:40.
