data_PCOD8232729
_publ_section_title
;
Structure prediction by ZEFSAII (Michael W. Deem and Ramdas Pophale) SiO2 
 PCOD8232729
Probable space group: P B C M
;
_chemical_formula_sum "Si O2"
_cell_formula_units_Z 56
_cell_length_a 20.280088
_cell_length_b 8.799481
_cell_length_c 15.718258
_cell_angle_alpha 90.000000
_cell_angle_beta 90.000000
_cell_angle_gamma 90.000000
_cell_volume 2804.989928
_symmetry_space_group_name_H-M "P B C M"
_symmetry_group_IT_number 57
_symmetry_cell_setting 'orthorhombic'
loop_
_space_group_symop_operation_xyz
x,y,z
-x,-y,1/2+z
x,1/2-y,-z
-x,1/2+y,1/2-z
-x,-y,-z
x,y,1/2-z
-x,1/2+y,z
x,1/2-y,1/2+z
loop_
_atom_site_type_symbol
_atom_site_label
_atom_site_fract_x
_atom_site_fract_y
_atom_site_fract_z
Si Si1 0.527993 0.371170 0.559830
Si Si2 0.723557 0.860232 0.153222
Si Si3 0.084175 0.903078 0.852057
Si Si4 0.789417 0.098540 0.462564
Si Si5 0.042975 0.234395 0.848299
Si Si6 0.168345 0.148921 0.081121
Si Si7 0.574057 0.850161 0.347393
O O1 0.568944 0.250000 0.500000
O O2 0.500000 0.500000 0.500000
O O3 0.569031 0.468861 0.628351
O O4 0.469944 0.269716 0.601164
O O5 0.733590 0.917231 0.250000
O O6 0.772322 0.720083 0.136213
O O7 0.649606 0.800794 0.138328
O O8 0.736627 0.998964 0.088876
O O9 0.094878 0.897933 0.750000
O O10 0.150974 0.857546 0.899451
O O11 0.026414 0.792262 0.886247
O O12 0.064830 0.071668 0.884549
O O13 0.755489 0.250000 0.500000
O O14 0.813396 0.017220 0.549016
O O15 0.029891 0.218338 0.750000
O O16 0.101210 0.356664 0.864158
O O17 0.152940 0.250000 0.000000
O O18 0.552334 0.836772 0.250000
#
# Coordination Sequence:
#
# PCOD8232729 Si02
#       7
#     8   8   8   8   8   8   8
#     4   9  19  34  55  88 126 156 186 227 282 333
#     4  10  21  41  64  81 110 158 199 233 282 340
#     4  10  21  37  56  78 110 149 188 234 292 352
#     4  11  24  38  55  84 116 146 186 244 299 342
#     4  10  20  35  55  80 107 145 189 233 286 347
#     4  10  20  36  57  80 106 145 192 238 285 345
#     4  10  20  36  62  90 117 155 196 235 277 332
#
# _framework density 19.96442
#
# number of rings (size 3 to 8) (size 9 to 14) (size 15 to 20)
#    0.000    2.000    2.857    1.286    2.000    6.857 
#    0.000    3.571    0.000    6.857    0.000    0.000 
#    0.000    0.000    0.000    0.000    0.000    0.000 
#
# Total GULP energy -693952.735119 kJ/mol
# GULP energy per Si atom -12392.013127 kJ/mol
# Density = 1.991898 g / cm^3
# Si number density = 19.964420 Si / 1000 Ang^3
#
#
#
# Elastic Constant Matrix: (Units=GPa)
#
#
# Indices 1 2 3 4 5 6 
#
# 1 75.1475 8.3655 25.0822 0.0000 0.0000 0.0000
# 2 8.3655 82.5811 35.4660 0.0000 0.0000 0.0000
# 3 25.0822 35.4660 63.9463 0.0000 0.0000 0.0000
# 4 0.0000 0.0000 0.0000 26.9923 0.0000 0.0000
# 5 0.0000 0.0000 0.0000 0.0000 12.6346 0.0000
# 6 0.0000 0.0000 0.0000 0.0000 0.0000 26.4885
#
#
#
# Elastic Compliance Matrix: (Units=1/GPa)
#
#
# Indices 1 2 3 4 5 6 
#
# 1 0.015427 0.001360 -0.006805 0.000000 0.000000 0.000000
# 2 0.001360 0.016015 -0.009416 0.000000 0.000000 0.000000
# 3 -0.006805 -0.009416 0.023530 0.000000 0.000000 0.000000
# 4 0.000000 0.000000 0.000000 0.037048 0.000000 0.000000
# 5 0.000000 0.000000 0.000000 0.000000 0.079148 0.000000
# 6 0.000000 0.000000 0.000000 0.000000 0.000000 0.037752
#
#
# Mechanical properties :
#
#
# Convention : Reuss Voigt Hill
#
# Bulk Modulus (GPa) = 39.60459 39.94470 39.77465
# Shear Modulus (GPa) = 20.23804 23.40715 21.82259
#
# Velocity S-wave (km/s) = 3.18733 3.42781 3.30975
# Velocity P-wave (km/s) = 5.78153 5.97644 5.87979
#
# Compressibility (1/GPa) = 0.02524960
#
# Stress axis : x y z
#
# Youngs Moduli (GPa) = 64.82039 62.43998 42.49947
#
# Poissons Ratio (x) = -0.08491 0.28923
# Poissons Ratio (y) = -0.08815 0.40017
# Poissons Ratio (z) = 0.44113 0.58793
#
# Static dielectric constant tensor:
#      x y z
#    x 3.509570 0.000000 0.000000 
#    y 0.000000 4.031980 0.000000 
#    z 0.000000 0.000000 3.882660 
# 
# 
# High freq. dielectric constant tensor:
#      x y z
#    x 1.762570 0.000000 0.000000 
#    y 0.000000 1.773770 0.000000 
#    z 0.000000 0.000000 1.786830 
# 
# From -- ./inp_files/22997.got.cif
#   From: 2010.03.12/outbox.cif.g09.slc.cpg/sg57_12_cif.got.tgz:22997.got - 2010.04.16 15:48:40.
