data_PCOD8232851
_publ_section_title
;
Structure prediction by ZEFSAII (Michael W. Deem and Ramdas Pophale) SiO2 
 PCOD8232851
Probable space group: P B C M
;
_chemical_formula_sum "Si O2"
_cell_formula_units_Z 64
_cell_length_a 9.435663
_cell_length_b 22.430052
_cell_length_c 14.571222
_cell_angle_alpha 90.000000
_cell_angle_beta 90.000000
_cell_angle_gamma 90.000000
_cell_volume 3083.888566
_symmetry_space_group_name_H-M "P B C M"
_symmetry_group_IT_number 57
_symmetry_cell_setting 'orthorhombic'
loop_
_space_group_symop_operation_xyz
x,y,z
-x,-y,1/2+z
x,1/2-y,-z
-x,1/2+y,1/2-z
-x,-y,-z
x,y,1/2-z
-x,1/2+y,z
x,1/2-y,1/2+z
loop_
_atom_site_type_symbol
_atom_site_label
_atom_site_fract_x
_atom_site_fract_y
_atom_site_fract_z
Si Si1 0.835412 0.724655 0.405870
Si Si2 0.275644 0.582966 0.994099
Si Si3 0.526580 0.078104 0.351746
Si Si4 0.526962 0.787021 0.851675
Si Si5 0.964533 0.608045 0.460580
Si Si6 0.719215 0.205833 0.578347
Si Si7 0.984678 0.832982 0.348689
Si Si8 0.227010 0.480252 0.642515
O O1 0.897448 0.750000 0.500000
O O2 0.665658 0.718743 0.414499
O O3 0.910395 0.660373 0.392010
O O4 0.886488 0.774294 0.333998
O O5 0.346818 0.645243 0.963511
O O6 0.255126 0.544910 0.901308
O O7 0.376209 0.549256 0.068274
O O8 0.131251 0.597993 0.047884
O O9 0.576746 0.057183 0.250000
O O10 0.544933 0.148830 0.362331
O O11 0.364674 0.060555 0.366323
O O12 0.587737 0.779052 0.750000
O O13 0.409873 0.736752 0.868835
O O14 0.931218 0.623833 0.568351
O O15 0.891745 0.548075 0.423658
O O16 0.776146 0.250000 0.500000
O O17 0.853091 0.188602 0.640099
O O18 0.975136 0.867113 0.250000
O O19 0.181091 0.486519 0.750000
#
# Coordination Sequence:
#
# PCOD8232851 Si02
#       8
#     8   8   8   8   8   8   8   8
#     4  10  20  35  57  85 121 159 203 251 308 363
#     4  11  23  40  65  90 125 163 209 259 317 366
#     4  10  22  40  60  88 120 157 205 255 306 370
#     4  11  21  34  57  87 118 157 204 249 300 367
#     4  10  22  41  61  89 124 165 208 258 309 373
#     4  11  21  38  58  88 123 159 200 251 307 371
#     4  10  21  36  57  88 126 162 200 254 313 366
#     4  11  24  43  66  91 122 164 213 260 313 371
#
# _framework density 20.753019999999999
#
# number of rings (size 3 to 8) (size 9 to 14) (size 15 to 20)
#    0.000    1.500    2.500    3.750    0.000    3.500 
#    0.000    0.625    0.000    2.250    0.000    0.000 
#    0.000    0.000    0.000    0.000    0.000    0.000 
#
# Total GULP energy -793163.896603 kJ/mol
# GULP energy per Si atom -12393.185884 kJ/mol
# Density = 2.070579 g / cm^3
# Si number density = 20.753020 Si / 1000 Ang^3
#
#
#
# Elastic Constant Matrix: (Units=GPa)
#
#
# Indices 1 2 3 4 5 6 
#
# 1 76.2093 17.3814 35.3491 0.0000 0.0000 0.0000
# 2 17.3814 77.5272 28.7854 0.0000 0.0000 0.0000
# 3 35.3491 28.7854 114.6096 0.0000 0.0000 0.0000
# 4 0.0000 0.0000 0.0000 26.8144 0.0000 0.0000
# 5 0.0000 0.0000 0.0000 0.0000 89.5844 0.0000
# 6 0.0000 0.0000 0.0000 0.0000 0.0000 22.4783
#
#
#
# Elastic Compliance Matrix: (Units=1/GPa)
#
#
# Indices 1 2 3 4 5 6 
#
# 1 0.015557 -0.001882 -0.004326 0.000000 0.000000 0.000000
# 2 -0.001882 0.014453 -0.003050 0.000000 0.000000 0.000000
# 3 -0.004326 -0.003050 0.010825 0.000000 0.000000 0.000000
# 4 0.000000 0.000000 0.000000 0.037293 0.000000 0.000000
# 5 0.000000 0.000000 0.000000 0.000000 0.011163 0.000000
# 6 0.000000 0.000000 0.000000 0.000000 0.000000 0.044487
#
#
# Mechanical properties :
#
#
# Convention : Reuss Voigt Hill
#
# Bulk Modulus (GPa) = 44.80002 47.93089 46.36546
# Shear Modulus (GPa) = 31.30207 40.23077 35.76642
#
# Velocity S-wave (km/s) = 3.88791 4.40767 4.15593
# Velocity P-wave (km/s) = 6.46441 7.00353 6.73936
#
# Compressibility (1/GPa) = 0.02232142
#
# Stress axis : x y z
#
# Youngs Moduli (GPa) = 64.27802 69.19027 92.37533
#
# Poissons Ratio (x) = 0.13020 0.39959
# Poissons Ratio (y) = 0.12096 0.28171
# Poissons Ratio (z) = 0.27805 0.21100
#
# Static dielectric constant tensor:
#      x y z
#    x 3.533070 0.000000 0.000000 
#    y 0.000000 3.713990 0.000000 
#    z 0.000000 0.000000 3.833400 
# 
# 
# High freq. dielectric constant tensor:
#      x y z
#    x 1.807130 0.000000 0.000000 
#    y 0.000000 1.801470 0.000000 
#    z 0.000000 0.000000 1.814990 
# 
# From -- ./inp_files/16992.got.cif
#   From: 2010.03.12/outbox.cif.g09.slc.cpg/sg57_9_cif.got.tgz:16992.got - 2010.04.16 15:48:40.
