data_PCOD8232975
_publ_section_title
;
Structure prediction by ZEFSAII (Michael W. Deem and Ramdas Pophale) SiO2 
 PCOD8232975
Probable space group: P B C M
;
_chemical_formula_sum "Si O2"
_cell_formula_units_Z 64
_cell_length_a 15.173996
_cell_length_b 9.007383
_cell_length_c 24.725398
_cell_angle_alpha 90.000000
_cell_angle_beta 90.000000
_cell_angle_gamma 90.000000
_cell_volume 3379.417790
_symmetry_space_group_name_H-M "P B C M"
_symmetry_group_IT_number 57
_symmetry_cell_setting 'orthorhombic'
loop_
_space_group_symop_operation_xyz
x,y,z
-x,-y,1/2+z
x,1/2-y,-z
-x,1/2+y,1/2-z
-x,-y,-z
x,y,1/2-z
-x,1/2+y,z
x,1/2-y,1/2+z
loop_
_atom_site_type_symbol
_atom_site_label
_atom_site_fract_x
_atom_site_fract_y
_atom_site_fract_z
Si Si1 0.264366 0.454705 0.372734
Si Si2 0.579236 0.383535 0.812829
Si Si3 0.896014 0.937166 0.950741
Si Si4 0.164731 0.626030 0.456777
Si Si5 0.011763 0.794174 0.405028
Si Si6 0.401197 0.539391 0.686792
Si Si7 0.117176 0.191607 0.687292
Si Si8 0.752044 0.627053 0.129178
O O1 0.342992 0.529410 0.341114
O O2 0.247179 0.553071 0.426173
O O3 0.174803 0.447253 0.336142
O O4 0.291945 0.285298 0.388211
O O5 0.590840 0.415989 0.750000
O O6 0.582267 0.210567 0.826429
O O7 0.485688 0.446417 0.832567
O O8 0.799800 0.946192 0.922551
O O9 0.935160 0.770302 0.945349
O O10 0.968395 0.036998 0.920073
O O11 0.886970 0.994221 0.011995
O O12 0.196706 0.750000 0.500000
O O13 0.101041 0.699845 0.412268
O O14 0.976309 0.793345 0.343516
O O15 0.381510 0.512220 0.750000
O O16 0.318738 0.487392 0.651620
O O17 0.096993 0.169592 0.750000
O O18 0.174403 0.341124 0.675913
#
# Coordination Sequence:
#
# PCOD8232975 Si02
#       8
#     8   8   8   8   8   8   8   8
#     4  10  21  37  58  84 116 154 198 235 298 353
#     4  10  21  35  61  92 121 152 190 234 287 350
#     4  10  21  37  57  82 111 152 196 255 299 335
#     4  10  22  37  60  82 115 151 199 264 302 345
#     4  10  20  36  55  82 110 150 205 242 297 343
#     4  10  20  36  60  92 122 155 191 234 286 349
#     4   9  19  36  57  78 115 158 191 236 289 351
#     4   9  21  36  57  83 120 152 195 238 290 357
#
# _framework density 18.938174
#
# number of rings (size 3 to 8) (size 9 to 14) (size 15 to 20)
#    0.750    1.500    0.000    2.625    3.500    3.500 
#    0.000    6.875    0.000    0.750    0.000    0.000 
#    0.000    0.000    0.000    0.000    0.000    0.000 
#
# Total GULP energy -793234.899674 kJ/mol
# GULP energy per Si atom -12394.295307 kJ/mol
# Density = 1.889507 g / cm^3
# Si number density = 18.938174 Si / 1000 Ang^3
#
#
#
# Elastic Constant Matrix: (Units=GPa)
#
#
# Indices 1 2 3 4 5 6 
#
# 1 93.5118 52.2816 41.4773 0.0000 0.0000 0.0000
# 2 52.2816 95.7657 33.2313 0.0000 0.0000 0.0000
# 3 41.4773 33.2313 71.2652 0.0000 0.0000 0.0000
# 4 0.0000 0.0000 0.0000 23.8886 0.0000 0.0000
# 5 0.0000 0.0000 0.0000 0.0000 27.7367 0.0000
# 6 0.0000 0.0000 0.0000 0.0000 0.0000 37.8254
#
#
#
# Elastic Compliance Matrix: (Units=1/GPa)
#
#
# Indices 1 2 3 4 5 6 
#
# 1 0.017904 -0.007347 -0.006994 0.000000 0.000000 0.000000
# 2 -0.007347 0.015473 -0.002939 0.000000 0.000000 0.000000
# 3 -0.006994 -0.002939 0.019473 0.000000 0.000000 0.000000
# 4 0.000000 0.000000 0.000000 0.041861 0.000000 0.000000
# 5 0.000000 0.000000 0.000000 0.000000 0.036053 0.000000
# 6 0.000000 0.000000 0.000000 0.000000 0.000000 0.026437
#
#
# Mechanical properties :
#
#
# Convention : Reuss Voigt Hill
#
# Bulk Modulus (GPa) = 54.67670 57.16925 55.92297
# Shear Modulus (GPa) = 25.27045 26.79362 26.03203
#
# Velocity S-wave (km/s) = 3.65686 3.76546 3.71155
# Velocity P-wave (km/s) = 6.83842 7.01126 6.92538
#
# Compressibility (1/GPa) = 0.01828933
#
# Stress axis : x y z
#
# Youngs Moduli (GPa) = 55.85355 64.62823 51.35227
#
# Poissons Ratio (x) = 0.47484 0.35917
# Poissons Ratio (y) = 0.41037 0.15092
# Poissons Ratio (z) = 0.39066 0.18994
#
# Static dielectric constant tensor:
#      x y z
#    x 3.262350 0.000000 0.000000 
#    y 0.000000 3.602900 0.000000 
#    z 0.000000 0.000000 3.222710 
# 
# 
# High freq. dielectric constant tensor:
#      x y z
#    x 1.716700 0.000000 0.000000 
#    y 0.000000 1.749420 0.000000 
#    z 0.000000 0.000000 1.712470 
# 
# From -- ./inp_files/27464.got.cif
#   From: 2010.03.12/outbox.cif.g09.slc.cpg/sg57_14_cif.got.tgz:27464.got - 2010.04.16 15:48:40.
