data_PCOD8232260
_publ_section_title
;
Structure prediction by ZEFSAII (Michael W. Deem and Ramdas Pophale) SiO2 
 PCOD8232260
Probable space group: P B C M
;
_chemical_formula_sum "Si O2"
_cell_formula_units_Z 64
_cell_length_a 22.528215
_cell_length_b 17.361687
_cell_length_c 8.954645
_cell_angle_alpha 90.000000
_cell_angle_beta 90.000000
_cell_angle_gamma 90.000000
_cell_volume 3502.410755
_symmetry_space_group_name_H-M "P B C M"
_symmetry_group_IT_number 57
_symmetry_cell_setting 'orthorhombic'
loop_
_space_group_symop_operation_xyz
x,y,z
-x,-y,1/2+z
x,1/2-y,-z
-x,1/2+y,1/2-z
-x,-y,-z
x,y,1/2-z
-x,1/2+y,z
x,1/2-y,1/2+z
loop_
_atom_site_type_symbol
_atom_site_label
_atom_site_fract_x
_atom_site_fract_y
_atom_site_fract_z
Si Si1 0.241430 0.508481 0.924971
Si Si2 0.467826 0.930170 0.577696
Si Si3 0.045911 0.329759 0.573534
Si Si4 0.199882 0.825258 0.424241
Si Si5 0.084637 0.623323 0.421291
Si Si6 0.126533 0.046660 0.578200
Si Si7 0.553944 0.829030 0.074879
Si Si8 0.360052 0.028683 0.920037
O O1 0.229781 0.496891 0.750000
O O2 0.237082 0.598811 0.969096
O O3 0.193122 0.460680 0.016841
O O4 0.305516 0.475787 0.967168
O O5 0.486849 0.925496 0.750000
O O6 0.489508 0.852345 0.494953
O O7 0.500000 0.000000 0.500000
O O8 0.397860 0.949270 0.562303
O O9 0.064274 0.250000 0.500000
O O10 0.049117 0.322928 0.750000
O O11 0.093304 0.391340 0.520407
O O12 0.980197 0.353587 0.520180
O O13 0.229458 0.750000 0.500000
O O14 0.200016 0.811534 0.250000
O O15 0.132052 0.832607 0.477751
O O16 0.095035 0.647860 0.250000
O O17 0.090723 0.532201 0.440829
O O18 0.129217 0.072961 0.750000
O O19 0.545722 0.816882 0.250000
O O20 0.601603 0.895713 0.038559
O O21 0.576191 0.750000 0.000000
O O22 0.337126 0.035499 0.750000
#
# Coordination Sequence:
#
# PCOD8232260 Si02
#       8
#     8   8   8   8   8   8   8   8
#     4  10  21  36  55  78 103 137 180 221 260 307
#     4   9  17  31  52  78 107 138 171 208 253 303
#     4  11  22  35  51  75 105 134 169 212 261 316
#     4  10  20  33  51  76 104 133 168 212 261 313
#     4   9  19  34  54  78 102 131 166 208 260 317
#     4  10  20  36  56  76 101 135 173 214 262 313
#     4  10  20  34  54  82 113 143 177 218 265 311
#     4   9  19  35  55  79 106 139 179 219 259 308
#
# _framework density 18.273128
#
# number of rings (size 3 to 8) (size 9 to 14) (size 15 to 20)
#    0.000    2.250    0.000    3.750    0.000    7.000 
#    0.000    1.250    0.000    3.000    0.000    0.000 
#    0.000    0.000    0.000    0.000    0.000    0.000 
#
# Total GULP energy -793602.551921 kJ/mol
# GULP energy per Si atom -12400.039874 kJ/mol
# Density = 1.823154 g / cm^3
# Si number density = 18.273128 Si / 1000 Ang^3
#
#
#
# Elastic Constant Matrix: (Units=GPa)
#
#
# Indices 1 2 3 4 5 6 
#
# 1 68.1826 34.1030 35.3556 0.0000 0.0000 0.0000
# 2 34.1030 86.6043 39.5766 0.0000 0.0000 0.0000
# 3 35.3556 39.5766 90.3298 0.0000 0.0000 0.0000
# 4 0.0000 0.0000 0.0000 33.5453 0.0000 0.0000
# 5 0.0000 0.0000 0.0000 0.0000 32.0122 0.0000
# 6 0.0000 0.0000 0.0000 0.0000 0.0000 14.9689
#
#
#
# Elastic Compliance Matrix: (Units=1/GPa)
#
#
# Indices 1 2 3 4 5 6 
#
# 1 0.020266 -0.005446 -0.005546 0.000000 0.000000 0.000000
# 2 -0.005446 0.015901 -0.004835 0.000000 0.000000 0.000000
# 3 -0.005546 -0.004835 0.015360 0.000000 0.000000 0.000000
# 4 0.000000 0.000000 0.000000 0.029810 0.000000 0.000000
# 5 0.000000 0.000000 0.000000 0.000000 0.031238 0.000000
# 6 0.000000 0.000000 0.000000 0.000000 0.000000 0.066805
#
#
# Mechanical properties :
#
#
# Convention : Reuss Voigt Hill
#
# Bulk Modulus (GPa) = 50.32131 51.46522 50.89327
# Shear Modulus (GPa) = 22.97163 25.17738 24.07451
#
# Velocity S-wave (km/s) = 3.54944 3.71595 3.63365
# Velocity P-wave (km/s) = 6.66305 6.82910 6.74659
#
# Compressibility (1/GPa) = 0.01987230
#
# Stress axis : x y z
#
# Youngs Moduli (GPa) = 49.34274 62.88977 65.10483
#
# Poissons Ratio (x) = 0.34249 0.36109
# Poissons Ratio (y) = 0.26872 0.31479
# Poissons Ratio (z) = 0.27367 0.30408
#
# Static dielectric constant tensor:
#      x y z
#    x 3.268900 0.000000 0.000000 
#    y 0.000000 3.474990 0.000000 
#    z 0.000000 0.000000 3.490580 
# 
# 
# High freq. dielectric constant tensor:
#      x y z
#    x 1.690530 0.000000 0.000000 
#    y 0.000000 1.704450 0.000000 
#    z 0.000000 0.000000 1.721750 
# 
# From -- ./inp_files/8439.got.cif
#   From: 2010.03.12/outbox.cif.g09.slc.cpg/sg57_5_cif.got.tgz:8439.got - 2010.04.16 15:48:40.
