data_PCOD8232725
_publ_section_title
;
Structure prediction by ZEFSAII (Michael W. Deem and Ramdas Pophale) SiO2 
 PCOD8232725
Probable space group: P B C M
;
_chemical_formula_sum "Si O2"
_cell_formula_units_Z 56
_cell_length_a 21.562057
_cell_length_b 14.477179
_cell_length_c 9.329983
_cell_angle_alpha 90.000000
_cell_angle_beta 90.000000
_cell_angle_gamma 90.000000
_cell_volume 2912.426583
_symmetry_space_group_name_H-M "P B C M"
_symmetry_group_IT_number 57
_symmetry_cell_setting 'orthorhombic'
loop_
_space_group_symop_operation_xyz
x,y,z
-x,-y,1/2+z
x,1/2-y,-z
-x,1/2+y,1/2-z
-x,-y,-z
x,y,1/2-z
-x,1/2+y,z
x,1/2-y,1/2+z
loop_
_atom_site_type_symbol
_atom_site_label
_atom_site_fract_x
_atom_site_fract_y
_atom_site_fract_z
Si Si1 0.222241 0.530769 0.583440
Si Si2 0.084077 0.982087 0.084394
Si Si3 0.563327 0.013399 0.917342
Si Si4 0.971489 0.649501 0.921757
Si Si5 0.235966 0.169537 0.092700
Si Si6 0.333613 0.845087 0.419648
Si Si7 0.619839 0.827845 0.904508
O O1 0.239387 0.518890 0.750000
O O2 0.151763 0.563855 0.558195
O O3 0.227741 0.428724 0.513925
O O4 0.273083 0.600539 0.518909
O O5 0.075508 0.012045 0.250000
O O6 0.037490 0.899189 0.043900
O O7 0.077460 0.075575 0.988543
O O8 0.548163 0.014149 0.750000
O O9 0.602159 0.103943 0.960059
O O10 0.608069 0.929669 0.964655
O O11 0.500000 0.000000 0.000000
O O12 0.961006 0.661262 0.750000
O O13 0.967898 0.750000 0.000000
O O14 0.204102 0.169608 0.250000
O O15 0.307919 0.192411 0.108397
O O16 0.203066 0.250000 0.000000
O O17 0.335447 0.750000 0.500000
O O18 0.327841 0.829896 0.250000
O O19 0.587698 0.819208 0.750000
O O20 0.586881 0.750000 0.000000
#
# Coordination Sequence:
#
# PCOD8232725 Si02
#       7
#     8   8   8   8   8   8   8
#     4   9  17  34  58  79 107 144 179 218 270 326
#     4   9  19  35  56  82 108 143 188 230 274 325
#     4  10  21  37  56  77 105 140 178 218 267 319
#     4  10  20  35  55  79 111 148 186 229 276 325
#     4   9  16  29  50  74 100 131 164 204 256 314
#     4  10  21  39  59  80 109 145 182 223 270 321
#     4   9  17  31  51  74  98 128 163 203 254 310
#
# _framework density 19.227954
#
# number of rings (size 3 to 8) (size 9 to 14) (size 15 to 20)
#    0.000    2.571    1.429    0.429    0.000    3.429 
#    0.000    6.429    0.000    0.000    0.000    0.000 
#    0.000    0.000    0.000    0.000    0.000    0.000 
#
# Total GULP energy -693874.545056 kJ/mol
# GULP energy per Si atom -12390.616876 kJ/mol
# Density = 1.918419 g / cm^3
# Si number density = 19.227954 Si / 1000 Ang^3
#
#
#
# Elastic Constant Matrix: (Units=GPa)
#
#
# Indices 1 2 3 4 5 6 
#
# 1 91.1192 40.2441 30.7831 0.0000 0.0000 0.0000
# 2 40.2441 141.0254 50.5463 0.0000 0.0000 0.0000
# 3 30.7831 50.5463 60.1306 0.0000 0.0000 0.0000
# 4 0.0000 0.0000 0.0000 36.0931 0.0000 0.0000
# 5 0.0000 0.0000 0.0000 0.0000 18.7955 0.0000
# 6 0.0000 0.0000 0.0000 0.0000 0.0000 14.2650
#
#
#
# Elastic Compliance Matrix: (Units=1/GPa)
#
#
# Indices 1 2 3 4 5 6 
#
# 1 0.013649 -0.001990 -0.005314 0.000000 0.000000 0.000000
# 2 -0.001990 0.010439 -0.007756 0.000000 0.000000 0.000000
# 3 -0.005314 -0.007756 0.025871 0.000000 0.000000 0.000000
# 4 0.000000 0.000000 0.000000 0.027706 0.000000 0.000000
# 5 0.000000 0.000000 0.000000 0.000000 0.053204 0.000000
# 6 0.000000 0.000000 0.000000 0.000000 0.000000 0.070102
#
#
# Mechanical properties :
#
#
# Convention : Reuss Voigt Hill
#
# Bulk Modulus (GPa) = 50.41010 59.49136 54.95073
# Shear Modulus (GPa) = 21.03449 25.21084 23.12266
#
# Velocity S-wave (km/s) = 3.31109 3.62492 3.47155
# Velocity P-wave (km/s) = 6.39466 6.96615 6.68651
#
# Compressibility (1/GPa) = 0.01983729
#
# Stress axis : x y z
#
# Youngs Moduli (GPa) = 73.26528 95.79655 38.65333
#
# Poissons Ratio (x) = 0.19065 0.20542
# Poissons Ratio (y) = 0.14581 0.29980
# Poissons Ratio (z) = 0.38937 0.74301
#
# Static dielectric constant tensor:
#      x y z
#    x 3.529370 0.000000 0.000000 
#    y 0.000000 3.861580 0.000000 
#    z 0.000000 0.000000 3.659330 
# 
# 
# High freq. dielectric constant tensor:
#      x y z
#    x 1.741700 0.000000 0.000000 
#    y 0.000000 1.752270 0.000000 
#    z 0.000000 0.000000 1.726200 
# 
# From -- ./inp_files/14314.got.cif
#   From: 2010.03.12/outbox.cif.g09.slc.cpg/sg57_8_cif.got.tgz:14314.got - 2010.04.16 15:48:40.
