data_PCOD8232157
_publ_section_title
;
Structure prediction by ZEFSAII (Michael W. Deem and Ramdas Pophale) SiO2 
 PCOD8232157
Probable space group: P B C M
;
_chemical_formula_sum "Si O2"
_cell_formula_units_Z 56
_cell_length_a 15.046601
_cell_length_b 20.651410
_cell_length_c 8.937694
_cell_angle_alpha 90.000000
_cell_angle_beta 90.000000
_cell_angle_gamma 90.000000
_cell_volume 2777.241174
_symmetry_space_group_name_H-M "P B C M"
_symmetry_group_IT_number 57
_symmetry_cell_setting 'orthorhombic'
loop_
_space_group_symop_operation_xyz
x,y,z
-x,-y,1/2+z
x,1/2-y,-z
-x,1/2+y,1/2-z
-x,-y,-z
x,y,1/2-z
-x,1/2+y,z
x,1/2-y,1/2+z
loop_
_atom_site_type_symbol
_atom_site_label
_atom_site_fract_x
_atom_site_fract_y
_atom_site_fract_z
Si Si1 0.720738 0.622889 0.586111
Si Si2 0.539442 0.818153 0.071018
Si Si3 0.922498 0.454331 0.071503
Si Si4 0.258092 0.520828 0.416556
Si Si5 0.060490 0.684421 0.419490
Si Si6 0.551882 0.060573 0.428011
Si Si7 0.148511 0.310469 0.912463
O O1 0.745842 0.648083 0.750000
O O2 0.640156 0.665330 0.521635
O O3 0.693457 0.548501 0.588054
O O4 0.810938 0.626253 0.489164
O O5 0.528662 0.817562 0.250000
O O6 0.511254 0.750000 0.000000
O O7 0.478062 0.872658 0.000353
O O8 0.936432 0.455148 0.250000
O O9 0.824427 0.479842 0.030962
O O10 0.920696 0.380322 0.012987
O O11 0.000000 0.500000 0.000000
O O12 0.222304 0.539307 0.250000
O O13 0.341973 0.564107 0.464922
O O14 0.097865 0.750000 0.500000
O O15 0.099854 0.680182 0.250000
O O16 0.955899 0.689173 0.410216
O O17 0.535284 0.058813 0.250000
O O18 0.500000 0.000000 0.500000
O O19 0.189637 0.306535 0.750000
O O20 0.188373 0.250000 0.000000
#
# Coordination Sequence:
#
# PCOD8232157 Si02
#       7
#     8   8   8   8   8   8   8
#     4  10  20  35  55  82 118 156 197 248 307 369
#     4  11  23  40  60  90 126 166 210 260 318 375
#     4  12  25  41  63  94 129 168 213 266 322 377
#     4  10  22  41  63  90 122 160 207 258 314 376
#     4  10  21  39  61  86 118 161 209 261 320 380
#     4  11  22  41  67  94 124 164 208 257 311 371
#     4  10  20  32  50  78 111 151 197 243 300 368
#
# _framework density 20.163896000000001
#
# number of rings (size 3 to 8) (size 9 to 14) (size 15 to 20)
#    0.000    1.429    1.429    4.286    0.000    8.000 
#    0.000    0.714    0.000    3.429    0.000    0.000 
#    0.000    0.000    0.000    0.000    0.000    0.000 
#
# Total GULP energy -693943.070625 kJ/mol
# GULP energy per Si atom -12391.840547 kJ/mol
# Density = 2.011800 g / cm^3
# Si number density = 20.163896 Si / 1000 Ang^3
#
#
#
# Elastic Constant Matrix: (Units=GPa)
#
#
# Indices 1 2 3 4 5 6 
#
# 1 72.4945 43.2895 56.5834 0.0000 0.0000 0.0000
# 2 43.2895 131.0348 50.0887 0.0000 0.0000 0.0000
# 3 56.5834 50.0887 134.3400 0.0000 0.0000 0.0000
# 4 0.0000 0.0000 0.0000 37.7940 0.0000 0.0000
# 5 0.0000 0.0000 0.0000 0.0000 25.4744 0.0000
# 6 0.0000 0.0000 0.0000 0.0000 0.0000 32.3432
#
#
#
# Elastic Compliance Matrix: (Units=1/GPa)
#
#
# Indices 1 2 3 4 5 6 
#
# 1 0.022584 -0.004461 -0.007849 0.000000 0.000000 0.000000
# 2 -0.004461 0.009781 -0.001768 0.000000 0.000000 0.000000
# 3 -0.007849 -0.001768 0.011409 0.000000 0.000000 0.000000
# 4 0.000000 0.000000 0.000000 0.026459 0.000000 0.000000
# 5 0.000000 0.000000 0.000000 0.000000 0.039255 0.000000
# 6 0.000000 0.000000 0.000000 0.000000 0.000000 0.030918
#
#
# Mechanical properties :
#
#
# Convention : Reuss Voigt Hill
#
# Bulk Modulus (GPa) = 64.02667 70.86583 67.44625
# Shear Modulus (GPa) = 28.77377 31.64948 30.21163
#
# Velocity S-wave (km/s) = 3.78166 3.96613 3.87499
# Velocity P-wave (km/s) = 7.13372 7.49632 7.31727
#
# Compressibility (1/GPa) = 0.01561849
#
# Stress axis : x y z
#
# Youngs Moduli (GPa) = 44.27858 102.23826 87.64950
#
# Poissons Ratio (x) = 0.45605 0.68798
# Poissons Ratio (y) = 0.19751 0.15497
# Poissons Ratio (z) = 0.34755 0.18076
#
# Static dielectric constant tensor:
#      x y z
#    x 3.500950 0.000000 0.000000 
#    y 0.000000 4.045810 0.000000 
#    z 0.000000 0.000000 3.926970 
# 
# 
# High freq. dielectric constant tensor:
#      x y z
#    x 1.773630 0.000000 0.000000 
#    y 0.000000 1.794120 0.000000 
#    z 0.000000 0.000000 1.797720 
# 
# From -- ./inp_files/5191.got.cif
#   From: 2010.03.12/outbox.cif.g09.slc.cpg/sg57_3_cif.got.tgz:5191.got - 2010.04.16 15:48:40.
