data_PCOD8232027
_publ_section_title
;
Structure prediction by ZEFSAII (Michael W. Deem and Ramdas Pophale) SiO2 
 PCOD8232027
Probable space group: P B C M
;
_chemical_formula_sum "Si O2"
_cell_formula_units_Z 64
_cell_length_a 13.466468
_cell_length_b 9.448468
_cell_length_c 26.429958
_cell_angle_alpha 90.000000
_cell_angle_beta 90.000000
_cell_angle_gamma 90.000000
_cell_volume 3362.881569
_symmetry_space_group_name_H-M "P B C M"
_symmetry_group_IT_number 57
_symmetry_cell_setting 'orthorhombic'
loop_
_space_group_symop_operation_xyz
x,y,z
-x,-y,1/2+z
x,1/2-y,-z
-x,1/2+y,1/2-z
-x,-y,-z
x,y,1/2-z
-x,1/2+y,z
x,1/2-y,1/2+z
loop_
_atom_site_type_symbol
_atom_site_label
_atom_site_fract_x
_atom_site_fract_y
_atom_site_fract_z
Si Si1 0.219836 0.697509 0.308967
Si Si2 0.563173 0.147868 0.544607
Si Si3 0.096394 0.956578 0.190220
Si Si4 0.421217 0.730057 0.848128
Si Si5 0.575353 0.928426 0.806792
Si Si6 0.232819 0.333708 0.645479
Si Si7 0.872471 0.583941 0.809417
Si Si8 0.633118 0.676036 0.047461
O O1 0.206817 0.697919 0.250000
O O2 0.176136 0.843229 0.329193
O O3 0.334263 0.678965 0.323116
O O4 0.153108 0.571295 0.329592
O O5 0.606168 0.250000 0.500000
O O6 0.618952 0.183230 0.596860
O O7 0.450706 0.201688 0.557222
O O8 0.578390 0.977192 0.534293
O O9 0.102303 0.997516 0.250000
O O10 0.988091 0.893858 0.177906
O O11 0.126623 0.088123 0.154379
O O12 0.448489 0.592392 0.815550
O O13 0.517032 0.833015 0.848052
O O14 0.542455 0.888391 0.750000
O O15 0.691893 0.899018 0.813311
O O16 0.205038 0.173793 0.657734
O O17 0.284178 0.345246 0.590505
O O18 0.851569 0.609460 0.750000
O O19 0.690240 0.750000 0.000000
#
# Coordination Sequence:
#
# PCOD8232027 Si02
#       8
#     8   8   8   8   8   8   8   8
#     4  10  20  34  52  77 114 151 191 237 284 346
#     4  11  21  39  60  83 115 158 206 254 296 341
#     4  10  19  37  59  82 114 152 195 242 296 349
#     4  12  23  39  54  83 118 159 199 239 286 355
#     4  12  24  37  55  81 121 165 195 230 285 356
#     4  12  22  38  60  85 119 153 200 245 297 360
#     4  10  22  35  56  87 115 151 195 243 292 352
#     4  11  23  39  60  87 115 155 201 256 307 352
#
# _framework density 19.031296999999999
#
# number of rings (size 3 to 8) (size 9 to 14) (size 15 to 20)
#    0.000    1.000    3.750    4.500    1.750    4.000 
#    0.000    0.000    0.000    0.750    0.000    1.750 
#    0.000    0.000    0.000    0.000    0.000    0.000 
#
# Total GULP energy -792941.798968 kJ/mol
# GULP energy per Si atom -12389.715609 kJ/mol
# Density = 1.898798 g / cm^3
# Si number density = 19.031297 Si / 1000 Ang^3
#
#
#
# Elastic Constant Matrix: (Units=GPa)
#
#
# Indices 1 2 3 4 5 6 
#
# 1 56.8039 90.8793 -3.9989 0.0000 0.0000 0.0000
# 2 90.8793 -26.2663 106.4650 0.0000 0.0000 0.0000
# 3 -3.9989 106.4650 48.7362 0.0000 0.0000 0.0000
# 4 0.0000 0.0000 0.0000 28.8467 0.0000 0.0000
# 5 0.0000 0.0000 0.0000 0.0000 20.9888 0.0000
# 6 0.0000 0.0000 0.0000 0.0000 0.0000 33.4334
#
#
#
# Elastic Compliance Matrix: (Units=1/GPa)
#
#
# Indices 1 2 3 4 5 6 
#
# 1 0.010547 0.004059 -0.008002 0.000000 0.000000 0.000000
# 2 0.004059 -0.002301 0.005360 0.000000 0.000000 0.000000
# 3 -0.008002 0.005360 0.008153 0.000000 0.000000 0.000000
# 4 0.000000 0.000000 0.000000 0.034666 0.000000 0.000000
# 5 0.000000 0.000000 0.000000 0.000000 0.047644 0.000000
# 6 0.000000 0.000000 0.000000 0.000000 0.000000 0.029910
#
#
# Mechanical properties :
#
#
# Convention : Reuss Voigt Hill
#
# Bulk Modulus (GPa) = 51.99211 51.77384 51.88298
# Shear Modulus (GPa) = 37.82282 9.04900 23.43591
#
# Velocity S-wave (km/s) = 4.46286 2.18292 3.51300
# Velocity P-wave (km/s) = 7.34403 5.79803 6.61634
#
# Compressibility (1/GPa) = 0.01923369
#
# Stress axis : x y z
#
# Youngs Moduli (GPa) = 94.81269 -434.54755 122.65865
#
# Poissons Ratio (x) = 1.76385 0.98147
# Poissons Ratio (y) = -0.38485 -0.65747
# Poissons Ratio (z) = 0.75866 2.32925
#
# Static dielectric constant tensor:
#      x y z
#    x 3.398090 0.000000 0.000000 
#    y 0.000000 3.923290 0.000000 
#    z 0.000000 0.000000 3.482060 
# 
# 
# High freq. dielectric constant tensor:
#      x y z
#    x 1.722790 0.000000 0.000000 
#    y 0.000000 1.759170 0.000000 
#    z 0.000000 0.000000 1.716660 
# 
# From -- ./inp_files/29766.got.cif
#   From: 2010.03.12/outbox.cif.g09.slc.cpg/sg57_15_cif.got.tgz:29766.got - 2010.04.16 15:48:40.
