data_PCOD8232850
_publ_section_title
;
Structure prediction by ZEFSAII (Michael W. Deem and Ramdas Pophale) SiO2 
 PCOD8232850
Probable space group: P B C M
;
_chemical_formula_sum "Si O2"
_cell_formula_units_Z 64
_cell_length_a 23.241198
_cell_length_b 15.355589
_cell_length_c 9.281952
_cell_angle_alpha 90.000000
_cell_angle_beta 90.000000
_cell_angle_gamma 90.000000
_cell_volume 3312.564233
_symmetry_space_group_name_H-M "P B C M"
_symmetry_group_IT_number 57
_symmetry_cell_setting 'orthorhombic'
loop_
_space_group_symop_operation_xyz
x,y,z
-x,-y,1/2+z
x,1/2-y,-z
-x,1/2+y,1/2-z
-x,-y,-z
x,y,1/2-z
-x,1/2+y,z
x,1/2-y,1/2+z
loop_
_atom_site_type_symbol
_atom_site_label
_atom_site_fract_x
_atom_site_fract_y
_atom_site_fract_z
Si Si1 0.372999 0.001326 0.415759
Si Si2 0.578915 0.662890 0.919145
Si Si3 0.939093 0.086860 0.085681
Si Si4 0.239226 0.513768 0.585500
Si Si5 0.554631 0.335461 0.083090
Si Si6 0.182507 0.333372 0.917699
Si Si7 0.933975 0.587666 0.417748
Si Si8 0.821142 0.334573 0.916521
O O1 0.388272 0.024720 0.250000
O O2 0.385762 0.082708 0.517264
O O3 0.306975 0.975499 0.432314
O O4 0.410059 0.919192 0.470479
O O5 0.591877 0.672430 0.750000
O O6 0.511917 0.645897 0.950192
O O7 0.599641 0.750000 0.000000
O O8 0.940156 0.054004 0.250000
O O9 0.890328 0.159592 0.063330
O O10 0.002373 0.125031 0.044006
O O11 0.923396 0.004980 0.989501
O O12 0.219994 0.532743 0.750000
O O13 0.220667 0.416678 0.540354
O O14 0.208698 0.580315 0.479165
O O15 0.565915 0.317463 0.250000
O O16 0.576588 0.250000 0.000000
O O17 0.186846 0.313006 0.750000
O O18 0.116125 0.347131 0.968850
O O19 0.207816 0.250000 0.000000
O O20 0.926128 0.570279 0.250000
O O21 0.804014 0.325577 0.750000
O O22 0.798481 0.250000 0.000000
#
# Coordination Sequence:
#
# PCOD8232850 Si02
#       8
#     8   8   8   8   8   8   8   8
#     4  10  21  37  58  83 113 147 188 234 279 328
#     4  10  20  35  57  85 117 150 185 224 274 330
#     4   9  18  32  53  81 108 137 175 221 274 332
#     4  10  22  41  59  79 110 148 189 234 280 324
#     4   9  19  35  56  84 116 149 182 226 277 329
#     4  10  21  36  56  79 106 142 181 224 275 328
#     4   9  17  32  54  79 108 139 174 220 276 333
#     4  11  23  38  58  82 110 145 186 231 280 335
#
# _framework density 19.320378999999999
#
# number of rings (size 3 to 8) (size 9 to 14) (size 15 to 20)
#    0.000    2.250    1.250    1.125    0.000    4.500 
#    0.000    2.500    0.000    0.000    0.000    0.000 
#    0.000    0.000    0.000    0.000    0.000    0.000 
#
# Total GULP energy -793655.913637 kJ/mol
# GULP energy per Si atom -12400.873651 kJ/mol
# Density = 1.927640 g / cm^3
# Si number density = 19.320379 Si / 1000 Ang^3
#
#
#
# Elastic Constant Matrix: (Units=GPa)
#
#
# Indices 1 2 3 4 5 6 
#
# 1 53.2436 21.8102 26.5433 0.0000 0.0000 0.0000
# 2 21.8102 89.9139 46.4280 0.0000 0.0000 0.0000
# 3 26.5433 46.4280 75.9092 0.0000 0.0000 0.0000
# 4 0.0000 0.0000 0.0000 39.6638 0.0000 0.0000
# 5 0.0000 0.0000 0.0000 0.0000 21.6038 0.0000
# 6 0.0000 0.0000 0.0000 0.0000 0.0000 11.1698
#
#
#
# Elastic Compliance Matrix: (Units=1/GPa)
#
#
# Indices 1 2 3 4 5 6 
#
# 1 0.023011 -0.002086 -0.006771 0.000000 0.000000 0.000000
# 2 -0.002086 0.016445 -0.009329 0.000000 0.000000 0.000000
# 3 -0.006771 -0.009329 0.021247 0.000000 0.000000 0.000000
# 4 0.000000 0.000000 0.000000 0.025212 0.000000 0.000000
# 5 0.000000 0.000000 0.000000 0.000000 0.046288 0.000000
# 6 0.000000 0.000000 0.000000 0.000000 0.000000 0.089527
#
#
# Mechanical properties :
#
#
# Convention : Reuss Voigt Hill
#
# Bulk Modulus (GPa) = 41.09707 45.40330 43.25018
# Shear Modulus (GPa) = 18.78210 22.77315 20.77762
#
# Velocity S-wave (km/s) = 3.12130 3.43696 3.28293
# Velocity P-wave (km/s) = 5.85726 6.26909 6.06667
#
# Compressibility (1/GPa) = 0.02433263
#
# Stress axis : x y z
#
# Youngs Moduli (GPa) = 43.45681 60.81020 47.06582
#
# Poissons Ratio (x) = 0.12683 0.31867
# Poissons Ratio (y) = 0.09064 0.43906
# Poissons Ratio (z) = 0.29424 0.56728
#
# Static dielectric constant tensor:
#      x y z
#    x 3.627420 0.000000 0.000000 
#    y 0.000000 3.379650 0.000000 
#    z 0.000000 0.000000 3.395360 
# 
# 
# High freq. dielectric constant tensor:
#      x y z
#    x 1.753360 0.000000 0.000000 
#    y 0.000000 1.744860 0.000000 
#    z 0.000000 0.000000 1.750170 
# 
# From -- ./inp_files/9372.got.cif
#   From: 2010.03.12/outbox.cif.g09.slc.cpg/sg57_5_cif.got.tgz:9372.got - 2010.04.16 15:48:40.
