data_PCOD8232433
_publ_section_title
;
Structure prediction by ZEFSAII (Michael W. Deem and Ramdas Pophale) SiO2 
 PCOD8232433
Probable space group: P B C M
;
_chemical_formula_sum "Si O2"
_cell_formula_units_Z 48
_cell_length_a 21.181388
_cell_length_b 14.062000
_cell_length_c 8.862905
_cell_angle_alpha 90.000000
_cell_angle_beta 90.000000
_cell_angle_gamma 90.000000
_cell_volume 2639.839990
_symmetry_space_group_name_H-M "P B C M"
_symmetry_group_IT_number 57
_symmetry_cell_setting 'orthorhombic'
loop_
_space_group_symop_operation_xyz
x,y,z
-x,-y,1/2+z
x,1/2-y,-z
-x,1/2+y,1/2-z
-x,-y,-z
x,y,1/2-z
-x,1/2+y,z
x,1/2-y,1/2+z
loop_
_atom_site_type_symbol
_atom_site_label
_atom_site_fract_x
_atom_site_fract_y
_atom_site_fract_z
Si Si1 0.502191 0.649271 0.073382
Si Si2 0.167201 0.149581 0.577620
Si Si3 0.833732 0.353212 0.429657
Si Si4 0.738739 0.009621 0.071153
Si Si5 0.932253 0.007654 0.426223
Si Si6 0.594620 0.513214 0.926297
O O1 0.508681 0.663354 0.250000
O O2 0.444083 0.580970 0.029128
O O3 0.488108 0.750000 0.000000
O O4 0.567271 0.604670 0.012434
O O5 0.163691 0.250000 0.500000
O O6 0.179039 0.172070 0.750000
O O7 0.102114 0.093347 0.550830
O O8 0.225681 0.086229 0.517494
O O9 0.837293 0.250000 0.500000
O O10 0.835189 0.348022 0.250000
O O11 0.768686 0.401220 0.484631
O O12 0.894018 0.410606 0.488933
O O13 0.747751 0.025635 0.250000
O O14 0.666261 0.002156 0.022509
O O15 0.937156 0.033935 0.250000
O O16 0.000000 0.000000 0.500000
O O17 0.589533 0.534908 0.750000
#
# Coordination Sequence:
#
# PCOD8232433 Si02
#       6
#     8   8   8   8   8   8
#     4  10  20  34  53  77 106 140 178 220 267 320
#     4   9  19  34  53  76 105 137 170 211 258 310
#     4  11  22  37  57  81 109 143 181 223 270 321
#     4   9  19  37  56  78 108 139 175 222 271 318
#     4  10  21  38  57  80 109 142 180 224 271 318
#     4   9  19  36  56  77 105 140 177 221 270 318
#
# _framework density 18.182919999999999
#
# number of rings (size 3 to 8) (size 9 to 14) (size 15 to 20)
#    0.000    2.333    0.000    3.500    0.000    6.667 
#    0.000    5.000    0.000    0.000    0.000    0.000 
#    0.000    0.000    0.000    0.000    0.000    0.000 
#
# Total GULP energy -595287.449720 kJ/mol
# GULP energy per Si atom -12401.821869 kJ/mol
# Density = 1.814153 g / cm^3
# Si number density = 18.182920 Si / 1000 Ang^3
#
#
#
# Elastic Constant Matrix: (Units=GPa)
#
#
# Indices 1 2 3 4 5 6 
#
# 1 135.6376 38.6668 43.3155 0.0000 0.0000 0.0000
# 2 38.6668 119.9101 49.0228 0.0000 0.0000 0.0000
# 3 43.3155 49.0228 87.1870 0.0000 0.0000 0.0000
# 4 0.0000 0.0000 0.0000 38.5578 0.0000 0.0000
# 5 0.0000 0.0000 0.0000 0.0000 30.5941 0.0000
# 6 0.0000 0.0000 0.0000 0.0000 0.0000 11.0898
#
#
#
# Elastic Compliance Matrix: (Units=1/GPa)
#
#
# Indices 1 2 3 4 5 6 
#
# 1 0.008937 -0.001385 -0.003661 0.000000 0.000000 0.000000
# 2 -0.001385 0.011043 -0.005521 0.000000 0.000000 0.000000
# 3 -0.003661 -0.005521 0.016393 0.000000 0.000000 0.000000
# 4 0.000000 0.000000 0.000000 0.025935 0.000000 0.000000
# 5 0.000000 0.000000 0.000000 0.000000 0.032686 0.000000
# 6 0.000000 0.000000 0.000000 0.000000 0.000000 0.090173
#
#
# Mechanical properties :
#
#
# Convention : Reuss Voigt Hill
#
# Bulk Modulus (GPa) = 65.62451 67.19388 66.40919
# Shear Modulus (GPa) = 23.65395 30.16364 26.90880
#
# Velocity S-wave (km/s) = 3.61070 4.07738 3.85111
# Velocity P-wave (km/s) = 7.31796 7.69424 7.50845
#
# Compressibility (1/GPa) = 0.01523821
#
# Stress axis : x y z
#
# Youngs Moduli (GPa) = 111.90001 90.55102 61.00179
#
# Poissons Ratio (x) = 0.12541 0.22333
# Poissons Ratio (y) = 0.15498 0.33681
# Poissons Ratio (z) = 0.40967 0.49997
#
# Static dielectric constant tensor:
#      x y z
#    x 3.472110 0.000000 0.000000 
#    y 0.000000 3.452890 0.000000 
#    z 0.000000 0.000000 3.336030 
# 
# 
# High freq. dielectric constant tensor:
#      x y z
#    x 1.708600 0.000000 0.000000 
#    y 0.000000 1.708050 0.000000 
#    z 0.000000 0.000000 1.709540 
# 
# From -- ./inp_files/9111.got.cif
#   From: 2010.03.12/outbox.cif.g09.slc.cpg/sg57_5_cif.got.tgz:9111.got - 2010.04.16 15:48:40.
