data_PCOD8232548
_publ_section_title
;
Structure prediction by ZEFSAII (Michael W. Deem and Ramdas Pophale) SiO2 
 PCOD8232548
Probable space group: P B C M
;
_chemical_formula_sum "Si O2"
_cell_formula_units_Z 56
_cell_length_a 22.115087
_cell_length_b 14.131179
_cell_length_c 9.074679
_cell_angle_alpha 90.000000
_cell_angle_beta 90.000000
_cell_angle_gamma 90.000000
_cell_volume 2835.948380
_symmetry_space_group_name_H-M "P B C M"
_symmetry_group_IT_number 57
_symmetry_cell_setting 'orthorhombic'
loop_
_space_group_symop_operation_xyz
x,y,z
-x,-y,1/2+z
x,1/2-y,-z
-x,1/2+y,1/2-z
-x,-y,-z
x,y,1/2-z
-x,1/2+y,z
x,1/2-y,1/2+z
loop_
_atom_site_type_symbol
_atom_site_label
_atom_site_fract_x
_atom_site_fract_y
_atom_site_fract_z
Si Si1 0.110160 0.654513 0.422970
Si Si2 0.526354 0.910298 0.580773
Si Si3 0.748175 0.649067 0.077419
Si Si4 0.639895 0.951460 0.425773
Si Si5 0.971729 0.843646 0.921671
Si Si6 0.600442 0.159828 0.416044
Si Si7 0.864561 0.973350 0.919469
O O1 0.133701 0.750000 0.500000
O O2 0.119766 0.664986 0.250000
O O3 0.148798 0.565929 0.482462
O O4 0.040551 0.634979 0.467837
O O5 0.542563 0.933732 0.750000
O O6 0.587623 0.882199 0.493134
O O7 0.472880 0.832986 0.572920
O O8 0.500000 0.000000 0.500000
O O9 0.732154 0.659459 0.250000
O O10 0.814332 0.606086 0.053388
O O11 0.744741 0.750000 0.000000
O O12 0.702755 0.577503 0.997586
O O13 0.640855 0.939663 0.250000
O O14 0.626011 0.059663 0.475806
O O15 0.965986 0.823899 0.750000
O O16 0.929120 0.930419 0.969179
O O17 0.947413 0.750000 0.000000
O O18 0.628474 0.250000 0.500000
O O19 0.622555 0.170065 0.250000
O O20 0.865858 0.005568 0.750000
#
# Coordination Sequence:
#
# PCOD8232548 Si02
#       7
#     8   8   8   8   8   8   8
#     4  10  20  34  55  82 112 146 182 222 273 328
#     4   9  17  31  51  78 110 144 182 224 273 325
#     4  11  24  41  61  83 107 141 182 227 276 327
#     4  10  21  38  57  80 111 147 188 233 277 326
#     4   9  18  32  52  81 114 146 180 223 273 328
#     4   9  19  33  53  82 113 144 178 219 269 323
#     4  10  21  37  56  80 111 144 183 228 275 327
#
# _framework density 19.746480999999999
#
# number of rings (size 3 to 8) (size 9 to 14) (size 15 to 20)
#    0.000    2.286    0.000    3.429    0.000    6.286 
#    0.000    2.143    0.000    1.714    0.000    0.000 
#    0.000    0.000    0.000    0.000    0.000    0.000 
#
# Total GULP energy -694250.463682 kJ/mol
# GULP energy per Si atom -12397.329709 kJ/mol
# Density = 1.970154 g / cm^3
# Si number density = 19.746481 Si / 1000 Ang^3
#
#
#
# Elastic Constant Matrix: (Units=GPa)
#
#
# Indices 1 2 3 4 5 6 
#
# 1 47.9092 25.3863 29.2122 0.0000 0.0000 0.0000
# 2 25.3863 119.2420 56.7622 0.0000 0.0000 0.0000
# 3 29.2122 56.7622 102.4558 0.0000 0.0000 0.0000
# 4 0.0000 0.0000 0.0000 38.2348 0.0000 0.0000
# 5 0.0000 0.0000 0.0000 0.0000 27.7909 0.0000
# 6 0.0000 0.0000 0.0000 0.0000 0.0000 21.4560
#
#
#
# Elastic Compliance Matrix: (Units=1/GPa)
#
#
# Indices 1 2 3 4 5 6 
#
# 1 0.025896 -0.002714 -0.005880 0.000000 0.000000 0.000000
# 2 -0.002714 0.011675 -0.005694 0.000000 0.000000 0.000000
# 3 -0.005880 -0.005694 0.014591 0.000000 0.000000 0.000000
# 4 0.000000 0.000000 0.000000 0.026154 0.000000 0.000000
# 5 0.000000 0.000000 0.000000 0.000000 0.035983 0.000000
# 6 0.000000 0.000000 0.000000 0.000000 0.000000 0.046607
#
#
# Mechanical properties :
#
#
# Convention : Reuss Voigt Hill
#
# Bulk Modulus (GPa) = 42.39807 54.70315 48.55061
# Shear Modulus (GPa) = 25.33636 28.04608 26.69122
#
# Velocity S-wave (km/s) = 3.58590 3.77279 3.68053
# Velocity P-wave (km/s) = 6.21794 6.83677 6.53468
#
# Compressibility (1/GPa) = 0.02358598
#
# Stress axis : x y z
#
# Youngs Moduli (GPa) = 38.61565 85.65531 68.53381
#
# Poissons Ratio (x) = 0.23250 0.40296
# Poissons Ratio (y) = 0.10482 0.39024
# Poissons Ratio (z) = 0.22705 0.48773
#
# Static dielectric constant tensor:
#      x y z
#    x 3.610500 0.000000 0.000000 
#    y 0.000000 3.499770 0.000000 
#    z 0.000000 0.000000 3.670890 
# 
# 
# High freq. dielectric constant tensor:
#      x y z
#    x 1.752430 0.000000 0.000000 
#    y 0.000000 1.764870 0.000000 
#    z 0.000000 0.000000 1.776220 
# 
# From -- ./inp_files/8127.got.cif
#   From: 2010.03.12/outbox.cif.g09.slc.cpg/sg57_5_cif.got.tgz:8127.got - 2010.04.16 15:48:40.
