data_PCOD8232357
_publ_section_title
;
Structure prediction by ZEFSAII (Michael W. Deem and Ramdas Pophale) SiO2 
 PCOD8232357
Probable space group: P B C M
;
_chemical_formula_sum "Si O2"
_cell_formula_units_Z 48
_cell_length_a 16.468302
_cell_length_b 18.703209
_cell_length_c 8.929490
_cell_angle_alpha 90.000000
_cell_angle_beta 90.000000
_cell_angle_gamma 90.000000
_cell_volume 2750.373056
_symmetry_space_group_name_H-M "P B C M"
_symmetry_group_IT_number 57
_symmetry_cell_setting 'orthorhombic'
loop_
_space_group_symop_operation_xyz
x,y,z
-x,-y,1/2+z
x,1/2-y,-z
-x,1/2+y,1/2-z
-x,-y,-z
x,y,1/2-z
-x,1/2+y,z
x,1/2-y,1/2+z
loop_
_atom_site_type_symbol
_atom_site_label
_atom_site_fract_x
_atom_site_fract_y
_atom_site_fract_z
Si Si1 0.578495 0.034945 0.070794
Si Si2 0.360425 0.677880 0.928519
Si Si3 0.746672 0.522701 0.585690
Si Si4 0.104198 0.438647 0.583089
Si Si5 0.048442 0.602116 0.581990
Si Si6 0.200093 0.639250 0.416648
O O1 0.572206 0.042685 0.250000
O O2 0.654351 0.983792 0.025759
O O3 0.589497 0.112695 0.998842
O O4 0.500000 0.000000 0.000000
O O5 0.369202 0.677486 0.750000
O O6 0.397924 0.750000 0.000000
O O7 0.265716 0.674869 0.974062
O O8 0.747321 0.558445 0.750000
O O9 0.803833 0.570048 0.478586
O O10 0.783391 0.444172 0.597397
O O11 0.103260 0.407763 0.750000
O O12 0.077743 0.520684 0.580698
O O13 0.041710 0.391752 0.486127
O O14 0.045861 0.632142 0.750000
O O15 0.110650 0.650707 0.486373
O O16 0.204578 0.673794 0.250000
#
# Coordination Sequence:
#
# PCOD8232357 Si02
#       6
#     8   8   8   8   8   8
#     4  10  20  34  51  72  97 127 162 202 251 305
#     4  11  21  34  51  71  96 127 162 200 243 293
#     4   8  15  26  39  56  82 114 147 184 228 279
#     4   9  15  21  32  51  76 108 145 182 219 260
#     4   9  15  22  33  51  77 110 145 179 217 260
#     4   9  16  27  41  59  84 114 149 187 226 271
#
# _framework density 17.452178
#
# number of rings (size 3 to 8) (size 9 to 14) (size 15 to 20)
#    0.000    2.667    0.000    4.500    0.000    8.667 
#    0.000    0.000    0.000    0.000    0.000    0.000 
#    0.000    1.333    0.000    7.333    0.000   16.667 
#
# Total GULP energy -594958.667813 kJ/mol
# GULP energy per Si atom -12394.972246 kJ/mol
# Density = 1.741246 g / cm^3
# Si number density = 17.452178 Si / 1000 Ang^3
#
#
#
# Elastic Constant Matrix: (Units=GPa)
#
#
# Indices 1 2 3 4 5 6 
#
# 1 144.1757 35.7235 69.8811 0.0000 0.0000 0.0000
# 2 35.7235 39.0179 29.9032 0.0000 0.0000 0.0000
# 3 69.8811 29.9032 145.8654 0.0000 0.0000 0.0000
# 4 0.0000 0.0000 0.0000 17.3462 0.0000 0.0000
# 5 0.0000 0.0000 0.0000 0.0000 31.4919 0.0000
# 6 0.0000 0.0000 0.0000 0.0000 0.0000 8.1862
#
#
#
# Elastic Compliance Matrix: (Units=1/GPa)
#
#
# Indices 1 2 3 4 5 6 
#
# 1 0.010333 -0.006723 -0.003572 0.000000 0.000000 0.000000
# 2 -0.006723 0.034781 -0.003909 0.000000 0.000000 0.000000
# 3 -0.003572 -0.003909 0.009368 0.000000 0.000000 0.000000
# 4 0.000000 0.000000 0.000000 0.057649 0.000000 0.000000
# 5 0.000000 0.000000 0.000000 0.000000 0.031754 0.000000
# 6 0.000000 0.000000 0.000000 0.000000 0.000000 0.122157
#
#
# Mechanical properties :
#
#
# Convention : Reuss Voigt Hill
#
# Bulk Modulus (GPa) = 38.35349 66.67496 52.51423
# Shear Modulus (GPa) = 16.49385 24.30828 20.40106
#
# Velocity S-wave (km/s) = 3.07756 3.73614 3.42273
# Velocity P-wave (km/s) = 5.88664 7.54314 6.76578
#
# Compressibility (1/GPa) = 0.02607325
#
# Stress axis : x y z
#
# Youngs Moduli (GPa) = 96.77543 28.75151 106.74147
#
# Poissons Ratio (x) = 0.19330 0.38130
# Poissons Ratio (y) = 0.65062 0.41729
# Poissons Ratio (z) = 0.34570 0.11240
#
# Static dielectric constant tensor:
#      x y z
#    x 3.350920 0.000000 0.000000 
#    y 0.000000 2.752480 0.000000 
#    z 0.000000 0.000000 3.531020 
# 
# 
# High freq. dielectric constant tensor:
#      x y z
#    x 1.667830 0.000000 0.000000 
#    y 0.000000 1.606100 0.000000 
#    z 0.000000 0.000000 1.693540 
# 
# From -- ./inp_files/6695.got.cif
#   From: 2010.03.12/outbox.cif.g09.slc.cpg/sg57_4_cif.got.tgz:6695.got - 2010.04.16 15:48:40.
