data_PCOD8232934
_publ_section_title
;
Structure prediction by ZEFSAII (Michael W. Deem and Ramdas Pophale) SiO2 
 PCOD8232934
Probable space group: P B C M
;
_chemical_formula_sum "Si O2"
_cell_formula_units_Z 48
_cell_length_a 11.330839
_cell_length_b 22.976230
_cell_length_c 8.879096
_cell_angle_alpha 90.000000
_cell_angle_beta 90.000000
_cell_angle_gamma 90.000000
_cell_volume 2311.583524
_symmetry_space_group_name_H-M "P B C M"
_symmetry_group_IT_number 57
_symmetry_cell_setting 'orthorhombic'
loop_
_space_group_symop_operation_xyz
x,y,z
-x,-y,1/2+z
x,1/2-y,-z
-x,1/2+y,1/2-z
-x,-y,-z
x,y,1/2-z
-x,1/2+y,z
x,1/2-y,1/2+z
loop_
_atom_site_type_symbol
_atom_site_label
_atom_site_fract_x
_atom_site_fract_y
_atom_site_fract_z
Si Si1 0.437880 0.419917 0.420727
Si Si2 0.300997 0.307201 0.417787
Si Si3 0.922524 0.877447 0.070765
Si Si4 0.700624 0.097160 0.924464
Si Si5 0.141626 0.686125 0.428475
Si Si6 0.218719 0.473487 0.923420
O O1 0.422459 0.443379 0.250000
O O2 0.408531 0.351667 0.426724
O O3 0.572020 0.425274 0.478099
O O4 0.350785 0.455356 0.527936
O O5 0.343105 0.250000 0.500000
O O6 0.270031 0.288644 0.250000
O O7 0.182268 0.335296 0.485970
O O8 0.940745 0.877520 0.250000
O O9 0.884194 0.942606 0.020543
O O10 0.038684 0.855280 0.989540
O O11 0.695252 0.116543 0.750000
O O12 0.791659 0.043262 0.945743
O O13 0.738778 0.152877 0.023276
O O14 0.134986 0.750000 0.500000
O O15 0.134027 0.692549 0.250000
O O16 0.201766 0.456141 0.750000
#
# Coordination Sequence:
#
# PCOD8232934 Si02
#       6
#     8   8   8   8   8   8
#     4   9  19  36  56  81 117 157 195 239 291 345
#     4   9  18  31  51  79 108 142 184 233 286 336
#     4  10  21  39  61  84 114 151 192 240 293 349
#     4  10  22  40  60  84 118 158 198 239 285 343
#     4  12  26  43  63  86 115 153 196 239 287 345
#     4  10  20  35  60  92 120 149 191 243 295 344
#
# _framework density 20.764986
#
# number of rings (size 3 to 8) (size 9 to 14) (size 15 to 20)
#    0.000    2.000    0.000    4.500    0.000    8.000 
#    0.000    1.667    0.000    0.000    0.000    0.000 
#    0.000    0.000    0.000    0.000    0.000    0.000 
#
# Total GULP energy -595169.427496 kJ/mol
# GULP energy per Si atom -12399.363073 kJ/mol
# Density = 2.071772 g / cm^3
# Si number density = 20.764986 Si / 1000 Ang^3
#
#
#
# Elastic Constant Matrix: (Units=GPa)
#
#
# Indices 1 2 3 4 5 6 
#
# 1 54.3395 20.2642 27.3651 0.0000 0.0000 0.0000
# 2 20.2642 82.9764 40.8444 0.0000 0.0000 0.0000
# 3 27.3651 40.8444 105.3734 0.0000 0.0000 0.0000
# 4 0.0000 0.0000 0.0000 35.7280 0.0000 0.0000
# 5 0.0000 0.0000 0.0000 0.0000 33.9047 0.0000
# 6 0.0000 0.0000 0.0000 0.0000 0.0000 19.1569
#
#
#
# Elastic Compliance Matrix: (Units=1/GPa)
#
#
# Indices 1 2 3 4 5 6 
#
# 1 0.021813 -0.003137 -0.004449 0.000000 0.000000 0.000000
# 2 -0.003137 0.015344 -0.005133 0.000000 0.000000 0.000000
# 3 -0.004449 -0.005133 0.012635 0.000000 0.000000 0.000000
# 4 0.000000 0.000000 0.000000 0.027989 0.000000 0.000000
# 5 0.000000 0.000000 0.000000 0.000000 0.029494 0.000000
# 6 0.000000 0.000000 0.000000 0.000000 0.000000 0.052201
#
#
# Mechanical properties :
#
#
# Convention : Reuss Voigt Hill
#
# Bulk Modulus (GPa) = 41.06006 46.62629 43.84318
# Shear Modulus (GPa) = 25.90229 28.03896 26.97063
#
# Velocity S-wave (km/s) = 3.53569 3.67863 3.60787
# Velocity P-wave (km/s) = 6.04026 6.36758 6.20608
#
# Compressibility (1/GPa) = 0.02435457
#
# Stress axis : x y z
#
# Youngs Moduli (GPa) = 45.84394 65.17000 79.14516
#
# Poissons Ratio (x) = 0.20446 0.35210
# Poissons Ratio (y) = 0.14383 0.40625
# Poissons Ratio (z) = 0.20395 0.33452
#
# Static dielectric constant tensor:
#      x y z
#    x 3.695280 0.000000 0.000000 
#    y 0.000000 3.821260 0.000000 
#    z 0.000000 0.000000 3.706870 
# 
# 
# High freq. dielectric constant tensor:
#      x y z
#    x 1.808590 0.000000 0.000000 
#    y 0.000000 1.817170 0.000000 
#    z 0.000000 0.000000 1.807970 
# 
# From -- ./inp_files/3171.got.cif
#   From: 2010.03.12/outbox.cif.g09.slc.cpg/sg57_2_cif.got.tgz:3171.got - 2010.04.16 15:48:40.
