data_PCOD8232519
_publ_section_title
;
Structure prediction by ZEFSAII (Michael W. Deem and Ramdas Pophale) SiO2 
 PCOD8232519
Probable space group: P B C M
;
_chemical_formula_sum "Si O2"
_cell_formula_units_Z 64
_cell_length_a 11.978722
_cell_length_b 31.834067
_cell_length_c 8.751582
_cell_angle_alpha 90.000000
_cell_angle_beta 90.000000
_cell_angle_gamma 90.000000
_cell_volume 3337.253355
_symmetry_space_group_name_H-M "P B C M"
_symmetry_group_IT_number 57
_symmetry_cell_setting 'orthorhombic'
loop_
_space_group_symop_operation_xyz
x,y,z
-x,-y,1/2+z
x,1/2-y,-z
-x,1/2+y,1/2-z
-x,-y,-z
x,y,1/2-z
-x,1/2+y,z
x,1/2-y,1/2+z
loop_
_atom_site_type_symbol
_atom_site_label
_atom_site_fract_x
_atom_site_fract_y
_atom_site_fract_z
Si Si1 0.242613 0.930939 0.577156
Si Si2 0.948137 0.128102 0.426157
Si Si3 0.147081 0.415000 0.430492
Si Si4 0.508008 0.046597 0.426985
Si Si5 0.646536 0.622250 0.431038
Si Si6 0.120102 0.497299 0.927429
Si Si7 0.944632 0.706873 0.570307
Si Si8 0.686375 0.794091 0.069796
O O1 0.218985 0.947370 0.750000
O O2 0.182607 0.885431 0.556932
O O3 0.374043 0.930229 0.545758
O O4 0.189783 0.960903 0.450728
O O5 0.983570 0.130917 0.250000
O O6 0.021628 0.092221 0.509297
O O7 0.971302 0.172051 0.506330
O O8 0.152820 0.408996 0.250000
O O9 0.226821 0.381621 0.511193
O O10 0.187090 0.460940 0.483223
O O11 0.482715 0.039179 0.250000
O O12 0.422296 0.081624 0.494229
O O13 0.500000 0.000000 0.500000
O O14 0.636807 0.624510 0.250000
O O15 0.611104 0.667644 0.500585
O O16 0.110476 0.486402 0.750000
O O17 0.000000 0.500000 0.000000
O O18 0.988371 0.750000 0.500000
O O19 0.957645 0.708060 0.750000
O O20 0.816142 0.698931 0.523529
O O21 0.669532 0.792755 0.250000
O O22 0.643721 0.750000 0.000000
#
# Coordination Sequence:
#
# PCOD8232519 Si02
#       8
#     8   8   8   8   8   8   8   8
#     4  10  22  40  59  81 112 149 191 237 286 339
#     4  11  21  34  56  82 113 149 186 230 285 342
#     4  12  23  35  52  79 114 149 188 232 281 337
#     4  10  23  42  62  85 113 153 201 250 298 349
#     4  11  22  37  59  85 116 153 195 241 293 349
#     4  12  23  35  52  77 109 145 185 229 280 333
#     4  10  20  34  54  82 119 155 189 228 282 344
#     4  10  20  34  55  85 120 155 190 236 294 350
#
# _framework density 19.177447999999998
#
# number of rings (size 3 to 8) (size 9 to 14) (size 15 to 20)
#    0.000    1.250    2.500    4.500    0.000    5.000 
#    0.000    0.000    0.000    0.750    0.000    0.000 
#    0.000    0.000    0.000    0.000    0.000    0.000 
#
# Total GULP energy -793374.096325 kJ/mol
# GULP energy per Si atom -12396.470255 kJ/mol
# Density = 1.913380 g / cm^3
# Si number density = 19.177448 Si / 1000 Ang^3
#
#
#
# Elastic Constant Matrix: (Units=GPa)
#
#
# Indices 1 2 3 4 5 6 
#
# 1 67.5319 38.4481 28.5825 0.0000 0.0000 0.0000
# 2 38.4481 153.5859 56.0489 0.0000 0.0000 0.0000
# 3 28.5825 56.0489 82.8313 0.0000 0.0000 0.0000
# 4 0.0000 0.0000 0.0000 37.6956 0.0000 0.0000
# 5 0.0000 0.0000 0.0000 0.0000 18.8394 0.0000
# 6 0.0000 0.0000 0.0000 0.0000 0.0000 30.5976
#
#
#
# Elastic Compliance Matrix: (Units=1/GPa)
#
#
# Indices 1 2 3 4 5 6 
#
# 1 0.018344 -0.003031 -0.004279 0.000000 0.000000 0.000000
# 2 -0.003031 0.009147 -0.005143 0.000000 0.000000 0.000000
# 3 -0.004279 -0.005143 0.017030 0.000000 0.000000 0.000000
# 4 0.000000 0.000000 0.000000 0.026528 0.000000 0.000000
# 5 0.000000 0.000000 0.000000 0.000000 0.053080 0.000000
# 6 0.000000 0.000000 0.000000 0.000000 0.000000 0.032682
#
#
# Mechanical properties :
#
#
# Convention : Reuss Voigt Hill
#
# Bulk Modulus (GPa) = 50.98386 61.12311 56.05348
# Shear Modulus (GPa) = 26.55946 29.48450 28.02198
#
# Velocity S-wave (km/s) = 3.72550 3.92530 3.82670
# Velocity P-wave (km/s) = 6.71929 7.24469 6.98693
#
# Compressibility (1/GPa) = 0.01961405
#
# Stress axis : x y z
#
# Youngs Moduli (GPa) = 54.51238 109.32878 58.72048
#
# Poissons Ratio (x) = 0.33133 0.25129
# Poissons Ratio (y) = 0.16520 0.30203
# Poissons Ratio (z) = 0.23328 0.56233
#
# Static dielectric constant tensor:
#      x y z
#    x 3.394640 0.000000 0.000000 
#    y 0.000000 3.780040 0.000000 
#    z 0.000000 0.000000 3.425400 
# 
# 
# High freq. dielectric constant tensor:
#      x y z
#    x 1.711230 0.000000 0.000000 
#    y 0.000000 1.755230 0.000000 
#    z 0.000000 0.000000 1.754120 
# 
# From -- ./inp_files/3783.got.cif
#   From: 2010.03.12/outbox.cif.g09.slc.cpg/sg57_2_cif.got.tgz:3783.got - 2010.04.16 15:48:40.
