data_PCOD8232742
_publ_section_title
;
Structure prediction by ZEFSAII (Michael W. Deem and Ramdas Pophale) SiO2 
 PCOD8232742
Probable space group: P B C M
;
_chemical_formula_sum "Si O2"
_cell_formula_units_Z 48
_cell_length_a 16.445179
_cell_length_b 18.004697
_cell_length_c 8.714541
_cell_angle_alpha 90.000000
_cell_angle_beta 90.000000
_cell_angle_gamma 90.000000
_cell_volume 2580.292497
_symmetry_space_group_name_H-M "P B C M"
_symmetry_group_IT_number 57
_symmetry_cell_setting 'orthorhombic'
loop_
_space_group_symop_operation_xyz
x,y,z
-x,-y,1/2+z
x,1/2-y,-z
-x,1/2+y,1/2-z
-x,-y,-z
x,y,1/2-z
-x,1/2+y,z
x,1/2-y,1/2+z
loop_
_atom_site_type_symbol
_atom_site_label
_atom_site_fract_x
_atom_site_fract_y
_atom_site_fract_z
Si Si1 0.585954 0.521439 0.567718
Si Si2 0.742603 0.454207 0.067892
Si Si3 0.991360 0.581061 0.069611
Si Si4 0.846871 0.168857 0.431240
Si Si5 0.826145 0.905602 0.431560
Si Si6 0.335070 0.327064 0.070953
O O1 0.500000 0.500000 0.500000
O O2 0.586774 0.513354 0.750000
O O3 0.652565 0.466140 0.498205
O O4 0.606561 0.605909 0.516910
O O5 0.740188 0.457894 0.250000
O O6 0.772697 0.374254 0.010995
O O7 0.805220 0.514870 0.003653
O O8 0.980198 0.573969 0.250000
O O9 0.068358 0.630238 0.024566
O O10 0.912262 0.621550 0.997627
O O11 0.000000 0.500000 0.000000
O O12 0.848424 0.250000 0.500000
O O13 0.832879 0.170875 0.250000
O O14 0.830302 0.916619 0.250000
O O15 0.757584 0.845696 0.478515
O O16 0.340995 0.317294 0.250000
O O17 0.364846 0.250000 0.000000
#
# Coordination Sequence:
#
# PCOD8232742 Si02
#       6
#     8   8   8   8   8   8
#     4  10  21  39  62  90 119 149 190 236 283 343
#     4  11  21  36  60  85 111 148 190 232 285 345
#     4  11  22  35  56  82 112 152 197 242 290 342
#     4  11  24  40  57  81 115 153 195 245 294 342
#     4  10  20  35  55  81 113 149 192 238 282 338
#     4   9  20  36  56  83 117 151 184 232 286 337
#
# _framework density 18.602542
#
# number of rings (size 3 to 8) (size 9 to 14) (size 15 to 20)
#    0.000    1.667    1.667    4.500    0.000    6.667 
#    0.000    4.167    0.000    2.000    0.000    0.000 
#    0.000    0.000    0.000    0.000    0.000    0.000 
#
# Total GULP energy -595336.908796 kJ/mol
# GULP energy per Si atom -12402.852267 kJ/mol
# Density = 1.856020 g / cm^3
# Si number density = 18.602542 Si / 1000 Ang^3
#
#
#
# Elastic Constant Matrix: (Units=GPa)
#
#
# Indices 1 2 3 4 5 6 
#
# 1 142.1540 70.4305 55.7125 0.0000 0.0000 0.0000
# 2 70.4305 136.6165 55.4024 0.0000 0.0000 0.0000
# 3 55.7125 55.4024 100.0383 0.0000 0.0000 0.0000
# 4 0.0000 0.0000 0.0000 32.7914 0.0000 0.0000
# 5 0.0000 0.0000 0.0000 0.0000 35.7243 0.0000
# 6 0.0000 0.0000 0.0000 0.0000 0.0000 25.9368
#
#
#
# Elastic Compliance Matrix: (Units=1/GPa)
#
#
# Indices 1 2 3 4 5 6 
#
# 1 0.010380 -0.003878 -0.003633 0.000000 0.000000 0.000000
# 2 -0.003878 0.010889 -0.003871 0.000000 0.000000 0.000000
# 3 -0.003633 -0.003871 0.014163 0.000000 0.000000 0.000000
# 4 0.000000 0.000000 0.000000 0.030496 0.000000 0.000000
# 5 0.000000 0.000000 0.000000 0.000000 0.027992 0.000000
# 6 0.000000 0.000000 0.000000 0.000000 0.000000 0.038555
#
#
# Mechanical properties :
#
#
# Convention : Reuss Voigt Hill
#
# Bulk Modulus (GPa) = 78.93629 82.43329 80.68479
# Shear Modulus (GPa) = 31.35579 32.04140 31.69859
#
# Velocity S-wave (km/s) = 4.11002 4.15471 4.13242
# Velocity P-wave (km/s) = 8.06524 8.21125 8.13857
#
# Compressibility (1/GPa) = 0.01266844
#
# Stress axis : x y z
#
# Youngs Moduli (GPa) = 96.34161 91.83958 70.60625
#
# Poissons Ratio (x) = 0.35613 0.25651
# Poissons Ratio (y) = 0.37359 0.27329
# Poissons Ratio (z) = 0.35001 0.35548
#
# Static dielectric constant tensor:
#      x y z
#    x 3.240020 0.000000 0.000000 
#    y 0.000000 3.504300 0.000000 
#    z 0.000000 0.000000 3.494360 
# 
# 
# High freq. dielectric constant tensor:
#      x y z
#    x 1.722310 0.000000 0.000000 
#    y 0.000000 1.712950 0.000000 
#    z 0.000000 0.000000 1.736280 
# 
# From -- ./inp_files/4685.got.cif
#   From: 2010.03.12/outbox.cif.g09.slc.cpg/sg57_3_cif.got.tgz:4685.got - 2010.04.16 15:48:40.
