data_PCOD8232001
_publ_section_title
;
Structure prediction by ZEFSAII (Michael W. Deem and Ramdas Pophale) SiO2 
 PCOD8232001
Probable space group: P B C M
;
_chemical_formula_sum "Si O2"
_cell_formula_units_Z 56
_cell_length_a 9.192677
_cell_length_b 21.362675
_cell_length_c 14.148116
_cell_angle_alpha 90.000000
_cell_angle_beta 90.000000
_cell_angle_gamma 90.000000
_cell_volume 2778.409441
_symmetry_space_group_name_H-M "P B C M"
_symmetry_group_IT_number 57
_symmetry_cell_setting 'orthorhombic'
loop_
_space_group_symop_operation_xyz
x,y,z
-x,-y,1/2+z
x,1/2-y,-z
-x,1/2+y,1/2-z
-x,-y,-z
x,y,1/2-z
-x,1/2+y,z
x,1/2-y,1/2+z
loop_
_atom_site_type_symbol
_atom_site_label
_atom_site_fract_x
_atom_site_fract_y
_atom_site_fract_z
Si Si1 0.843903 0.969706 0.489636
Si Si2 0.184813 0.824376 0.143159
Si Si3 0.787696 0.397710 0.539860
Si Si4 0.856485 0.850951 0.142961
Si Si5 0.697147 0.732468 0.361838
Si Si6 0.377042 0.706311 0.138748
Si Si7 0.099513 0.382267 0.638230
O O1 0.846303 0.915771 0.411743
O O2 0.806377 0.939466 0.592356
O O3 0.743792 0.028284 0.457374
O O4 0.000000 0.000000 0.500000
O O5 0.236731 0.842012 0.250000
O O6 0.263143 0.760444 0.108873
O O7 0.011813 0.816062 0.140872
O O8 0.223561 0.879308 0.070517
O O9 0.667781 0.360587 0.597990
O O10 0.944330 0.380807 0.585370
O O11 0.813613 0.867569 0.250000
O O12 0.746404 0.799999 0.097679
O O13 0.690439 0.736589 0.250000
O O14 0.536993 0.719866 0.403071
O O15 0.815071 0.680302 0.389481
O O16 0.381181 0.699373 0.250000
O O17 0.079884 0.392315 0.750000
#
# Coordination Sequence:
#
# PCOD8232001 Si02
#       7
#     8   8   8   8   8   8   8
#     4  10  21  36  53  87 119 149 194 233 282 351
#     4  10  20  36  58  84 116 149 190 244 291 336
#     4  11  21  38  56  88 117 151 194 236 284 354
#     4  10  19  36  61  85 113 149 191 243 293 341
#     4   9  20  38  60  86 114 149 194 241 293 342
#     4  10  21  38  60  86 116 149 190 240 293 345
#     4  10  20  37  61  86 116 152 193 244 293 342
#
# _framework density 20.155417
#
# number of rings (size 3 to 8) (size 9 to 14) (size 15 to 20)
#    0.000    2.000    2.857    1.714    0.000    6.286 
#    5.143    0.714    0.000    0.000    0.000    0.000 
#    0.000    0.000    0.000    0.000    0.000    0.000 
#
# Total GULP energy -693961.820848 kJ/mol
# GULP energy per Si atom -12392.175372 kJ/mol
# Density = 2.010954 g / cm^3
# Si number density = 20.155417 Si / 1000 Ang^3
#
#
#
# Elastic Constant Matrix: (Units=GPa)
#
#
# Indices 1 2 3 4 5 6 
#
# 1 82.3539 66.1816 31.3515 0.0000 0.0000 0.0000
# 2 66.1816 189.6314 65.5325 0.0000 0.0000 0.0000
# 3 31.3515 65.5325 97.1388 0.0000 0.0000 0.0000
# 4 0.0000 0.0000 0.0000 36.4081 0.0000 0.0000
# 5 0.0000 0.0000 0.0000 0.0000 11.7990 0.0000
# 6 0.0000 0.0000 0.0000 0.0000 0.0000 18.4302
#
#
#
# Elastic Compliance Matrix: (Units=1/GPa)
#
#
# Indices 1 2 3 4 5 6 
#
# 1 0.017155 -0.005312 -0.001953 0.000000 0.000000 0.000000
# 2 -0.005312 0.008522 -0.004034 0.000000 0.000000 0.000000
# 3 -0.001953 -0.004034 0.013647 0.000000 0.000000 0.000000
# 4 0.000000 0.000000 0.000000 0.027466 0.000000 0.000000
# 5 0.000000 0.000000 0.000000 0.000000 0.084753 0.000000
# 6 0.000000 0.000000 0.000000 0.000000 0.000000 0.054259
#
#
# Mechanical properties :
#
#
# Convention : Reuss Voigt Hill
#
# Bulk Modulus (GPa) = 59.79401 77.25058 68.52229
# Shear Modulus (GPa) = 21.36976 27.06469 24.21723
#
# Velocity S-wave (km/s) = 3.25968 3.66840 3.47006
# Velocity P-wave (km/s) = 6.62557 7.50690 7.07996
#
# Compressibility (1/GPa) = 0.01672408
#
# Stress axis : x y z
#
# Youngs Moduli (GPa) = 58.29097 117.34929 73.27851
#
# Poissons Ratio (x) = 0.62339 0.14312
# Poissons Ratio (y) = 0.30966 0.29563
# Poissons Ratio (z) = 0.11384 0.47343
#
# Static dielectric constant tensor:
#      x y z
#    x 3.658190 0.000000 0.000000 
#    y 0.000000 2.342320 0.000000 
#    z 0.000000 0.000000 3.913330 
# 
# 
# High freq. dielectric constant tensor:
#      x y z
#    x 1.758920 0.000000 0.000000 
#    y 0.000000 1.788470 0.000000 
#    z 0.000000 0.000000 1.801700 
# 
# From -- ./inp_files/16689.got.cif
#   From: 2010.03.12/outbox.cif.g09.slc.cpg/sg57_9_cif.got.tgz:16689.got - 2010.04.16 15:48:40.
