data_PCOD8232550
_publ_section_title
;
Structure prediction by ZEFSAII (Michael W. Deem and Ramdas Pophale) SiO2 
 PCOD8232550
Probable space group: P B C M
;
_chemical_formula_sum "Si O2"
_cell_formula_units_Z 48
_cell_length_a 28.995597
_cell_length_b 8.886916
_cell_length_c 9.120645
_cell_angle_alpha 90.000000
_cell_angle_beta 90.000000
_cell_angle_gamma 90.000000
_cell_volume 2350.220891
_symmetry_space_group_name_H-M "P B C M"
_symmetry_group_IT_number 57
_symmetry_cell_setting 'orthorhombic'
loop_
_space_group_symop_operation_xyz
x,y,z
-x,-y,1/2+z
x,1/2-y,-z
-x,1/2+y,1/2-z
-x,-y,-z
x,y,1/2-z
-x,1/2+y,z
x,1/2-y,1/2+z
loop_
_atom_site_type_symbol
_atom_site_label
_atom_site_fract_x
_atom_site_fract_y
_atom_site_fract_z
Si Si1 0.139555 0.091366 0.420702
Si Si2 0.961426 0.906754 0.580331
Si Si3 0.699000 0.404425 0.415227
Si Si4 0.533916 0.918237 0.750000
Si Si5 0.403577 0.573362 0.523534
Si Si6 0.774057 0.911817 0.073832
Si Si7 0.561969 0.931864 0.250000
O O1 0.133776 0.250000 0.500000
O O2 0.153837 0.111896 0.250000
O O3 0.089153 0.012111 0.431823
O O4 0.180246 0.001015 0.509558
O O5 0.959364 0.750000 0.500000
O O6 0.974854 0.883833 0.750000
O O7 0.000000 0.000000 0.500000
O O8 0.703205 0.250000 0.500000
O O9 0.719144 0.392265 0.250000
O O10 0.645716 0.452881 0.400914
O O11 0.726915 0.520502 0.513621
O O12 0.544319 0.739791 0.750000
O O13 0.554491 0.002646 0.888352
O O14 0.479391 0.946272 0.750000
O O15 0.413405 0.750000 0.500000
O O16 0.403453 0.471471 0.380108
O O17 0.773660 0.908552 0.250000
O O18 0.777729 0.750000 0.000000
#
# Coordination Sequence:
#
# PCOD8232550 Si02
#       7
#     8   8   8   4   8   8   4
#     4   9  17  32  54  81 115 155 201 249 306 364
#     4  10  20  34  55  82 115 156 201 253 307 368
#     4  11  24  43  66  90 123 160 202 248 307 373
#     4  12  24  46  62 100 126 166 210 256 311 364
#     4  11  24  43  67  91 125 167 208 253 310 373
#     4  11  22  37  61  91 123 158 201 251 303 357
#     4  12  26  40  70  92 132 164 208 260 307 370
#
# _framework density 20.423611999999999
#
# number of rings (size 3 to 8) (size 9 to 14) (size 15 to 20)
#    0.000    1.333    0.833    6.500    4.667    3.333 
#    0.000    0.833    0.000    4.000    0.000    0.000 
#    0.000    0.000    0.000    0.000    0.000    0.000 
#
# Total GULP energy -594736.048415 kJ/mol
# GULP energy per Si atom -12390.334342 kJ/mol
# Density = 2.037713 g / cm^3
# Si number density = 20.423612 Si / 1000 Ang^3
#
#
#
# Elastic Constant Matrix: (Units=GPa)
#
#
# Indices 1 2 3 4 5 6 
#
# 1 91.9098 38.9143 45.6508 0.0000 0.0000 0.0000
# 2 38.9143 75.1523 31.2343 0.0000 0.0000 0.0000
# 3 45.6508 31.2343 182.6876 0.0000 0.0000 0.0000
# 4 0.0000 0.0000 0.0000 26.8608 0.0000 0.0000
# 5 0.0000 0.0000 0.0000 0.0000 39.6946 0.0000
# 6 0.0000 0.0000 0.0000 0.0000 0.0000 29.1292
#
#
#
# Elastic Compliance Matrix: (Units=1/GPa)
#
#
# Indices 1 2 3 4 5 6 
#
# 1 0.015006 -0.006687 -0.002607 0.000000 0.000000 0.000000
# 2 -0.006687 0.017304 -0.001288 0.000000 0.000000 0.000000
# 3 -0.002607 -0.001288 0.006345 0.000000 0.000000 0.000000
# 4 0.000000 0.000000 0.000000 0.037229 0.000000 0.000000
# 5 0.000000 0.000000 0.000000 0.000000 0.025192 0.000000
# 6 0.000000 0.000000 0.000000 0.000000 0.000000 0.034330
#
#
# Mechanical properties :
#
#
# Convention : Reuss Voigt Hill
#
# Bulk Modulus (GPa) = 57.16443 64.59426 60.87935
# Shear Modulus (GPa) = 30.78826 34.73360 32.76093
#
# Velocity S-wave (km/s) = 3.88684 4.12838 4.00943
# Velocity P-wave (km/s) = 6.94216 7.37703 7.16290
#
# Compressibility (1/GPa) = 0.01749339
#
# Stress axis : x y z
#
# Youngs Moduli (GPa) = 66.63954 57.79018 157.59741
#
# Poissons Ratio (x) = 0.38644 0.41078
# Poissons Ratio (y) = 0.44562 0.20291
# Poissons Ratio (z) = 0.17370 0.07441
#
# Static dielectric constant tensor:
#      x y z
#    x 4.795740 0.000000 0.000000 
#    y 0.000000 2.520610 0.000000 
#    z 0.000000 0.000000 3.902140 
# 
# 
# High freq. dielectric constant tensor:
#      x y z
#    x 1.818550 0.000000 0.000000 
#    y 0.000000 1.761160 0.000000 
#    z 0.000000 0.000000 1.823850 
# 
# From -- ./inp_files/10119.got.cif
#   From: 2010.03.12/outbox.cif.g09.slc.cpg/sg57_6_cif.got.tgz:10119.got - 2010.04.16 15:48:40.
