data_PCOD8232875
_publ_section_title
;
Structure prediction by ZEFSAII (Michael W. Deem and Ramdas Pophale) SiO2 
 PCOD8232875
Probable space group: P B C M
;
_chemical_formula_sum "Si O2"
_cell_formula_units_Z 64
_cell_length_a 24.279524
_cell_length_b 14.856548
_cell_length_c 8.527936
_cell_angle_alpha 90.000000
_cell_angle_beta 90.000000
_cell_angle_gamma 90.000000
_cell_volume 3076.111059
_symmetry_space_group_name_H-M "P B C M"
_symmetry_group_IT_number 57
_symmetry_cell_setting 'orthorhombic'
loop_
_space_group_symop_operation_xyz
x,y,z
-x,-y,1/2+z
x,1/2-y,-z
-x,1/2+y,1/2-z
-x,-y,-z
x,y,1/2-z
-x,1/2+y,z
x,1/2-y,1/2+z
loop_
_atom_site_type_symbol
_atom_site_label
_atom_site_fract_x
_atom_site_fract_y
_atom_site_fract_z
Si Si1 0.371650 0.017126 0.930205
Si Si2 0.773377 0.162171 0.935621
Si Si3 0.940123 0.986357 0.930766
Si Si4 0.152309 0.351208 0.563211
Si Si5 0.539433 0.655086 0.935742
Si Si6 0.584246 0.155832 0.933545
Si Si7 0.750558 0.526583 0.931175
Si Si8 0.891440 0.160050 0.068457
O O1 0.384816 0.997220 0.750000
O O2 0.418327 0.081404 0.004298
O O3 0.311710 0.064347 0.947787
O O4 0.373532 0.921781 0.018089
O O5 0.785531 0.168728 0.750000
O O6 0.738648 0.250000 0.000000
O O7 0.826791 0.168280 0.046476
O O8 0.746624 0.066571 0.973180
O O9 0.948297 0.968574 0.750000
O O10 0.903050 0.903227 0.997288
O O11 0.907714 0.077008 0.961427
O O12 0.000000 0.000000 0.000000
O O13 0.151039 0.250000 0.500000
O O14 0.154809 0.350336 0.750000
O O15 0.206514 0.402619 0.502454
O O16 0.542464 0.657030 0.750000
O O17 0.477589 0.633973 0.996506
O O18 0.559954 0.750000 0.000000
O O19 0.583498 0.165441 0.750000
O O20 0.606017 0.250000 0.000000
O O21 0.766409 0.509356 0.750000
O O22 0.907747 0.145769 0.250000
O O23 0.920964 0.250000 0.000000
#
# Coordination Sequence:
#
# PCOD8232875 Si02
#       8
#     8   8   8   8   8   8   8   8
#     4  10  22  38  57  85 120 155 198 252 303 359
#     4  11  21  36  59  87 117 152 195 242 296 359
#     4  11  24  42  65  95 129 165 206 253 306 361
#     4  11  25  45  69  93 124 165 210 255 303 360
#     4   9  19  36  57  83 115 152 197 249 304 362
#     4  10  20  35  58  85 116 157 199 245 304 367
#     4  11  23  40  62  88 121 162 205 252 307 362
#     4  11  21  36  61  90 122 158 195 241 296 356
#
# _framework density 20.805492000000001
#
# number of rings (size 3 to 8) (size 9 to 14) (size 15 to 20)
#    0.000    1.500    1.250    4.875    0.000    5.000 
#    0.000    2.500    0.000    0.000    0.000    0.000 
#    0.000    0.000    0.000    0.000    0.000    0.000 
#
# Total GULP energy -793311.010342 kJ/mol
# GULP energy per Si atom -12395.484537 kJ/mol
# Density = 2.075814 g / cm^3
# Si number density = 20.805492 Si / 1000 Ang^3
#
#
#
# Elastic Constant Matrix: (Units=GPa)
#
#
# Indices 1 2 3 4 5 6 
#
# 1 104.5327 58.4063 32.4758 0.0000 0.0000 0.0000
# 2 58.4063 147.7896 31.7613 0.0000 0.0000 0.0000
# 3 32.4758 31.7613 71.6242 0.0000 0.0000 0.0000
# 4 0.0000 0.0000 0.0000 38.1625 0.0000 0.0000
# 5 0.0000 0.0000 0.0000 0.0000 25.0352 0.0000
# 6 0.0000 0.0000 0.0000 0.0000 0.0000 12.2184
#
#
#
# Elastic Compliance Matrix: (Units=1/GPa)
#
#
# Indices 1 2 3 4 5 6 
#
# 1 0.013276 -0.004369 -0.004082 0.000000 0.000000 0.000000
# 2 -0.004369 0.008917 -0.001973 0.000000 0.000000 0.000000
# 3 -0.004082 -0.001973 0.016688 0.000000 0.000000 0.000000
# 4 0.000000 0.000000 0.000000 0.026204 0.000000 0.000000
# 5 0.000000 0.000000 0.000000 0.000000 0.039944 0.000000
# 6 0.000000 0.000000 0.000000 0.000000 0.000000 0.081844
#
#
# Mechanical properties :
#
#
# Convention : Reuss Voigt Hill
#
# Bulk Modulus (GPa) = 55.45776 63.24812 59.35294
# Shear Modulus (GPa) = 23.39384 28.50342 25.94863
#
# Velocity S-wave (km/s) = 3.35686 3.70536 3.53540
# Velocity P-wave (km/s) = 6.46048 6.98369 6.72718
#
# Compressibility (1/GPa) = 0.01803174
#
# Stress axis : x y z
#
# Youngs Moduli (GPa) = 75.32455 112.14306 59.92479
#
# Poissons Ratio (x) = 0.48999 0.24461
# Poissons Ratio (y) = 0.32912 0.11824
# Poissons Ratio (z) = 0.30747 0.22127
#
# Static dielectric constant tensor:
#      x y z
#    x 3.583090 0.000000 0.000000 
#    y 0.000000 3.524280 0.000000 
#    z 0.000000 0.000000 3.640780 
# 
# 
# High freq. dielectric constant tensor:
#      x y z
#    x 1.808560 0.000000 0.000000 
#    y 0.000000 1.822000 0.000000 
#    z 0.000000 0.000000 1.816530 
# 
# From -- ./inp_files/9505.got.cif
#   From: 2010.03.12/outbox.cif.g09.slc.cpg/sg57_5_cif.got.tgz:9505.got - 2010.04.16 15:48:40.
