data_PCOD8232609
_publ_section_title
;
Structure prediction by ZEFSAII (Michael W. Deem and Ramdas Pophale) SiO2 
 PCOD8232609
Probable space group: P B C M
;
_chemical_formula_sum "Si O2"
_cell_formula_units_Z 48
_cell_length_a 14.538365
_cell_length_b 18.646427
_cell_length_c 9.065803
_cell_angle_alpha 90.000000
_cell_angle_beta 90.000000
_cell_angle_gamma 90.000000
_cell_volume 2457.635496
_symmetry_space_group_name_H-M "P B C M"
_symmetry_group_IT_number 57
_symmetry_cell_setting 'orthorhombic'
loop_
_space_group_symop_operation_xyz
x,y,z
-x,-y,1/2+z
x,1/2-y,-z
-x,1/2+y,1/2-z
-x,-y,-z
x,y,1/2-z
-x,1/2+y,z
x,1/2-y,1/2+z
loop_
_atom_site_type_symbol
_atom_site_label
_atom_site_fract_x
_atom_site_fract_y
_atom_site_fract_z
Si Si1 0.472560 0.825448 0.920058
Si Si2 0.380658 0.080467 0.581749
Si Si3 0.309426 0.928117 0.919761
Si Si4 0.878793 0.057967 0.578573
Si Si5 0.210706 0.319603 0.419945
Si Si6 0.944405 0.898651 0.921723
O O1 0.494218 0.811856 0.750000
O O2 0.370909 0.857499 0.943546
O O3 0.481704 0.750000 0.000000
O O4 0.545770 0.882661 0.977381
O O5 0.414682 0.088250 0.750000
O O6 0.281282 0.115772 0.559839
O O7 0.369876 0.997510 0.535180
O O8 0.277403 0.936398 0.750000
O O9 0.221431 0.919694 0.023013
O O10 0.887681 0.076864 0.750000
O O11 0.953737 0.103673 0.489388
O O12 0.895500 0.974396 0.548296
O O13 0.253121 0.250000 0.500000
O O14 0.192205 0.302065 0.250000
O O15 0.114592 0.338317 0.497114
O O16 0.950845 0.880599 0.750000
#
# Coordination Sequence:
#
# PCOD8232609 Si02
#       6
#     8   8   8   8   8   8
#     4  11  24  40  60  84 117 156 195 239 292 350
#     4  10  21  38  61  87 116 150 193 244 296 349
#     4  10  21  39  61  88 117 151 194 245 295 345
#     4  10  20  34  58  88 115 148 189 238 289 342
#     4  11  22  36  56  83 119 157 194 241 294 352
#     4  10  20  35  56  83 116 152 191 235 286 345
#
# _framework density 19.530968000000001
#
# number of rings (size 3 to 8) (size 9 to 14) (size 15 to 20)
#    0.000    1.667    1.667    3.000    0.000    6.000 
#    0.000    0.833    0.000    2.000    0.000    0.000 
#    0.000    0.000    0.000    0.000    0.000    0.000 
#
# Total GULP energy -595467.804077 kJ/mol
# GULP energy per Si atom -12405.579252 kJ/mol
# Density = 1.948651 g / cm^3
# Si number density = 19.530968 Si / 1000 Ang^3
#
#
#
# Elastic Constant Matrix: (Units=GPa)
#
#
# Indices 1 2 3 4 5 6 
#
# 1 90.5012 10.5825 51.2949 0.0000 0.0000 0.0000
# 2 10.5825 43.0259 20.8250 0.0000 0.0000 0.0000
# 3 51.2949 20.8250 112.8640 0.0000 0.0000 0.0000
# 4 0.0000 0.0000 0.0000 28.2399 0.0000 0.0000
# 5 0.0000 0.0000 0.0000 0.0000 38.0687 0.0000
# 6 0.0000 0.0000 0.0000 0.0000 0.0000 19.5520
#
#
#
# Elastic Compliance Matrix: (Units=1/GPa)
#
#
# Indices 1 2 3 4 5 6 
#
# 1 0.014891 -0.000425 -0.006689 0.000000 0.000000 0.000000
# 2 -0.000425 0.025533 -0.004518 0.000000 0.000000 0.000000
# 3 -0.006689 -0.004518 0.012734 0.000000 0.000000 0.000000
# 4 0.000000 0.000000 0.000000 0.035411 0.000000 0.000000
# 5 0.000000 0.000000 0.000000 0.000000 0.026268 0.000000
# 6 0.000000 0.000000 0.000000 0.000000 0.000000 0.051146
#
#
# Mechanical properties :
#
#
# Convention : Reuss Voigt Hill
#
# Bulk Modulus (GPa) = 33.45212 45.75509 39.60361
# Shear Modulus (GPa) = 25.09898 28.08470 26.59184
#
# Velocity S-wave (km/s) = 3.58870 3.79615 3.69388
# Velocity P-wave (km/s) = 5.85974 6.53393 6.20600
#
# Compressibility (1/GPa) = 0.02989347
#
# Stress axis : x y z
#
# Youngs Moduli (GPa) = 67.15660 39.16483 78.53004
#
# Poissons Ratio (x) = 0.01664 0.52530
# Poissons Ratio (y) = 0.02853 0.35481
# Poissons Ratio (z) = 0.44922 0.17695
#
# Static dielectric constant tensor:
#      x y z
#    x 3.462060 0.000000 0.000000 
#    y 0.000000 3.456460 0.000000 
#    z 0.000000 0.000000 3.633840 
# 
# 
# High freq. dielectric constant tensor:
#      x y z
#    x 1.762320 0.000000 0.000000 
#    y 0.000000 1.749800 0.000000 
#    z 0.000000 0.000000 1.770670 
# 
# From -- ./inp_files/4640.got.cif
#   From: 2010.03.12/outbox.cif.g09.slc.cpg/sg57_3_cif.got.tgz:4640.got - 2010.04.16 15:48:40.
