data_PCOD8232983
_publ_section_title
;
Structure prediction by ZEFSAII (Michael W. Deem and Ramdas Pophale) SiO2 
 PCOD8232983
Probable space group: P B C M
;
_chemical_formula_sum "Si O2"
_cell_formula_units_Z 56
_cell_length_a 23.406846
_cell_length_b 14.379405
_cell_length_c 9.215068
_cell_angle_alpha 90.000000
_cell_angle_beta 90.000000
_cell_angle_gamma 90.000000
_cell_volume 3101.575504
_symmetry_space_group_name_H-M "P B C M"
_symmetry_group_IT_number 57
_symmetry_cell_setting 'orthorhombic'
loop_
_space_group_symop_operation_xyz
x,y,z
-x,-y,1/2+z
x,1/2-y,-z
-x,1/2+y,1/2-z
-x,-y,-z
x,y,1/2-z
-x,1/2+y,z
x,1/2-y,1/2+z
loop_
_atom_site_type_symbol
_atom_site_label
_atom_site_fract_x
_atom_site_fract_y
_atom_site_fract_z
Si Si1 0.150840 0.652225 0.419296
Si Si2 0.059929 0.501586 0.078326
Si Si3 0.570773 0.153942 0.419127
Si Si4 0.853039 0.846407 0.082860
Si Si5 0.241791 0.003305 0.583096
Si Si6 0.642161 0.495941 0.078210
Si Si7 0.557193 0.843996 0.583512
O O1 0.154278 0.750000 0.500000
O O2 0.147751 0.673986 0.250000
O O3 0.094842 0.594109 0.467999
O O4 0.206388 0.589893 0.454523
O O5 0.051156 0.501205 0.250000
O O6 0.094000 0.409321 0.028971
O O7 0.000000 0.500000 0.000000
O O8 0.575651 0.250000 0.500000
O O9 0.585163 0.165816 0.250000
O O10 0.618065 0.091158 0.492685
O O11 0.506470 0.114888 0.442757
O O12 0.860982 0.821742 0.250000
O O13 0.795549 0.904717 0.057629
O O14 0.850382 0.750000 0.000000
O O15 0.262887 0.999147 0.750000
O O16 0.293495 0.012535 0.471640
O O17 0.639531 0.478483 0.250000
O O18 0.603603 0.582573 0.029810
O O19 0.568612 0.750000 0.500000
O O20 0.566082 0.819038 0.750000
#
# Coordination Sequence:
#
# PCOD8232983 Si02
#       7
#     8   8   8   8   8   8   8
#     4   9  19  36  56  76 102 136 174 212 254 301
#     4   9  19  35  53  78 110 140 170 209 253 302
#     4  10  20  36  56  77 103 137 173 212 260 314
#     4   9  19  36  56  76 103 139 177 215 259 306
#     4   9  20  38  54  72 102 139 175 214 259 308
#     4  11  22  35  53  80 108 135 172 217 263 314
#     4   9  20  36  54  77 105 136 172 213 259 313
#
# _framework density 18.055340999999999
#
# number of rings (size 3 to 8) (size 9 to 14) (size 15 to 20)
#    0.000    2.571    0.000    3.000    0.000    5.714 
#    0.000   10.000    0.000    0.000    0.000    0.000 
#    0.000    0.000    0.000    0.000    0.000    0.000 
#
# Total GULP energy -694329.780343 kJ/mol
# GULP energy per Si atom -12398.746078 kJ/mol
# Density = 1.801425 g / cm^3
# Si number density = 18.055341 Si / 1000 Ang^3
#
#
#
# Elastic Constant Matrix: (Units=GPa)
#
#
# Indices 1 2 3 4 5 6 
#
# 1 106.7490 44.8031 45.3147 0.0000 0.0000 0.0000
# 2 44.8031 111.7237 48.3167 0.0000 0.0000 0.0000
# 3 45.3147 48.3167 70.6283 0.0000 0.0000 0.0000
# 4 0.0000 0.0000 0.0000 37.8036 0.0000 0.0000
# 5 0.0000 0.0000 0.0000 0.0000 36.9739 0.0000
# 6 0.0000 0.0000 0.0000 0.0000 0.0000 32.4683
#
#
#
# Elastic Compliance Matrix: (Units=1/GPa)
#
#
# Indices 1 2 3 4 5 6 
#
# 1 0.013288 -0.002332 -0.006931 0.000000 0.000000 0.000000
# 2 -0.002332 0.013120 -0.007480 0.000000 0.000000 0.000000
# 3 -0.006931 -0.007480 0.023722 0.000000 0.000000 0.000000
# 4 0.000000 0.000000 0.000000 0.026453 0.000000 0.000000
# 5 0.000000 0.000000 0.000000 0.000000 0.027046 0.000000
# 6 0.000000 0.000000 0.000000 0.000000 0.000000 0.030799
#
#
# Mechanical properties :
#
#
# Convention : Reuss Voigt Hill
#
# Bulk Modulus (GPa) = 60.07104 62.88557 61.47831
# Shear Modulus (GPa) = 28.82476 31.49359 30.15917
#
# Velocity S-wave (km/s) = 3.99992 4.18099 4.09145
# Velocity P-wave (km/s) = 7.39427 7.62971 7.51291
#
# Compressibility (1/GPa) = 0.01664696
#
# Stress axis : x y z
#
# Youngs Moduli (GPa) = 75.25339 76.21741 42.15456
#
# Poissons Ratio (x) = 0.17771 0.29216
# Poissons Ratio (y) = 0.17546 0.31530
# Poissons Ratio (z) = 0.52156 0.57008
#
# Static dielectric constant tensor:
#      x y z
#    x 3.446430 0.000000 0.000000 
#    y 0.000000 3.252190 0.000000 
#    z 0.000000 0.000000 3.272500 
# 
# 
# High freq. dielectric constant tensor:
#      x y z
#    x 1.702280 0.000000 0.000000 
#    y 0.000000 1.703240 0.000000 
#    z 0.000000 0.000000 1.699780 
# 
# From -- ./inp_files/8011.got.cif
#   From: 2010.03.12/outbox.cif.g09.slc.cpg/sg57_5_cif.got.tgz:8011.got - 2010.04.16 15:48:40.
