data_PCOD8232289
_publ_section_title
;
Structure prediction by ZEFSAII (Michael W. Deem and Ramdas Pophale) SiO2 
 PCOD8232289
Probable space group: P B C M
;
_chemical_formula_sum "Si O2"
_cell_formula_units_Z 64
_cell_length_a 19.981137
_cell_length_b 19.842706
_cell_length_c 9.136302
_cell_angle_alpha 90.000000
_cell_angle_beta 90.000000
_cell_angle_gamma 90.000000
_cell_volume 3622.359437
_symmetry_space_group_name_H-M "P B C M"
_symmetry_group_IT_number 57
_symmetry_cell_setting 'orthorhombic'
loop_
_space_group_symop_operation_xyz
x,y,z
-x,-y,1/2+z
x,1/2-y,-z
-x,1/2+y,1/2-z
-x,-y,-z
x,y,1/2-z
-x,1/2+y,z
x,1/2-y,1/2+z
loop_
_atom_site_type_symbol
_atom_site_label
_atom_site_fract_x
_atom_site_fract_y
_atom_site_fract_z
Si Si1 0.193478 0.041082 0.917758
Si Si2 0.438579 0.463163 0.576606
Si Si3 0.794870 0.688331 0.580257
Si Si4 0.677521 0.460532 0.920223
Si Si5 0.064501 0.190726 0.417854
Si Si6 0.368451 0.815448 0.579724
Si Si7 0.522133 0.815703 0.579864
Si Si8 0.055453 0.459036 0.916766
O O1 0.168577 0.040004 0.750000
O O2 0.232423 0.112519 0.947850
O O3 0.246115 0.981914 0.949299
O O4 0.129150 0.029768 0.018161
O O5 0.500000 0.500000 0.500000
O O6 0.445651 0.473322 0.750000
O O7 0.369612 0.493658 0.519825
O O8 0.438573 0.383656 0.536206
O O9 0.754387 0.750000 0.500000
O O10 0.796533 0.706424 0.750000
O O11 0.868357 0.686165 0.512141
O O12 0.657044 0.470076 0.750000
O O13 0.671804 0.382406 0.966669
O O14 0.021335 0.250000 0.500000
O O15 0.079126 0.210514 0.250000
O O16 0.029779 0.118166 0.426749
O O17 0.337613 0.750000 0.500000
O O18 0.361834 0.801500 0.750000
O O19 0.445224 0.826452 0.532043
O O20 0.553002 0.750000 0.500000
O O21 0.528061 0.800827 0.750000
O O22 0.058976 0.483419 0.750000
O O23 0.000000 0.500000 0.000000
#
# Coordination Sequence:
#
# PCOD8232289 Si02
#       8
#     8   8   8   8   8   8   8   8
#     4   9  19  34  52  73 101 135 171 208 254 305
#     4  11  21  34  52  76 103 132 169 211 255 304
#     4   9  15  25  43  67  92 125 163 199 238 287
#     4  10  20  36  54  75 104 137 170 210 258 310
#     4   9  16  26  43  69  97 126 158 200 245 289
#     4   9  17  31  50  73  99 127 166 212 256 303
#     4   9  18  32  49  72 100 131 169 212 256 302
#     4  10  20  33  52  77 105 134 170 211 255 304
#
# _framework density 17.668042
#
# number of rings (size 3 to 8) (size 9 to 14) (size 15 to 20)
#    0.000    2.500    1.250    2.250    0.000    4.000 
#    0.000    0.625    0.000    3.750    0.000    1.750 
#    0.000    0.000    0.000    0.000    0.000    0.000 
#
# Total GULP energy -793113.106424 kJ/mol
# GULP energy per Si atom -12392.392288 kJ/mol
# Density = 1.762783 g / cm^3
# Si number density = 17.668042 Si / 1000 Ang^3
#
#
#
# Elastic Constant Matrix: (Units=GPa)
#
#
# Indices 1 2 3 4 5 6 
#
# 1 56.2532 50.1502 39.0587 0.0000 0.0000 0.0000
# 2 50.1502 156.1893 68.6797 0.0000 0.0000 0.0000
# 3 39.0587 68.6797 101.6398 0.0000 0.0000 0.0000
# 4 0.0000 0.0000 0.0000 34.3686 0.0000 0.0000
# 5 0.0000 0.0000 0.0000 0.0000 20.0919 0.0000
# 6 0.0000 0.0000 0.0000 0.0000 0.0000 23.4362
#
#
#
# Elastic Compliance Matrix: (Units=1/GPa)
#
#
# Indices 1 2 3 4 5 6 
#
# 1 0.027699 -0.005994 -0.006594 0.000000 0.000000 0.000000
# 2 -0.005994 0.010406 -0.004728 0.000000 0.000000 0.000000
# 3 -0.006594 -0.004728 0.015567 0.000000 0.000000 0.000000
# 4 0.000000 0.000000 0.000000 0.029096 0.000000 0.000000
# 5 0.000000 0.000000 0.000000 0.000000 0.049771 0.000000
# 6 0.000000 0.000000 0.000000 0.000000 0.000000 0.042669
#
#
# Mechanical properties :
#
#
# Convention : Reuss Voigt Hill
#
# Bulk Modulus (GPa) = 52.52063 69.98440 61.25252
# Shear Modulus (GPa) = 23.12790 25.99225 24.56008
#
# Velocity S-wave (km/s) = 3.62197 3.83971 3.73243
# Velocity P-wave (km/s) = 6.87622 7.70419 7.30195
#
# Compressibility (1/GPa) = 0.01904014
#
# Stress axis : x y z
#
# Youngs Moduli (GPa) = 36.10215 96.09612 64.23646
#
# Poissons Ratio (x) = 0.57603 0.42357
# Poissons Ratio (y) = 0.21641 0.30372
# Poissons Ratio (z) = 0.23805 0.45436
#
# Static dielectric constant tensor:
#      x y z
#    x 2.813160 0.000000 0.000000 
#    y 0.000000 4.236560 0.000000 
#    z 0.000000 0.000000 3.438920 
# 
# 
# High freq. dielectric constant tensor:
#      x y z
#    x 1.627610 0.000000 0.000000 
#    y 0.000000 1.702940 0.000000 
#    z 0.000000 0.000000 1.692420 
# 
# From -- ./inp_files/7135.got.cif
#   From: 2010.03.12/outbox.cif.g09.slc.cpg/sg57_4_cif.got.tgz:7135.got - 2010.04.16 15:48:40.
