data_PCOD8232064
_publ_section_title
;
Structure prediction by ZEFSAII (Michael W. Deem and Ramdas Pophale) SiO2 
 PCOD8232064
Probable space group: P B C M
;
_chemical_formula_sum "Si O2"
_cell_formula_units_Z 56
_cell_length_a 15.017127
_cell_length_b 8.773380
_cell_length_c 21.389695
_cell_angle_alpha 90.000000
_cell_angle_beta 90.000000
_cell_angle_gamma 90.000000
_cell_volume 2818.112886
_symmetry_space_group_name_H-M "P B C M"
_symmetry_group_IT_number 57
_symmetry_cell_setting 'orthorhombic'
loop_
_space_group_symop_operation_xyz
x,y,z
-x,-y,1/2+z
x,1/2-y,-z
-x,1/2+y,1/2-z
-x,-y,-z
x,y,1/2-z
-x,1/2+y,z
x,1/2-y,1/2+z
loop_
_atom_site_type_symbol
_atom_site_label
_atom_site_fract_x
_atom_site_fract_y
_atom_site_fract_z
Si Si1 0.885232 0.656080 0.179071
Si Si2 0.422875 0.840240 0.177490
Si Si3 0.746480 0.452739 0.118023
Si Si4 0.536260 0.443141 0.901919
Si Si5 0.032569 0.053752 0.875299
Si Si6 0.887198 0.262020 0.570504
Si Si7 0.632886 0.913582 0.986156
O O1 0.854183 0.641329 0.250000
O O2 0.803602 0.601420 0.136062
O O3 0.906657 0.832597 0.165230
O O4 0.971019 0.548132 0.169676
O O5 0.441971 0.805932 0.250000
O O6 0.329132 0.927800 0.170347
O O7 0.415914 0.688581 0.136683
O O8 0.504546 0.935786 0.149512
O O9 0.809620 0.304201 0.115026
O O10 0.702500 0.480937 0.050355
O O11 0.454721 0.383220 0.944048
O O12 0.610990 0.508253 0.948029
O O13 0.975625 0.158149 0.922670
O O14 0.095668 0.938765 0.913587
O O15 0.854219 0.250000 0.500000
O O16 0.676765 0.750000 0.000000
#
# Coordination Sequence:
#
# PCOD8232064 Si02
#       7
#     8   8   8   8   8   8   8
#     4  10  19  38  59  85 118 159 199 245 292 349
#     4  11  22  40  59  86 119 155 197 245 295 356
#     4  10  24  35  57  86 121 159 190 243 309 345
#     4  10  21  37  65  86 110 152 198 244 293 348
#     4   9  20  36  60  86 113 151 210 237 287 349
#     4  10  20  36  57  86 116 155 189 246 294 352
#     4  10  20  38  61  88 116 147 197 249 289 353
#
# _framework density 19.871454
#
# number of rings (size 3 to 8) (size 9 to 14) (size 15 to 20)
#    0.000    2.000    1.429    1.714    2.000    1.143 
#    0.000    3.571    0.000    0.000    0.000    0.000 
#    0.000    0.000    0.000    0.000    0.000    0.000 
#
# Total GULP energy -694513.208806 kJ/mol
# GULP energy per Si atom -12402.021586 kJ/mol
# Density = 1.982623 g / cm^3
# Si number density = 19.871454 Si / 1000 Ang^3
#
#
#
# Elastic Constant Matrix: (Units=GPa)
#
#
# Indices 1 2 3 4 5 6 
#
# 1 79.5988 39.0264 33.0280 0.0000 0.0000 0.0000
# 2 39.0264 128.0737 40.4676 0.0000 0.0000 0.0000
# 3 33.0280 40.4676 104.1415 0.0000 0.0000 0.0000
# 4 0.0000 0.0000 0.0000 29.0137 0.0000 0.0000
# 5 0.0000 0.0000 0.0000 0.0000 17.3593 0.0000
# 6 0.0000 0.0000 0.0000 0.0000 0.0000 15.6412
#
#
#
# Elastic Compliance Matrix: (Units=1/GPa)
#
#
# Indices 1 2 3 4 5 6 
#
# 1 0.015869 -0.003699 -0.003595 0.000000 0.000000 0.000000
# 2 -0.003699 0.009763 -0.002621 0.000000 0.000000 0.000000
# 3 -0.003595 -0.002621 0.011761 0.000000 0.000000 0.000000
# 4 0.000000 0.000000 0.000000 0.034466 0.000000 0.000000
# 5 0.000000 0.000000 0.000000 0.000000 0.057606 0.000000
# 6 0.000000 0.000000 0.000000 0.000000 0.000000 0.063934
#
#
# Mechanical properties :
#
#
# Convention : Reuss Voigt Hill
#
# Bulk Modulus (GPa) = 56.93998 59.65090 58.29544
# Shear Modulus (GPa) = 22.82237 25.68898 24.25567
#
# Velocity S-wave (km/s) = 3.39263 3.59939 3.49754
# Velocity P-wave (km/s) = 6.63799 6.88170 6.76094
#
# Compressibility (1/GPa) = 0.01756235
#
# Stress axis : x y z
#
# Youngs Moduli (GPa) = 63.01785 102.42399 85.02827
#
# Poissons Ratio (x) = 0.37892 0.30568
# Poissons Ratio (y) = 0.23313 0.22282
# Poissons Ratio (z) = 0.22655 0.26841
#
# Static dielectric constant tensor:
#      x y z
#    x 3.454150 0.000000 0.000000 
#    y 0.000000 3.698320 0.000000 
#    z 0.000000 0.000000 3.501290 
# 
# 
# High freq. dielectric constant tensor:
#      x y z
#    x 1.761650 0.000000 0.000000 
#    y 0.000000 1.781240 0.000000 
#    z 0.000000 0.000000 1.770470 
# 
# From -- ./inp_files/25391.got.cif
#   From: 2010.03.12/outbox.cif.g09.slc.cpg/sg57_13_cif.got.tgz:25391.got - 2010.04.16 15:48:40.
