data_PCOD8232576
_publ_section_title
;
Structure prediction by ZEFSAII (Michael W. Deem and Ramdas Pophale) SiO2 
 PCOD8232576
Probable space group: P B C M
;
_chemical_formula_sum "Si O2"
_cell_formula_units_Z 48
_cell_length_a 16.306998
_cell_length_b 17.998783
_cell_length_c 8.783104
_cell_angle_alpha 90.000000
_cell_angle_beta 90.000000
_cell_angle_gamma 90.000000
_cell_volume 2577.894762
_symmetry_space_group_name_H-M "P B C M"
_symmetry_group_IT_number 57
_symmetry_cell_setting 'orthorhombic'
loop_
_space_group_symop_operation_xyz
x,y,z
-x,-y,1/2+z
x,1/2-y,-z
-x,1/2+y,1/2-z
-x,-y,-z
x,y,1/2-z
-x,1/2+y,z
x,1/2-y,1/2+z
loop_
_atom_site_type_symbol
_atom_site_label
_atom_site_fract_x
_atom_site_fract_y
_atom_site_fract_z
Si Si1 0.330317 0.402256 0.073106
Si Si2 0.504225 0.918322 0.929552
Si Si3 0.357319 0.671778 0.574104
Si Si4 0.162320 0.171579 0.929337
Si Si5 0.919093 0.967644 0.927191
Si Si6 0.250253 0.536036 0.577057
O O1 0.352229 0.396845 0.250000
O O2 0.256151 0.347720 0.026871
O O3 0.409847 0.379759 0.975780
O O4 0.304728 0.486733 0.036174
O O5 0.497141 0.925276 0.750000
O O6 0.433260 0.865965 0.990884
O O7 0.500000 0.000000 0.000000
O O8 0.335898 0.750000 0.500000
O O9 0.380505 0.682505 0.750000
O O10 0.275918 0.621467 0.554174
O O11 0.149968 0.173410 0.750000
O O12 0.138340 0.250000 0.000000
O O13 0.100967 0.111088 0.997490
O O14 0.933615 0.954639 0.750000
O O15 0.845891 0.026349 0.959025
O O16 0.000000 0.000000 0.000000
O O17 0.269149 0.509737 0.750000
#
# Coordination Sequence:
#
# PCOD8232576 Si02
#       6
#     8   8   8   8   8   8
#     4  10  20  34  56  83 111 146 191 234 281 340
#     4  12  23  36  56  82 113 152 196 242 286 337
#     4  11  23  39  57  81 112 149 191 239 289 338
#     4  10  21  37  58  86 118 152 189 235 289 345
#     4  10  20  37  61  89 117 150 191 235 282 342
#     4   9  19  36  58  80 108 146 188 231 279 337
#
# _framework density 18.619845000000002
#
# number of rings (size 3 to 8) (size 9 to 14) (size 15 to 20)
#    0.000    1.667    1.667    3.500    0.000    4.000 
#    0.000    2.500    0.000    2.000    0.000    0.000 
#    0.000    0.000    0.000    0.000    0.000    0.000 
#
# Total GULP energy -595360.811654 kJ/mol
# GULP energy per Si atom -12403.350243 kJ/mol
# Density = 1.857747 g / cm^3
# Si number density = 18.619845 Si / 1000 Ang^3
#
#
#
# Elastic Constant Matrix: (Units=GPa)
#
#
# Indices 1 2 3 4 5 6 
#
# 1 125.7172 66.8788 57.1749 0.0000 0.0000 0.0000
# 2 66.8788 135.7978 60.5470 0.0000 0.0000 0.0000
# 3 57.1749 60.5470 122.3520 0.0000 0.0000 0.0000
# 4 0.0000 0.0000 0.0000 33.4745 0.0000 0.0000
# 5 0.0000 0.0000 0.0000 0.0000 31.2347 0.0000
# 6 0.0000 0.0000 0.0000 0.0000 0.0000 21.1222
#
#
#
# Elastic Compliance Matrix: (Units=1/GPa)
#
#
# Indices 1 2 3 4 5 6 
#
# 1 0.011774 -0.004293 -0.003378 0.000000 0.000000 0.000000
# 2 -0.004293 0.011014 -0.003444 0.000000 0.000000 0.000000
# 3 -0.003378 -0.003444 0.011456 0.000000 0.000000 0.000000
# 4 0.000000 0.000000 0.000000 0.029874 0.000000 0.000000
# 5 0.000000 0.000000 0.000000 0.000000 0.032016 0.000000
# 6 0.000000 0.000000 0.000000 0.000000 0.000000 0.047344
#
#
# Mechanical properties :
#
#
# Convention : Reuss Voigt Hill
#
# Bulk Modulus (GPa) = 83.23328 83.67427 83.45378
# Shear Modulus (GPa) = 29.46194 30.45070 29.95632
#
# Velocity S-wave (km/s) = 3.98211 4.04838 4.01538
# Velocity P-wave (km/s) = 8.12043 8.17853 8.14953
#
# Compressibility (1/GPa) = 0.01201442
#
# Stress axis : x y z
#
# Youngs Moduli (GPa) = 84.93209 90.79689 87.29047
#
# Poissons Ratio (x) = 0.38975 0.29485
# Poissons Ratio (y) = 0.36458 0.30065
# Poissons Ratio (z) = 0.28688 0.31273
#
# Static dielectric constant tensor:
#      x y z
#    x 3.460030 0.000000 0.000000 
#    y 0.000000 3.417220 0.000000 
#    z 0.000000 0.000000 3.611110 
# 
# 
# High freq. dielectric constant tensor:
#      x y z
#    x 1.718950 0.000000 0.000000 
#    y 0.000000 1.711740 0.000000 
#    z 0.000000 0.000000 1.739360 
# 
# From -- ./inp_files/6537.got.cif
#   From: 2010.03.12/outbox.cif.g09.slc.cpg/sg57_4_cif.got.tgz:6537.got - 2010.04.16 15:48:40.
