data_PCOD8232119
_publ_section_title
;
Structure prediction by ZEFSAII (Michael W. Deem and Ramdas Pophale) SiO2 
 PCOD8232119
Probable space group: P B C M
;
_chemical_formula_sum "Si O2"
_cell_formula_units_Z 64
_cell_length_a 15.154981
_cell_length_b 30.246315
_cell_length_c 9.028073
_cell_angle_alpha 90.000000
_cell_angle_beta 90.000000
_cell_angle_gamma 90.000000
_cell_volume 4138.309129
_symmetry_space_group_name_H-M "P B C M"
_symmetry_group_IT_number 57
_symmetry_cell_setting 'orthorhombic'
loop_
_space_group_symop_operation_xyz
x,y,z
-x,-y,1/2+z
x,1/2-y,-z
-x,1/2+y,1/2-z
-x,-y,-z
x,y,1/2-z
-x,1/2+y,z
x,1/2-y,1/2+z
loop_
_atom_site_type_symbol
_atom_site_label
_atom_site_fract_x
_atom_site_fract_y
_atom_site_fract_z
Si Si1 0.581815 0.552617 0.413631
Si Si2 0.913273 0.888226 0.427465
Si Si3 0.097972 0.291294 0.087636
Si Si4 0.111436 0.792520 0.416116
Si Si5 0.777211 0.953693 0.925900
Si Si6 0.904008 0.380537 0.920718
Si Si7 0.757316 0.045374 0.420213
Si Si8 0.584852 0.052524 0.585366
O O1 0.563220 0.571537 0.250000
O O2 0.680369 0.565917 0.465672
O O3 0.577679 0.499936 0.409669
O O4 0.507073 0.572281 0.521798
O O5 0.919628 0.890696 0.250000
O O6 0.878786 0.839585 0.479519
O O7 0.848088 0.924530 0.490021
O O8 0.009585 0.897313 0.493697
O O9 0.139204 0.287675 0.250000
O O10 0.993138 0.287377 0.092818
O O11 0.139792 0.250000 0.000000
O O12 0.152260 0.750000 0.500000
O O13 0.150886 0.795354 0.250000
O O14 0.136478 0.836428 0.506580
O O15 0.793586 0.953491 0.750000
O O16 0.786982 0.003524 0.983372
O O17 0.927963 0.370721 0.750000
O O18 0.832330 0.418449 0.935527
O O19 0.742876 0.030995 0.250000
O O20 0.666531 0.066417 0.481882
O O21 0.599075 0.071827 0.750000
#
# Coordination Sequence:
#
# PCOD8232119 Si02
#       8
#     8   8   8   8   8   8   8   8
#     4   8  15  27  42  61  83 106 135 173 217 260
#     4  10  20  32  45  62  86 116 148 182 219 257
#     4   8  15  26  41  61  81 104 134 169 212 255
#     4   9  16  27  44  64  85 109 138 176 220 261
#     4  10  20  32  46  63  84 114 150 184 216 254
#     4  10  20  32  45  62  85 116 152 184 216 255
#     4  10  20  32  45  61  85 117 149 183 219 254
#     4   9  16  26  43  64  83 106 137 174 216 260
#
# _framework density 15.465253000000001
#
# number of rings (size 3 to 8) (size 9 to 14) (size 15 to 20)
#    0.000    2.750    0.000    3.750    0.000    9.500 
#    0.000    0.000    0.000    0.000    0.000    0.000 
#    0.000    1.000    0.000    7.000    0.000    5.625 
#
# Total GULP energy -793277.167031 kJ/mol
# GULP energy per Si atom -12394.955735 kJ/mol
# Density = 1.543005 g / cm^3
# Si number density = 15.465253 Si / 1000 Ang^3
#
#
#
# Elastic Constant Matrix: (Units=GPa)
#
#
# Indices 1 2 3 4 5 6 
#
# 1 72.7036 33.9770 46.9811 0.0000 0.0000 0.0000
# 2 33.9770 61.5537 40.8043 0.0000 0.0000 0.0000
# 3 46.9811 40.8043 109.8964 0.0000 0.0000 0.0000
# 4 0.0000 0.0000 0.0000 24.7791 0.0000 0.0000
# 5 0.0000 0.0000 0.0000 0.0000 22.2954 0.0000
# 6 0.0000 0.0000 0.0000 0.0000 0.0000 -1.7865
#
#
#
# Elastic Compliance Matrix: (Units=1/GPa)
#
#
# Indices 1 2 3 4 5 6 
#
# 1 0.021400 -0.007625 -0.006318 0.000000 0.000000 0.000000
# 2 -0.007625 0.024267 -0.005751 0.000000 0.000000 0.000000
# 3 -0.006318 -0.005751 0.013935 0.000000 0.000000 0.000000
# 4 0.000000 0.000000 0.000000 0.040357 0.000000 0.000000
# 5 0.000000 0.000000 0.000000 0.000000 0.044852 0.000000
# 6 0.000000 0.000000 0.000000 0.000000 0.000000 -0.559768
#
#
# Mechanical properties :
#
#
# Convention : Reuss Voigt Hill
#
# Bulk Modulus (GPa) = 49.46428 54.18651 51.82539
# Shear Modulus (GPa) = -13.55633 17.21701 1.83034
#
# Velocity S-wave (km/s) = -2.96390 3.34019 1.08908
# Velocity P-wave (km/s) = 4.51006 7.07032 5.93001
#
# Compressibility (1/GPa) = 0.02021661
#
# Stress axis : x y z
#
# Youngs Moduli (GPa) = 46.72848 41.20837 71.75925
#
# Poissons Ratio (x) = 0.31420 0.45335
# Poissons Ratio (y) = 0.35629 0.41266
# Poissons Ratio (z) = 0.29521 0.23698
#
# Static dielectric constant tensor:
#      x y z
#    x 2.845620 0.000000 0.000000 
#    y 0.000000 2.827700 0.000000 
#    z 0.000000 0.000000 3.283290 
# 
# 
# High freq. dielectric constant tensor:
#      x y z
#    x 1.563580 0.000000 0.000000 
#    y 0.000000 1.562670 0.000000 
#    z 0.000000 0.000000 1.613080 
# 
# From -- ./inp_files/6064.got.cif
#   From: 2010.03.12/outbox.cif.g09.slc.cpg/sg57_4_cif.got.tgz:6064.got - 2010.04.16 15:48:40.
