data_PCOD8232771
_publ_section_title
;
Structure prediction by ZEFSAII (Michael W. Deem and Ramdas Pophale) SiO2 
 PCOD8232771
Probable space group: P B C M
;
_chemical_formula_sum "Si O2"
_cell_formula_units_Z 64
_cell_length_a 15.033009
_cell_length_b 24.516813
_cell_length_c 9.280482
_cell_angle_alpha 90.000000
_cell_angle_beta 90.000000
_cell_angle_gamma 90.000000
_cell_volume 3420.428093
_symmetry_space_group_name_H-M "P B C M"
_symmetry_group_IT_number 57
_symmetry_cell_setting 'orthorhombic'
loop_
_space_group_symop_operation_xyz
x,y,z
-x,-y,1/2+z
x,1/2-y,-z
-x,1/2+y,1/2-z
-x,-y,-z
x,y,1/2-z
-x,1/2+y,z
x,1/2-y,1/2+z
loop_
_atom_site_type_symbol
_atom_site_label
_atom_site_fract_x
_atom_site_fract_y
_atom_site_fract_z
Si Si1 0.221438 0.506155 0.411567
Si Si2 0.768631 0.618949 0.583245
Si Si3 0.900266 0.804637 0.917053
Si Si4 0.718854 0.376959 0.589580
Si Si5 0.611785 0.696992 0.583586
Si Si6 0.077810 0.640318 0.087546
Si Si7 0.061145 0.539541 0.583829
Si Si8 0.409442 0.804648 0.419145
O O1 0.177663 0.506458 0.250000
O O2 0.254091 0.444963 0.445465
O O3 0.290823 0.556704 0.416030
O O4 0.159700 0.522524 0.543577
O O5 0.794383 0.628700 0.750000
O O6 0.849111 0.643147 0.486544
O O7 0.676289 0.647678 0.541513
O O8 0.871504 0.800157 0.750000
O O9 0.008812 0.809292 0.927237
O O10 0.870645 0.750000 0.000000
O O11 0.692095 0.357348 0.750000
O O12 0.817315 0.351249 0.554342
O O13 0.650951 0.354281 0.472457
O O14 0.645124 0.750000 0.500000
O O15 0.617575 0.711962 0.750000
O O16 0.511219 0.680899 0.541054
O O17 0.071256 0.616125 0.250000
O O18 0.038415 0.599636 0.969658
O O19 0.041977 0.535158 0.750000
O O20 0.000000 0.500000 0.500000
O O21 0.378783 0.750000 0.500000
O O22 0.395313 0.796438 0.250000
#
# Coordination Sequence:
#
# PCOD8232771 Si02
#       8
#     8   8   8   8   8   8   8   8
#     4   9  19  35  54  76 105 140 177 217 263 317
#     4  10  20  36  57  79 105 141 181 220 266 317
#     4  11  23  37  53  76 107 141 178 222 269 319
#     4   9  18  35  56  79 109 142 175 215 265 318
#     4   9  19  35  55  79 106 136 174 220 268 318
#     4   9  20  37  53  72 101 136 173 212 256 307
#     4  11  20  30  48  72  99 132 172 216 258 301
#     4  10  20  35  56  81 107 136 173 218 266 317
#
# _framework density 18.711107999999999
#
# number of rings (size 3 to 8) (size 9 to 14) (size 15 to 20)
#    0.000    2.250    0.000    3.750    0.000    8.000 
#    0.000    1.875    0.000    0.000    0.000    0.000 
#    0.000    0.000    0.000    0.000    0.000    0.000 
#
# Total GULP energy -792900.203315 kJ/mol
# GULP energy per Si atom -12389.065677 kJ/mol
# Density = 1.866852 g / cm^3
# Si number density = 18.711108 Si / 1000 Ang^3
#
#
#
# Elastic Constant Matrix: (Units=GPa)
#
#
# Indices 1 2 3 4 5 6 
#
# 1 73.2254 45.5091 33.0377 0.0000 0.0000 0.0000
# 2 45.5091 108.8558 41.9261 0.0000 0.0000 0.0000
# 3 33.0377 41.9261 99.5271 0.0000 0.0000 0.0000
# 4 0.0000 0.0000 0.0000 30.5789 0.0000 0.0000
# 5 0.0000 0.0000 0.0000 0.0000 23.7390 0.0000
# 6 0.0000 0.0000 0.0000 0.0000 0.0000 28.8324
#
#
#
# Elastic Compliance Matrix: (Units=1/GPa)
#
#
# Indices 1 2 3 4 5 6 
#
# 1 0.019488 -0.006751 -0.003625 0.000000 0.000000 0.000000
# 2 -0.006751 0.013304 -0.003364 0.000000 0.000000 0.000000
# 3 -0.003625 -0.003364 0.012668 0.000000 0.000000 0.000000
# 4 0.000000 0.000000 0.000000 0.032702 0.000000 0.000000
# 5 0.000000 0.000000 0.000000 0.000000 0.042125 0.000000
# 6 0.000000 0.000000 0.000000 0.000000 0.000000 0.034683
#
#
# Mechanical properties :
#
#
# Convention : Reuss Voigt Hill
#
# Bulk Modulus (GPa) = 55.61522 58.06160 56.83841
# Shear Modulus (GPa) = 26.53330 27.37243 26.95286
#
# Velocity S-wave (km/s) = 3.76979 3.82893 3.79947
# Velocity P-wave (km/s) = 6.98112 7.11657 7.04917
#
# Compressibility (1/GPa) = 0.01798069
#
# Stress axis : x y z
#
# Youngs Moduli (GPa) = 51.31443 75.16361 78.94088
#
# Poissons Ratio (x) = 0.50743 0.28616
# Poissons Ratio (y) = 0.34642 0.26552
# Poissons Ratio (z) = 0.18601 0.25281
#
# Static dielectric constant tensor:
#      x y z
#    x 3.256200 0.000000 0.000000 
#    y 0.000000 3.433540 0.000000 
#    z 0.000000 0.000000 3.306370 
# 
# 
# High freq. dielectric constant tensor:
#      x y z
#    x 1.710350 0.000000 0.000000 
#    y 0.000000 1.721930 0.000000 
#    z 0.000000 0.000000 1.732030 
# 
# From -- ./inp_files/5744.got.cif
#   From: 2010.03.12/outbox.cif.g09.slc.cpg/sg57_3_cif.got.tgz:5744.got - 2010.04.16 15:48:40.
