data_PCOD8232437
_publ_section_title
;
Structure prediction by ZEFSAII (Michael W. Deem and Ramdas Pophale) SiO2 
 PCOD8232437
Probable space group: P B C M
;
_chemical_formula_sum "Si O2"
_cell_formula_units_Z 40
_cell_length_a 12.569168
_cell_length_b 19.755271
_cell_length_c 9.254047
_cell_angle_alpha 90.000000
_cell_angle_beta 90.000000
_cell_angle_gamma 90.000000
_cell_volume 2297.847611
_symmetry_space_group_name_H-M "P B C M"
_symmetry_group_IT_number 57
_symmetry_cell_setting 'orthorhombic'
loop_
_space_group_symop_operation_xyz
x,y,z
-x,-y,1/2+z
x,1/2-y,-z
-x,1/2+y,1/2-z
-x,-y,-z
x,y,1/2-z
-x,1/2+y,z
x,1/2-y,1/2+z
loop_
_atom_site_type_symbol
_atom_site_label
_atom_site_fract_x
_atom_site_fract_y
_atom_site_fract_z
Si Si1 0.726472 0.946196 0.416530
Si Si2 0.035467 0.433877 0.082523
Si Si3 0.469693 0.067113 0.416423
Si Si4 0.302125 0.897054 0.585413
Si Si5 0.129437 0.819071 0.079279
O O1 0.695556 0.936191 0.250000
O O2 0.842060 0.915848 0.453206
O O3 0.639143 0.904907 0.511381
O O4 0.725909 0.025752 0.456260
O O5 0.021615 0.450789 0.250000
O O6 0.963983 0.370658 0.035911
O O7 0.000000 0.500000 0.000000
O O8 0.447452 0.049901 0.250000
O O9 0.570865 0.117392 0.431024
O O10 0.500000 0.000000 0.500000
O O11 0.265764 0.882514 0.750000
O O12 0.242026 0.847086 0.477259
O O13 0.137483 0.807332 0.250000
O O14 0.100506 0.750000 0.000000
#
# Coordination Sequence:
#
# PCOD8232437 Si02
#       5
#     8   8   8   8   8
#     4   9  17  30  49  75 106 134 166 214 263 307
#     4  10  20  34  53  78 105 137 177 221 266 313
#     4   9  17  28  45  72 104 134 165 204 252 304
#     4   9  17  31  50  72 103 135 166 213 261 305
#     4  11  23  36  53  76 104 140 178 216 264 321
#
# _framework density 17.407595000000001
#
# number of rings (size 3 to 8) (size 9 to 14) (size 15 to 20)
#    0.000    2.400    2.000    2.400    0.000    5.600 
#    0.000    0.000    0.000    1.200    0.000    5.600 
#    0.000    0.000    0.000    0.000    0.000    0.000 
#
# Total GULP energy -495876.956224 kJ/mol
# GULP energy per Si atom -12396.923906 kJ/mol
# Density = 1.736797 g / cm^3
# Si number density = 17.407595 Si / 1000 Ang^3
#
#
#
# Elastic Constant Matrix: (Units=GPa)
#
#
# Indices 1 2 3 4 5 6 
#
# 1 139.2499 56.0876 69.1565 0.0000 0.0000 0.0000
# 2 56.0876 75.9852 50.1871 0.0000 0.0000 0.0000
# 3 69.1565 50.1871 97.7258 0.0000 0.0000 0.0000
# 4 0.0000 0.0000 0.0000 22.9504 0.0000 0.0000
# 5 0.0000 0.0000 0.0000 0.0000 33.4526 0.0000
# 6 0.0000 0.0000 0.0000 0.0000 0.0000 17.1506
#
#
#
# Elastic Compliance Matrix: (Units=1/GPa)
#
#
# Indices 1 2 3 4 5 6 
#
# 1 0.012213 -0.005004 -0.006073 0.000000 0.000000 0.000000
# 2 -0.005004 0.021966 -0.007740 0.000000 0.000000 0.000000
# 3 -0.006073 -0.007740 0.018505 0.000000 0.000000 0.000000
# 4 0.000000 0.000000 0.000000 0.043572 0.000000 0.000000
# 5 0.000000 0.000000 0.000000 0.000000 0.029893 0.000000
# 6 0.000000 0.000000 0.000000 0.000000 0.000000 0.058307
#
#
# Mechanical properties :
#
#
# Convention : Reuss Voigt Hill
#
# Bulk Modulus (GPa) = 66.44011 73.75815 70.09913
# Shear Modulus (GPa) = 22.01625 23.87935 22.94780
#
# Velocity S-wave (km/s) = 3.56019 3.70777 3.63473
# Velocity P-wave (km/s) = 7.42631 7.79701 7.61392
#
# Compressibility (1/GPa) = 0.01505115
#
# Stress axis : x y z
#
# Youngs Moduli (GPa) = 81.88199 45.52537 54.03979
#
# Poissons Ratio (x) = 0.22779 0.32817
# Poissons Ratio (y) = 0.40971 0.41825
# Poissons Ratio (z) = 0.49725 0.35235
#
# Static dielectric constant tensor:
#      x y z
#    x 3.931010 0.000000 0.000000 
#    y 0.000000 2.854060 0.000000 
#    z 0.000000 0.000000 3.060610 
# 
# 
# High freq. dielectric constant tensor:
#      x y z
#    x 1.691300 0.000000 0.000000 
#    y 0.000000 1.616630 0.000000 
#    z 0.000000 0.000000 1.681180 
# 
# From -- ./inp_files/2883.got.cif
#   From: 2010.03.12/outbox.cif.g09.slc.cpg/sg57_2_cif.got.tgz:2883.got - 2010.04.16 15:48:40.
