data_PCOD8232131
_publ_section_title
;
Structure prediction by ZEFSAII (Michael W. Deem and Ramdas Pophale) SiO2 
 PCOD8232131
Probable space group: P B C M
;
_chemical_formula_sum "Si O2"
_cell_formula_units_Z 48
_cell_length_a 10.002412
_cell_length_b 30.234339
_cell_length_c 9.456555
_cell_angle_alpha 90.000000
_cell_angle_beta 90.000000
_cell_angle_gamma 90.000000
_cell_volume 2859.816518
_symmetry_space_group_name_H-M "P B C M"
_symmetry_group_IT_number 57
_symmetry_cell_setting 'orthorhombic'
loop_
_space_group_symop_operation_xyz
x,y,z
-x,-y,1/2+z
x,1/2-y,-z
-x,1/2+y,1/2-z
-x,-y,-z
x,y,1/2-z
-x,1/2+y,z
x,1/2-y,1/2+z
loop_
_atom_site_type_symbol
_atom_site_label
_atom_site_fract_x
_atom_site_fract_y
_atom_site_fract_z
Si Si1 0.347616 0.289369 0.593255
Si Si2 0.662688 0.388321 0.917974
Si Si3 0.129928 0.049861 0.413355
Si Si4 0.361919 0.114387 0.082615
Si Si5 0.665175 0.289064 0.905236
Si Si6 0.131192 0.553014 0.585540
O O1 0.284658 0.250000 0.500000
O O2 0.285916 0.284769 0.750000
O O3 0.313765 0.337468 0.525025
O O4 0.506442 0.284931 0.600689
O O5 0.680173 0.396494 0.750000
O O6 0.510824 0.397740 0.969176
O O7 0.703988 0.338105 0.959193
O O8 0.752100 0.421228 0.007533
O O9 0.094980 0.060556 0.250000
O O10 0.259555 0.076685 0.466363
O O11 0.008211 0.065189 0.511328
O O12 0.163062 0.998580 0.433613
O O13 0.368910 0.119306 0.250000
O O14 0.726047 0.282070 0.750000
O O15 0.728002 0.250000 0.000000
O O16 0.123843 0.566369 0.750000
#
# Coordination Sequence:
#
# PCOD8232131 Si02
#       6
#     8   8   8   8   8   8
#     4   8  13  23  40  63  90 117 145 178 217 263
#     4   9  17  30  48  70  95 122 151 184 226 274
#     4   9  18  34  52  66  86 121 159 191 228 276
#     4   8  15  29  49  70  91 119 155 188 220 268
#     4   8  14  24  40  63  90 119 148 178 216 263
#     4  10  20  32  47  69  93 118 153 194 232 272
#
# _framework density 16.784293999999999
#
# number of rings (size 3 to 8) (size 9 to 14) (size 15 to 20)
#    0.000    3.333    0.000    2.500    0.000    2.000 
#    0.000    4.167    0.000    1.000    0.000    2.333 
#    0.000    0.000    0.000    0.000    0.000    0.000 
#
# Total GULP energy -594887.083190 kJ/mol
# GULP energy per Si atom -12393.480900 kJ/mol
# Density = 1.674609 g / cm^3
# Si number density = 16.784294 Si / 1000 Ang^3
#
#
#
# Elastic Constant Matrix: (Units=GPa)
#
#
# Indices 1 2 3 4 5 6 
#
# 1 86.9003 69.0762 49.2741 0.0000 0.0000 0.0000
# 2 69.0762 106.9899 56.7148 0.0000 0.0000 0.0000
# 3 49.2741 56.7148 76.1184 0.0000 0.0000 0.0000
# 4 0.0000 0.0000 0.0000 30.2862 0.0000 0.0000
# 5 0.0000 0.0000 0.0000 0.0000 18.9782 0.0000
# 6 0.0000 0.0000 0.0000 0.0000 0.0000 -0.2239
#
#
#
# Elastic Compliance Matrix: (Units=1/GPa)
#
#
# Indices 1 2 3 4 5 6 
#
# 1 0.025757 -0.012877 -0.007079 0.000000 0.000000 0.000000
# 2 -0.012877 0.021886 -0.007971 0.000000 0.000000 0.000000
# 3 -0.007079 -0.007971 0.023659 0.000000 0.000000 0.000000
# 4 0.000000 0.000000 0.000000 0.033018 0.000000 0.000000
# 5 0.000000 0.000000 0.000000 0.000000 0.052692 0.000000
# 6 0.000000 0.000000 0.000000 0.000000 0.000000 -4.465889
#
#
# Mechanical properties :
#
#
# Convention : Reuss Voigt Hill
#
# Bulk Modulus (GPa) = 64.73408 68.90431 66.81919
# Shear Modulus (GPa) = -1.17706 16.13766 7.48030
#
# Velocity S-wave (km/s) = -0.83834 3.10413 2.11339
# Velocity P-wave (km/s) = 6.14125 7.34775 6.77142
#
# Compressibility (1/GPa) = 0.01544781
#
# Stress axis : x y z
#
# Youngs Moduli (GPa) = 38.82380 45.69097 42.26713
#
# Poissons Ratio (x) = 0.58838 0.29921
# Poissons Ratio (y) = 0.49995 0.33692
# Poissons Ratio (z) = 0.27483 0.36421
#
# Static dielectric constant tensor:
#      x y z
#    x 2.875920 0.000000 0.000000 
#    y 0.000000 3.376030 0.000000 
#    z 0.000000 0.000000 3.201630 
# 
# 
# High freq. dielectric constant tensor:
#      x y z
#    x 1.609560 0.000000 0.000000 
#    y 0.000000 1.656720 0.000000 
#    z 0.000000 0.000000 1.631810 
# 
# From -- ./inp_files/3323.got.cif
#   From: 2010.03.12/outbox.cif.g09.slc.cpg/sg57_2_cif.got.tgz:3323.got - 2010.04.16 15:48:40.
