data_PCOD8232402
_publ_section_title
;
Structure prediction by ZEFSAII (Michael W. Deem and Ramdas Pophale) SiO2 
 PCOD8232402
Probable space group: P B C M
;
_chemical_formula_sum "Si O2"
_cell_formula_units_Z 64
_cell_length_a 14.879643
_cell_length_b 23.492620
_cell_length_c 9.132477
_cell_angle_alpha 90.000000
_cell_angle_beta 90.000000
_cell_angle_gamma 90.000000
_cell_volume 3192.365087
_symmetry_space_group_name_H-M "P B C M"
_symmetry_group_IT_number 57
_symmetry_cell_setting 'orthorhombic'
loop_
_space_group_symop_operation_xyz
x,y,z
-x,-y,1/2+z
x,1/2-y,-z
-x,1/2+y,1/2-z
-x,-y,-z
x,y,1/2-z
-x,1/2+y,z
x,1/2-y,1/2+z
loop_
_atom_site_type_symbol
_atom_site_label
_atom_site_fract_x
_atom_site_fract_y
_atom_site_fract_z
Si Si1 0.475887 0.811252 0.577408
Si Si2 0.216115 0.196481 0.416588
Si Si3 0.296689 0.878483 0.919105
Si Si4 0.094027 0.999353 0.413496
Si Si5 0.635626 0.893127 0.919082
Si Si6 0.013676 0.194114 0.077801
Si Si7 0.271926 0.489371 0.078466
Si Si8 0.873837 0.369642 0.410109
O O1 0.479692 0.750000 0.500000
O O2 0.484220 0.800262 0.750000
O O3 0.386532 0.845612 0.534968
O O4 0.556222 0.852366 0.522824
O O5 0.259585 0.250000 0.500000
O O6 0.214513 0.215803 0.250000
O O7 0.271746 0.140037 0.441880
O O8 0.115714 0.183831 0.472811
O O9 0.273614 0.868260 0.750000
O O10 0.303436 0.945899 0.951217
O O11 0.218170 0.849381 0.013957
O O12 0.083011 0.027744 0.250000
O O13 0.176069 0.027958 0.503971
O O14 0.128027 0.936297 0.389087
O O15 0.000000 0.000000 0.500000
O O16 0.618666 0.909710 0.750000
O O17 0.647288 0.950615 0.013088
O O18 0.002071 0.198894 0.250000
O O19 0.973983 0.250000 0.000000
O O20 0.957592 0.141785 0.015922
O O21 0.261338 0.477354 0.250000
O O22 0.882742 0.340086 0.250000
#
# Coordination Sequence:
#
# PCOD8232402 Si02
#       8
#     8   8   8   8   8   8   8   8
#     4  10  22  40  63  89 117 150 192 241 296 353
#     4   9  19  34  52  76 107 146 185 228 283 341
#     4   9  20  40  60  81 115 154 192 240 294 347
#     4  10  21  36  55  81 114 151 193 238 284 335
#     4  10  21  37  57  85 119 151 187 237 294 350
#     4  10  20  34  52  76 107 146 188 231 280 338
#     4  10  21  37  57  84 115 154 201 240 288 348
#     4  10  21  36  55  81 110 144 186 235 284 338
#
# _framework density 20.047833000000001
#
# number of rings (size 3 to 8) (size 9 to 14) (size 15 to 20)
#    0.000    2.250    0.000    1.875    1.750    5.000 
#    0.000    1.250    0.000    0.000    0.000    0.000 
#    0.000    0.000    0.000    0.000    0.000    0.000 
#
# Total GULP energy -793433.657016 kJ/mol
# GULP energy per Si atom -12397.400891 kJ/mol
# Density = 2.000220 g / cm^3
# Si number density = 20.047833 Si / 1000 Ang^3
#
#
#
# Elastic Constant Matrix: (Units=GPa)
#
#
# Indices 1 2 3 4 5 6 
#
# 1 111.4760 34.3617 48.1047 0.0000 0.0000 0.0000
# 2 34.3617 52.8135 32.3484 0.0000 0.0000 0.0000
# 3 48.1047 32.3484 98.2554 0.0000 0.0000 0.0000
# 4 0.0000 0.0000 0.0000 33.9636 0.0000 0.0000
# 5 0.0000 0.0000 0.0000 0.0000 27.6699 0.0000
# 6 0.0000 0.0000 0.0000 0.0000 0.0000 23.4574
#
#
#
# Elastic Compliance Matrix: (Units=1/GPa)
#
#
# Indices 1 2 3 4 5 6 
#
# 1 0.012534 -0.005507 -0.004323 0.000000 0.000000 0.000000
# 2 -0.005507 0.026136 -0.005909 0.000000 0.000000 0.000000
# 3 -0.004323 -0.005909 0.014240 0.000000 0.000000 0.000000
# 4 0.000000 0.000000 0.000000 0.029443 0.000000 0.000000
# 5 0.000000 0.000000 0.000000 0.000000 0.036140 0.000000
# 6 0.000000 0.000000 0.000000 0.000000 0.000000 0.042630
#
#
# Mechanical properties :
#
#
# Convention : Reuss Voigt Hill
#
# Bulk Modulus (GPa) = 46.65926 54.68604 50.67265
# Shear Modulus (GPa) = 25.03187 26.86684 25.94935
#
# Velocity S-wave (km/s) = 3.53740 3.66476 3.60164
# Velocity P-wave (km/s) = 6.32525 6.72639 6.52890
#
# Compressibility (1/GPa) = 0.02143197
#
# Stress axis : x y z
#
# Youngs Moduli (GPa) = 79.78592 38.26074 70.22663
#
# Poissons Ratio (x) = 0.21068 0.30362
# Poissons Ratio (y) = 0.43934 0.41496
# Poissons Ratio (z) = 0.34494 0.22608
#
# Static dielectric constant tensor:
#      x y z
#    x 3.694180 0.000000 0.000000 
#    y 0.000000 3.549200 0.000000 
#    z 0.000000 0.000000 3.840310 
# 
# 
# High freq. dielectric constant tensor:
#      x y z
#    x 1.782040 0.000000 0.000000 
#    y 0.000000 1.774400 0.000000 
#    z 0.000000 0.000000 1.785360 
# 
# From -- ./inp_files/5756.got.cif
#   From: 2010.03.12/outbox.cif.g09.slc.cpg/sg57_3_cif.got.tgz:5756.got - 2010.04.16 15:48:40.
