data_PCOD8232913
_publ_section_title
;
Structure prediction by ZEFSAII (Michael W. Deem and Ramdas Pophale) SiO2 
 PCOD8232913
Probable space group: P B C M
;
_chemical_formula_sum "Si O2"
_cell_formula_units_Z 56
_cell_length_a 20.713166
_cell_length_b 15.332413
_cell_length_c 8.786315
_cell_angle_alpha 90.000000
_cell_angle_beta 90.000000
_cell_angle_gamma 90.000000
_cell_volume 2790.382657
_symmetry_space_group_name_H-M "P B C M"
_symmetry_group_IT_number 57
_symmetry_cell_setting 'orthorhombic'
loop_
_space_group_symop_operation_xyz
x,y,z
-x,-y,1/2+z
x,1/2-y,-z
-x,1/2+y,1/2-z
-x,-y,-z
x,y,1/2-z
-x,1/2+y,z
x,1/2-y,1/2+z
loop_
_atom_site_type_symbol
_atom_site_label
_atom_site_fract_x
_atom_site_fract_y
_atom_site_fract_z
Si Si1 0.854229 0.342258 0.928461
Si Si2 0.002613 0.905188 0.571724
Si Si3 0.412406 0.839626 0.928626
Si Si4 0.559067 0.660077 0.070454
Si Si5 0.203839 0.491080 0.925661
Si Si6 0.647277 0.996478 0.925093
Si Si7 0.876981 0.661907 0.569859
O O1 0.839138 0.341996 0.750000
O O2 0.928708 0.362360 0.962193
O O3 0.835365 0.250000 0.000000
O O4 0.809493 0.413354 0.009331
O O5 0.988051 0.912240 0.750000
O O6 0.949663 0.844959 0.491927
O O7 0.000000 0.000000 0.500000
O O8 0.408723 0.829714 0.750000
O O9 0.485750 0.858343 0.983090
O O10 0.386480 0.750000 0.000000
O O11 0.366166 0.916927 0.980229
O O12 0.564648 0.668356 0.250000
O O13 0.603453 0.581700 0.009034
O O14 0.584935 0.750000 0.000000
O O15 0.182279 0.486610 0.750000
O O16 0.278832 0.468821 0.945038
O O17 0.164009 0.421372 0.021471
O O18 0.630018 0.015327 0.750000
O O19 0.845973 0.750000 0.500000
O O20 0.877846 0.668187 0.750000
#
# Coordination Sequence:
#
# PCOD8232913 Si02
#       7
#     8   8   8   8   8   8   8
#     4  11  24  41  63  90 119 155 197 244 297 354
#     4  11  22  38  64  94 124 155 193 244 301 355
#     4  10  20  35  59  88 118 154 192 239 292 347
#     4   9  19  36  58  87 120 151 191 239 292 348
#     4  11  24  42  62  85 118 159 201 248 298 352
#     4  10  22  39  59  85 118 155 196 243 293 348
#     4  12  25  42  64  90 121 158 201 248 299 356
#
# _framework density 20.068932
#
# number of rings (size 3 to 8) (size 9 to 14) (size 15 to 20)
#    0.000    1.429    1.429    3.857    0.000    6.286 
#    0.000    1.429    0.000    0.000    0.000    0.000 
#    0.000    0.000    0.000    0.000    0.000    0.000 
#
# Total GULP energy -694758.139257 kJ/mol
# GULP energy per Si atom -12406.395344 kJ/mol
# Density = 2.002325 g / cm^3
# Si number density = 20.068932 Si / 1000 Ang^3
#
#
#
# Elastic Constant Matrix: (Units=GPa)
#
#
# Indices 1 2 3 4 5 6 
#
# 1 53.2774 16.5547 25.8924 0.0000 0.0000 0.0000
# 2 16.5547 118.0402 36.3688 0.0000 0.0000 0.0000
# 3 25.8924 36.3688 103.1326 0.0000 0.0000 0.0000
# 4 0.0000 0.0000 0.0000 41.0943 0.0000 0.0000
# 5 0.0000 0.0000 0.0000 0.0000 24.2763 0.0000
# 6 0.0000 0.0000 0.0000 0.0000 0.0000 12.5505
#
#
#
# Elastic Compliance Matrix: (Units=1/GPa)
#
#
# Indices 1 2 3 4 5 6 
#
# 1 0.021620 -0.001526 -0.004890 0.000000 0.000000 0.000000
# 2 -0.001526 0.009612 -0.003007 0.000000 0.000000 0.000000
# 3 -0.004890 -0.003007 0.011984 0.000000 0.000000 0.000000
# 4 0.000000 0.000000 0.000000 0.024334 0.000000 0.000000
# 5 0.000000 0.000000 0.000000 0.000000 0.041192 0.000000
# 6 0.000000 0.000000 0.000000 0.000000 0.000000 0.079678
#
#
# Mechanical properties :
#
#
# Convention : Reuss Voigt Hill
#
# Bulk Modulus (GPa) = 41.03042 48.00911 44.51976
# Shear Modulus (GPa) = 23.21381 28.62653 25.92017
#
# Velocity S-wave (km/s) = 3.40472 3.78088 3.59772
# Velocity P-wave (km/s) = 5.99544 6.56004 6.28408
#
# Compressibility (1/GPa) = 0.02437216
#
# Stress axis : x y z
#
# Youngs Moduli (GPa) = 46.25309 104.03678 83.44339
#
# Poissons Ratio (x) = 0.15871 0.40804
# Poissons Ratio (y) = 0.07056 0.25088
# Poissons Ratio (z) = 0.22618 0.31280
#
# Static dielectric constant tensor:
#      x y z
#    x 3.732000 0.000000 0.000000 
#    y 0.000000 3.630240 0.000000 
#    z 0.000000 0.000000 4.650960 
# 
# 
# High freq. dielectric constant tensor:
#      x y z
#    x 1.777400 0.000000 0.000000 
#    y 0.000000 1.797300 0.000000 
#    z 0.000000 0.000000 1.790880 
# 
# From -- ./inp_files/8056.got.cif
#   From: 2010.03.12/outbox.cif.g09.slc.cpg/sg57_5_cif.got.tgz:8056.got - 2010.04.16 15:48:40.
