data_PCOD8232534
_publ_section_title
;
Structure prediction by ZEFSAII (Michael W. Deem and Ramdas Pophale) SiO2 
 PCOD8232534
Probable space group: P B C M
;
_chemical_formula_sum "Si O2"
_cell_formula_units_Z 40
_cell_length_a 11.327274
_cell_length_b 20.793470
_cell_length_c 8.761060
_cell_angle_alpha 90.000000
_cell_angle_beta 90.000000
_cell_angle_gamma 90.000000
_cell_volume 2063.521655
_symmetry_space_group_name_H-M "P B C M"
_symmetry_group_IT_number 57
_symmetry_cell_setting 'orthorhombic'
loop_
_space_group_symop_operation_xyz
x,y,z
-x,-y,1/2+z
x,1/2-y,-z
-x,1/2+y,1/2-z
-x,-y,-z
x,y,1/2-z
-x,1/2+y,z
x,1/2-y,1/2+z
loop_
_atom_site_type_symbol
_atom_site_label
_atom_site_fract_x
_atom_site_fract_y
_atom_site_fract_z
Si Si1 0.005565 0.317544 0.068646
Si Si2 0.549172 0.908536 0.918996
Si Si3 0.912150 0.447260 0.931247
Si Si4 0.665458 0.045441 0.579967
Si Si5 0.275071 0.315050 0.071796
O O1 0.988778 0.317227 0.250000
O O2 0.141133 0.327655 0.018443
O O3 0.958401 0.250000 0.000000
O O4 0.933946 0.376148 0.996071
O O5 0.540641 0.877682 0.750000
O O6 0.590686 0.981180 0.904871
O O7 0.420528 0.902893 0.998194
O O8 0.645503 0.873546 0.020530
O O9 0.926323 0.447702 0.750000
O O10 0.780152 0.466833 0.977338
O O11 0.000000 0.500000 0.000000
O O12 0.700865 0.069876 0.750000
O O13 0.281281 0.307410 0.250000
O O14 0.325624 0.250000 0.000000
#
# Coordination Sequence:
#
# PCOD8232534 Si02
#       5
#     8   8   8   8   8
#     4  10  21  38  59  84 115 151 190 232 282 337
#     4  10  20  35  56  81 110 142 178 222 272 325
#     4  12  24  38  58  85 116 150 191 236 282 333
#     4  10  21  37  57  81 110 144 181 223 274 329
#     4  10  20  34  55  81 109 142 181 224 269 321
#
# _framework density 19.384338
#
# number of rings (size 3 to 8) (size 9 to 14) (size 15 to 20)
#    0.000    1.600    0.000    5.400    0.000    8.000 
#    0.000    1.000    0.000    0.000    0.000    0.000 
#    0.000    0.000    0.000    0.000    0.000    0.000 
#
# Total GULP energy -496075.120342 kJ/mol
# GULP energy per Si atom -12401.878009 kJ/mol
# Density = 1.934022 g / cm^3
# Si number density = 19.384338 Si / 1000 Ang^3
#
#
#
# Elastic Constant Matrix: (Units=GPa)
#
#
# Indices 1 2 3 4 5 6 
#
# 1 82.6145 19.5775 42.6010 0.0000 0.0000 0.0000
# 2 19.5775 63.9532 31.4036 0.0000 0.0000 0.0000
# 3 42.6010 31.4036 108.5821 0.0000 0.0000 0.0000
# 4 0.0000 0.0000 0.0000 35.4604 0.0000 0.0000
# 5 0.0000 0.0000 0.0000 0.0000 21.3845 0.0000
# 6 0.0000 0.0000 0.0000 0.0000 0.0000 1.7134
#
#
#
# Elastic Compliance Matrix: (Units=1/GPa)
#
#
# Indices 1 2 3 4 5 6 
#
# 1 0.015399 -0.002036 -0.005453 0.000000 0.000000 0.000000
# 2 -0.002036 0.018494 -0.004550 0.000000 0.000000 0.000000
# 3 -0.005453 -0.004550 0.012665 0.000000 0.000000 0.000000
# 4 0.000000 0.000000 0.000000 0.028201 0.000000 0.000000
# 5 0.000000 0.000000 0.000000 0.000000 0.046763 0.000000
# 6 0.000000 0.000000 0.000000 0.000000 0.000000 0.583620
#
#
# Mechanical properties :
#
#
# Convention : Reuss Voigt Hill
#
# Bulk Modulus (GPa) = 44.48425 49.14598 46.81512
# Shear Modulus (GPa) = 6.78692 22.48285 14.63488
#
# Velocity S-wave (km/s) = 1.87319 3.40935 2.75068
# Velocity P-wave (km/s) = 5.26088 6.39583 5.85592
#
# Compressibility (1/GPa) = 0.02247986
#
# Stress axis : x y z
#
# Youngs Moduli (GPa) = 64.94081 54.07171 78.95957
#
# Poissons Ratio (x) = 0.11012 0.43053
# Poissons Ratio (y) = 0.13225 0.35925
# Poissons Ratio (z) = 0.35409 0.24601
#
# Static dielectric constant tensor:
#      x y z
#    x 3.528190 0.000000 0.000000 
#    y 0.000000 3.478300 0.000000 
#    z 0.000000 0.000000 3.888770 
# 
# 
# High freq. dielectric constant tensor:
#      x y z
#    x 1.749970 0.000000 0.000000 
#    y 0.000000 1.741530 0.000000 
#    z 0.000000 0.000000 1.777040 
# 
# From -- ./inp_files/2664.got.cif
#   From: 2010.03.12/outbox.cif.g09.slc.cpg/sg57_2_cif.got.tgz:2664.got - 2010.04.16 15:48:40.
