data_PCOD8232616
_publ_section_title
;
Structure prediction by ZEFSAII (Michael W. Deem and Ramdas Pophale) SiO2 
 PCOD8232616
Probable space group: P B C M
;
_chemical_formula_sum "Si O2"
_cell_formula_units_Z 48
_cell_length_a 5.457160
_cell_length_b 20.152976
_cell_length_c 18.507265
_cell_angle_alpha 90.000000
_cell_angle_beta 90.000000
_cell_angle_gamma 90.000000
_cell_volume 2035.392259
_symmetry_space_group_name_H-M "P B C M"
_symmetry_group_IT_number 57
_symmetry_cell_setting 'orthorhombic'
loop_
_space_group_symop_operation_xyz
x,y,z
-x,-y,1/2+z
x,1/2-y,-z
-x,1/2+y,1/2-z
-x,-y,-z
x,y,1/2-z
-x,1/2+y,z
x,1/2-y,1/2+z
loop_
_atom_site_type_symbol
_atom_site_label
_atom_site_fract_x
_atom_site_fract_y
_atom_site_fract_z
Si Si1 0.724638 0.356889 0.829547
Si Si2 0.559665 0.508983 0.329865
Si Si3 0.940928 0.923308 0.574666
Si Si4 0.521837 0.727016 0.665920
Si Si5 0.980632 0.341253 0.163929
Si Si6 0.798105 0.947067 0.426230
O O1 0.827769 0.334099 0.750000
O O2 0.635562 0.431883 0.823253
O O3 0.508586 0.305718 0.852237
O O4 0.937656 0.356799 0.890913
O O5 0.610297 0.478848 0.250000
O O6 0.801930 0.540637 0.360886
O O7 0.456542 0.449442 0.380909
O O8 0.778570 0.906842 0.502947
O O9 0.146898 0.976833 0.551112
O O10 0.539231 0.713988 0.750000
O O11 0.778049 0.699136 0.633799
O O12 0.271436 0.692472 0.636842
O O13 0.985951 0.349591 0.250000
O O14 0.996033 0.413223 0.125355
#
# Coordination Sequence:
#
# PCOD8232616 Si02
#       6
#     8   8   8   8   8   8
#     4   9  19  36  58  86 114 148 201 254 295 354
#     4  10  20  34  59  88 113 149 200 253 302 356
#     4  10  21  37  59  82 117 161 195 245 316 365
#     4   9  20  37  61  88 118 155 203 252 303 353
#     4  10  21  38  61  89 119 160 202 251 305 365
#     4  10  22  38  55  84 123 154 199 246 308 377
#
# _framework density 23.582678999999999
#
# number of rings (size 3 to 8) (size 9 to 14) (size 15 to 20)
#    0.000    2.333    0.000    1.500    4.667    2.000 
#    0.000    0.833    0.000    0.000    0.000    0.000 
#    0.000    0.000    0.000    0.000    0.000    0.000 
#
# Total GULP energy -594640.474021 kJ/mol
# GULP energy per Si atom -12388.343209 kJ/mol
# Density = 2.352900 g / cm^3
# Si number density = 23.582679 Si / 1000 Ang^3
#
#
#
# Elastic Constant Matrix: (Units=GPa)
#
#
# Indices 1 2 3 4 5 6 
#
# 1 83.3841 2.0187 14.3605 0.0000 0.0000 0.0000
# 2 2.0187 43.6982 12.9045 0.0000 0.0000 0.0000
# 3 14.3605 12.9045 105.3678 0.0000 0.0000 0.0000
# 4 0.0000 0.0000 0.0000 16.5453 0.0000 0.0000
# 5 0.0000 0.0000 0.0000 0.0000 15.3226 0.0000
# 6 0.0000 0.0000 0.0000 0.0000 0.0000 28.7030
#
#
#
# Elastic Compliance Matrix: (Units=1/GPa)
#
#
# Indices 1 2 3 4 5 6 
#
# 1 0.012281 -0.000076 -0.001665 0.000000 0.000000 0.000000
# 2 -0.000076 0.023743 -0.002898 0.000000 0.000000 0.000000
# 3 -0.001665 -0.002898 0.010072 0.000000 0.000000 0.000000
# 4 0.000000 0.000000 0.000000 0.060440 0.000000 0.000000
# 5 0.000000 0.000000 0.000000 0.000000 0.065263 0.000000
# 6 0.000000 0.000000 0.000000 0.000000 0.000000 0.034840
#
#
# Mechanical properties :
#
#
# Convention : Reuss Voigt Hill
#
# Bulk Modulus (GPa) = 27.15828 32.33528 29.74678
# Shear Modulus (GPa) = 21.91165 25.65861 23.78513
#
# Velocity S-wave (km/s) = 3.05149 3.30210 3.17927
# Velocity P-wave (km/s) = 4.89455 5.31787 5.11060
#
# Compressibility (1/GPa) = 0.03682118
#
# Stress axis : x y z
#
# Youngs Moduli (GPa) = 81.42535 42.11694 99.28233
#
# Poissons Ratio (x) = 0.00319 0.16526
# Poissons Ratio (y) = 0.00617 0.28768
# Poissons Ratio (z) = 0.13553 0.12204
#
# Static dielectric constant tensor:
#      x y z
#    x 4.239450 0.000000 0.000000 
#    y 0.000000 4.187540 0.000000 
#    z 0.000000 0.000000 4.430510 
# 
# 
# High freq. dielectric constant tensor:
#      x y z
#    x 1.925360 0.000000 0.000000 
#    y 0.000000 1.914540 0.000000 
#    z 0.000000 0.000000 1.915120 
# 
# From -- ./inp_files/20198.got.cif
#   From: 2010.03.12/outbox.cif.g09.slc.cpg/sg57_11_cif.got.tgz:20198.got - 2010.04.16 15:48:40.
