data_PCOD8232781
_publ_section_title
;
Structure prediction by ZEFSAII (Michael W. Deem and Ramdas Pophale) SiO2 
 PCOD8232781
Probable space group: P B C M
;
_chemical_formula_sum "Si O2"
_cell_formula_units_Z 48
_cell_length_a 9.544116
_cell_length_b 30.438929
_cell_length_c 8.813316
_cell_angle_alpha 90.000000
_cell_angle_beta 90.000000
_cell_angle_gamma 90.000000
_cell_volume 2560.379956
_symmetry_space_group_name_H-M "P B C M"
_symmetry_group_IT_number 57
_symmetry_cell_setting 'orthorhombic'
loop_
_space_group_symop_operation_xyz
x,y,z
-x,-y,1/2+z
x,1/2-y,-z
-x,1/2+y,1/2-z
-x,-y,-z
x,y,1/2-z
-x,1/2+y,z
x,1/2-y,1/2+z
loop_
_atom_site_type_symbol
_atom_site_label
_atom_site_fract_x
_atom_site_fract_y
_atom_site_fract_z
Si Si1 0.795797 0.703627 0.572198
Si Si2 0.353467 0.513470 0.428985
Si Si3 0.689865 0.106347 0.574000
Si Si4 0.787621 0.934822 0.925287
Si Si5 0.424312 0.143256 0.072904
Si Si6 0.996434 0.874286 0.423427
O O1 0.833450 0.750000 0.500000
O O2 0.772096 0.708927 0.750000
O O3 0.653737 0.684722 0.499816
O O4 0.925956 0.671939 0.532571
O O5 0.500000 0.500000 0.500000
O O6 0.370690 0.514959 0.250000
O O7 0.306185 0.560677 0.486239
O O8 0.235432 0.478489 0.476543
O O9 0.657426 0.097490 0.750000
O O10 0.574800 0.139016 0.505472
O O11 0.838424 0.130157 0.549593
O O12 0.794226 0.948078 0.750000
O O13 0.660995 0.901342 0.958729
O O14 0.934352 0.913074 0.972774
O O15 0.443615 0.152070 0.250000
O O16 0.960995 0.886422 0.250000
#
# Coordination Sequence:
#
# PCOD8232781 Si02
#       6
#     8   8   8   8   8   8
#     4  10  20  38  63  88 113 142 183 229 278 340
#     4  12  23  35  54  80 112 151 196 242 286 334
#     4  11  22  37  57  82 115 153 191 236 287 336
#     4  10  20  35  56  81 110 148 194 238 280 330
#     4  10  20  35  57  84 113 145 186 231 279 334
#     4   9  21  39  58  82 114 152 190 230 284 342
#
# _framework density 18.747218
#
# number of rings (size 3 to 8) (size 9 to 14) (size 15 to 20)
#    0.000    1.667    1.667    3.500    0.000    4.000 
#    0.000    0.833    0.000    2.000    0.000    0.000 
#    0.000    0.000    0.000    0.000    0.000    0.000 
#
# Total GULP energy -595474.681984 kJ/mol
# GULP energy per Si atom -12405.722541 kJ/mol
# Density = 1.870455 g / cm^3
# Si number density = 18.747218 Si / 1000 Ang^3
#
#
#
# Elastic Constant Matrix: (Units=GPa)
#
#
# Indices 1 2 3 4 5 6 
#
# 1 116.4747 46.6498 53.2318 0.0000 0.0000 0.0000
# 2 46.6498 106.1465 51.9996 0.0000 0.0000 0.0000
# 3 53.2318 51.9996 128.8326 0.0000 0.0000 0.0000
# 4 0.0000 0.0000 0.0000 34.7046 0.0000 0.0000
# 5 0.0000 0.0000 0.0000 0.0000 29.5168 0.0000
# 6 0.0000 0.0000 0.0000 0.0000 0.0000 24.2718
#
#
#
# Elastic Compliance Matrix: (Units=1/GPa)
#
#
# Indices 1 2 3 4 5 6 
#
# 1 0.011488 -0.003395 -0.003377 0.000000 0.000000 0.000000
# 2 -0.003395 0.012746 -0.003742 0.000000 0.000000 0.000000
# 3 -0.003377 -0.003742 0.010667 0.000000 0.000000 0.000000
# 4 0.000000 0.000000 0.000000 0.028815 0.000000 0.000000
# 5 0.000000 0.000000 0.000000 0.000000 0.033879 0.000000
# 6 0.000000 0.000000 0.000000 0.000000 0.000000 0.041200
#
#
# Mechanical properties :
#
#
# Convention : Reuss Voigt Hill
#
# Bulk Modulus (GPa) = 72.07069 72.80180 72.43625
# Shear Modulus (GPa) = 30.40487 31.00348 30.70418
#
# Velocity S-wave (km/s) = 4.03157 4.07106 4.05136
# Velocity P-wave (km/s) = 7.75875 7.81126 7.78505
#
# Compressibility (1/GPa) = 0.01387527
#
# Stress axis : x y z
#
# Youngs Moduli (GPa) = 87.04397 78.45599 93.74279
#
# Poissons Ratio (x) = 0.26634 0.31654
# Poissons Ratio (y) = 0.29550 0.35077
# Poissons Ratio (z) = 0.29392 0.29357
#
# Static dielectric constant tensor:
#      x y z
#    x 3.487520 0.000000 0.000000 
#    y 0.000000 3.373160 0.000000 
#    z 0.000000 0.000000 3.612660 
# 
# 
# High freq. dielectric constant tensor:
#      x y z
#    x 1.724960 0.000000 0.000000 
#    y 0.000000 1.715010 0.000000 
#    z 0.000000 0.000000 1.744270 
# 
# From -- ./inp_files/1988.got.cif
#   From: 2010.03.12/outbox.cif.g09.slc.cpg/sg57_1_cif.got.tgz:1988.got - 2010.04.16 15:48:40.
