data_PCOD8232382
_publ_section_title
;
Structure prediction by ZEFSAII (Michael W. Deem and Ramdas Pophale) SiO2 
 PCOD8232382
Probable space group: P B C M
;
_chemical_formula_sum "Si O2"
_cell_formula_units_Z 56
_cell_length_a 19.634584
_cell_length_b 18.150034
_cell_length_c 8.735476
_cell_angle_alpha 90.000000
_cell_angle_beta 90.000000
_cell_angle_gamma 90.000000
_cell_volume 3113.047319
_symmetry_space_group_name_H-M "P B C M"
_symmetry_group_IT_number 57
_symmetry_cell_setting 'orthorhombic'
loop_
_space_group_symop_operation_xyz
x,y,z
-x,-y,1/2+z
x,1/2-y,-z
-x,1/2+y,1/2-z
-x,-y,-z
x,y,1/2-z
-x,1/2+y,z
x,1/2-y,1/2+z
loop_
_atom_site_type_symbol
_atom_site_label
_atom_site_fract_x
_atom_site_fract_y
_atom_site_fract_z
Si Si1 0.431463 0.669274 0.929191
Si Si2 0.983191 0.671221 0.924260
Si Si3 0.344208 0.972692 0.431333
Si Si4 0.545902 0.562622 0.930249
Si Si5 0.863303 0.171893 0.923803
Si Si6 0.932410 0.534785 0.070063
Si Si7 0.801179 0.039922 0.070082
O O1 0.421210 0.678984 0.750000
O O2 0.378985 0.604948 0.987694
O O3 0.509047 0.641323 0.966609
O O4 0.417424 0.750000 0.000000
O O5 0.956698 0.675069 0.750000
O O6 0.060279 0.638718 0.926597
O O7 0.981549 0.750000 0.000000
O O8 0.934298 0.620816 0.026558
O O9 0.343777 0.974215 0.250000
O O10 0.269321 0.983582 0.496153
O O11 0.381379 0.047643 0.491076
O O12 0.552672 0.551821 0.750000
O O13 0.500000 0.500000 0.000000
O O14 0.835878 0.175344 0.750000
O O15 0.864055 0.250000 0.000000
O O16 0.812827 0.124850 0.027902
O O17 0.932277 0.521855 0.250000
O O18 0.862729 0.505577 0.000972
O O19 0.000000 0.500000 0.000000
O O20 0.798802 0.027893 0.250000
#
# Coordination Sequence:
#
# PCOD8232382 Si02
#       7
#     8   8   8   8   8   8   8
#     4   9  19  33  54  83 114 145 180 220 261 314
#     4  10  20  35  56  80 106 137 175 224 279 333
#     4  10  21  37  54  77 110 147 186 227 273 328
#     4   9  17  32  53  79 107 140 181 222 263 311
#     4  10  20  34  52  74 105 140 178 222 271 330
#     4  12  23  37  57  81 109 142 185 238 286 336
#     4  12  24  37  55  79 109 147 187 230 283 338
#
# _framework density 17.988803000000001
#
# number of rings (size 3 to 8) (size 9 to 14) (size 15 to 20)
#    0.000    1.714    1.429    5.143    0.000    5.143 
#    0.000    1.429    0.000    0.857    0.000    4.000 
#    0.000    0.000    0.000    0.000    0.000    0.000 
#
# Total GULP energy -694031.962595 kJ/mol
# GULP energy per Si atom -12393.427903 kJ/mol
# Density = 1.794786 g / cm^3
# Si number density = 17.988803 Si / 1000 Ang^3
#
#
#
# Elastic Constant Matrix: (Units=GPa)
#
#
# Indices 1 2 3 4 5 6 
#
# 1 119.2469 39.5785 31.3856 0.0000 0.0000 0.0000
# 2 39.5785 44.5309 20.7594 0.0000 0.0000 0.0000
# 3 31.3856 20.7594 73.5425 0.0000 0.0000 0.0000
# 4 0.0000 0.0000 0.0000 32.1872 0.0000 0.0000
# 5 0.0000 0.0000 0.0000 0.0000 30.9649 0.0000
# 6 0.0000 0.0000 0.0000 0.0000 0.0000 28.4234
#
#
#
# Elastic Compliance Matrix: (Units=1/GPa)
#
#
# Indices 1 2 3 4 5 6 
#
# 1 0.012277 -0.009753 -0.002487 0.000000 0.000000 0.000000
# 2 -0.009753 0.033607 -0.005324 0.000000 0.000000 0.000000
# 3 -0.002487 -0.005324 0.016162 0.000000 0.000000 0.000000
# 4 0.000000 0.000000 0.000000 0.031068 0.000000 0.000000
# 5 0.000000 0.000000 0.000000 0.000000 0.032295 0.000000
# 6 0.000000 0.000000 0.000000 0.000000 0.000000 0.035182
#
#
# Mechanical properties :
#
#
# Convention : Reuss Voigt Hill
#
# Bulk Modulus (GPa) = 37.14929 46.75192 41.95061
# Shear Modulus (GPa) = 24.42708 28.02155 26.22432
#
# Velocity S-wave (km/s) = 3.68897 3.95108 3.82227
# Velocity P-wave (km/s) = 6.23224 6.84548 6.54605
#
# Compressibility (1/GPa) = 0.02691841
#
# Stress axis : x y z
#
# Youngs Moduli (GPa) = 81.45027 29.75613 61.87476
#
# Poissons Ratio (x) = 0.29021 0.15386
# Poissons Ratio (y) = 0.79437 0.32943
# Poissons Ratio (z) = 0.20254 0.15843
#
# Static dielectric constant tensor:
#      x y z
#    x 3.570420 0.000000 0.000000 
#    y 0.000000 3.443100 0.000000 
#    z 0.000000 0.000000 2.759060 
# 
# 
# High freq. dielectric constant tensor:
#      x y z
#    x 1.681780 0.000000 0.000000 
#    y 0.000000 1.688070 0.000000 
#    z 0.000000 0.000000 1.711830 
# 
# From -- ./inp_files/8280.got.cif
#   From: 2010.03.12/outbox.cif.g09.slc.cpg/sg57_5_cif.got.tgz:8280.got - 2010.04.16 15:48:40.
