data_PCOD8232159
_publ_section_title
;
Structure prediction by ZEFSAII (Michael W. Deem and Ramdas Pophale) SiO2 
 PCOD8232159
Probable space group: P B C M
;
_chemical_formula_sum "Si O2"
_cell_formula_units_Z 64
_cell_length_a 22.765045
_cell_length_b 8.766878
_cell_length_c 13.278356
_cell_angle_alpha 90.000000
_cell_angle_beta 90.000000
_cell_angle_gamma 90.000000
_cell_volume 2650.072676
_symmetry_space_group_name_H-M "P B C M"
_symmetry_group_IT_number 57
_symmetry_cell_setting 'orthorhombic'
loop_
_space_group_symop_operation_xyz
x,y,z
-x,-y,1/2+z
x,1/2-y,-z
-x,1/2+y,1/2-z
-x,-y,-z
x,y,1/2-z
-x,1/2+y,z
x,1/2-y,1/2+z
loop_
_atom_site_type_symbol
_atom_site_label
_atom_site_fract_x
_atom_site_fract_y
_atom_site_fract_z
Si Si1 0.647392 0.166885 0.362609
Si Si2 0.140316 0.819457 0.635029
Si Si3 0.079541 0.142013 0.130391
Si Si4 0.184304 0.511186 0.551787
Si Si5 0.024304 0.666152 0.631185
Si Si6 0.577608 0.668634 0.371201
Si Si7 0.466489 0.491925 0.133794
Si Si8 0.317240 0.987958 0.054061
O O1 0.666877 0.123215 0.250000
O O2 0.683065 0.056619 0.436509
O O3 0.660655 0.343585 0.381373
O O4 0.578151 0.134049 0.379111
O O5 0.146166 0.876428 0.750000
O O6 0.170655 0.654045 0.624510
O O7 0.172566 0.942122 0.564310
O O8 0.071965 0.797831 0.601813
O O9 0.086921 0.141224 0.250000
O O10 0.041254 0.287703 0.093272
O O11 0.143993 0.135003 0.080306
O O12 0.043004 0.996756 0.089060
O O13 0.250763 0.462050 0.575630
O O14 0.023445 0.657211 0.750000
O O15 0.581034 0.669122 0.250000
O O16 0.559798 0.836259 0.414476
O O17 0.529380 0.544788 0.411641
O O18 0.640886 0.628426 0.417586
O O19 0.477362 0.454631 0.250000
#
# Coordination Sequence:
#
# PCOD8232159 Si02
#       8
#     8   8   8   8   8   8   8   8
#     4  10  21  38  58  82 113 146 188 239 282 329
#     4   9  17  31  51  75 105 137 175 229 276 316
#     4   9  17  31  52  78 109 140 176 227 274 322
#     4  10  20  32  50  79 108 142 187 220 264 332
#     4   8  15  28  49  76 102 134 174 217 274 325
#     4  10  20  36  60  90 121 149 185 233 278 332
#     4   9  19  37  62  90 118 150 187 232 288 333
#     4  11  23  35  56  87 114 151 192 226 278 338
#
# _framework density 24.150283000000002
#
# number of rings (size 3 to 8) (size 9 to 14) (size 15 to 20)
#    0.000    2.500    0.000    3.750    0.000    7.000 
#    0.000    0.000    0.000    6.000    0.000   15.750 
#    0.000    0.000    0.000    0.000    0.000    0.000 
#
# Total GULP energy -793433.507291 kJ/mol
# GULP energy per Si atom -12397.398551 kJ/mol
# Density = 2.409532 g / cm^3
# Si number density = 24.150283 Si / 1000 Ang^3
#
#
#
# Elastic Constant Matrix: (Units=GPa)
#
#
# Indices 1 2 3 4 5 6 
#
# 1 196.2014 53.4124 26.2609 0.0000 0.0000 0.0000
# 2 53.4124 75.3391 25.3491 0.0000 0.0000 0.0000
# 3 26.2609 25.3491 74.1052 0.0000 0.0000 0.0000
# 4 0.0000 0.0000 0.0000 20.6271 0.0000 0.0000
# 5 0.0000 0.0000 0.0000 0.0000 25.0860 0.0000
# 6 0.0000 0.0000 0.0000 0.0000 0.0000 27.6835
#
#
#
# Elastic Compliance Matrix: (Units=1/GPa)
#
#
# Indices 1 2 3 4 5 6 
#
# 1 0.006358 -0.004237 -0.000804 0.000000 0.000000 0.000000
# 2 -0.004237 0.017823 -0.004595 0.000000 0.000000 0.000000
# 3 -0.000804 -0.004595 0.015351 0.000000 0.000000 0.000000
# 4 0.000000 0.000000 0.000000 0.048480 0.000000 0.000000
# 5 0.000000 0.000000 0.000000 0.000000 0.039863 0.000000
# 6 0.000000 0.000000 0.000000 0.000000 0.000000 0.036123
#
#
# Mechanical properties :
#
#
# Convention : Reuss Voigt Hill
#
# Bulk Modulus (GPa) = 49.35796 61.74339 55.55068
# Shear Modulus (GPa) = 26.31258 30.72087 28.51672
#
# Velocity S-wave (km/s) = 3.30439 3.57048 3.44001
# Velocity P-wave (km/s) = 5.91953 6.52837 6.23139
#
# Compressibility (1/GPa) = 0.02026016
#
# Stress axis : x y z
#
# Youngs Moduli (GPa) = 157.28627 56.10602 65.14208
#
# Poissons Ratio (x) = 0.23772 0.05235
# Poissons Ratio (y) = 0.66643 0.29935
# Poissons Ratio (z) = 0.12641 0.25783
#
# Static dielectric constant tensor:
#      x y z
#    x 4.363970 0.000000 0.000000 
#    y 0.000000 4.141840 0.000000 
#    z 0.000000 0.000000 4.395830 
# 
# 
# High freq. dielectric constant tensor:
#      x y z
#    x 1.949160 0.000000 0.000000 
#    y 0.000000 1.929220 0.000000 
#    z 0.000000 0.000000 1.974290 
# 
# From -- ./inp_files/19544.got.cif
#   From: 2010.03.12/outbox.cif.g09.slc.cpg/sg57_10_cif.got.tgz:19544.got - 2010.04.16 15:48:40.
