data_PCOD8232413
_publ_section_title
;
Structure prediction by ZEFSAII (Michael W. Deem and Ramdas Pophale) SiO2 
 PCOD8232413
Probable space group: P B C M
;
_chemical_formula_sum "Si O2"
_cell_formula_units_Z 48
_cell_length_a 11.619711
_cell_length_b 25.384770
_cell_length_c 9.077613
_cell_angle_alpha 90.000000
_cell_angle_beta 90.000000
_cell_angle_gamma 90.000000
_cell_volume 2677.566238
_symmetry_space_group_name_H-M "P B C M"
_symmetry_group_IT_number 57
_symmetry_cell_setting 'orthorhombic'
loop_
_space_group_symop_operation_xyz
x,y,z
-x,-y,1/2+z
x,1/2-y,-z
-x,1/2+y,1/2-z
-x,-y,-z
x,y,1/2-z
-x,1/2+y,z
x,1/2-y,1/2+z
loop_
_atom_site_type_symbol
_atom_site_label
_atom_site_fract_x
_atom_site_fract_y
_atom_site_fract_z
Si Si1 0.508061 0.443654 0.922056
Si Si2 0.879493 0.999061 0.922304
Si Si3 0.124160 0.696575 0.922394
Si Si4 0.739014 0.603075 0.080067
Si Si5 0.726941 0.403077 0.075907
Si Si6 0.138347 0.303989 0.076653
O O1 0.529579 0.454004 0.750000
O O2 0.393390 0.410187 0.948277
O O3 0.500000 0.500000 0.000000
O O4 0.607510 0.407382 0.989975
O O5 0.901049 0.002099 0.750000
O O6 0.813134 0.946865 0.969790
O O7 0.805702 0.048631 0.975450
O O8 0.000000 0.000000 0.000000
O O9 0.132831 0.706278 0.750000
O O10 0.209050 0.650228 0.973211
O O11 0.993265 0.681491 0.966484
O O12 0.164713 0.750000 0.000000
O O13 0.762119 0.617297 0.250000
O O14 0.775399 0.651464 0.978976
O O15 0.703103 0.404795 0.250000
O O16 0.153038 0.297463 0.250000
O O17 0.175584 0.250000 0.000000
#
# Coordination Sequence:
#
# PCOD8232413 Si02
#       6
#     8   8   8   8   8   8
#     4  11  22  38  58  80 109 148 189 229 275 329
#     4  10  20  34  52  78 112 143 178 228 280 331
#     4   9  19  35  57  82 113 146 181 226 276 328
#     4  10  21  37  55  78 111 146 182 230 277 325
#     4  10  20  37  56  79 112 147 184 229 277 326
#     4  10  20  36  59  85 112 146 184 225 275 333
#
# _framework density 17.926728000000001
#
# number of rings (size 3 to 8) (size 9 to 14) (size 15 to 20)
#    0.000    2.000    1.667    2.000    0.000    5.333 
#    0.000    0.833    0.000    2.000    0.000    0.000 
#    0.000    0.000    0.000    0.000    0.000    0.000 
#
# Total GULP energy -595370.651789 kJ/mol
# GULP energy per Si atom -12403.555246 kJ/mol
# Density = 1.788593 g / cm^3
# Si number density = 17.926728 Si / 1000 Ang^3
#
#
#
# Elastic Constant Matrix: (Units=GPa)
#
#
# Indices 1 2 3 4 5 6 
#
# 1 127.0131 74.2800 56.0874 0.0000 0.0000 0.0000
# 2 74.2800 148.3904 63.1956 0.0000 0.0000 0.0000
# 3 56.0874 63.1956 70.4173 0.0000 0.0000 0.0000
# 4 0.0000 0.0000 0.0000 34.3570 0.0000 0.0000
# 5 0.0000 0.0000 0.0000 0.0000 35.0177 0.0000
# 6 0.0000 0.0000 0.0000 0.0000 0.0000 13.3748
#
#
#
# Elastic Compliance Matrix: (Units=1/GPa)
#
#
# Indices 1 2 3 4 5 6 
#
# 1 0.013143 -0.003433 -0.007388 0.000000 0.000000 0.000000
# 2 -0.003433 0.011805 -0.007860 0.000000 0.000000 0.000000
# 3 -0.007388 -0.007860 0.027139 0.000000 0.000000 0.000000
# 4 0.000000 0.000000 0.000000 0.029106 0.000000 0.000000
# 5 0.000000 0.000000 0.000000 0.000000 0.028557 0.000000
# 6 0.000000 0.000000 0.000000 0.000000 0.000000 0.074768
#
#
# Mechanical properties :
#
#
# Convention : Reuss Voigt Hill
#
# Bulk Modulus (GPa) = 67.90614 81.43855 74.67235
# Shear Modulus (GPa) = 22.04713 26.70041 24.37377
#
# Velocity S-wave (km/s) = 3.51072 3.86349 3.69132
# Velocity P-wave (km/s) = 7.37534 8.08883 7.74031
#
# Compressibility (1/GPa) = 0.01472621
#
# Stress axis : x y z
#
# Youngs Moduli (GPa) = 76.08543 84.71257 36.84729
#
# Poissons Ratio (x) = 0.29080 0.27222
# Poissons Ratio (y) = 0.26119 0.28961
# Poissons Ratio (z) = 0.56210 0.66582
#
# Static dielectric constant tensor:
#      x y z
#    x 3.360530 0.000000 0.000000 
#    y 0.000000 3.356450 0.000000 
#    z 0.000000 0.000000 3.297600 
# 
# 
# High freq. dielectric constant tensor:
#      x y z
#    x 1.695530 0.000000 0.000000 
#    y 0.000000 1.697770 0.000000 
#    z 0.000000 0.000000 1.694920 
# 
# From -- ./inp_files/3087.got.cif
#   From: 2010.03.12/outbox.cif.g09.slc.cpg/sg57_2_cif.got.tgz:3087.got - 2010.04.16 15:48:40.
