data_PCOD8232540
_publ_section_title
;
Structure prediction by ZEFSAII (Michael W. Deem and Ramdas Pophale) SiO2 
 PCOD8232540
Probable space group: P B C M
;
_chemical_formula_sum "Si O2"
_cell_formula_units_Z 64
_cell_length_a 20.262931
_cell_length_b 18.250349
_cell_length_c 9.221007
_cell_angle_alpha 90.000000
_cell_angle_beta 90.000000
_cell_angle_gamma 90.000000
_cell_volume 3409.979681
_symmetry_space_group_name_H-M "P B C M"
_symmetry_group_IT_number 57
_symmetry_cell_setting 'orthorhombic'
loop_
_space_group_symop_operation_xyz
x,y,z
-x,-y,1/2+z
x,1/2-y,-z
-x,1/2+y,1/2-z
-x,-y,-z
x,y,1/2-z
-x,1/2+y,z
x,1/2-y,1/2+z
loop_
_atom_site_type_symbol
_atom_site_label
_atom_site_fract_x
_atom_site_fract_y
_atom_site_fract_z
Si Si1 0.008331 0.324305 0.081444
Si Si2 0.498495 0.576353 0.081148
Si Si3 0.885145 0.417600 0.416811
Si Si4 0.735445 0.094200 0.584888
Si Si5 0.625545 0.175747 0.080337
Si Si6 0.378989 0.173126 0.420559
Si Si7 0.255768 0.426410 0.580940
Si Si8 0.875450 0.566079 0.920529
O O1 0.009129 0.306746 0.250000
O O2 0.065753 0.379965 0.037962
O O3 0.937655 0.356886 0.033798
O O4 0.022297 0.250000 0.000000
O O5 0.507683 0.559827 0.250000
O O6 0.429875 0.615759 0.046547
O O7 0.557538 0.628013 0.025202
O O8 0.500000 0.500000 0.000000
O O9 0.897010 0.441516 0.250000
O O10 0.812020 0.384700 0.435870
O O11 0.895207 0.487671 0.516882
O O12 0.712539 0.108575 0.750000
O O13 0.694903 0.145849 0.477866
O O14 0.723401 0.009459 0.542787
O O15 0.631984 0.192211 0.250000
O O16 0.605323 0.250000 0.000000
O O17 0.376663 0.250000 0.500000
O O18 0.382674 0.187782 0.250000
O O19 0.314475 0.127263 0.463922
O O20 0.237875 0.420936 0.750000
O O21 0.191613 0.402887 0.490807
O O22 0.864667 0.558970 0.750000
#
# Coordination Sequence:
#
# PCOD8232540 Si02
#       8
#     8   8   8   8   8   8   8   8
#     4  10  22  37  53  77 108 141 178 220 267 318
#     4  10  22  39  59  82 107 139 180 223 266 313
#     4   9  19  37  58  79 105 139 179 220 265 317
#     4   9  18  35  58  80 105 139 177 220 266 313
#     4  11  23  37  55  81 112 144 177 216 264 317
#     4  10  21  37  56  80 110 143 179 218 264 316
#     4   9  19  36  57  79 106 142 179 217 264 316
#     4  10  20  34  55  82 108 137 177 222 265 314
#
# _framework density 18.768439000000001
#
# number of rings (size 3 to 8) (size 9 to 14) (size 15 to 20)
#    0.000    2.250    0.000    3.000    0.000    7.500 
#    0.000    3.750    0.000    0.000    0.000    0.000 
#    0.000    0.000    0.000    0.000    0.000    0.000 
#
# Total GULP energy -793847.494344 kJ/mol
# GULP energy per Si atom -12403.867099 kJ/mol
# Density = 1.872572 g / cm^3
# Si number density = 18.768439 Si / 1000 Ang^3
#
#
#
# Elastic Constant Matrix: (Units=GPa)
#
#
# Indices 1 2 3 4 5 6 
#
# 1 100.0271 42.0085 48.8910 0.0000 0.0000 0.0000
# 2 42.0085 88.2478 49.8538 0.0000 0.0000 0.0000
# 3 48.8910 49.8538 70.7260 0.0000 0.0000 0.0000
# 4 0.0000 0.0000 0.0000 36.9336 0.0000 0.0000
# 5 0.0000 0.0000 0.0000 0.0000 29.7533 0.0000
# 6 0.0000 0.0000 0.0000 0.0000 0.0000 17.2227
#
#
#
# Elastic Compliance Matrix: (Units=1/GPa)
#
#
# Indices 1 2 3 4 5 6 
#
# 1 0.015347 -0.002181 -0.009072 0.000000 0.000000 0.000000
# 2 -0.002181 0.019140 -0.011984 0.000000 0.000000 0.000000
# 3 -0.009072 -0.011984 0.028858 0.000000 0.000000 0.000000
# 4 0.000000 0.000000 0.000000 0.027076 0.000000 0.000000
# 5 0.000000 0.000000 0.000000 0.000000 0.033610 0.000000
# 6 0.000000 0.000000 0.000000 0.000000 0.000000 0.058063
#
#
# Mechanical properties :
#
#
# Convention : Reuss Voigt Hill
#
# Bulk Modulus (GPa) = 59.27179 60.05638 59.66409
# Shear Modulus (GPa) = 21.35013 24.66509 23.00761
#
# Velocity S-wave (km/s) = 3.37642 3.62909 3.50504
# Velocity P-wave (km/s) = 6.84467 7.04475 6.94543
#
# Compressibility (1/GPa) = 0.01687143
#
# Stress axis : x y z
#
# Youngs Moduli (GPa) = 65.15784 52.24683 34.65279
#
# Poissons Ratio (x) = 0.11393 0.31437
# Poissons Ratio (y) = 0.14209 0.41528
# Poissons Ratio (z) = 0.59112 0.62613
#
# Static dielectric constant tensor:
#      x y z
#    x 3.652540 0.000000 0.000000 
#    y 0.000000 3.342950 0.000000 
#    z 0.000000 0.000000 3.389050 
# 
# 
# High freq. dielectric constant tensor:
#      x y z
#    x 1.743860 0.000000 0.000000 
#    y 0.000000 1.726620 0.000000 
#    z 0.000000 0.000000 1.726120 
# 
# From -- ./inp_files/7152.got.cif
#   From: 2010.03.12/outbox.cif.g09.slc.cpg/sg57_4_cif.got.tgz:7152.got - 2010.04.16 15:48:40.
