data_PCOD8232998
_publ_section_title
;
Structure prediction by ZEFSAII (Michael W. Deem and Ramdas Pophale) SiO2 
 PCOD8232998
Probable space group: P B C M
;
_chemical_formula_sum "Si O2"
_cell_formula_units_Z 64
_cell_length_a 23.760176
_cell_length_b 15.255343
_cell_length_c 8.774318
_cell_angle_alpha 90.000000
_cell_angle_beta 90.000000
_cell_angle_gamma 90.000000
_cell_volume 3180.423840
_symmetry_space_group_name_H-M "P B C M"
_symmetry_group_IT_number 57
_symmetry_cell_setting 'orthorhombic'
loop_
_space_group_symop_operation_xyz
x,y,z
-x,-y,1/2+z
x,1/2-y,-z
-x,1/2+y,1/2-z
-x,-y,-z
x,y,1/2-z
-x,1/2+y,z
x,1/2-y,1/2+z
loop_
_atom_site_type_symbol
_atom_site_label
_atom_site_fract_x
_atom_site_fract_y
_atom_site_fract_z
Si Si1 0.120532 0.409870 0.428637
Si Si2 0.490627 0.349863 0.069442
Si Si3 0.235367 0.162098 0.570200
Si Si4 0.885116 0.084303 0.923316
Si Si5 0.420386 0.501300 0.929217
Si Si6 0.699521 0.490518 0.930131
Si Si7 0.230552 0.661051 0.924756
Si Si8 0.997179 0.656300 0.930895
O O1 0.117164 0.399424 0.250000
O O2 0.170984 0.348773 0.491303
O O3 0.138109 0.507250 0.472058
O O4 0.058784 0.390134 0.498078
O O5 0.484805 0.337822 0.250000
O O6 0.544215 0.411100 0.025141
O O7 0.493484 0.250000 0.000000
O O8 0.438685 0.409389 0.009125
O O9 0.261309 0.250000 0.500000
O O10 0.235413 0.168490 0.750000
O O11 0.274585 0.082822 0.516716
O O12 0.892102 0.051577 0.750000
O O13 0.837748 0.159464 0.933725
O O14 0.945643 0.111960 0.990608
O O15 0.424282 0.485089 0.750000
O O16 0.357995 0.524292 0.980812
O O17 0.689047 0.486479 0.750000
O O18 0.743374 0.416826 0.978268
O O19 0.250958 0.655519 0.750000
O O20 0.252384 0.750000 0.000000
O O21 0.997381 0.660881 0.750000
O O22 0.996025 0.750000 0.000000
#
# Coordination Sequence:
#
# PCOD8232998 Si02
#       8
#     8   8   8   8   8   8   8   8
#     4  10  20  36  56  79 109 144 187 238 297 360
#     4  10  21  39  65  96 130 168 207 249 299 353
#     4  10  22  38  58  84 113 152 198 245 300 358
#     4  10  21  36  55  81 109 143 189 238 297 363
#     4  10  22  40  63  93 129 167 209 254 301 352
#     4  11  23  41  62  87 123 162 206 254 302 356
#     4  11  23  39  60  85 115 154 200 250 305 366
#     4  10  21  35  52  78 109 141 183 236 293 360
#
# _framework density 20.123106
#
# number of rings (size 3 to 8) (size 9 to 14) (size 15 to 20)
#    0.000    1.750    1.250    2.625    0.000    5.500 
#    0.000    2.500    0.000    0.000    0.000    0.000 
#    0.000    0.000    0.000    0.000    0.000    0.000 
#
# Total GULP energy -793293.821978 kJ/mol
# GULP energy per Si atom -12395.215968 kJ/mol
# Density = 2.007730 g / cm^3
# Si number density = 20.123106 Si / 1000 Ang^3
#
#
#
# Elastic Constant Matrix: (Units=GPa)
#
#
# Indices 1 2 3 4 5 6 
#
# 1 98.1922 27.1938 24.7860 0.0000 0.0000 0.0000
# 2 27.1938 135.5187 32.2281 0.0000 0.0000 0.0000
# 3 24.7860 32.2281 31.5888 0.0000 0.0000 0.0000
# 4 0.0000 0.0000 0.0000 38.9849 0.0000 0.0000
# 5 0.0000 0.0000 0.0000 0.0000 22.4901 0.0000
# 6 0.0000 0.0000 0.0000 0.0000 0.0000 13.1870
#
#
#
# Elastic Compliance Matrix: (Units=1/GPa)
#
#
# Indices 1 2 3 4 5 6 
#
# 1 0.012705 -0.000236 -0.009728 0.000000 0.000000 0.000000
# 2 -0.000236 0.009747 -0.009759 0.000000 0.000000 0.000000
# 3 -0.009728 -0.009759 0.049247 0.000000 0.000000 0.000000
# 4 0.000000 0.000000 0.000000 0.025651 0.000000 0.000000
# 5 0.000000 0.000000 0.000000 0.000000 0.044464 0.000000
# 6 0.000000 0.000000 0.000000 0.000000 0.000000 0.075832
#
#
# Mechanical properties :
#
#
# Convention : Reuss Voigt Hill
#
# Bulk Modulus (GPa) = 31.00575 48.19061 39.59818
# Shear Modulus (GPa) = 18.66753 27.00518 22.83635
#
# Velocity S-wave (km/s) = 3.04907 3.66730 3.37238
# Velocity P-wave (km/s) = 5.27610 6.47550 5.90632
#
# Compressibility (1/GPa) = 0.03225208
#
# Stress axis : x y z
#
# Youngs Moduli (GPa) = 78.70863 102.59211 20.30581
#
# Poissons Ratio (x) = 0.02421 0.19754
# Poissons Ratio (y) = 0.01857 0.19817
# Poissons Ratio (z) = 0.76570 1.00124
#
# Static dielectric constant tensor:
#      x y z
#    x 4.413860 0.000000 0.000000 
#    y 0.000000 3.872670 0.000000 
#    z 0.000000 0.000000 3.547040 
# 
# 
# High freq. dielectric constant tensor:
#      x y z
#    x 1.790890 0.000000 0.000000 
#    y 0.000000 1.788960 0.000000 
#    z 0.000000 0.000000 1.781560 
# 
# From -- ./inp_files/9403.got.cif
#   From: 2010.03.12/outbox.cif.g09.slc.cpg/sg57_5_cif.got.tgz:9403.got - 2010.04.16 15:48:40.
