data_PCOD8232943
_publ_section_title
;
Structure prediction by ZEFSAII (Michael W. Deem and Ramdas Pophale) SiO2 
 PCOD8232943
Probable space group: P B C M
;
_chemical_formula_sum "Si O2"
_cell_formula_units_Z 40
_cell_length_a 8.802549
_cell_length_b 22.751264
_cell_length_c 10.037222
_cell_angle_alpha 90.000000
_cell_angle_beta 90.000000
_cell_angle_gamma 90.000000
_cell_volume 2010.145579
_symmetry_space_group_name_H-M "P B C M"
_symmetry_group_IT_number 57
_symmetry_cell_setting 'orthorhombic'
loop_
_space_group_symop_operation_xyz
x,y,z
-x,-y,1/2+z
x,1/2-y,-z
-x,1/2+y,1/2-z
-x,-y,-z
x,y,1/2-z
-x,1/2+y,z
x,1/2-y,1/2+z
loop_
_atom_site_type_symbol
_atom_site_label
_atom_site_fract_x
_atom_site_fract_y
_atom_site_fract_z
Si Si1 0.328166 0.797705 0.250000
Si Si2 0.322862 0.323070 0.250000
Si Si3 0.659777 0.875179 0.528931
Si Si4 0.837133 0.325676 0.750000
Si Si5 0.641565 0.000526 0.902959
Si Si6 0.810817 0.799517 0.750000
Si Si7 0.304071 0.877517 0.002961
O O1 0.510081 0.794774 0.250000
O O2 0.265934 0.732136 0.250000
O O3 0.269831 0.830553 0.381641
O O4 0.295230 0.364603 0.376432
O O5 0.203080 0.270573 0.250000
O O6 0.731403 0.824523 0.618410
O O7 0.478125 0.874274 0.546036
O O8 0.728161 0.938457 0.575271
O O9 0.804072 0.364327 0.620291
O O10 0.012623 0.311517 0.750000
O O11 0.587842 0.006734 0.750000
O O12 0.740618 0.057637 0.941815
O O13 0.500000 0.000000 0.000000
#
# Coordination Sequence:
#
# PCOD8232943 Si02
#       7
#     4   4   8   4   8   4   8
#     4  10  20  39  60  88 120 151 201 252 303 354
#     4  10  22  37  62  92 116 155 201 248 305 356
#     4  10  21  38  65  89 122 151 195 251 302 357
#     4  12  26  37  58  86 122 167 205 242 297 352
#     4  10  20  35  64  97 123 150 190 248 306 358
#     4  12  24  41  56  84 124 165 205 242 293 358
#     4  10  21  38  62  93 119 153 197 250 300 359
#
# _framework density 19.899056000000002
#
# number of rings (size 3 to 8) (size 9 to 14) (size 15 to 20)
#    0.000    1.600    2.000    3.000    8.400    6.400 
#    0.000    1.000    0.000    0.000    0.000    0.000 
#    0.000    0.000    0.000    0.000    0.000    0.000 
#
# Total GULP energy -496038.804854 kJ/mol
# GULP energy per Si atom -12400.970121 kJ/mol
# Density = 1.985377 g / cm^3
# Si number density = 19.899056 Si / 1000 Ang^3
#
#
#
# Elastic Constant Matrix: (Units=GPa)
#
#
# Indices 1 2 3 4 5 6 
#
# 1 57.6433 22.0097 40.0606 0.0000 0.0000 0.0000
# 2 22.0097 116.8010 47.3911 0.0000 0.0000 0.0000
# 3 40.0606 47.3911 164.5773 0.0000 0.0000 0.0000
# 4 0.0000 0.0000 0.0000 32.6907 0.0000 0.0000
# 5 0.0000 0.0000 0.0000 0.0000 1.4327 0.0000
# 6 0.0000 0.0000 0.0000 0.0000 0.0000 8.5304
#
#
#
# Elastic Compliance Matrix: (Units=1/GPa)
#
#
# Indices 1 2 3 4 5 6 
#
# 1 0.021355 -0.002168 -0.004574 0.000000 0.000000 0.000000
# 2 -0.002168 0.009914 -0.002327 0.000000 0.000000 0.000000
# 3 -0.004574 -0.002327 0.007860 0.000000 0.000000 0.000000
# 4 0.000000 0.000000 0.000000 0.030590 0.000000 0.000000
# 5 0.000000 0.000000 0.000000 0.000000 0.697963 0.000000
# 6 0.000000 0.000000 0.000000 0.000000 0.000000 0.117227
#
#
# Mechanical properties :
#
#
# Convention : Reuss Voigt Hill
#
# Bulk Modulus (GPa) = 47.64083 61.99381 54.81732
# Shear Modulus (GPa) = 5.49424 23.83480 14.66452
#
# Velocity S-wave (km/s) = 1.66345 3.46466 2.71762
# Velocity P-wave (km/s) = 5.26143 6.87218 6.12003
#
# Compressibility (1/GPa) = 0.02099040
#
# Stress axis : x y z
#
# Youngs Moduli (GPa) = 46.82851 100.86372 127.23336
#
# Poissons Ratio (x) = 0.21870 0.58192
# Poissons Ratio (y) = 0.10154 0.29609
# Poissons Ratio (z) = 0.21418 0.23472
#
# Static dielectric constant tensor:
#      x y z
#    x 3.143590 0.000000 0.000000 
#    y 0.000000 4.270890 0.000000 
#    z 0.000000 0.000000 3.821090 
# 
# 
# High freq. dielectric constant tensor:
#      x y z
#    x 1.721350 0.000000 0.000000 
#    y 0.000000 1.797490 0.000000 
#    z 0.000000 0.000000 1.799790 
# 
# From -- ./inp_files/1593.got.cif
#   From: 2010.03.12/outbox.cif.g09.slc.cpg/sg57_1_cif.got.tgz:1593.got - 2010.04.16 15:48:40.
