data_PCOD8232839
_publ_section_title
;
Structure prediction by ZEFSAII (Michael W. Deem and Ramdas Pophale) SiO2 
 PCOD8232839
Probable space group: P B C M
;
_chemical_formula_sum "Si O2"
_cell_formula_units_Z 56
_cell_length_a 20.834245
_cell_length_b 15.289047
_cell_length_c 9.143204
_cell_angle_alpha 90.000000
_cell_angle_beta 90.000000
_cell_angle_gamma 90.000000
_cell_volume 2912.437353
_symmetry_space_group_name_H-M "P B C M"
_symmetry_group_IT_number 57
_symmetry_cell_setting 'orthorhombic'
loop_
_space_group_symop_operation_xyz
x,y,z
-x,-y,1/2+z
x,1/2-y,-z
-x,1/2+y,1/2-z
-x,-y,-z
x,y,1/2-z
-x,1/2+y,z
x,1/2-y,1/2+z
loop_
_atom_site_type_symbol
_atom_site_label
_atom_site_fract_x
_atom_site_fract_y
_atom_site_fract_z
Si Si1 0.414464 0.661729 0.578354
Si Si2 0.872153 0.836153 0.079882
Si Si3 0.437747 0.162735 0.920451
Si Si4 0.855377 0.160628 0.923341
Si Si5 0.644204 0.001521 0.082217
Si Si6 0.207145 0.996954 0.581945
Si Si7 0.992618 0.409321 0.419796
O O1 0.391253 0.750000 0.500000
O O2 0.402876 0.672146 0.750000
O O3 0.488517 0.642284 0.540287
O O4 0.371535 0.583564 0.518514
O O5 0.859567 0.822698 0.250000
O O6 0.947218 0.847854 0.042496
O O7 0.833346 0.920524 0.023383
O O8 0.846143 0.750000 0.000000
O O9 0.427877 0.178819 0.750000
O O10 0.395645 0.081534 0.976163
O O11 0.413536 0.250000 0.000000
O O12 0.847771 0.169929 0.750000
O O13 0.928290 0.139451 0.971027
O O14 0.833944 0.250000 0.000000
O O15 0.808407 0.085362 0.980552
O O16 0.625545 0.022932 0.250000
O O17 0.718641 0.978585 0.067145
O O18 0.188699 0.975226 0.750000
O O19 0.989877 0.431978 0.250000
O O20 0.000000 0.500000 0.500000
#
# Coordination Sequence:
#
# PCOD8232839 Si02
#       7
#     8   8   8   8   8   8   8
#     4  10  20  35  57  84 113 145 181 227 277 327
#     4  10  21  37  57  82 111 144 181 223 274 327
#     4   9  19  35  56  84 115 145 181 225 275 328
#     4  11  23  38  59  85 111 145 186 230 280 332
#     4  10  21  37  57  81 111 148 187 227 275 326
#     4  10  22  40  58  78 111 151 187 229 275 324
#     4  10  20  35  58  85 112 142 179 227 279 328
#
# _framework density 19.227881
#
# number of rings (size 3 to 8) (size 9 to 14) (size 15 to 20)
#    0.000    2.000    1.429    1.714    0.000    4.571 
#    0.000    0.000    0.000    0.000    0.000    0.000 
#    0.000    0.000    0.000    0.000    0.000    0.000 
#
# Total GULP energy -694686.209535 kJ/mol
# GULP energy per Si atom -12405.110885 kJ/mol
# Density = 1.918412 g / cm^3
# Si number density = 19.227881 Si / 1000 Ang^3
#
#
#
# Elastic Constant Matrix: (Units=GPa)
#
#
# Indices 1 2 3 4 5 6 
#
# 1 58.3026 23.2985 18.9915 0.0000 0.0000 0.0000
# 2 23.2985 125.9978 45.5942 0.0000 0.0000 0.0000
# 3 18.9915 45.5942 60.6234 0.0000 0.0000 0.0000
# 4 0.0000 0.0000 0.0000 41.6436 0.0000 0.0000
# 5 0.0000 0.0000 0.0000 0.0000 23.8472 0.0000
# 6 0.0000 0.0000 0.0000 0.0000 0.0000 12.2017
#
#
#
# Elastic Compliance Matrix: (Units=1/GPa)
#
#
# Indices 1 2 3 4 5 6 
#
# 1 0.019430 -0.001910 -0.004650 0.000000 0.000000 0.000000
# 2 -0.001910 0.011092 -0.007744 0.000000 0.000000 0.000000
# 3 -0.004650 -0.007744 0.023776 0.000000 0.000000 0.000000
# 4 0.000000 0.000000 0.000000 0.024013 0.000000 0.000000
# 5 0.000000 0.000000 0.000000 0.000000 0.041934 0.000000
# 6 0.000000 0.000000 0.000000 0.000000 0.000000 0.081956
#
#
# Mechanical properties :
#
#
# Convention : Reuss Voigt Hill
#
# Bulk Modulus (GPa) = 38.92604 46.74358 42.83481
# Shear Modulus (GPa) = 20.88793 26.00781 23.44787
#
# Velocity S-wave (km/s) = 3.29954 3.68177 3.49588
# Velocity P-wave (km/s) = 5.89953 6.51437 6.21456
#
# Compressibility (1/GPa) = 0.02568975
#
# Stress axis : x y z
#
# Youngs Moduli (GPa) = 51.46692 90.15455 42.05894
#
# Poissons Ratio (x) = 0.17220 0.19559
# Poissons Ratio (y) = 0.09830 0.32570
# Poissons Ratio (z) = 0.23934 0.69814
#
# Static dielectric constant tensor:
#      x y z
#    x 3.403730 0.000000 0.000000 
#    y 0.000000 3.574850 0.000000 
#    z 0.000000 0.000000 6.184780 
# 
# 
# High freq. dielectric constant tensor:
#      x y z
#    x 1.745650 0.000000 0.000000 
#    y 0.000000 1.755420 0.000000 
#    z 0.000000 0.000000 1.743980 
# 
# From -- ./inp_files/8029.got.cif
#   From: 2010.03.12/outbox.cif.g09.slc.cpg/sg57_5_cif.got.tgz:8029.got - 2010.04.16 15:48:40.
