data_PCOD8232910
_publ_section_title
;
Structure prediction by ZEFSAII (Michael W. Deem and Ramdas Pophale) SiO2 
 PCOD8232910
Probable space group: P B C M
;
_chemical_formula_sum "Si O2"
_cell_formula_units_Z 64
_cell_length_a 23.751576
_cell_length_b 15.113823
_cell_length_c 8.975883
_cell_angle_alpha 90.000000
_cell_angle_beta 90.000000
_cell_angle_gamma 90.000000
_cell_volume 3222.136590
_symmetry_space_group_name_H-M "P B C M"
_symmetry_group_IT_number 57
_symmetry_cell_setting 'orthorhombic'
loop_
_space_group_symop_operation_xyz
x,y,z
-x,-y,1/2+z
x,1/2-y,-z
-x,1/2+y,1/2-z
-x,-y,-z
x,y,1/2-z
-x,1/2+y,z
x,1/2-y,1/2+z
loop_
_atom_site_type_symbol
_atom_site_label
_atom_site_fract_x
_atom_site_fract_y
_atom_site_fract_z
Si Si1 0.927748 0.161834 0.923698
Si Si2 0.310175 0.654676 0.423978
Si Si3 0.435210 0.655854 0.422070
Si Si4 0.460581 0.344591 0.077327
Si Si5 0.128463 0.016990 0.079712
Si Si6 0.740706 0.990718 0.922197
Si Si7 0.335683 0.154468 0.924372
Si Si8 0.944603 0.660706 0.575225
O O1 0.926383 0.179787 0.750000
O O2 0.991482 0.140548 0.976733
O O3 0.886991 0.082224 0.970492
O O4 0.904086 0.250000 0.000000
O O5 0.303055 0.750000 0.500000
O O6 0.295398 0.664722 0.250000
O O7 0.373369 0.613710 0.443608
O O8 0.268739 0.585408 0.501043
O O9 0.432174 0.750000 0.500000
O O10 0.450136 0.666270 0.250000
O O11 0.487146 0.601481 0.499887
O O12 0.474681 0.334751 0.250000
O O13 0.398721 0.386748 0.053773
O O14 0.458423 0.250000 0.000000
O O15 0.109176 0.032765 0.250000
O O16 0.194259 0.033536 0.060515
O O17 0.095272 0.081695 0.972635
O O18 0.722505 0.996530 0.750000
O O19 0.706992 0.913429 0.002736
O O20 0.322019 0.165215 0.750000
O O21 0.329095 0.250000 0.000000
O O22 0.922125 0.750000 0.500000
O O23 0.940314 0.673099 0.750000
#
# Coordination Sequence:
#
# PCOD8232910 Si02
#       8
#     8   8   8   8   8   8   8   8
#     4   9  19  36  58  86 118 148 181 223 271 325
#     4  10  21  38  59  82 111 147 186 231 281 333
#     4   9  16  27  48  77 106 137 174 218 272 332
#     4   9  16  27  48  77 106 136 172 218 274 334
#     4  10  22  39  57  81 114 148 186 233 277 321
#     4  11  24  40  58  81 110 148 193 237 280 327
#     4  10  21  38  59  82 110 145 185 231 283 337
#     4  10  20  35  59  88 116 149 184 221 271 327
#
# _framework density 19.862597000000001
#
# number of rings (size 3 to 8) (size 9 to 14) (size 15 to 20)
#    0.000    2.250    0.000    3.375    0.000    6.000 
#    0.000    1.875    0.000    0.000    0.000    0.000 
#    0.000    0.000    0.000    0.000    0.000    0.000 
#
# Total GULP energy -793344.499172 kJ/mol
# GULP energy per Si atom -12396.007800 kJ/mol
# Density = 1.981739 g / cm^3
# Si number density = 19.862597 Si / 1000 Ang^3
#
#
#
# Elastic Constant Matrix: (Units=GPa)
#
#
# Indices 1 2 3 4 5 6 
#
# 1 42.2077 0.2069 24.2902 0.0000 0.0000 0.0000
# 2 0.2069 50.8687 24.2472 0.0000 0.0000 0.0000
# 3 24.2902 24.2472 111.2401 0.0000 0.0000 0.0000
# 4 0.0000 0.0000 0.0000 33.5400 0.0000 0.0000
# 5 0.0000 0.0000 0.0000 0.0000 257.1426 0.0000
# 6 0.0000 0.0000 0.0000 0.0000 0.0000 6.7079
#
#
#
# Elastic Compliance Matrix: (Units=1/GPa)
#
#
# Indices 1 2 3 4 5 6 
#
# 1 0.027521 0.003072 -0.006679 0.000000 0.000000 0.000000
# 2 0.003072 0.022281 -0.005527 0.000000 0.000000 0.000000
# 3 -0.006679 -0.005527 0.011653 0.000000 0.000000 0.000000
# 4 0.000000 0.000000 0.000000 0.029815 0.000000 0.000000
# 5 0.000000 0.000000 0.000000 0.000000 0.003889 0.000000
# 6 0.000000 0.000000 0.000000 0.000000 0.000000 0.149079
#
#
# Mechanical properties :
#
#
# Convention : Reuss Voigt Hill
#
# Bulk Modulus (GPa) = 23.15607 33.53391 28.34499
# Shear Modulus (GPa) = 18.05697 69.84957 43.95327
#
# Velocity S-wave (km/s) = 3.01839 5.93656 4.70921
# Velocity P-wave (km/s) = 4.88170 7.99437 6.62348
#
# Compressibility (1/GPa) = 0.04318522
#
# Stress axis : x y z
#
# Youngs Moduli (GPa) = 36.33587 44.88206 85.81650
#
# Poissons Ratio (x) = -0.13786 0.57317
# Poissons Ratio (y) = -0.11161 0.47433
# Poissons Ratio (z) = 0.24269 0.24808
#
# Static dielectric constant tensor:
#      x y z
#    x 4.074310 0.000000 0.000000 
#    y 0.000000 3.394880 0.000000 
#    z 0.000000 0.000000 3.692710 
# 
# 
# High freq. dielectric constant tensor:
#      x y z
#    x 1.780280 0.000000 0.000000 
#    y 0.000000 1.756050 0.000000 
#    z 0.000000 0.000000 1.786280 
# 
# From -- ./inp_files/9382.got.cif
#   From: 2010.03.12/outbox.cif.g09.slc.cpg/sg57_5_cif.got.tgz:9382.got - 2010.04.16 15:48:40.
