data_PCOD8232582
_publ_section_title
;
Structure prediction by ZEFSAII (Michael W. Deem and Ramdas Pophale) SiO2 
 PCOD8232582
Probable space group: P B C M
;
_chemical_formula_sum "Si O2"
_cell_formula_units_Z 64
_cell_length_a 12.513130
_cell_length_b 28.572861
_cell_length_c 8.941018
_cell_angle_alpha 90.000000
_cell_angle_beta 90.000000
_cell_angle_gamma 90.000000
_cell_volume 3196.735134
_symmetry_space_group_name_H-M "P B C M"
_symmetry_group_IT_number 57
_symmetry_cell_setting 'orthorhombic'
loop_
_space_group_symop_operation_xyz
x,y,z
-x,-y,1/2+z
x,1/2-y,-z
-x,1/2+y,1/2-z
-x,-y,-z
x,y,1/2-z
-x,1/2+y,z
x,1/2-y,1/2+z
loop_
_atom_site_type_symbol
_atom_site_label
_atom_site_fract_x
_atom_site_fract_y
_atom_site_fract_z
Si Si1 0.894615 0.979751 0.073916
Si Si2 0.483618 0.547934 0.918139
Si Si3 0.157791 0.376265 0.427191
Si Si4 0.426706 0.799950 0.927570
Si Si5 0.774027 0.342871 0.076562
Si Si6 0.237475 0.946349 0.416878
Si Si7 0.601559 0.638827 0.572010
Si Si8 0.005403 0.701517 0.926320
O O1 0.910710 0.978307 0.250000
O O2 0.868780 0.928067 0.009735
O O3 0.797287 0.014380 0.034477
O O4 0.000000 0.000000 0.000000
O O5 0.521007 0.539273 0.750000
O O6 0.362263 0.563951 0.929985
O O7 0.555856 0.589183 0.986501
O O8 0.500000 0.500000 0.000000
O O9 0.153082 0.379057 0.250000
O O10 0.275062 0.359153 0.477643
O O11 0.071869 0.339209 0.489696
O O12 0.432959 0.795724 0.750000
O O13 0.405331 0.750000 0.000000
O O14 0.327333 0.832660 0.972673
O O15 0.538461 0.819867 0.989383
O O16 0.740883 0.335905 0.250000
O O17 0.816253 0.395984 0.050500
O O18 0.872220 0.309584 0.030964
O O19 0.206458 0.963661 0.250000
O O20 0.585717 0.644317 0.750000
O O21 0.990929 0.705823 0.750000
O O22 0.970460 0.750000 0.000000
#
# Coordination Sequence:
#
# PCOD8232582 Si02
#       8
#     8   8   8   8   8   8   8   8
#     4  11  22  38  60  88 120 160 208 252 301 360
#     4  10  20  34  56  84 118 157 197 243 296 354
#     4   9  20  39  63  86 117 161 203 243 295 363
#     4  12  25  40  61  89 121 157 203 256 310 368
#     4  10  20  39  63  86 121 160 199 247 305 367
#     4  10  20  36  58  85 119 158 197 244 302 360
#     4  10  20  40  63  85 117 159 204 248 300 358
#     4  10  21  38  61  87 113 149 193 246 303 361
#
# _framework density 20.020427000000002
#
# number of rings (size 3 to 8) (size 9 to 14) (size 15 to 20)
#    0.000    1.750    1.250    3.375    0.000    6.500 
#    0.000    5.625    0.000    0.000    0.000    0.000 
#    0.000    0.000    0.000    0.000    0.000    0.000 
#
# Total GULP energy -793742.089986 kJ/mol
# GULP energy per Si atom -12402.220156 kJ/mol
# Density = 1.997486 g / cm^3
# Si number density = 20.020427 Si / 1000 Ang^3
#
#
#
# Elastic Constant Matrix: (Units=GPa)
#
#
# Indices 1 2 3 4 5 6 
#
# 1 108.2043 46.3477 35.4225 0.0000 0.0000 0.0000
# 2 46.3477 124.8746 37.5926 0.0000 0.0000 0.0000
# 3 35.4225 37.5926 67.4433 0.0000 0.0000 0.0000
# 4 0.0000 0.0000 0.0000 35.1669 0.0000 0.0000
# 5 0.0000 0.0000 0.0000 0.0000 26.3238 0.0000
# 6 0.0000 0.0000 0.0000 0.0000 0.0000 36.2136
#
#
#
# Elastic Compliance Matrix: (Units=1/GPa)
#
#
# Indices 1 2 3 4 5 6 
#
# 1 0.012079 -0.003092 -0.004620 0.000000 0.000000 0.000000
# 2 -0.003092 0.010414 -0.004181 0.000000 0.000000 0.000000
# 3 -0.004620 -0.004181 0.019584 0.000000 0.000000 0.000000
# 4 0.000000 0.000000 0.000000 0.028436 0.000000 0.000000
# 5 0.000000 0.000000 0.000000 0.000000 0.037988 0.000000
# 6 0.000000 0.000000 0.000000 0.000000 0.000000 0.027614
#
#
# Mechanical properties :
#
#
# Convention : Reuss Voigt Hill
#
# Bulk Modulus (GPa) = 54.67282 59.91644 57.29463
# Shear Modulus (GPa) = 30.12055 31.61815 30.86935
#
# Velocity S-wave (km/s) = 3.88298 3.97835 3.93095
# Velocity P-wave (km/s) = 6.88994 7.14812 7.02021
#
# Compressibility (1/GPa) = 0.01829062
#
# Stress axis : x y z
#
# Youngs Moduli (GPa) = 82.78931 96.02174 51.06098
#
# Poissons Ratio (x) = 0.29691 0.23593
# Poissons Ratio (y) = 0.25600 0.21348
# Poissons Ratio (z) = 0.38253 0.40145
#
# Static dielectric constant tensor:
#      x y z
#    x 6.492900 0.000000 0.000000 
#    y 0.000000 3.934330 0.000000 
#    z 0.000000 0.000000 53.937720 
# 
# 
# High freq. dielectric constant tensor:
#      x y z
#    x 1.789640 0.000000 0.000000 
#    y 0.000000 1.793680 0.000000 
#    z 0.000000 0.000000 1.754730 
# 
# From -- ./inp_files/3873.got.cif
#   From: 2010.03.12/outbox.cif.g09.slc.cpg/sg57_2_cif.got.tgz:3873.got - 2010.04.16 15:48:40.
