data_PCOD8232154
_publ_section_title
;
Structure prediction by ZEFSAII (Michael W. Deem and Ramdas Pophale) SiO2 
 PCOD8232154
Probable space group: P B C M
;
_chemical_formula_sum "Si O2"
_cell_formula_units_Z 48
_cell_length_a 13.942868
_cell_length_b 21.179627
_cell_length_c 8.800160
_cell_angle_alpha 90.000000
_cell_angle_beta 90.000000
_cell_angle_gamma 90.000000
_cell_volume 2598.728992
_symmetry_space_group_name_H-M "P B C M"
_symmetry_group_IT_number 57
_symmetry_cell_setting 'orthorhombic'
loop_
_space_group_symop_operation_xyz
x,y,z
-x,-y,1/2+z
x,1/2-y,-z
-x,1/2+y,1/2-z
-x,-y,-z
x,y,1/2-z
-x,1/2+y,z
x,1/2-y,1/2+z
loop_
_atom_site_type_symbol
_atom_site_label
_atom_site_fract_x
_atom_site_fract_y
_atom_site_fract_z
Si Si1 0.044213 0.938592 0.574446
Si Si2 0.711191 0.811214 0.076379
Si Si3 0.227010 0.960756 0.420207
Si Si4 0.845160 0.898364 0.584672
Si Si5 0.428533 0.552800 0.431125
Si Si6 0.495297 0.816632 0.068375
O O1 0.067566 0.952206 0.750000
O O2 0.143554 0.916180 0.493414
O O3 0.959183 0.886439 0.557286
O O4 0.000000 0.000000 0.500000
O O5 0.701543 0.796468 0.250000
O O6 0.605039 0.825339 0.013482
O O7 0.757190 0.750000 0.000000
O O8 0.782384 0.868577 0.047918
O O9 0.253494 0.936997 0.250000
O O10 0.320384 0.965051 0.525265
O O11 0.177924 0.028294 0.414451
O O12 0.816627 0.869845 0.750000
O O13 0.500000 0.500000 0.500000
O O14 0.441645 0.552704 0.250000
O O15 0.442744 0.623049 0.497101
O O16 0.481925 0.816663 0.250000
O O17 0.455537 0.750000 0.000000
#
# Coordination Sequence:
#
# PCOD8232154 Si02
#       6
#     8   8   8   8   8   8
#     4   9  17  30  48  72 101 134 168 205 251 308
#     4  10  20  32  50  73  99 131 168 209 254 305
#     4  10  20  34  52  76 105 137 172 215 263 313
#     4   9  18  31  49  73 103 134 166 206 254 305
#     4  12  24  37  55  81 112 145 181 227 276 323
#     4  10  21  38  57  79 107 143 184 224 268 324
#
# _framework density 18.470566999999999
#
# number of rings (size 3 to 8) (size 9 to 14) (size 15 to 20)
#    0.000    2.000    0.000    5.500    0.000    8.667 
#    0.000    0.000    0.000    1.000    0.000    2.333 
#    0.000    0.000    0.000    0.000    0.000    0.000 
#
# Total GULP energy -594807.083713 kJ/mol
# GULP energy per Si atom -12391.814244 kJ/mol
# Density = 1.842853 g / cm^3
# Si number density = 18.470567 Si / 1000 Ang^3
#
#
#
# Elastic Constant Matrix: (Units=GPa)
#
#
# Indices 1 2 3 4 5 6 
#
# 1 108.2120 24.7924 38.0566 0.0000 0.0000 0.0000
# 2 24.7924 60.9149 28.5410 0.0000 0.0000 0.0000
# 3 38.0566 28.5410 107.9155 0.0000 0.0000 0.0000
# 4 0.0000 0.0000 0.0000 29.9489 0.0000 0.0000
# 5 0.0000 0.0000 0.0000 0.0000 30.9090 0.0000
# 6 0.0000 0.0000 0.0000 0.0000 0.0000 15.4863
#
#
#
# Elastic Compliance Matrix: (Units=1/GPa)
#
#
# Indices 1 2 3 4 5 6 
#
# 1 0.011022 -0.003042 -0.003082 0.000000 0.000000 0.000000
# 2 -0.003042 0.019578 -0.004105 0.000000 0.000000 0.000000
# 3 -0.003082 -0.004105 0.011439 0.000000 0.000000 0.000000
# 4 0.000000 0.000000 0.000000 0.033390 0.000000 0.000000
# 5 0.000000 0.000000 0.000000 0.000000 0.032353 0.000000
# 6 0.000000 0.000000 0.000000 0.000000 0.000000 0.064573
#
#
# Mechanical properties :
#
#
# Convention : Reuss Voigt Hill
#
# Bulk Modulus (GPa) = 46.33850 51.09140 48.71495
# Shear Modulus (GPa) = 24.99904 27.64567 26.32236
#
# Velocity S-wave (km/s) = 3.68292 3.87297 3.77914
# Velocity P-wave (km/s) = 6.57476 6.90803 6.74345
#
# Compressibility (1/GPa) = 0.02158033
#
# Stress axis : x y z
#
# Youngs Moduli (GPa) = 90.72706 51.07838 87.41814
#
# Poissons Ratio (x) = 0.15537 0.26947
# Poissons Ratio (y) = 0.27597 0.35887
# Poissons Ratio (z) = 0.27967 0.20969
#
# Static dielectric constant tensor:
#      x y z
#    x 3.743100 0.000000 0.000000 
#    y 0.000000 3.265930 0.000000 
#    z 0.000000 0.000000 4.079060 
# 
# 
# High freq. dielectric constant tensor:
#      x y z
#    x 1.721260 0.000000 0.000000 
#    y 0.000000 1.678120 0.000000 
#    z 0.000000 0.000000 1.733720 
# 
# From -- ./inp_files/4903.got.cif
#   From: 2010.03.12/outbox.cif.g09.slc.cpg/sg57_3_cif.got.tgz:4903.got - 2010.04.16 15:48:40.
