data_PCOD8232132
_publ_section_title
;
Structure prediction by ZEFSAII (Michael W. Deem and Ramdas Pophale) SiO2 
 PCOD8232132
Probable space group: P B C M
;
_chemical_formula_sum "Si O2"
_cell_formula_units_Z 48
_cell_length_a 18.506185
_cell_length_b 8.932532
_cell_length_c 13.678519
_cell_angle_alpha 90.000000
_cell_angle_beta 90.000000
_cell_angle_gamma 90.000000
_cell_volume 2261.156167
_symmetry_space_group_name_H-M "P B C M"
_symmetry_group_IT_number 57
_symmetry_cell_setting 'orthorhombic'
loop_
_space_group_symop_operation_xyz
x,y,z
-x,-y,1/2+z
x,1/2-y,-z
-x,1/2+y,1/2-z
-x,-y,-z
x,y,1/2-z
-x,1/2+y,z
x,1/2-y,1/2+z
loop_
_atom_site_type_symbol
_atom_site_label
_atom_site_fract_x
_atom_site_fract_y
_atom_site_fract_z
Si Si1 0.200690 0.629769 0.358072
Si Si2 0.315563 0.980696 0.493002
Si Si3 0.191590 0.985104 0.358087
Si Si4 0.425281 0.694814 0.860415
Si Si5 0.077461 0.573251 0.004387
Si Si6 0.423457 0.450251 0.139092
O O1 0.214276 0.562970 0.250000
O O2 0.268943 0.606740 0.426792
O O3 0.196239 0.807041 0.353099
O O4 0.127848 0.549757 0.399509
O O5 0.260198 0.057644 0.415908
O O6 0.365713 0.866389 0.433732
O O7 0.363767 0.098176 0.557082
O O8 0.188474 0.056935 0.250000
O O9 0.117087 0.012167 0.414989
O O10 0.404413 0.646429 0.750000
O O11 0.431648 0.871831 0.869428
O O12 0.502073 0.626468 0.890457
O O13 0.067203 0.750000 0.000000
O O14 0.000000 0.500000 0.000000
O O15 0.400799 0.403596 0.250000
#
# Coordination Sequence:
#
# PCOD8232132 Si02
#       6
#     8   8   8   8   8   8
#     4   9  17  29  47  73 100 123 153 196 239 274
#     4  11  18  28  48  71  94 122 159 201 239 276
#     4   9  17  29  47  73 100 123 153 196 239 274
#     4  10  20  32  47  69  95 123 157 197 240 284
#     4   9  18  32  51  75 100 126 156 189 228 276
#     4  10  20  32  47  69  95 123 157 197 240 284
#
# _framework density 21.228079000000001
#
# number of rings (size 3 to 8) (size 9 to 14) (size 15 to 20)
#    0.000    2.333    0.000    5.500    0.000    3.333 
#    0.000    0.000    0.000    8.000    0.000    0.000 
#    0.000    0.000    0.000    0.000    0.000    0.000 
#
# Total GULP energy -594637.393969 kJ/mol
# GULP energy per Si atom -12388.279041 kJ/mol
# Density = 2.117976 g / cm^3
# Si number density = 21.228079 Si / 1000 Ang^3
#
#
#
# Elastic Constant Matrix: (Units=GPa)
#
#
# Indices 1 2 3 4 5 6 
#
# 1 167.5816 17.7556 95.7975 0.0000 0.0000 0.0000
# 2 17.7556 6.5944 10.7177 0.0000 0.0000 0.0000
# 3 95.7975 10.7177 180.1081 0.0000 0.0000 0.0000
# 4 0.0000 0.0000 0.0000 10.9593 0.0000 0.0000
# 5 0.0000 0.0000 0.0000 0.0000 20.5301 0.0000
# 6 0.0000 0.0000 0.0000 0.0000 0.0000 22.0588
#
#
#
# Elastic Compliance Matrix: (Units=1/GPa)
#
#
# Indices 1 2 3 4 5 6 
#
# 1 0.010842 -0.021943 -0.004461 0.000000 0.000000 0.000000
# 2 -0.021943 0.212288 -0.000962 0.000000 0.000000 0.000000
# 3 -0.004461 -0.000962 0.007982 0.000000 0.000000 0.000000
# 4 0.000000 0.000000 0.000000 0.091247 0.000000 0.000000
# 5 0.000000 0.000000 0.000000 0.000000 0.048709 0.000000
# 6 0.000000 0.000000 0.000000 0.000000 0.000000 0.045333
#
#
# Mechanical properties :
#
#
# Convention : Reuss Voigt Hill
#
# Bulk Modulus (GPa) = 5.66953 66.98065 36.32509
# Shear Modulus (GPa) = 9.43527 26.04386 17.73957
#
# Velocity S-wave (km/s) = 2.11054 3.50645 2.89392
# Velocity P-wave (km/s) = 2.93525 6.92928 5.32122
#
# Compressibility (1/GPa) = 0.17638160
#
# Stress axis : x y z
#
# Youngs Moduli (GPa) = 92.23115 4.71059 125.27741
#
# Poissons Ratio (x) = 0.10336 0.55888
# Poissons Ratio (y) = 2.02380 0.12046
# Poissons Ratio (z) = 0.41146 0.00453
#
# Static dielectric constant tensor:
#      x y z
#    x 4.125630 0.000000 0.000000 
#    y 0.000000 3.178910 0.000000 
#    z 0.000000 0.000000 4.889970 
# 
# 
# High freq. dielectric constant tensor:
#      x y z
#    x 1.841860 0.000000 0.000000 
#    y 0.000000 1.769680 0.000000 
#    z 0.000000 0.000000 1.857750 
# 
# From -- ./inp_files/18398.got.cif
#   From: 2010.03.12/outbox.cif.g09.slc.cpg/sg57_10_cif.got.tgz:18398.got - 2010.04.16 15:48:40.
