data_PCOD8232822
_publ_section_title
;
Structure prediction by ZEFSAII (Michael W. Deem and Ramdas Pophale) SiO2 
 PCOD8232822
Probable space group: P B C M
;
_chemical_formula_sum "Si O2"
_cell_formula_units_Z 52
_cell_length_a 19.524842
_cell_length_b 10.609033
_cell_length_c 13.825317
_cell_angle_alpha 90.000000
_cell_angle_beta 90.000000
_cell_angle_gamma 90.000000
_cell_volume 2863.771920
_symmetry_space_group_name_H-M "P B C M"
_symmetry_group_IT_number 57
_symmetry_cell_setting 'orthorhombic'
loop_
_space_group_symop_operation_xyz
x,y,z
-x,-y,1/2+z
x,1/2-y,-z
-x,1/2+y,1/2-z
-x,-y,-z
x,y,1/2-z
-x,1/2+y,z
x,1/2-y,1/2+z
loop_
_atom_site_type_symbol
_atom_site_label
_atom_site_fract_x
_atom_site_fract_y
_atom_site_fract_z
Si Si1 0.183630 0.105672 0.638319
Si Si2 0.828054 0.605812 0.141523
Si Si3 0.454974 0.914715 0.633942
Si Si4 0.280518 0.997209 0.015562
Si Si5 0.584621 0.610717 0.016859
Si Si6 0.631271 0.250000 0.500000
Si Si7 0.943282 0.892570 0.498508
O O1 0.179599 0.064643 0.750000
O O2 0.201729 0.253360 0.626179
O O3 0.109268 0.082933 0.590202
O O4 0.244634 0.025290 0.588296
O O5 0.836141 0.565369 0.250000
O O6 0.778437 0.502881 0.094834
O O7 0.903112 0.593576 0.098200
O O8 0.448285 0.916101 0.750000
O O9 0.534126 0.935888 0.602102
O O10 0.418512 0.788516 0.590180
O O11 0.417557 0.033336 0.584347
O O12 0.318288 0.863927 0.024744
O O13 0.336221 0.102787 0.047229
O O14 0.559744 0.750000 0.000000
O O15 0.974815 0.750000 0.500000
O O16 0.000000 0.000000 0.500000
#
# Coordination Sequence:
#
# PCOD8232822 Si02
#       7
#     8   8   8   8   8   4   8
#     4   9  18  35  58  83 109 143 189 232 277 331
#     4   9  18  34  55  82 110 140 184 233 274 323
#     4  10  22  39  57  78 111 150 182 229 291 345
#     4  10  20  35  57  77 109 144 181 229 278 328
#     4  10  20  37  56  83 107 133 189 240 276 340
#     4  10  22  40  54  78 116 154 184 226 282 358
#     4   9  18  34  55  80 114 153 184 226 280 329
#
# _framework density 18.157869000000002
#
# number of rings (size 3 to 8) (size 9 to 14) (size 15 to 20)
#    0.000    2.462    0.769    2.308    0.000    4.923 
#    5.538    0.000    0.000    0.000    0.000    0.000 
#    0.000    0.000    0.000    0.000    0.000    0.000 
#
# Total GULP energy -644237.212278 kJ/mol
# GULP energy per Si atom -12389.177159 kJ/mol
# Density = 1.811654 g / cm^3
# Si number density = 18.157869 Si / 1000 Ang^3
#
#
#
# Elastic Constant Matrix: (Units=GPa)
#
#
# Indices 1 2 3 4 5 6 
#
# 1 101.2684 51.7859 42.2008 0.0000 0.0000 0.0000
# 2 51.7859 91.7198 43.3908 0.0000 0.0000 0.0000
# 3 42.2008 43.3908 151.5482 0.0000 0.0000 0.0000
# 4 0.0000 0.0000 0.0000 19.9004 0.0000 0.0000
# 5 0.0000 0.0000 0.0000 0.0000 11.1836 0.0000
# 6 0.0000 0.0000 0.0000 0.0000 0.0000 16.6821
#
#
#
# Elastic Compliance Matrix: (Units=1/GPa)
#
#
# Indices 1 2 3 4 5 6 
#
# 1 0.014360 -0.007190 -0.001940 0.000000 0.000000 0.000000
# 2 -0.007190 0.016211 -0.002639 0.000000 0.000000 0.000000
# 3 -0.001940 -0.002639 0.007895 0.000000 0.000000 0.000000
# 4 0.000000 0.000000 0.000000 0.050250 0.000000 0.000000
# 5 0.000000 0.000000 0.000000 0.000000 0.089417 0.000000
# 6 0.000000 0.000000 0.000000 0.000000 0.000000 0.059945
#
#
# Mechanical properties :
#
#
# Convention : Reuss Voigt Hill
#
# Bulk Modulus (GPa) = 66.99456 68.81015 67.90235
# Shear Modulus (GPa) = 18.75530 23.36379 21.05955
#
# Velocity S-wave (km/s) = 3.21737 3.59096 3.40928
# Velocity P-wave (km/s) = 7.12584 7.42772 7.27835
#
# Compressibility (1/GPa) = 0.01492659
#
# Stress axis : x y z
#
# Youngs Moduli (GPa) = 69.63790 61.68687 126.67040
#
# Poissons Ratio (x) = 0.44353 0.24576
# Poissons Ratio (y) = 0.50069 0.33432
# Poissons Ratio (z) = 0.13511 0.16281
#
# Static dielectric constant tensor:
#      x y z
#    x 3.331990 0.000000 0.000000 
#    y 0.000000 3.352010 0.000000 
#    z 0.000000 0.000000 3.325490 
# 
# 
# High freq. dielectric constant tensor:
#      x y z
#    x 1.709030 0.000000 0.000000 
#    y 0.000000 1.692990 0.000000 
#    z 0.000000 0.000000 1.693470 
# 
# From -- ./inp_files/19067.got.cif
#   From: 2010.03.12/outbox.cif.g09.slc.cpg/sg57_10_cif.got.tgz:19067.got - 2010.04.16 15:48:40.
