data_PCOD8232112
_publ_section_title
;
Structure prediction by ZEFSAII (Michael W. Deem and Ramdas Pophale) SiO2 
 PCOD8232112
Probable space group: P B C M
;
_chemical_formula_sum "Si O2"
_cell_formula_units_Z 64
_cell_length_a 8.915168
_cell_length_b 23.987169
_cell_length_c 15.079214
_cell_angle_alpha 90.000000
_cell_angle_beta 90.000000
_cell_angle_gamma 90.000000
_cell_volume 3224.684508
_symmetry_space_group_name_H-M "P B C M"
_symmetry_group_IT_number 57
_symmetry_cell_setting 'orthorhombic'
loop_
_space_group_symop_operation_xyz
x,y,z
-x,-y,1/2+z
x,1/2-y,-z
-x,1/2+y,1/2-z
-x,-y,-z
x,y,1/2-z
-x,1/2+y,z
x,1/2-y,1/2+z
loop_
_atom_site_type_symbol
_atom_site_label
_atom_site_fract_x
_atom_site_fract_y
_atom_site_fract_z
Si Si1 0.436063 0.308623 0.845264
Si Si2 0.702235 0.712017 0.917893
Si Si3 0.226059 0.680174 0.145835
Si Si4 0.022356 0.783958 0.149219
Si Si5 0.282600 0.577872 0.028046
Si Si6 0.867465 0.971440 0.053804
Si Si7 0.376161 0.390399 0.510413
Si Si8 0.889273 0.407799 0.149234
O O1 0.431791 0.337915 0.750000
O O2 0.363757 0.246858 0.835598
O O3 0.606478 0.300294 0.876033
O O4 0.340553 0.349889 0.907202
O O5 0.630179 0.650006 0.923452
O O6 0.881046 0.708916 0.914481
O O7 0.648261 0.750000 0.000000
O O8 0.203647 0.664551 0.250000
O O9 0.119371 0.731083 0.117004
O O10 0.198173 0.627663 0.080704
O O11 0.969003 0.774314 0.250000
O O12 0.115156 0.840974 0.142601
O O13 0.239384 0.522509 0.085198
O O14 0.462284 0.581474 0.023535
O O15 0.225974 0.571392 0.926190
O O16 0.759326 0.933942 0.992348
O O17 0.943952 0.934137 0.131206
O O18 0.000000 0.000000 0.000000
O O19 0.842052 0.425588 0.250000
#
# Coordination Sequence:
#
# PCOD8232112 Si02
#       8
#     8   8   8   8   8   8   8   8
#     4   9  19  36  56  84 119 152 190 243 299 358
#     4  10  20  31  51  79 113 151 187 232 291 356
#     4   9  20  36  57  87 119 152 197 246 297 354
#     4  10  20  34  53  80 115 152 192 240 290 351
#     4  10  22  37  63  86 115 158 200 252 305 355
#     4  10  21  40  62  82 112 155 200 250 300 353
#     4  10  20  38  57  86 117 153 203 247 301 361
#     4  10  22  39  56  84 118 155 199 246 299 360
#
# _framework density 19.846903999999999
#
# number of rings (size 3 to 8) (size 9 to 14) (size 15 to 20)
#    0.000    2.250    1.250    0.750    3.500    1.500 
#    0.000    3.750    0.000    3.000    0.000    0.000 
#    0.000    0.000    0.000    0.000    0.000    0.000 
#
# Total GULP energy -792904.495655 kJ/mol
# GULP energy per Si atom -12389.132745 kJ/mol
# Density = 1.980173 g / cm^3
# Si number density = 19.846904 Si / 1000 Ang^3
#
#
#
# Elastic Constant Matrix: (Units=GPa)
#
#
# Indices 1 2 3 4 5 6 
#
# 1 80.4121 47.1081 21.3352 0.0000 0.0000 0.0000
# 2 47.1081 124.8159 28.5552 0.0000 0.0000 0.0000
# 3 21.3352 28.5552 64.5723 0.0000 0.0000 0.0000
# 4 0.0000 0.0000 0.0000 18.9248 0.0000 0.0000
# 5 0.0000 0.0000 0.0000 0.0000 27.8134 0.0000
# 6 0.0000 0.0000 0.0000 0.0000 0.0000 43.4138
#
#
#
# Elastic Compliance Matrix: (Units=1/GPa)
#
#
# Indices 1 2 3 4 5 6 
#
# 1 0.016471 -0.005531 -0.002996 0.000000 0.000000 0.000000
# 2 -0.005531 0.010771 -0.002936 0.000000 0.000000 0.000000
# 3 -0.002996 -0.002936 0.017775 0.000000 0.000000 0.000000
# 4 0.000000 0.000000 0.000000 0.052841 0.000000 0.000000
# 5 0.000000 0.000000 0.000000 0.000000 0.035954 0.000000
# 6 0.000000 0.000000 0.000000 0.000000 0.000000 0.023034
#
#
# Mechanical properties :
#
#
# Convention : Reuss Voigt Hill
#
# Bulk Modulus (GPa) = 45.26746 51.53303 48.40025
# Shear Modulus (GPa) = 26.71866 29.55053 28.13459
#
# Velocity S-wave (km/s) = 3.67309 3.86284 3.76916
# Velocity P-wave (km/s) = 6.39114 6.77621 6.58649
#
# Compressibility (1/GPa) = 0.02209092
#
# Stress axis : x y z
#
# Youngs Moduli (GPa) = 60.71202 92.84231 56.25980
#
# Poissons Ratio (x) = 0.51352 0.16857
# Poissons Ratio (y) = 0.33580 0.16516
# Poissons Ratio (z) = 0.18191 0.27255
#
# Static dielectric constant tensor:
#      x y z
#    x 3.499940 0.000000 0.000000 
#    y 0.000000 3.988140 0.000000 
#    z 0.000000 0.000000 3.636300 
# 
# 
# High freq. dielectric constant tensor:
#      x y z
#    x 1.768790 0.000000 0.000000 
#    y 0.000000 1.779390 0.000000 
#    z 0.000000 0.000000 1.757520 
# 
# From -- ./inp_files/16944.got.cif
#   From: 2010.03.12/outbox.cif.g09.slc.cpg/sg57_9_cif.got.tgz:16944.got - 2010.04.16 15:48:40.
