data_PCOD8232649
_publ_section_title
;
Structure prediction by ZEFSAII (Michael W. Deem and Ramdas Pophale) SiO2 
 PCOD8232649
Probable space group: P B C M
;
_chemical_formula_sum "Si O2"
_cell_formula_units_Z 64
_cell_length_a 16.057525
_cell_length_b 24.443287
_cell_length_c 9.118986
_cell_angle_alpha 90.000000
_cell_angle_beta 90.000000
_cell_angle_gamma 90.000000
_cell_volume 3579.190078
_symmetry_space_group_name_H-M "P B C M"
_symmetry_group_IT_number 57
_symmetry_cell_setting 'orthorhombic'
loop_
_space_group_symop_operation_xyz
x,y,z
-x,-y,1/2+z
x,1/2-y,-z
-x,1/2+y,1/2-z
-x,-y,-z
x,y,1/2-z
-x,1/2+y,z
x,1/2-y,1/2+z
loop_
_atom_site_type_symbol
_atom_site_label
_atom_site_fract_x
_atom_site_fract_y
_atom_site_fract_z
Si Si1 0.357877 0.593937 0.079118
Si Si2 0.763823 0.193924 0.074537
Si Si3 0.064872 0.836707 0.421069
Si Si4 0.016056 0.446173 0.414979
Si Si5 0.827425 0.588346 0.086111
Si Si6 0.313214 0.469129 0.414574
Si Si7 0.898125 0.700031 0.084115
Si Si8 0.505153 0.943928 0.084530
O O1 0.377479 0.598055 0.250000
O O2 0.295032 0.642414 0.031107
O O3 0.323156 0.533216 0.040055
O O4 0.446351 0.601315 0.994332
O O5 0.768542 0.200823 0.250000
O O6 0.729126 0.250000 0.000000
O O7 0.855209 0.183239 0.010101
O O8 0.070919 0.818840 0.250000
O O9 0.058924 0.902711 0.433321
O O10 0.982467 0.812525 0.494431
O O11 0.029231 0.463566 0.250000
O O12 0.101301 0.422660 0.471530
O O13 0.000000 0.500000 0.500000
O O14 0.847494 0.566289 0.250000
O O15 0.825845 0.654151 0.086922
O O16 0.743750 0.560205 0.033160
O O17 0.275480 0.467385 0.250000
O O18 0.396455 0.431594 0.417359
O O19 0.924830 0.714526 0.250000
O O20 0.854461 0.750000 0.000000
O O21 0.472509 0.950945 0.250000
O O22 0.500000 0.000000 0.000000
#
# Coordination Sequence:
#
# PCOD8232649 Si02
#       8
#     8   8   8   8   8   8   8   8
#     4   9  20  36  54  78 106 139 175 214 267 316
#     4  11  23  38  55  77 107 142 181 227 270 316
#     4  10  21  36  53  75 100 134 179 221 265 313
#     4  10  21  35  51  72 103 140 176 215 261 315
#     4  10  21  34  50  77 105 135 172 211 259 308
#     4   9  18  33  53  80 110 138 169 210 262 316
#     4  10  20  35  54  74  99 132 173 218 262 308
#     4   9  17  31  53  80 107 135 167 204 250 305
#
# _framework density 17.881139999999998
#
# number of rings (size 3 to 8) (size 9 to 14) (size 15 to 20)
#    0.000    2.250    0.000    3.375    1.750    6.500 
#    0.000    0.000    0.000    0.750    0.000    0.000 
#    0.000    0.000    0.000    0.000    0.000    0.000 
#
# Total GULP energy -792984.483457 kJ/mol
# GULP energy per Si atom -12390.382554 kJ/mol
# Density = 1.784044 g / cm^3
# Si number density = 17.881140 Si / 1000 Ang^3
#
#
#
# Elastic Constant Matrix: (Units=GPa)
#
#
# Indices 1 2 3 4 5 6 
#
# 1 70.9987 44.1093 36.6848 0.0000 0.0000 0.0000
# 2 44.1093 99.6791 57.4005 0.0000 0.0000 0.0000
# 3 36.6848 57.4005 119.2854 0.0000 0.0000 0.0000
# 4 0.0000 0.0000 0.0000 31.9421 0.0000 0.0000
# 5 0.0000 0.0000 0.0000 0.0000 33.0656 0.0000
# 6 0.0000 0.0000 0.0000 0.0000 0.0000 20.5963
#
#
#
# Elastic Compliance Matrix: (Units=1/GPa)
#
#
# Indices 1 2 3 4 5 6 
#
# 1 0.019999 -0.007343 -0.002617 0.000000 0.000000 0.000000
# 2 -0.007343 0.016574 -0.005717 0.000000 0.000000 0.000000
# 3 -0.002617 -0.005717 0.011939 0.000000 0.000000 0.000000
# 4 0.000000 0.000000 0.000000 0.031307 0.000000 0.000000
# 5 0.000000 0.000000 0.000000 0.000000 0.030243 0.000000
# 6 0.000000 0.000000 0.000000 0.000000 0.000000 0.048552
#
#
# Mechanical properties :
#
#
# Convention : Reuss Voigt Hill
#
# Bulk Modulus (GPa) = 58.28226 62.92802 60.60514
# Shear Modulus (GPa) = 25.55106 27.23870 26.39488
#
# Velocity S-wave (km/s) = 3.78423 3.90721 3.84621
# Velocity P-wave (km/s) = 7.19437 7.45814 7.32744
#
# Compressibility (1/GPa) = 0.01715788
#
# Stress axis : x y z
#
# Youngs Moduli (GPa) = 50.00306 60.33676 83.75762
#
# Poissons Ratio (x) = 0.44303 0.21920
# Poissons Ratio (y) = 0.36716 0.47885
# Poissons Ratio (z) = 0.13086 0.34495
#
# Static dielectric constant tensor:
#      x y z
#    x 3.427230 0.000000 0.000000 
#    y 0.000000 3.305690 0.000000 
#    z 0.000000 0.000000 3.539460 
# 
# 
# High freq. dielectric constant tensor:
#      x y z
#    x 1.670130 0.000000 0.000000 
#    y 0.000000 1.682290 0.000000 
#    z 0.000000 0.000000 1.713100 
# 
# From -- ./inp_files/5535.got.cif
#   From: 2010.03.12/outbox.cif.g09.slc.cpg/sg57_3_cif.got.tgz:5535.got - 2010.04.16 15:48:40.
