data_PCOD8232037
_publ_section_title
;
Structure prediction by ZEFSAII (Michael W. Deem and Ramdas Pophale) SiO2 
 PCOD8232037
Probable space group: P B C M
;
_chemical_formula_sum "Si O2"
_cell_formula_units_Z 40
_cell_length_a 5.192801
_cell_length_b 13.404774
_cell_length_c 28.492683
_cell_angle_alpha 90.000000
_cell_angle_beta 90.000000
_cell_angle_gamma 90.000000
_cell_volume 1983.327905
_symmetry_space_group_name_H-M "P B C M"
_symmetry_group_IT_number 57
_symmetry_cell_setting 'orthorhombic'
loop_
_space_group_symop_operation_xyz
x,y,z
-x,-y,1/2+z
x,1/2-y,-z
-x,1/2+y,1/2-z
-x,-y,-z
x,y,1/2-z
-x,1/2+y,z
x,1/2-y,1/2+z
loop_
_atom_site_type_symbol
_atom_site_label
_atom_site_fract_x
_atom_site_fract_y
_atom_site_fract_z
Si Si1 0.862144 0.949650 0.346690
Si Si2 0.356501 0.046244 0.304647
Si Si3 0.421246 0.325910 0.957620
Si Si4 0.927309 0.087943 0.072994
Si Si5 0.789823 0.725394 0.364588
O O1 0.586675 0.989544 0.330420
O O2 0.090474 0.988083 0.313558
O O3 0.906141 0.980888 0.401340
O O4 0.864592 0.830707 0.342992
O O5 0.416240 0.051173 0.250000
O O6 0.339908 0.158725 0.324046
O O7 0.182026 0.404632 0.959988
O O8 0.407992 0.264183 0.908640
O O9 0.682655 0.389509 0.959534
O O10 0.408065 0.250000 0.000000
O O11 0.954487 0.169139 0.115546
#
# Coordination Sequence:
#
# PCOD8232037 Si02
#       5
#     8   8   8   8   8
#     4  11  21  40  63  84 117 158 194 236 303 343
#     4  11  24  40  59  88 119 149 198 248 290 350
#     4  10  19  37  61  85 119 157 193 241 292 342
#     4   9  19  37  56  85 118 154 190 243 282 343
#     4   9  23  38  64  82 122 157 190 242 295 349
#
# _framework density 20.168123000000001
#
# number of rings (size 3 to 8) (size 9 to 14) (size 15 to 20)
#    1.200    0.800    2.000    1.200    2.800    1.600 
#    0.000    2.000    0.000    0.000    0.000    0.000 
#    0.000    0.000    0.000    0.000    0.000    0.000 
#
# Total GULP energy -495754.176970 kJ/mol
# GULP energy per Si atom -12393.854424 kJ/mol
# Density = 2.012222 g / cm^3
# Si number density = 20.168123 Si / 1000 Ang^3
#
#
#
# Elastic Constant Matrix: (Units=GPa)
#
#
# Indices 1 2 3 4 5 6 
#
# 1 119.0705 15.4474 -2.9689 0.0000 0.0000 0.0000
# 2 15.4474 106.0114 -2.9041 0.0000 0.0000 0.0000
# 3 -2.9689 -2.9041 28.8683 0.0000 0.0000 0.0000
# 4 0.0000 0.0000 0.0000 8.8304 0.0000 0.0000
# 5 0.0000 0.0000 0.0000 0.0000 29.2292 0.0000
# 6 0.0000 0.0000 0.0000 0.0000 0.0000 22.6714
#
#
#
# Elastic Compliance Matrix: (Units=1/GPa)
#
#
# Indices 1 2 3 4 5 6 
#
# 1 0.008577 -0.001229 0.000758 0.000000 0.000000 0.000000
# 2 -0.001229 0.009635 0.000843 0.000000 0.000000 0.000000
# 3 0.000758 0.000843 0.034803 0.000000 0.000000 0.000000
# 4 0.000000 0.000000 0.000000 0.113246 0.000000 0.000000
# 5 0.000000 0.000000 0.000000 0.000000 0.034212 0.000000
# 6 0.000000 0.000000 0.000000 0.000000 0.000000 0.044108
#
#
# Mechanical properties :
#
#
# Convention : Reuss Voigt Hill
#
# Bulk Modulus (GPa) = 18.60138 30.34432 24.47285
# Shear Modulus (GPa) = 19.10172 28.43790 23.76981
#
# Velocity S-wave (km/s) = 3.08088 3.75913 3.43677
# Velocity P-wave (km/s) = 4.67963 5.82406 5.28293
#
# Compressibility (1/GPa) = 0.05375945
#
# Stress axis : x y z
#
# Youngs Moduli (GPa) = 116.59450 103.78704 28.73323
#
# Poissons Ratio (x) = 0.12755 -0.02179
# Poissons Ratio (y) = 0.14329 -0.02422
# Poissons Ratio (z) = -0.08843 -0.08748
#
# Static dielectric constant tensor:
#      x y z
#    x 3.714740 0.000000 0.000000 
#    y 0.000000 3.399290 0.000000 
#    z 0.000000 0.000000 3.416910 
# 
# 
# High freq. dielectric constant tensor:
#      x y z
#    x 1.797330 0.000000 0.000000 
#    y 0.000000 1.768680 0.000000 
#    z 0.000000 0.000000 1.773160 
# 
# From -- ./inp_files/29052.got.cif
#   From: 2010.03.12/outbox.cif.g09.slc.cpg/sg57_15_cif.got.tgz:29052.got - 2010.04.16 15:48:40.
