data_PCOD8232718
_publ_section_title
;
Structure prediction by ZEFSAII (Michael W. Deem and Ramdas Pophale) SiO2 
 PCOD8232718
Probable space group: P B C M
;
_chemical_formula_sum "Si O2"
_cell_formula_units_Z 64
_cell_length_a 19.580409
_cell_length_b 18.933178
_cell_length_c 8.929906
_cell_angle_alpha 90.000000
_cell_angle_beta 90.000000
_cell_angle_gamma 90.000000
_cell_volume 3310.489117
_symmetry_space_group_name_H-M "P B C M"
_symmetry_group_IT_number 57
_symmetry_cell_setting 'orthorhombic'
loop_
_space_group_symop_operation_xyz
x,y,z
-x,-y,1/2+z
x,1/2-y,-z
-x,1/2+y,1/2-z
-x,-y,-z
x,y,1/2-z
-x,1/2+y,z
x,1/2-y,1/2+z
loop_
_atom_site_type_symbol
_atom_site_label
_atom_site_fract_x
_atom_site_fract_y
_atom_site_fract_z
Si Si1 0.468444 0.825251 0.425209
Si Si2 0.594931 0.584112 0.924426
Si Si3 0.634777 0.054725 0.925444
Si Si4 0.154969 0.400391 0.571708
Si Si5 0.211573 0.550371 0.572058
Si Si6 0.119847 0.677455 0.574647
Si Si7 0.276287 0.321782 0.074198
Si Si8 0.962880 0.676292 0.573586
O O1 0.459438 0.750000 0.500000
O O2 0.476771 0.812554 0.250000
O O3 0.535349 0.865389 0.488411
O O4 0.401647 0.871481 0.463315
O O5 0.582665 0.571597 0.750000
O O6 0.667938 0.618539 0.958932
O O7 0.591335 0.508458 0.003059
O O8 0.636502 0.040089 0.750000
O O9 0.711568 0.057270 0.991510
O O10 0.152737 0.394308 0.750000
O O11 0.178358 0.477483 0.516476
O O12 0.206112 0.342390 0.505678
O O13 0.080492 0.386149 0.502430
O O14 0.212105 0.552877 0.750000
O O15 0.166332 0.614683 0.508403
O O16 0.143799 0.750000 0.500000
O O17 0.130728 0.686247 0.750000
O O18 0.041509 0.659662 0.536375
O O19 0.264143 0.310852 0.250000
O O20 0.303506 0.250000 0.000000
O O21 0.940403 0.750000 0.500000
O O22 0.948794 0.679684 0.750000
#
# Coordination Sequence:
#
# PCOD8232718 Si02
#       8
#     8   8   8   8   8   8   8   8
#     4  10  22  38  57  84 115 147 186 231 277 328
#     4  10  21  37  56  82 113 145 183 230 276 324
#     4  10  20  37  60  83 111 149 188 225 275 334
#     4  11  21  35  55  78 109 146 183 222 271 330
#     4   9  19  36  57  81 110 145 182 222 273 329
#     4   9  19  37  58  80 108 142 182 227 274 325
#     4  11  22  35  53  78 110 145 184 226 269 321
#     4  10  20  35  55  79 109 144 182 226 274 324
#
# _framework density 19.332491000000001
#
# number of rings (size 3 to 8) (size 9 to 14) (size 15 to 20)
#    0.000    2.000    1.250    2.250    0.000    3.000 
#    0.000    1.875    0.000    0.000    0.000    0.000 
#    0.000    0.000    0.000    0.000    0.000    0.000 
#
# Total GULP energy -793843.019297 kJ/mol
# GULP energy per Si atom -12403.797177 kJ/mol
# Density = 1.928849 g / cm^3
# Si number density = 19.332491 Si / 1000 Ang^3
#
#
#
# Elastic Constant Matrix: (Units=GPa)
#
#
# Indices 1 2 3 4 5 6 
#
# 1 107.5314 74.7030 36.7131 0.0000 0.0000 0.0000
# 2 74.7030 149.9502 49.6508 0.0000 0.0000 0.0000
# 3 36.7131 49.6508 58.8745 0.0000 0.0000 0.0000
# 4 0.0000 0.0000 0.0000 32.0419 0.0000 0.0000
# 5 0.0000 0.0000 0.0000 0.0000 17.6350 0.0000
# 6 0.0000 0.0000 0.0000 0.0000 0.0000 33.0386
#
#
#
# Elastic Compliance Matrix: (Units=1/GPa)
#
#
# Indices 1 2 3 4 5 6 
#
# 1 0.014940 -0.006047 -0.004217 0.000000 0.000000 0.000000
# 2 -0.006047 0.011700 -0.006096 0.000000 0.000000 0.000000
# 3 -0.004217 -0.006096 0.024756 0.000000 0.000000 0.000000
# 4 0.000000 0.000000 0.000000 0.031209 0.000000 0.000000
# 5 0.000000 0.000000 0.000000 0.000000 0.056705 0.000000
# 6 0.000000 0.000000 0.000000 0.000000 0.000000 0.030268
#
#
# Mechanical properties :
#
#
# Convention : Reuss Voigt Hill
#
# Bulk Modulus (GPa) = 53.54426 70.94332 62.24379
# Shear Modulus (GPa) = 23.97818 26.89573 25.43695
#
# Velocity S-wave (km/s) = 3.52562 3.73395 3.63128
# Velocity P-wave (km/s) = 6.65807 7.44083 7.06031
#
# Compressibility (1/GPa) = 0.01867614
#
# Stress axis : x y z
#
# Youngs Moduli (GPa) = 66.93458 85.47208 40.39401
#
# Poissons Ratio (x) = 0.51681 0.17034
# Poissons Ratio (y) = 0.40472 0.24625
# Poissons Ratio (z) = 0.28227 0.52106
#
# Static dielectric constant tensor:
#      x y z
#    x 3.696380 0.000000 0.000000 
#    y 0.000000 3.567030 0.000000 
#    z 0.000000 0.000000 3.340760 
# 
# 
# High freq. dielectric constant tensor:
#      x y z
#    x 1.761480 0.000000 0.000000 
#    y 0.000000 1.756830 0.000000 
#    z 0.000000 0.000000 1.737350 
# 
# From -- ./inp_files/8407.got.cif
#   From: 2010.03.12/outbox.cif.g09.slc.cpg/sg57_5_cif.got.tgz:8407.got - 2010.04.16 15:48:40.
