data_PCOD8232388
_publ_section_title
;
Structure prediction by ZEFSAII (Michael W. Deem and Ramdas Pophale) SiO2 
 PCOD8232388
Probable space group: P B C M
;
_chemical_formula_sum "Si O2"
_cell_formula_units_Z 56
_cell_length_a 23.018152
_cell_length_b 14.085471
_cell_length_c 8.947612
_cell_angle_alpha 90.000000
_cell_angle_beta 90.000000
_cell_angle_gamma 90.000000
_cell_volume 2901.008296
_symmetry_space_group_name_H-M "P B C M"
_symmetry_group_IT_number 57
_symmetry_cell_setting 'orthorhombic'
loop_
_space_group_symop_operation_xyz
x,y,z
-x,-y,1/2+z
x,1/2-y,-z
-x,1/2+y,1/2-z
-x,-y,-z
x,y,1/2-z
-x,1/2+y,z
x,1/2-y,1/2+z
loop_
_atom_site_type_symbol
_atom_site_label
_atom_site_fract_x
_atom_site_fract_y
_atom_site_fract_z
Si Si1 0.439594 0.518976 0.421257
Si Si2 0.033220 0.084399 0.419811
Si Si3 0.346183 0.852448 0.427118
Si Si4 0.354452 0.346599 0.421404
Si Si5 0.085099 0.661148 0.083168
Si Si6 0.139206 0.466873 0.426982
Si Si7 0.263294 0.474915 0.925721
O O1 0.500000 0.500000 0.500000
O O2 0.448671 0.551194 0.250000
O O3 0.404957 0.602777 0.505473
O O4 0.407173 0.419289 0.430177
O O5 0.048185 0.056271 0.250000
O O6 0.093670 0.110961 0.505319
O O7 0.985406 0.168403 0.423988
O O8 0.000000 0.000000 0.500000
O O9 0.333295 0.750000 0.500000
O O10 0.354044 0.840812 0.250000
O O11 0.292571 0.923328 0.465368
O O12 0.375029 0.250000 0.500000
O O13 0.336004 0.328170 0.250000
O O14 0.300894 0.388096 0.513696
O O15 0.108364 0.667091 0.250000
O O16 0.111511 0.565367 0.014755
O O17 0.113062 0.750000 0.000000
O O18 0.141660 0.454576 0.250000
O O19 0.202537 0.460730 0.493762
O O20 0.255377 0.463694 0.750000
#
# Coordination Sequence:
#
# PCOD8232388 Si02
#       7
#     8   8   8   8   8   8   8
#     4  10  21  37  58  85 117 150 187 230 275 325
#     4   9  17  31  49  70  95 126 164 205 253 309
#     4  10  21  37  57  81 112 150 189 229 278 331
#     4  10  21  38  60  84 111 146 184 227 276 325
#     4   9  19  32  48  72 101 131 165 208 258 314
#     4  10  20  34  52  75 101 133 173 216 263 317
#     4  10  21  37  57  81 109 144 185 229 275 327
#
# _framework density 19.303633000000001
#
# number of rings (size 3 to 8) (size 9 to 14) (size 15 to 20)
#    0.000    2.286    0.000    3.429    0.000    8.000 
#    0.000    5.000    0.000    1.714    0.000    0.000 
#    0.000    0.000    0.000    0.000    0.000    0.000 
#
# Total GULP energy -694090.965267 kJ/mol
# GULP energy per Si atom -12394.481523 kJ/mol
# Density = 1.925970 g / cm^3
# Si number density = 19.303633 Si / 1000 Ang^3
#
#
#
# Elastic Constant Matrix: (Units=GPa)
#
#
# Indices 1 2 3 4 5 6 
#
# 1 97.8435 -4.2660 35.0159 0.0000 0.0000 0.0000
# 2 -4.2660 57.7621 23.5090 0.0000 0.0000 0.0000
# 3 35.0159 23.5090 114.8538 0.0000 0.0000 0.0000
# 4 0.0000 0.0000 0.0000 32.7483 0.0000 0.0000
# 5 0.0000 0.0000 0.0000 0.0000 37.4810 0.0000
# 6 0.0000 0.0000 0.0000 0.0000 0.0000 10.8013
#
#
#
# Elastic Compliance Matrix: (Units=1/GPa)
#
#
# Indices 1 2 3 4 5 6 
#
# 1 0.011806 0.002549 -0.004121 0.000000 0.000000 0.000000
# 2 0.002549 0.019436 -0.004756 0.000000 0.000000 0.000000
# 3 -0.004121 -0.004756 0.010937 0.000000 0.000000 0.000000
# 4 0.000000 0.000000 0.000000 0.030536 0.000000 0.000000
# 5 0.000000 0.000000 0.000000 0.000000 0.026680 0.000000
# 6 0.000000 0.000000 0.000000 0.000000 0.000000 0.092582
#
#
# Mechanical properties :
#
#
# Convention : Reuss Voigt Hill
#
# Bulk Modulus (GPa) = 33.87053 42.10858 37.98955
# Shear Modulus (GPa) = 23.31291 30.61949 26.96620
#
# Velocity S-wave (km/s) = 3.47896 3.98704 3.74163
# Velocity P-wave (km/s) = 5.80705 6.56174 6.19590
#
# Compressibility (1/GPa) = 0.02952419
#
# Stress axis : x y z
#
# Youngs Moduli (GPa) = 84.69939 51.45051 91.43626
#
# Poissons Ratio (x) = -0.13116 0.37683
# Poissons Ratio (y) = -0.21593 0.43483
# Poissons Ratio (z) = 0.34907 0.24467
#
# Static dielectric constant tensor:
#      x y z
#    x 3.551620 0.000000 0.000000 
#    y 0.000000 3.441740 0.000000 
#    z 0.000000 0.000000 3.733130 
# 
# 
# High freq. dielectric constant tensor:
#      x y z
#    x 1.749210 0.000000 0.000000 
#    y 0.000000 1.734420 0.000000 
#    z 0.000000 0.000000 1.768570 
# 
# From -- ./inp_files/8055.got.cif
#   From: 2010.03.12/outbox.cif.g09.slc.cpg/sg57_5_cif.got.tgz:8055.got - 2010.04.16 15:48:40.
