data_PCOD8232250
_publ_section_title
;
Structure prediction by ZEFSAII (Michael W. Deem and Ramdas Pophale) SiO2 
 PCOD8232250
Probable space group: P B C M
;
_chemical_formula_sum "Si O2"
_cell_formula_units_Z 60
_cell_length_a 20.118999
_cell_length_b 5.087558
_cell_length_c 31.309018
_cell_angle_alpha 90.000000
_cell_angle_beta 90.000000
_cell_angle_gamma 90.000000
_cell_volume 3204.683828
_symmetry_space_group_name_H-M "P B C M"
_symmetry_group_IT_number 57
_symmetry_cell_setting 'orthorhombic'
loop_
_space_group_symop_operation_xyz
x,y,z
-x,-y,1/2+z
x,1/2-y,-z
-x,1/2+y,1/2-z
-x,-y,-z
x,y,1/2-z
-x,1/2+y,z
x,1/2-y,1/2+z
loop_
_atom_site_type_symbol
_atom_site_label
_atom_site_fract_x
_atom_site_fract_y
_atom_site_fract_z
Si Si1 0.320888 0.233351 0.549350
Si Si2 0.623204 0.521587 0.665120
Si Si3 0.457358 0.205255 0.589162
Si Si4 0.251088 0.253354 0.202093
Si Si5 0.546246 0.388559 0.750000
Si Si6 0.042923 0.846046 0.200804
Si Si7 0.285949 0.749770 0.100524
Si Si8 0.816081 0.242842 0.669465
O O1 0.302523 0.250000 0.500000
O O2 0.398150 0.158045 0.555630
O O3 0.306088 0.507616 0.571640
O O4 0.277043 0.006415 0.570961
O O5 0.567399 0.674310 0.638092
O O6 0.681340 0.731883 0.674768
O O7 0.592262 0.401195 0.708023
O O8 0.656590 0.290612 0.636583
O O9 0.485081 0.494863 0.580945
O O10 0.270613 0.322870 0.250000
O O11 0.197248 0.462627 0.185437
O O12 0.220033 0.964635 0.200480
O O13 0.490209 0.610304 0.750000
O O14 0.066974 0.822890 0.250000
O O15 0.105156 0.804325 0.169443
O O16 0.986966 0.630660 0.190973
O O17 0.214133 0.799837 0.122175
#
# Coordination Sequence:
#
# PCOD8232250 Si02
#       8
#     8   8   8   8   4   8   8   8
#     4  11  23  41  63  87 110 135 172 228 299 359
#     4  10  22  40  53  77 106 145 190 235 287 322
#     4  11  22  36  55  75 104 140 174 218 277 347
#     4  11  21  34  53  77 104 143 194 250 277 316
#     4  12  26  38  54  74 104 146 194 240 274 332
#     4  10  20  33  50  77 118 161 197 235 263 298
#     4  10  22  39  62  84 112 143 176 236 284 339
#     4  11  21  35  56  81 112 150 194 228 280 326
#
# _framework density 18.722597
#
# number of rings (size 3 to 8) (size 9 to 14) (size 15 to 20)
#    0.000    1.333    0.667    7.200    0.000    6.933 
#    0.000    0.000    0.000    0.000    0.000    0.000 
#    0.000   10.667    0.000    0.000    0.000    0.000 
#
# Total GULP energy -744204.218756 kJ/mol
# GULP energy per Si atom -12403.403646 kJ/mol
# Density = 1.867998 g / cm^3
# Si number density = 18.722597 Si / 1000 Ang^3
#
#
#
# Elastic Constant Matrix: (Units=GPa)
#
#
# Indices 1 2 3 4 5 6 
#
# 1 81.0144 9.5466 28.8247 0.0000 0.0000 0.0000
# 2 9.5466 65.5399 24.3005 0.0000 0.0000 0.0000
# 3 28.8247 24.3005 107.5895 0.0000 0.0000 0.0000
# 4 0.0000 0.0000 0.0000 20.9064 0.0000 0.0000
# 5 0.0000 0.0000 0.0000 0.0000 15.8489 0.0000
# 6 0.0000 0.0000 0.0000 0.0000 0.0000 19.3345
#
#
#
# Elastic Compliance Matrix: (Units=1/GPa)
#
#
# Indices 1 2 3 4 5 6 
#
# 1 0.013673 -0.000691 -0.003507 0.000000 0.000000 0.000000
# 2 -0.000691 0.016687 -0.003584 0.000000 0.000000 0.000000
# 3 -0.003507 -0.003584 0.011044 0.000000 0.000000 0.000000
# 4 0.000000 0.000000 0.000000 0.047832 0.000000 0.000000
# 5 0.000000 0.000000 0.000000 0.000000 0.063096 0.000000
# 6 0.000000 0.000000 0.000000 0.000000 0.000000 0.051721
#
#
# Mechanical properties :
#
#
# Convention : Reuss Voigt Hill
#
# Bulk Modulus (GPa) = 38.70049 42.16527 40.43288
# Shear Modulus (GPa) = 21.90771 23.98276 22.94523
#
# Velocity S-wave (km/s) = 3.42441 3.58292 3.50456
# Velocity P-wave (km/s) = 6.02916 6.29971 6.16592
#
# Compressibility (1/GPa) = 0.02583947
#
# Stress axis : x y z
#
# Youngs Moduli (GPa) = 73.13843 59.92549 90.55007
#
# Poissons Ratio (x) = 0.04143 0.31756
# Poissons Ratio (y) = 0.05056 0.32452
# Poissons Ratio (z) = 0.25649 0.21476
#
# Static dielectric constant tensor:
#      x y z
#    x 3.309190 0.000000 0.000000 
#    y 0.000000 3.523320 0.000000 
#    z 0.000000 0.000000 3.489970 
# 
# 
# High freq. dielectric constant tensor:
#      x y z
#    x 1.707070 0.000000 0.000000 
#    y 0.000000 1.745560 0.000000 
#    z 0.000000 0.000000 1.705070 
# 
# From -- ./inp_files/29938.got.cif
#   From: 2010.03.12/outbox.cif.g09.slc.cpg/sg57_15_cif.got.tgz:29938.got - 2010.04.16 15:48:40.
