data_PCOD8232366
_publ_section_title
;
Structure prediction by ZEFSAII (Michael W. Deem and Ramdas Pophale) SiO2 
 PCOD8232366
Probable space group: P B C M
;
_chemical_formula_sum "Si O2"
_cell_formula_units_Z 48
_cell_length_a 15.002064
_cell_length_b 20.639904
_cell_length_c 8.688076
_cell_angle_alpha 90.000000
_cell_angle_beta 90.000000
_cell_angle_gamma 90.000000
_cell_volume 2690.185937
_symmetry_space_group_name_H-M "P B C M"
_symmetry_group_IT_number 57
_symmetry_cell_setting 'orthorhombic'
loop_
_space_group_symop_operation_xyz
x,y,z
-x,-y,1/2+z
x,1/2-y,-z
-x,1/2+y,1/2-z
-x,-y,-z
x,y,1/2-z
-x,1/2+y,z
x,1/2-y,1/2+z
loop_
_atom_site_type_symbol
_atom_site_label
_atom_site_fract_x
_atom_site_fract_y
_atom_site_fract_z
Si Si1 0.696006 0.346923 0.430360
Si Si2 0.923674 0.043409 0.429538
Si Si3 0.880541 0.184779 0.068746
Si Si4 0.486736 0.813119 0.931132
Si Si5 0.570102 0.550538 0.068671
Si Si6 0.724401 0.481575 0.930643
O O1 0.714065 0.339488 0.250000
O O2 0.777274 0.315173 0.522777
O O3 0.606710 0.311376 0.479558
O O4 0.684398 0.421534 0.476403
O O5 0.940068 0.045781 0.250000
O O6 0.925693 0.117802 0.493427
O O7 0.828987 0.009798 0.468498
O O8 0.000000 0.000000 0.500000
O O9 0.888984 0.187677 0.250000
O O10 0.926538 0.250000 0.000000
O O11 0.470898 0.807844 0.750000
O O12 0.542202 0.876786 0.973244
O O13 0.538337 0.750000 0.000000
O O14 0.576497 0.539321 0.250000
O O15 0.500000 0.500000 0.000000
O O16 0.667450 0.542595 0.990042
O O17 0.709569 0.469433 0.750000
#
# Coordination Sequence:
#
# PCOD8232366 Si02
#       6
#     8   8   8   8   8   8
#     4  11  20  31  50  75 105 142 178 213 263 319
#     4   9  20  36  56  81 109 139 174 221 270 320
#     4  10  20  34  51  76 109 141 174 215 266 322
#     4  11  23  36  50  72 105 142 182 226 269 316
#     4  11  22  35  55  79 106 142 183 223 265 316
#     4  10  20  35  54  79 109 139 177 223 268 318
#
# _framework density 17.842631999999998
#
# number of rings (size 3 to 8) (size 9 to 14) (size 15 to 20)
#    0.000    1.667    1.667    5.000    0.000    6.000 
#    0.000    0.000    0.000    1.000    0.000    0.000 
#    0.000    0.000    0.000    0.000    0.000    0.000 
#
# Total GULP energy -595108.156101 kJ/mol
# GULP energy per Si atom -12398.086585 kJ/mol
# Density = 1.780202 g / cm^3
# Si number density = 17.842632 Si / 1000 Ang^3
#
#
#
# Elastic Constant Matrix: (Units=GPa)
#
#
# Indices 1 2 3 4 5 6 
#
# 1 87.4666 67.5761 31.9319 0.0000 0.0000 0.0000
# 2 67.5761 143.7196 43.1120 0.0000 0.0000 0.0000
# 3 31.9319 43.1120 65.1107 0.0000 0.0000 0.0000
# 4 0.0000 0.0000 0.0000 33.2928 0.0000 0.0000
# 5 0.0000 0.0000 0.0000 0.0000 29.2742 0.0000
# 6 0.0000 0.0000 0.0000 0.0000 0.0000 19.9401
#
#
#
# Elastic Compliance Matrix: (Units=1/GPa)
#
#
# Indices 1 2 3 4 5 6 
#
# 1 0.018837 -0.007594 -0.004210 0.000000 0.000000 0.000000
# 2 -0.007594 0.011744 -0.004052 0.000000 0.000000 0.000000
# 3 -0.004210 -0.004052 0.020106 0.000000 0.000000 0.000000
# 4 0.000000 0.000000 0.000000 0.030037 0.000000 0.000000
# 5 0.000000 0.000000 0.000000 0.000000 0.034160 0.000000
# 6 0.000000 0.000000 0.000000 0.000000 0.000000 0.050150
#
#
# Mechanical properties :
#
#
# Convention : Reuss Voigt Hill
#
# Bulk Modulus (GPa) = 52.69955 64.61519 58.65737
# Shear Modulus (GPa) = 24.62200 26.74656 25.68428
#
# Velocity S-wave (km/s) = 3.71880 3.87592 3.79818
# Velocity P-wave (km/s) = 6.93103 7.50486 7.22365
#
# Compressibility (1/GPa) = 0.01897549
#
# Stress axis : x y z
#
# Youngs Moduli (GPa) = 53.08671 85.14825 49.73674
#
# Poissons Ratio (x) = 0.64664 0.20938
# Poissons Ratio (y) = 0.40316 0.20152
# Poissons Ratio (z) = 0.22348 0.34501
#
# Static dielectric constant tensor:
#      x y z
#    x 3.384760 0.000000 0.000000 
#    y 0.000000 4.982060 0.000000 
#    z 0.000000 0.000000 3.420950 
# 
# 
# High freq. dielectric constant tensor:
#      x y z
#    x 1.654800 0.000000 0.000000 
#    y 0.000000 1.698590 0.000000 
#    z 0.000000 0.000000 1.702520 
# 
# From -- ./inp_files/4858.got.cif
#   From: 2010.03.12/outbox.cif.g09.slc.cpg/sg57_3_cif.got.tgz:4858.got - 2010.04.16 15:48:40.
