data_PCOD8232474
_publ_section_title
;
Structure prediction by ZEFSAII (Michael W. Deem and Ramdas Pophale) SiO2 
 PCOD8232474
Probable space group: P B C M
;
_chemical_formula_sum "Si O2"
_cell_formula_units_Z 48
_cell_length_a 30.570010
_cell_length_b 9.549086
_cell_length_c 8.773631
_cell_angle_alpha 90.000000
_cell_angle_beta 90.000000
_cell_angle_gamma 90.000000
_cell_volume 2561.160236
_symmetry_space_group_name_H-M "P B C M"
_symmetry_group_IT_number 57
_symmetry_cell_setting 'orthorhombic'
loop_
_space_group_symop_operation_xyz
x,y,z
-x,-y,1/2+z
x,1/2-y,-z
-x,1/2+y,1/2-z
-x,-y,-z
x,y,1/2-z
-x,1/2+y,z
x,1/2-y,1/2+z
loop_
_atom_site_type_symbol
_atom_site_label
_atom_site_fract_x
_atom_site_fract_y
_atom_site_fract_z
Si Si1 0.535450 0.401332 0.073402
Si Si2 0.717104 0.095729 0.069310
Si Si3 0.368369 0.901060 0.427125
Si Si4 0.787108 0.603711 0.069412
Si Si5 0.962703 0.403774 0.069705
Si Si6 0.113382 0.106373 0.072343
O O1 0.524960 0.383645 0.250000
O O2 0.583840 0.471469 0.049787
O O3 0.532217 0.250000 0.000000
O O4 0.500000 0.500000 0.000000
O O5 0.719272 0.099621 0.250000
O O6 0.717817 0.250000 0.000000
O O7 0.671730 0.020033 0.013575
O O8 0.758957 0.017705 0.004652
O O9 0.372823 0.750000 0.500000
O O10 0.356068 0.888747 0.250000
O O11 0.780925 0.605488 0.250000
O O12 0.837150 0.574466 0.019807
O O13 0.770926 0.750000 0.000000
O O14 0.969193 0.393406 0.250000
O O15 0.916470 0.474853 0.024950
O O16 0.964352 0.250000 0.000000
O O17 0.000000 0.500000 0.000000
O O18 0.111276 0.132814 0.250000
O O19 0.095366 0.250000 0.000000
#
# Coordination Sequence:
#
# PCOD8232474 Si02
#       6
#     8   8   8   8   8   8
#     4  10  20  34  54  78 106 138 175 217 265 317
#     4  11  21  34  54  80 107 139 177 221 266 314
#     4   9  17  31  51  75 102 136 175 217 263 316
#     4  10  20  37  57  80 110 144 179 219 267 321
#     4  11  23  39  58  84 114 147 184 225 271 320
#     4   9  20  37  58  81 108 142 181 221 266 318
#
# _framework density 18.741503999999999
#
# number of rings (size 3 to 8) (size 9 to 14) (size 15 to 20)
#    0.000    2.000    0.000    5.000    0.000    6.000 
#    0.000    2.500    0.000    4.000    0.000    0.000 
#    0.000    0.000    0.000    0.000    0.000    0.000 
#
# Total GULP energy -595043.096606 kJ/mol
# GULP energy per Si atom -12396.731179 kJ/mol
# Density = 1.869885 g / cm^3
# Si number density = 18.741504 Si / 1000 Ang^3
#
#
#
# Elastic Constant Matrix: (Units=GPa)
#
#
# Indices 1 2 3 4 5 6 
#
# 1 131.8040 71.8387 65.8306 0.0000 0.0000 0.0000
# 2 71.8387 105.2391 52.3089 0.0000 0.0000 0.0000
# 3 65.8306 52.3089 126.0171 0.0000 0.0000 0.0000
# 4 0.0000 0.0000 0.0000 34.7855 0.0000 0.0000
# 5 0.0000 0.0000 0.0000 0.0000 31.6569 0.0000
# 6 0.0000 0.0000 0.0000 0.0000 0.0000 32.5452
#
#
#
# Elastic Compliance Matrix: (Units=1/GPa)
#
#
# Indices 1 2 3 4 5 6 
#
# 1 0.013570 -0.007232 -0.004087 0.000000 0.000000 0.000000
# 2 -0.007232 0.015826 -0.002792 0.000000 0.000000 0.000000
# 3 -0.004087 -0.002792 0.011229 0.000000 0.000000 0.000000
# 4 0.000000 0.000000 0.000000 0.028748 0.000000 0.000000
# 5 0.000000 0.000000 0.000000 0.000000 0.031589 0.000000
# 6 0.000000 0.000000 0.000000 0.000000 0.000000 0.030726
#
#
# Mechanical properties :
#
#
# Convention : Reuss Voigt Hill
#
# Bulk Modulus (GPa) = 80.61390 82.55741 81.58565
# Shear Modulus (GPa) = 30.47972 31.33633 30.90802
#
# Velocity S-wave (km/s) = 4.03714 4.09348 4.06541
# Velocity P-wave (km/s) = 8.05222 8.15404 8.10329
#
# Compressibility (1/GPa) = 0.01240481
#
# Stress axis : x y z
#
# Youngs Moduli (GPa) = 73.69274 63.18626 89.05335
#
# Poissons Ratio (x) = 0.45694 0.36396
# Poissons Ratio (y) = 0.53292 0.24860
# Poissons Ratio (z) = 0.30118 0.17639
#
# Static dielectric constant tensor:
#      x y z
#    x 4.228310 0.000000 0.000000 
#    y 0.000000 3.224880 0.000000 
#    z 0.000000 0.000000 3.585760 
# 
# 
# High freq. dielectric constant tensor:
#      x y z
#    x 1.748550 0.000000 0.000000 
#    y 0.000000 1.700160 0.000000 
#    z 0.000000 0.000000 1.745000 
# 
# From -- ./inp_files/9954.got.cif
#   From: 2010.03.12/outbox.cif.g09.slc.cpg/sg57_5_cif.got.tgz:9954.got - 2010.04.16 15:48:40.
