data_PCOD8232727
_publ_section_title
;
Structure prediction by ZEFSAII (Michael W. Deem and Ramdas Pophale) SiO2 
 PCOD8232727
Probable space group: P B C M
;
_chemical_formula_sum "Si O2"
_cell_formula_units_Z 64
_cell_length_a 25.918860
_cell_length_b 14.815648
_cell_length_c 8.944844
_cell_angle_alpha 90.000000
_cell_angle_beta 90.000000
_cell_angle_gamma 90.000000
_cell_volume 3434.862193
_symmetry_space_group_name_H-M "P B C M"
_symmetry_group_IT_number 57
_symmetry_cell_setting 'orthorhombic'
loop_
_space_group_symop_operation_xyz
x,y,z
-x,-y,1/2+z
x,1/2-y,-z
-x,1/2+y,1/2-z
-x,-y,-z
x,y,1/2-z
-x,1/2+y,z
x,1/2-y,1/2+z
loop_
_atom_site_type_symbol
_atom_site_label
_atom_site_fract_x
_atom_site_fract_y
_atom_site_fract_z
Si Si1 0.502747 0.650678 0.573371
Si Si2 0.055486 0.007194 0.072398
Si Si3 0.241138 0.154992 0.577354
Si Si4 0.307829 0.007837 0.425052
Si Si5 0.874600 0.846278 0.075394
Si Si6 0.875508 0.340869 0.074525
Si Si7 0.241315 0.659018 0.574056
Si Si8 0.426934 0.491116 0.575862
O O1 0.496961 0.750000 0.500000
O O2 0.507865 0.665099 0.750000
O O3 0.454273 0.585922 0.531636
O O4 0.552595 0.596236 0.513917
O O5 0.050990 0.014600 0.250000
O O6 0.087938 0.920760 0.020305
O O7 0.084143 0.093628 0.009092
O O8 0.000000 0.000000 0.000000
O O9 0.246659 0.250000 0.500000
O O10 0.252822 0.168879 0.750000
O O11 0.284734 0.092232 0.509986
O O12 0.183443 0.115176 0.551899
O O13 0.298731 0.022149 0.250000
O O14 0.367452 0.996924 0.465838
O O15 0.278213 0.919801 0.483910
O O16 0.888535 0.839728 0.250000
O O17 0.878785 0.750000 0.000000
O O18 0.877985 0.327525 0.250000
O O19 0.817144 0.362002 0.021865
O O20 0.896579 0.250000 0.000000
O O21 0.262060 0.750000 0.500000
O O22 0.244740 0.670688 0.750000
O O23 0.435702 0.470690 0.750000
#
# Coordination Sequence:
#
# PCOD8232727 Si02
#       8
#     8   8   8   8   8   8   8   8
#     4  10  20  36  58  80 105 140 182 227 273 320
#     4  11  23  38  56  80 109 141 179 225 276 328
#     4  10  21  36  56  82 110 142 181 221 266 323
#     4  10  20  35  55  79 112 146 176 218 268 317
#     4  10  21  38  59  82 108 141 181 224 270 323
#     4   9  19  35  55  77 103 137 175 213 257 310
#     4   9  18  33  53  78 106 138 174 211 255 310
#     4   9  20  37  55  79 108 141 182 223 266 318
#
# _framework density 18.632480000000001
#
# number of rings (size 3 to 8) (size 9 to 14) (size 15 to 20)
#    0.000    2.250    0.000    2.250    0.000    6.500 
#    0.000    3.750    0.000    0.000    0.000    0.000 
#    0.000    0.000    0.000    0.000    0.000    0.000 
#
# Total GULP energy -793649.373177 kJ/mol
# GULP energy per Si atom -12400.771456 kJ/mol
# Density = 1.859007 g / cm^3
# Si number density = 18.632480 Si / 1000 Ang^3
#
#
#
# Elastic Constant Matrix: (Units=GPa)
#
#
# Indices 1 2 3 4 5 6 
#
# 1 127.4647 72.2114 51.1434 0.0000 0.0000 0.0000
# 2 72.2114 123.1379 51.0794 0.0000 0.0000 0.0000
# 3 51.1434 51.0794 69.1666 0.0000 0.0000 0.0000
# 4 0.0000 0.0000 0.0000 38.2567 0.0000 0.0000
# 5 0.0000 0.0000 0.0000 0.0000 26.5508 0.0000
# 6 0.0000 0.0000 0.0000 0.0000 0.0000 -44.2932
#
#
#
# Elastic Compliance Matrix: (Units=1/GPa)
#
#
# Indices 1 2 3 4 5 6 
#
# 1 0.013200 -0.005322 -0.005829 0.000000 0.000000 0.000000
# 2 -0.005322 0.013854 -0.006295 0.000000 0.000000 0.000000
# 3 -0.005829 -0.006295 0.023417 0.000000 0.000000 0.000000
# 4 0.000000 0.000000 0.000000 0.026139 0.000000 0.000000
# 5 0.000000 0.000000 0.000000 0.000000 0.037664 0.000000
# 6 0.000000 0.000000 0.000000 0.000000 0.000000 -0.022577
#
#
# Mechanical properties :
#
#
# Convention : Reuss Voigt Hill
#
# Bulk Modulus (GPa) = 64.20093 74.29306 69.24699
# Shear Modulus (GPa) = 37.94112 13.79185 25.86649
#
# Velocity S-wave (km/s) = 4.51742 2.72362 3.72996
# Velocity P-wave (km/s) = 7.85753 7.06047 7.46964
#
# Compressibility (1/GPa) = 0.01557610
#
# Stress axis : x y z
#
# Youngs Moduli (GPa) = 75.76006 72.18344 42.70327
#
# Poissons Ratio (x) = 0.38419 0.24894
# Poissons Ratio (y) = 0.40323 0.26883
# Poissons Ratio (z) = 0.44164 0.45442
#
# Static dielectric constant tensor:
#      x y z
#    x 3.601020 0.000000 0.000000 
#    y 0.000000 3.448910 0.000000 
#    z 0.000000 0.000000 3.356000 
# 
# 
# High freq. dielectric constant tensor:
#      x y z
#    x 1.723670 0.000000 0.000000 
#    y 0.000000 1.729990 0.000000 
#    z 0.000000 0.000000 1.727170 
# 
# From -- ./inp_files/9489.got.cif
#   From: 2010.03.12/outbox.cif.g09.slc.cpg/sg57_5_cif.got.tgz:9489.got - 2010.04.16 15:48:40.
