data_PCOD8232887
_publ_section_title
;
Structure prediction by ZEFSAII (Michael W. Deem and Ramdas Pophale) SiO2 
 PCOD8232887
Probable space group: P B C M
;
_chemical_formula_sum "Si O2"
_cell_formula_units_Z 36
_cell_length_a 6.137906
_cell_length_b 22.009865
_cell_length_c 13.034646
_cell_angle_alpha 90.000000
_cell_angle_beta 90.000000
_cell_angle_gamma 90.000000
_cell_volume 1760.908755
_symmetry_space_group_name_H-M "P B C M"
_symmetry_group_IT_number 57
_symmetry_cell_setting 'orthorhombic'
loop_
_space_group_symop_operation_xyz
x,y,z
-x,-y,1/2+z
x,1/2-y,-z
-x,1/2+y,1/2-z
-x,-y,-z
x,y,1/2-z
-x,1/2+y,z
x,1/2-y,1/2+z
loop_
_atom_site_type_symbol
_atom_site_label
_atom_site_fract_x
_atom_site_fract_y
_atom_site_fract_z
Si Si1 0.398429 0.439220 0.130819
Si Si2 0.519082 0.826957 0.632381
Si Si3 0.895528 0.855062 0.011352
Si Si4 0.792161 0.250000 0.500000
Si Si5 0.729178 0.436840 0.546739
O O1 0.459147 0.437324 0.250000
O O2 0.257182 0.379310 0.103181
O O3 0.256242 0.498394 0.102397
O O4 0.622555 0.440944 0.066655
O O5 0.562788 0.813027 0.750000
O O6 0.750960 0.823556 0.576302
O O7 0.356790 0.775568 0.590730
O O8 0.417692 0.893594 0.617791
O O9 0.063859 0.803866 0.050476
O O10 0.026220 0.911838 0.962777
#
# Coordination Sequence:
#
# PCOD8232887 Si02
#       5
#     8   8   8   4   8
#     4  10  20  35  58  87 118 151 184 225 281 337
#     4  10  21  38  60  82 108 148 192 232 279 334
#     4  10  21  38  58  83 114 147 189 236 277 330
#     4  10  22  40  56  80 116 146 184 240 286 328
#     4   9  20  38  56  84 120 148 184 232 276 333
#
# _framework density 20.443988000000001
#
# number of rings (size 3 to 8) (size 9 to 14) (size 15 to 20)
#    0.000    2.222    0.000    2.000    0.000    6.222 
#    0.000   15.556    0.000    0.000    0.000    0.000 
#    0.000    0.000    0.000    0.000    0.000    0.000 
#
# Total GULP energy -446504.992308 kJ/mol
# GULP energy per Si atom -12402.916453 kJ/mol
# Density = 2.039746 g / cm^3
# Si number density = 20.443988 Si / 1000 Ang^3
#
#
#
# Elastic Constant Matrix: (Units=GPa)
#
#
# Indices 1 2 3 4 5 6 
#
# 1 98.8643 35.1627 47.4815 0.0000 0.0000 0.0000
# 2 35.1627 100.5973 52.6323 0.0000 0.0000 0.0000
# 3 47.4815 52.6323 148.5191 0.0000 0.0000 0.0000
# 4 0.0000 0.0000 0.0000 21.0801 0.0000 0.0000
# 5 0.0000 0.0000 0.0000 0.0000 12.3861 0.0000
# 6 0.0000 0.0000 0.0000 0.0000 0.0000 30.7784
#
#
#
# Elastic Compliance Matrix: (Units=1/GPa)
#
#
# Indices 1 2 3 4 5 6 
#
# 1 0.012566 -0.002812 -0.003021 0.000000 0.000000 0.000000
# 2 -0.002812 0.012832 -0.003649 0.000000 0.000000 0.000000
# 3 -0.003021 -0.003649 0.008992 0.000000 0.000000 0.000000
# 4 0.000000 0.000000 0.000000 0.047438 0.000000 0.000000
# 5 0.000000 0.000000 0.000000 0.000000 0.080736 0.000000
# 6 0.000000 0.000000 0.000000 0.000000 0.000000 0.032490
#
#
# Mechanical properties :
#
#
# Convention : Reuss Voigt Hill
#
# Bulk Modulus (GPa) = 64.81880 68.72596 66.77238
# Shear Modulus (GPa) = 22.81447 27.02920 24.92183
#
# Velocity S-wave (km/s) = 3.34421 3.64003 3.49525
# Velocity P-wave (km/s) = 6.83272 7.16632 7.00150
#
# Compressibility (1/GPa) = 0.01542762
#
# Stress axis : x y z
#
# Youngs Moduli (GPa) = 79.58159 77.92778 111.21111
#
# Poissons Ratio (x) = 0.21911 0.33595
# Poissons Ratio (y) = 0.22376 0.40577
# Poissons Ratio (z) = 0.24040 0.28433
#
# Static dielectric constant tensor:
#      x y z
#    x 3.758490 0.000000 0.000000 
#    y 0.000000 3.894650 0.000000 
#    z 0.000000 0.000000 3.336010 
# 
# 
# High freq. dielectric constant tensor:
#      x y z
#    x 1.805380 0.000000 0.000000 
#    y 0.000000 1.813260 0.000000 
#    z 0.000000 0.000000 1.769090 
# 
# From -- ./inp_files/10813.got.cif
#   From: 2010.03.12/outbox.cif.g09.slc.cpg/sg57_6_cif.got.tgz:10813.got - 2010.04.16 15:48:40.
