data_PCOD8232290
_publ_section_title
;
Structure prediction by ZEFSAII (Michael W. Deem and Ramdas Pophale) SiO2 
 PCOD8232290
Probable space group: P B C M
;
_chemical_formula_sum "Si O2"
_cell_formula_units_Z 48
_cell_length_a 9.460065
_cell_length_b 30.368561
_cell_length_c 9.152831
_cell_angle_alpha 90.000000
_cell_angle_beta 90.000000
_cell_angle_gamma 90.000000
_cell_volume 2629.503647
_symmetry_space_group_name_H-M "P B C M"
_symmetry_group_IT_number 57
_symmetry_cell_setting 'orthorhombic'
loop_
_space_group_symop_operation_xyz
x,y,z
-x,-y,1/2+z
x,1/2-y,-z
-x,1/2+y,1/2-z
-x,-y,-z
x,y,1/2-z
-x,1/2+y,z
x,1/2-y,1/2+z
loop_
_atom_site_type_symbol
_atom_site_label
_atom_site_fract_x
_atom_site_fract_y
_atom_site_fract_z
Si Si1 0.853392 0.551917 0.579900
Si Si2 0.833242 0.294091 0.921806
Si Si3 0.652635 0.375563 0.577338
Si Si4 0.666610 0.621404 0.423577
Si Si5 0.157865 0.206059 0.420535
Si Si6 0.139507 0.950484 0.580634
O O1 0.855183 0.563741 0.750000
O O2 0.732390 0.578904 0.499337
O O3 0.818148 0.500793 0.551962
O O4 0.004926 0.564092 0.513196
O O5 0.813382 0.287764 0.750000
O O6 0.739425 0.333977 0.984836
O O7 0.995833 0.304328 0.961541
O O8 0.780170 0.250000 0.000000
O O9 0.649903 0.371956 0.750000
O O10 0.493387 0.374897 0.517491
O O11 0.728945 0.420723 0.529192
O O12 0.674926 0.614977 0.250000
O O13 0.748859 0.665092 0.474329
O O14 0.212085 0.250000 0.500000
O O15 0.177393 0.214184 0.250000
O O16 0.101193 0.942139 0.750000
#
# Coordination Sequence:
#
# PCOD8232290 Si02
#       6
#     8   8   8   8   8   8
#     4  10  20  33  52  78 103 129 166 212 256 296
#     4   9  17  31  50  71  95 125 164 206 245 288
#     4   9  18  33  53  74  98 133 172 204 241 298
#     4  10  20  34  52  74 102 137 170 200 245 304
#     4   9  18  32  51  73  97 129 168 208 248 292
#     4   9  18  35  56  75  98 131 171 212 252 297
#
# _framework density 18.254394999999999
#
# number of rings (size 3 to 8) (size 9 to 14) (size 15 to 20)
#    0.000    2.667    0.000    1.500    0.000    5.333 
#    0.000    5.833    0.000    0.000    0.000    0.000 
#    0.000    0.000    0.000    0.000    0.000    0.000 
#
# Total GULP energy -595292.937145 kJ/mol
# GULP energy per Si atom -12401.936191 kJ/mol
# Density = 1.821285 g / cm^3
# Si number density = 18.254395 Si / 1000 Ang^3
#
#
#
# Elastic Constant Matrix: (Units=GPa)
#
#
# Indices 1 2 3 4 5 6 
#
# 1 142.1913 93.5232 38.0797 0.0000 0.0000 0.0000
# 2 93.5232 135.9096 40.9787 0.0000 0.0000 0.0000
# 3 38.0797 40.9787 40.2683 0.0000 0.0000 0.0000
# 4 0.0000 0.0000 0.0000 32.2851 0.0000 0.0000
# 5 0.0000 0.0000 0.0000 0.0000 19.0822 0.0000
# 6 0.0000 0.0000 0.0000 0.0000 0.0000 20.2816
#
#
#
# Elastic Compliance Matrix: (Units=1/GPa)
#
#
# Indices 1 2 3 4 5 6 
#
# 1 0.013452 -0.007821 -0.004762 0.000000 0.000000 0.000000
# 2 -0.007821 0.015162 -0.008033 0.000000 0.000000 0.000000
# 3 -0.004762 -0.008033 0.037512 0.000000 0.000000 0.000000
# 4 0.000000 0.000000 0.000000 0.030974 0.000000 0.000000
# 5 0.000000 0.000000 0.000000 0.000000 0.052405 0.000000
# 6 0.000000 0.000000 0.000000 0.000000 0.000000 0.049306
#
#
# Mechanical properties :
#
#
# Convention : Reuss Voigt Hill
#
# Bulk Modulus (GPa) = 40.17211 73.72583 56.94897
# Shear Modulus (GPa) = 20.13357 24.04893 22.09125
#
# Velocity S-wave (km/s) = 3.32466 3.63358 3.48255
# Velocity P-wave (km/s) = 6.06568 7.62100 6.88738
#
# Compressibility (1/GPa) = 0.02489289
#
# Stress axis : x y z
#
# Youngs Moduli (GPa) = 74.33735 65.95492 26.65823
#
# Poissons Ratio (x) = 0.51583 0.12695
# Poissons Ratio (y) = 0.58139 0.21416
# Poissons Ratio (z) = 0.35400 0.52984
#
# Static dielectric constant tensor:
#      x y z
#    x 3.485460 0.000000 0.000000 
#    y 0.000000 3.500280 0.000000 
#    z 0.000000 0.000000 3.151460 
# 
# 
# High freq. dielectric constant tensor:
#      x y z
#    x 1.704800 0.000000 0.000000 
#    y 0.000000 1.719090 0.000000 
#    z 0.000000 0.000000 1.684670 
# 
# From -- ./inp_files/1983.got.cif
#   From: 2010.03.12/outbox.cif.g09.slc.cpg/sg57_1_cif.got.tgz:1983.got - 2010.04.16 15:48:40.
