data_PCOD8232524
_publ_section_title
;
Structure prediction by ZEFSAII (Michael W. Deem and Ramdas Pophale) SiO2 
 PCOD8232524
Probable space group: P B C M
;
_chemical_formula_sum "Si O2"
_cell_formula_units_Z 40
_cell_length_a 19.410852
_cell_length_b 5.277109
_cell_length_c 20.752596
_cell_angle_alpha 90.000000
_cell_angle_beta 90.000000
_cell_angle_gamma 90.000000
_cell_volume 2125.754439
_symmetry_space_group_name_H-M "P B C M"
_symmetry_group_IT_number 57
_symmetry_cell_setting 'orthorhombic'
loop_
_space_group_symop_operation_xyz
x,y,z
-x,-y,1/2+z
x,1/2-y,-z
-x,1/2+y,1/2-z
-x,-y,-z
x,y,1/2-z
-x,1/2+y,z
x,1/2-y,1/2+z
loop_
_atom_site_type_symbol
_atom_site_label
_atom_site_fract_x
_atom_site_fract_y
_atom_site_fract_z
Si Si1 0.964414 0.653800 0.674114
Si Si2 0.534876 0.754770 0.825267
Si Si3 0.812236 0.513380 0.822888
Si Si4 0.685624 0.748014 0.876206
Si Si5 0.736273 0.257853 0.571813
O O1 0.977170 0.655496 0.750000
O O2 0.883635 0.645419 0.657417
O O3 0.996978 0.908825 0.643867
O O4 0.518946 0.754397 0.750000
O O5 0.500131 0.504525 0.856646
O O6 0.616247 0.756481 0.835608
O O7 0.816118 0.402994 0.750000
O O8 0.750820 0.720859 0.827404
O O9 0.796722 0.286939 0.874191
O O10 0.685347 0.502188 0.923287
O O11 0.692608 0.004787 0.916618
O O12 0.768401 0.250000 0.500000
#
# Coordination Sequence:
#
# PCOD8232524 Si02
#       5
#     8   8   8   8   8
#     4   9  18  31  48  75 115 148 174 220 285 340
#     4  10  20  34  54  83 119 149 177 226 291 337
#     4   9  21  34  58  89 111 143 192 239 280 327
#     4  10  21  36  59  81 111 143 192 234 272 330
#     4  10  22  38  59  82 112 152 189 234 283 332
#
# _framework density 18.816849000000001
#
# number of rings (size 3 to 8) (size 9 to 14) (size 15 to 20)
#    1.200    1.200    0.000    2.400    2.800    1.600 
#    0.000    0.000    0.000   13.200    0.000    0.000 
#    0.000    0.000    0.000    0.000    0.000    0.000 
#
# Total GULP energy -495614.160806 kJ/mol
# GULP energy per Si atom -12390.354020 kJ/mol
# Density = 1.877402 g / cm^3
# Si number density = 18.816849 Si / 1000 Ang^3
#
#
#
# Elastic Constant Matrix: (Units=GPa)
#
#
# Indices 1 2 3 4 5 6 
#
# 1 141.0013 53.9871 15.1989 0.0000 0.0000 0.0000
# 2 53.9871 151.6173 19.0932 0.0000 0.0000 0.0000
# 3 15.1989 19.0932 56.9910 0.0000 0.0000 0.0000
# 4 0.0000 0.0000 0.0000 8.8166 0.0000 0.0000
# 5 0.0000 0.0000 0.0000 0.0000 5.9287 0.0000
# 6 0.0000 0.0000 0.0000 0.0000 0.0000 22.1053
#
#
#
# Elastic Compliance Matrix: (Units=1/GPa)
#
#
# Indices 1 2 3 4 5 6 
#
# 1 0.008300 -0.002794 -0.001277 0.000000 0.000000 0.000000
# 2 -0.002794 0.007827 -0.001877 0.000000 0.000000 0.000000
# 3 -0.001277 -0.001877 0.018516 0.000000 0.000000 0.000000
# 4 0.000000 0.000000 0.000000 0.113422 0.000000 0.000000
# 5 0.000000 0.000000 0.000000 0.000000 0.168672 0.000000
# 6 0.000000 0.000000 0.000000 0.000000 0.000000 0.045238
#
#
# Mechanical properties :
#
#
# Convention : Reuss Voigt Hill
#
# Bulk Modulus (GPa) = 43.96483 58.46311 51.21397
# Shear Modulus (GPa) = 13.10773 24.79214 18.94993
#
# Velocity S-wave (km/s) = 2.64217 3.63375 3.17688
# Velocity P-wave (km/s) = 5.72044 6.98158 6.38224
#
# Compressibility (1/GPa) = 0.02274545
#
# Stress axis : x y z
#
# Youngs Moduli (GPa) = 120.48520 127.76343 54.00714
#
# Poissons Ratio (x) = 0.35703 0.06898
# Poissons Ratio (y) = 0.33670 0.10137
# Poissons Ratio (z) = 0.15389 0.23980
#
# Static dielectric constant tensor:
#      x y z
#    x 3.268690 0.000000 0.000000 
#    y 0.000000 3.704130 0.000000 
#    z 0.000000 0.000000 2.985400 
# 
# 
# High freq. dielectric constant tensor:
#      x y z
#    x 1.723740 0.000000 0.000000 
#    y 0.000000 1.742370 0.000000 
#    z 0.000000 0.000000 1.681970 
# 
# From -- ./inp_files/22985.got.cif
#   From: 2010.03.12/outbox.cif.g09.slc.cpg/sg57_12_cif.got.tgz:22985.got - 2010.04.16 15:48:40.
