data_PCOD8232912
_publ_section_title
;
Structure prediction by ZEFSAII (Michael W. Deem and Ramdas Pophale) SiO2 
 PCOD8232912
Probable space group: P B C M
;
_chemical_formula_sum "Si O2"
_cell_formula_units_Z 48
_cell_length_a 14.742995
_cell_length_b 18.880962
_cell_length_c 8.681963
_cell_angle_alpha 90.000000
_cell_angle_beta 90.000000
_cell_angle_gamma 90.000000
_cell_volume 2416.727963
_symmetry_space_group_name_H-M "P B C M"
_symmetry_group_IT_number 57
_symmetry_cell_setting 'orthorhombic'
loop_
_space_group_symop_operation_xyz
x,y,z
-x,-y,1/2+z
x,1/2-y,-z
-x,1/2+y,1/2-z
-x,-y,-z
x,y,1/2-z
-x,1/2+y,z
x,1/2-y,1/2+z
loop_
_atom_site_type_symbol
_atom_site_label
_atom_site_fract_x
_atom_site_fract_y
_atom_site_fract_z
Si Si1 0.865479 0.079803 0.566934
Si Si2 0.967872 0.672954 0.571212
Si Si3 0.555676 0.397854 0.429000
Si Si4 0.620485 0.554569 0.070474
Si Si5 0.814688 0.935979 0.429818
Si Si6 0.285383 0.824501 0.931489
O O1 0.865839 0.071617 0.750000
O O2 0.771957 0.114428 0.513129
O O3 0.949327 0.126319 0.503828
O O4 0.871941 0.002277 0.492673
O O5 0.966059 0.750000 0.500000
O O6 0.985395 0.682482 0.750000
O O7 0.873227 0.634114 0.537243
O O8 0.563081 0.379121 0.250000
O O9 0.450854 0.396131 0.479940
O O10 0.600256 0.473258 0.469470
O O11 0.609661 0.338720 0.526103
O O12 0.609453 0.569709 0.250000
O O13 0.720758 0.574606 0.018023
O O14 0.795554 0.947108 0.250000
O O15 0.269708 0.825246 0.750000
O O16 0.253020 0.750000 0.000000
#
# Coordination Sequence:
#
# PCOD8232912 Si02
#       6
#     8   8   8   8   8   8
#     4  11  22  39  61  89 120 155 201 249 300 360
#     4  10  24  42  61  86 119 158 201 247 300 359
#     4  10  20  36  58  85 119 154 196 243 293 353
#     4  10  20  35  59  88 118 153 195 243 294 349
#     4  11  22  38  61  91 121 155 200 251 301 355
#     4  12  24  38  58  86 123 162 201 248 304 362
#
# _framework density 19.861566
#
# number of rings (size 3 to 8) (size 9 to 14) (size 15 to 20)
#    0.000    1.333    1.667    4.500    0.000    5.333 
#    0.000    0.833    0.000    2.000    0.000    0.000 
#    0.000    0.000    0.000    0.000    0.000    0.000 
#
# Total GULP energy -595469.949106 kJ/mol
# GULP energy per Si atom -12405.623940 kJ/mol
# Density = 1.981636 g / cm^3
# Si number density = 19.861566 Si / 1000 Ang^3
#
#
#
# Elastic Constant Matrix: (Units=GPa)
#
#
# Indices 1 2 3 4 5 6 
#
# 1 98.9447 21.2593 6.4188 0.0000 0.0000 0.0000
# 2 21.2593 63.5627 12.2783 0.0000 0.0000 0.0000
# 3 6.4188 12.2783 44.5093 0.0000 0.0000 0.0000
# 4 0.0000 0.0000 0.0000 32.7852 0.0000 0.0000
# 5 0.0000 0.0000 0.0000 0.0000 33.9579 0.0000
# 6 0.0000 0.0000 0.0000 0.0000 0.0000 24.9941
#
#
#
# Elastic Compliance Matrix: (Units=1/GPa)
#
#
# Indices 1 2 3 4 5 6 
#
# 1 0.010904 -0.003531 -0.000598 0.000000 0.000000 0.000000
# 2 -0.003531 0.017762 -0.004390 0.000000 0.000000 0.000000
# 3 -0.000598 -0.004390 0.023765 0.000000 0.000000 0.000000
# 4 0.000000 0.000000 0.000000 0.030502 0.000000 0.000000
# 5 0.000000 0.000000 0.000000 0.000000 0.029448 0.000000
# 6 0.000000 0.000000 0.000000 0.000000 0.000000 0.040010
#
#
# Mechanical properties :
#
#
# Convention : Reuss Voigt Hill
#
# Bulk Modulus (GPa) = 28.25648 31.88104 30.06876
# Shear Modulus (GPa) = 27.58969 29.48478 28.53723
#
# Velocity S-wave (km/s) = 3.73111 3.85712 3.79464
# Velocity P-wave (km/s) = 5.72880 5.99358 5.86268
#
# Compressibility (1/GPa) = 0.03539011
#
# Stress axis : x y z
#
# Youngs Moduli (GPa) = 91.70747 56.30085 42.07934
#
# Poissons Ratio (x) = 0.19882 0.02518
# Poissons Ratio (y) = 0.32386 0.18475
# Poissons Ratio (z) = 0.05487 0.24719
#
# Static dielectric constant tensor:
#      x y z
#    x 3.718160 0.000000 0.000000 
#    y 0.000000 3.508840 0.000000 
#    z 0.000000 0.000000 3.624410 
# 
# 
# High freq. dielectric constant tensor:
#      x y z
#    x 1.785190 0.000000 0.000000 
#    y 0.000000 1.759970 0.000000 
#    z 0.000000 0.000000 1.783350 
# 
# From -- ./inp_files/4697.got.cif
#   From: 2010.03.12/outbox.cif.g09.slc.cpg/sg57_3_cif.got.tgz:4697.got - 2010.04.16 15:48:40.
