data_PCOD8232553
_publ_section_title
;
Structure prediction by ZEFSAII (Michael W. Deem and Ramdas Pophale) SiO2 
 PCOD8232553
Probable space group: P B C M
;
_chemical_formula_sum "Si O2"
_cell_formula_units_Z 40
_cell_length_a 25.915683
_cell_length_b 9.172093
_cell_length_c 8.675549
_cell_angle_alpha 90.000000
_cell_angle_beta 90.000000
_cell_angle_gamma 90.000000
_cell_volume 2062.187147
_symmetry_space_group_name_H-M "P B C M"
_symmetry_group_IT_number 57
_symmetry_cell_setting 'orthorhombic'
loop_
_space_group_symop_operation_xyz
x,y,z
-x,-y,1/2+z
x,1/2-y,-z
-x,1/2+y,1/2-z
-x,-y,-z
x,y,1/2-z
-x,1/2+y,z
x,1/2-y,1/2+z
loop_
_atom_site_type_symbol
_atom_site_label
_atom_site_fract_x
_atom_site_fract_y
_atom_site_fract_z
Si Si1 0.953083 0.409807 0.932410
Si Si2 0.353765 0.089097 0.568725
Si Si3 0.862200 0.589348 0.430071
Si Si4 0.251903 0.092510 0.427950
Si Si5 0.547017 0.410265 0.932665
O O1 0.957615 0.403621 0.750000
O O2 0.956117 0.250000 0.000000
O O3 0.899307 0.481346 0.980054
O O4 0.000000 0.500000 0.000000
O O5 0.360661 0.250000 0.500000
O O6 0.352921 0.103550 0.750000
O O7 0.300036 0.012753 0.511782
O O8 0.400369 0.987661 0.512861
O O9 0.867413 0.750000 0.500000
O O10 0.876890 0.597483 0.250000
O O11 0.804538 0.520816 0.451999
O O12 0.247438 0.250000 0.500000
O O13 0.266139 0.105528 0.250000
O O14 0.542187 0.403662 0.750000
O O15 0.546008 0.250000 0.000000
O O16 0.500000 0.500000 0.000000
#
# Coordination Sequence:
#
# PCOD8232553 Si02
#       5
#     8   8   8   8   8
#     4  12  25  42  62  85 114 149 188 233 283 336
#     4  10  20  34  55  83 113 146 186 229 276 328
#     4  10  20  36  58  87 118 151 191 233 278 330
#     4   9  17  30  53  82 113 148 186 227 272 324
#     4  11  24  40  59  83 111 146 186 232 282 336
#
# _framework density 19.396879999999999
#
# number of rings (size 3 to 8) (size 9 to 14) (size 15 to 20)
#    0.000    1.600    0.000    6.600    0.000    7.200 
#    0.000    1.000    0.000    2.400    0.000    0.000 
#    0.000    0.000    0.000    0.000    0.000    0.000 
#
# Total GULP energy -495902.233851 kJ/mol
# GULP energy per Si atom -12397.555846 kJ/mol
# Density = 1.935273 g / cm^3
# Si number density = 19.396880 Si / 1000 Ang^3
#
#
#
# Elastic Constant Matrix: (Units=GPa)
#
#
# Indices 1 2 3 4 5 6 
#
# 1 179.7228 78.5963 70.0903 0.0000 0.0000 0.0000
# 2 78.5963 119.3952 50.9298 0.0000 0.0000 0.0000
# 3 70.0903 50.9298 129.8992 0.0000 0.0000 0.0000
# 4 0.0000 0.0000 0.0000 32.3893 0.0000 0.0000
# 5 0.0000 0.0000 0.0000 0.0000 37.2132 0.0000
# 6 0.0000 0.0000 0.0000 0.0000 0.0000 38.3105
#
#
#
# Elastic Compliance Matrix: (Units=1/GPa)
#
#
# Indices 1 2 3 4 5 6 
#
# 1 0.008649 -0.004446 -0.002923 0.000000 0.000000 0.000000
# 2 -0.004446 0.012343 -0.002440 0.000000 0.000000 0.000000
# 3 -0.002923 -0.002440 0.010232 0.000000 0.000000 0.000000
# 4 0.000000 0.000000 0.000000 0.030874 0.000000 0.000000
# 5 0.000000 0.000000 0.000000 0.000000 0.026872 0.000000
# 6 0.000000 0.000000 0.000000 0.000000 0.000000 0.026103
#
#
# Mechanical properties :
#
#
# Convention : Reuss Voigt Hill
#
# Bulk Modulus (GPa) = 86.17352 92.02777 89.10064
# Shear Modulus (GPa) = 36.08495 36.87599 36.48047
#
# Velocity S-wave (km/s) = 4.31785 4.36493 4.34145
# Velocity P-wave (km/s) = 8.32955 8.54114 8.43601
#
# Compressibility (1/GPa) = 0.01160449
#
# Stress axis : x y z
#
# Youngs Moduli (GPa) = 115.62497 81.01438 97.72835
#
# Poissons Ratio (x) = 0.36021 0.28569
# Poissons Ratio (y) = 0.51410 0.23850
# Poissons Ratio (z) = 0.33801 0.19771
#
# Static dielectric constant tensor:
#      x y z
#    x 4.442270 0.000000 0.000000 
#    y 0.000000 3.315830 0.000000 
#    z 0.000000 0.000000 3.756080 
# 
# 
# High freq. dielectric constant tensor:
#      x y z
#    x 1.784490 0.000000 0.000000 
#    y 0.000000 1.725640 0.000000 
#    z 0.000000 0.000000 1.776250 
# 
# From -- ./inp_files/8912.got.cif
#   From: 2010.03.12/outbox.cif.g09.slc.cpg/sg57_5_cif.got.tgz:8912.got - 2010.04.16 15:48:40.
