data_PCOD8232754
_publ_section_title
;
Structure prediction by ZEFSAII (Michael W. Deem and Ramdas Pophale) SiO2 
 PCOD8232754
Probable space group: P B C M
;
_chemical_formula_sum "Si O2"
_cell_formula_units_Z 40
_cell_length_a 7.844121
_cell_length_b 29.579048
_cell_length_c 8.726260
_cell_angle_alpha 90.000000
_cell_angle_beta 90.000000
_cell_angle_gamma 90.000000
_cell_volume 2024.681083
_symmetry_space_group_name_H-M "P B C M"
_symmetry_group_IT_number 57
_symmetry_cell_setting 'orthorhombic'
loop_
_space_group_symop_operation_xyz
x,y,z
-x,-y,1/2+z
x,1/2-y,-z
-x,1/2+y,1/2-z
-x,-y,-z
x,y,1/2-z
-x,1/2+y,z
x,1/2-y,1/2+z
loop_
_atom_site_type_symbol
_atom_site_label
_atom_site_fract_x
_atom_site_fract_y
_atom_site_fract_z
Si Si1 0.944468 0.453372 0.072550
Si Si2 0.256961 0.200582 0.067919
Si Si3 0.949830 0.362207 0.568674
Si Si4 0.565306 0.141607 0.075183
Si Si5 0.593048 0.457996 0.926618
O O1 0.988316 0.454398 0.250000
O O2 0.029557 0.408809 0.998455
O O3 0.747014 0.448839 0.039395
O O4 0.000000 0.500000 0.000000
O O5 0.266965 0.202297 0.250000
O O6 0.421070 0.173543 0.998621
O O7 0.078936 0.177267 0.017886
O O8 0.259327 0.250000 0.000000
O O9 0.941128 0.368761 0.750000
O O10 0.757114 0.352311 0.503980
O O11 0.582286 0.156630 0.250000
O O12 0.493406 0.089843 0.065767
O O13 0.644578 0.468811 0.750000
O O14 0.500000 0.500000 0.000000
#
# Coordination Sequence:
#
# PCOD8232754 Si02
#       5
#     8   8   8   8   8
#     4  11  22  36  55  82 115 152 193 238 291 350
#     4  10  21  37  58  83 110 146 188 236 291 346
#     4   9  19  37  58  79 111 150 189 236 291 346
#     4   8  17  35  55  77 109 147 185 227 282 343
#     4  10  20  35  55  83 115 152 195 238 289 347
#
# _framework density 19.756195999999999
#
# number of rings (size 3 to 8) (size 9 to 14) (size 15 to 20)
#    0.000    2.400    0.000    3.600    2.800    1.600 
#    0.000    5.000    0.000    0.000    0.000    0.000 
#    0.000    0.000    0.000    0.000    0.000    0.000 
#
# Total GULP energy -495536.831654 kJ/mol
# GULP energy per Si atom -12388.420791 kJ/mol
# Density = 1.971123 g / cm^3
# Si number density = 19.756196 Si / 1000 Ang^3
#
#
#
# Elastic Constant Matrix: (Units=GPa)
#
#
# Indices 1 2 3 4 5 6 
#
# 1 112.9182 84.8100 27.5028 0.0000 0.0000 0.0000
# 2 84.8100 178.2789 37.6536 0.0000 0.0000 0.0000
# 3 27.5028 37.6536 46.6205 0.0000 0.0000 0.0000
# 4 0.0000 0.0000 0.0000 36.8128 0.0000 0.0000
# 5 0.0000 0.0000 0.0000 0.0000 18.4438 0.0000
# 6 0.0000 0.0000 0.0000 0.0000 0.0000 37.5892
#
#
#
# Elastic Compliance Matrix: (Units=1/GPa)
#
#
# Indices 1 2 3 4 5 6 
#
# 1 0.014246 -0.006031 -0.003533 0.000000 0.000000 0.000000
# 2 -0.006031 0.009316 -0.003966 0.000000 0.000000 0.000000
# 3 -0.003533 -0.003966 0.026738 0.000000 0.000000 0.000000
# 4 0.000000 0.000000 0.000000 0.027164 0.000000 0.000000
# 5 0.000000 0.000000 0.000000 0.000000 0.054219 0.000000
# 6 0.000000 0.000000 0.000000 0.000000 0.000000 0.026603
#
#
# Mechanical properties :
#
#
# Convention : Reuss Voigt Hill
#
# Bulk Modulus (GPa) = 43.03165 70.86118 56.94642
# Shear Modulus (GPa) = 25.89418 31.09257 28.49338
#
# Velocity S-wave (km/s) = 3.62427 3.97144 3.80182
# Velocity P-wave (km/s) = 6.27235 7.54821 6.93966
#
# Compressibility (1/GPa) = 0.02323871
#
# Stress axis : x y z
#
# Youngs Moduli (GPa) = 70.19413 107.34370 37.40039
#
# Poissons Ratio (x) = 0.64738 0.13215
# Poissons Ratio (y) = 0.42333 0.14834
# Poissons Ratio (z) = 0.24802 0.42576
#
# Static dielectric constant tensor:
#      x y z
#    x 2.426490 0.000000 0.000000 
#    y 0.000000 2.559390 0.000000 
#    z 0.000000 0.000000 2.851680 
# 
# 
# High freq. dielectric constant tensor:
#      x y z
#    x 1.766660 0.000000 0.000000 
#    y 0.000000 1.779040 0.000000 
#    z 0.000000 0.000000 1.743040 
# 
# From -- ./inp_files/1495.got.cif
#   From: 2010.03.12/outbox.cif.g09.slc.cpg/sg57_1_cif.got.tgz:1495.got - 2010.04.16 15:48:40.
