data_PCOD8232124
_publ_section_title
;
Structure prediction by ZEFSAII (Michael W. Deem and Ramdas Pophale) SiO2 
 PCOD8232124
Probable space group: P B C M
;
_chemical_formula_sum "Si O2"
_cell_formula_units_Z 48
_cell_length_a 17.868606
_cell_length_b 13.802324
_cell_length_c 8.899583
_cell_angle_alpha 90.000000
_cell_angle_beta 90.000000
_cell_angle_gamma 90.000000
_cell_volume 2194.888932
_symmetry_space_group_name_H-M "P B C M"
_symmetry_group_IT_number 57
_symmetry_cell_setting 'orthorhombic'
loop_
_space_group_symop_operation_xyz
x,y,z
-x,-y,1/2+z
x,1/2-y,-z
-x,1/2+y,1/2-z
-x,-y,-z
x,y,1/2-z
-x,1/2+y,z
x,1/2-y,1/2+z
loop_
_atom_site_type_symbol
_atom_site_label
_atom_site_fract_x
_atom_site_fract_y
_atom_site_fract_z
Si Si1 0.541355 0.854354 0.925877
Si Si2 0.799269 0.658742 0.075634
Si Si3 0.947031 0.876336 0.417337
Si Si4 0.610794 0.036654 0.074442
Si Si5 0.090826 0.899605 0.582103
Si Si6 0.760286 0.054951 0.571645
O O1 0.559692 0.847349 0.750000
O O2 0.457296 0.890490 0.956008
O O3 0.553118 0.750000 0.000000
O O4 0.597732 0.932135 0.998120
O O5 0.790154 0.670671 0.250000
O O6 0.765675 0.557350 0.021314
O O7 0.756000 0.750000 0.000000
O O8 0.886082 0.666683 0.030207
O O9 0.938459 0.832113 0.250000
O O10 0.027938 0.845462 0.483302
O O11 0.935802 0.990603 0.408009
O O12 0.624749 0.020156 0.250000
O O13 0.681957 0.090129 0.998492
O O14 0.096787 0.855619 0.750000
O O15 0.170801 0.886231 0.500015
O O16 0.762053 0.069137 0.750000
#
# Coordination Sequence:
#
# PCOD8232124 Si02
#       6
#     8   8   8   8   8   8
#     4  10  21  38  61  87 114 147 185 226 273 327
#     4  10  20  32  46  67  97 135 177 220 269 323
#     4   9  16  27  44  65  90 122 162 207 253 304
#     4  10  21  37  58  85 116 148 185 228 275 331
#     4   9  16  27  45  68  93 123 162 207 255 307
#     4  10  20  33  50  74 105 139 176 219 268 322
#
# _framework density 21.868988000000002
#
# number of rings (size 3 to 8) (size 9 to 14) (size 15 to 20)
#    0.000    2.333    0.000    3.000    0.000    8.667 
#    0.000    1.667    0.000    1.000    0.000    4.667 
#    0.000    0.000    0.000    0.000    0.000    0.000 
#
# Total GULP energy -595116.757512 kJ/mol
# GULP energy per Si atom -12398.265782 kJ/mol
# Density = 2.181921 g / cm^3
# Si number density = 21.868988 Si / 1000 Ang^3
#
#
#
# Elastic Constant Matrix: (Units=GPa)
#
#
# Indices 1 2 3 4 5 6 
#
# 1 111.6279 -17.6774 30.8272 0.0000 0.0000 0.0000
# 2 -17.6774 32.0854 2.1134 0.0000 0.0000 0.0000
# 3 30.8272 2.1134 88.5136 0.0000 0.0000 0.0000
# 4 0.0000 0.0000 0.0000 26.0845 0.0000 0.0000
# 5 0.0000 0.0000 0.0000 0.0000 36.7197 0.0000
# 6 0.0000 0.0000 0.0000 0.0000 0.0000 -0.4757
#
#
#
# Elastic Compliance Matrix: (Units=1/GPa)
#
#
# Indices 1 2 3 4 5 6 
#
# 1 0.011073 0.006365 -0.004009 0.000000 0.000000 0.000000
# 2 0.006365 0.034874 -0.003049 0.000000 0.000000 0.000000
# 3 -0.004009 -0.003049 0.012767 0.000000 0.000000 0.000000
# 4 0.000000 0.000000 0.000000 0.038337 0.000000 0.000000
# 5 0.000000 0.000000 0.000000 0.000000 0.027233 0.000000
# 6 0.000000 0.000000 0.000000 0.000000 0.000000 -2.101950
#
#
# Mechanical properties :
#
#
# Convention : Reuss Voigt Hill
#
# Bulk Modulus (GPa) = 17.44345 29.19480 23.31913
# Shear Modulus (GPa) = -2.55471 26.92993 12.18761
#
# Velocity S-wave (km/s) = -1.08200 3.51297 2.36328
# Velocity P-wave (km/s) = 2.53628 5.46200 4.25829
#
# Compressibility (1/GPa) = 0.05732810
#
# Stress axis : x y z
#
# Youngs Moduli (GPa) = 90.30755 28.67432 78.32950
#
# Poissons Ratio (x) = -0.18251 0.31399
# Poissons Ratio (y) = -0.57479 0.23886
# Poissons Ratio (z) = 0.36200 0.08744
#
# Static dielectric constant tensor:
#      x y z
#    x 3.930150 0.000000 0.000000 
#    y 0.000000 3.820630 0.000000 
#    z 0.000000 0.000000 4.025800 
# 
# 
# High freq. dielectric constant tensor:
#      x y z
#    x 1.857290 0.000000 0.000000 
#    y 0.000000 1.838790 0.000000 
#    z 0.000000 0.000000 1.871470 
# 
# From -- ./inp_files/6560.got.cif
#   From: 2010.03.12/outbox.cif.g09.slc.cpg/sg57_4_cif.got.tgz:6560.got - 2010.04.16 15:48:40.
