data_PCOD8232423
_publ_section_title
;
Structure prediction by ZEFSAII (Michael W. Deem and Ramdas Pophale) SiO2 
 PCOD8232423
Probable space group: P B C M
;
_chemical_formula_sum "Si O2"
_cell_formula_units_Z 64
_cell_length_a 19.684056
_cell_length_b 20.097667
_cell_length_c 8.775549
_cell_angle_alpha 90.000000
_cell_angle_beta 90.000000
_cell_angle_gamma 90.000000
_cell_volume 3471.638800
_symmetry_space_group_name_H-M "P B C M"
_symmetry_group_IT_number 57
_symmetry_cell_setting 'orthorhombic'
loop_
_space_group_symop_operation_xyz
x,y,z
-x,-y,1/2+z
x,1/2-y,-z
-x,1/2+y,1/2-z
-x,-y,-z
x,y,1/2-z
-x,1/2+y,z
x,1/2-y,1/2+z
loop_
_atom_site_type_symbol
_atom_site_label
_atom_site_fract_x
_atom_site_fract_y
_atom_site_fract_z
Si Si1 0.326857 0.077357 0.076952
Si Si2 0.830452 0.925967 0.573416
Si Si3 0.426447 0.818443 0.070099
Si Si4 0.927324 0.819983 0.430188
Si Si5 0.681448 0.073944 0.928128
Si Si6 0.177210 0.933897 0.928113
Si Si7 0.928674 0.180599 0.429490
Si Si8 0.420679 0.317852 0.427929
O O1 0.346420 0.094609 0.250000
O O2 0.248000 0.092187 0.046769
O O3 0.343224 0.000845 0.039336
O O4 0.371982 0.121337 0.966221
O O5 0.850828 0.919198 0.750000
O O6 0.873532 0.876235 0.471411
O O7 0.845139 0.001105 0.521325
O O8 0.424259 0.812162 0.250000
O O9 0.378340 0.878032 0.014251
O O10 0.503035 0.832776 0.011526
O O11 0.398564 0.750000 0.000000
O O12 0.902718 0.750000 0.500000
O O13 0.932812 0.812670 0.250000
O O14 0.999967 0.840846 0.497530
O O15 0.698666 0.082993 0.750000
O O16 0.748443 0.091114 0.023561
O O17 0.176376 0.950929 0.750000
O O18 0.125348 0.875690 0.970433
O O19 0.902765 0.250000 0.500000
O O20 0.938412 0.189588 0.250000
O O21 0.391916 0.250000 0.500000
O O22 0.421505 0.307098 0.250000
#
# Coordination Sequence:
#
# PCOD8232423 Si02
#       8
#     8   8   8   8   8   8   8   8
#     4   9  19  35  54  76 103 136 172 212 259 310
#     4  10  21  38  58  79 107 142 177 216 265 317
#     4   9  19  35  53  76 105 138 176 215 260 311
#     4  11  22  37  58  82 109 140 177 220 263 312
#     4   9  19  36  55  75 105 141 174 213 262 315
#     4  10  21  36  55  81 109 138 177 221 263 311
#     4  10  21  37  56  79 109 142 177 218 263 313
#     4  10  20  34  53  76 104 137 173 216 261 309
#
# _framework density 18.435096999999999
#
# number of rings (size 3 to 8) (size 9 to 14) (size 15 to 20)
#    0.000    2.250    0.000    4.125    0.000    7.500 
#    0.000    2.500    0.000    0.000    0.000    0.000 
#    0.000    0.000    0.000    0.000    0.000    0.000 
#
# Total GULP energy -793800.391430 kJ/mol
# GULP energy per Si atom -12403.131116 kJ/mol
# Density = 1.839314 g / cm^3
# Si number density = 18.435097 Si / 1000 Ang^3
#
#
#
# Elastic Constant Matrix: (Units=GPa)
#
#
# Indices 1 2 3 4 5 6 
#
# 1 91.6638 80.3527 40.0768 0.0000 0.0000 0.0000
# 2 80.3527 121.8118 45.1209 0.0000 0.0000 0.0000
# 3 40.0768 45.1209 75.8837 0.0000 0.0000 0.0000
# 4 0.0000 0.0000 0.0000 34.0328 0.0000 0.0000
# 5 0.0000 0.0000 0.0000 0.0000 30.3430 0.0000
# 6 0.0000 0.0000 0.0000 0.0000 0.0000 32.7172
#
#
#
# Elastic Compliance Matrix: (Units=1/GPa)
#
#
# Indices 1 2 3 4 5 6 
#
# 1 0.027128 -0.016144 -0.004728 0.000000 0.000000 0.000000
# 2 -0.016144 0.020135 -0.003446 0.000000 0.000000 0.000000
# 3 -0.004728 -0.003446 0.017724 0.000000 0.000000 0.000000
# 4 0.000000 0.000000 0.000000 0.029383 0.000000 0.000000
# 5 0.000000 0.000000 0.000000 0.000000 0.032957 0.000000
# 6 0.000000 0.000000 0.000000 0.000000 0.000000 0.030565
#
#
# Mechanical properties :
#
#
# Convention : Reuss Voigt Hill
#
# Bulk Modulus (GPa) = 61.15774 68.94003 65.04889
# Shear Modulus (GPa) = 23.58717 27.67252 25.62984
#
# Velocity S-wave (km/s) = 3.58085 3.87858 3.73268
# Velocity P-wave (km/s) = 7.09530 7.58519 7.34433
#
# Compressibility (1/GPa) = 0.01635116
#
# Stress axis : x y z
#
# Youngs Moduli (GPa) = 36.86199 49.66466 56.41910
#
# Poissons Ratio (x) = 0.80177 0.26677
# Poissons Ratio (y) = 0.59508 0.19444
# Poissons Ratio (z) = 0.17429 0.17117
#
# Static dielectric constant tensor:
#      x y z
#    x 3.429670 0.000000 0.000000 
#    y 0.000000 3.415810 0.000000 
#    z 0.000000 0.000000 3.413760 
# 
# 
# High freq. dielectric constant tensor:
#      x y z
#    x 1.713300 0.000000 0.000000 
#    y 0.000000 1.719730 0.000000 
#    z 0.000000 0.000000 1.722580 
# 
# From -- ./inp_files/7265.got.cif
#   From: 2010.03.12/outbox.cif.g09.slc.cpg/sg57_4_cif.got.tgz:7265.got - 2010.04.16 15:48:40.
