data_PCOD8232937
_publ_section_title
;
Structure prediction by ZEFSAII (Michael W. Deem and Ramdas Pophale) SiO2 
 PCOD8232937
Probable space group: P B C M
;
_chemical_formula_sum "Si O2"
_cell_formula_units_Z 40
_cell_length_a 6.904587
_cell_length_b 18.520502
_cell_length_c 16.514136
_cell_angle_alpha 90.000000
_cell_angle_beta 90.000000
_cell_angle_gamma 90.000000
_cell_volume 2111.768547
_symmetry_space_group_name_H-M "P B C M"
_symmetry_group_IT_number 57
_symmetry_cell_setting 'orthorhombic'
loop_
_space_group_symop_operation_xyz
x,y,z
-x,-y,1/2+z
x,1/2-y,-z
-x,1/2+y,1/2-z
-x,-y,-z
x,y,1/2-z
-x,1/2+y,z
x,1/2-y,1/2+z
loop_
_atom_site_type_symbol
_atom_site_label
_atom_site_fract_x
_atom_site_fract_y
_atom_site_fract_z
Si Si1 0.201279 0.515088 0.045045
Si Si2 0.491435 0.399398 0.454595
Si Si3 0.261850 0.303040 0.570609
Si Si4 0.416970 0.771731 0.157135
Si Si5 0.118355 0.646518 0.153901
O O1 0.301364 0.441720 0.080221
O O2 0.195145 0.570913 0.119361
O O3 0.341032 0.544317 0.974962
O O4 0.000000 0.500000 0.000000
O O5 0.420142 0.357413 0.534288
O O6 0.596772 0.345880 0.392070
O O7 0.184733 0.250000 0.500000
O O8 0.369192 0.259631 0.641762
O O9 0.087387 0.344341 0.611616
O O10 0.389782 0.791475 0.250000
O O11 0.253949 0.714085 0.129538
O O12 0.098852 0.639480 0.250000
#
# Coordination Sequence:
#
# PCOD8232937 Si02
#       5
#     8   8   8   8   8
#     4  11  22  39  60  87 119 156 200 245 292 362
#     4  10  22  38  61  87 114 158 203 239 297 357
#     4  10  20  35  61  89 114 154 198 242 284 351
#     4  10  22  39  59  87 121 152 194 251 301 347
#     4  11  23  37  59  90 121 156 198 250 303 351
#
# _framework density 18.941469000000001
#
# number of rings (size 3 to 8) (size 9 to 14) (size 15 to 20)
#    0.000    1.600    4.000    0.600    2.800    0.800 
#    0.000    1.000    0.000    0.000    0.000    0.000 
#    0.000    0.000    0.000    0.000    0.000    0.000 
#
# Total GULP energy -495873.807844 kJ/mol
# GULP energy per Si atom -12396.845196 kJ/mol
# Density = 1.889836 g / cm^3
# Si number density = 18.941469 Si / 1000 Ang^3
#
#
#
# Elastic Constant Matrix: (Units=GPa)
#
#
# Indices 1 2 3 4 5 6 
#
# 1 84.0055 34.4097 45.3546 0.0000 0.0000 0.0000
# 2 34.4097 102.0686 44.5039 0.0000 0.0000 0.0000
# 3 45.3546 44.5039 83.4836 0.0000 0.0000 0.0000
# 4 0.0000 0.0000 0.0000 28.3297 0.0000 0.0000
# 5 0.0000 0.0000 0.0000 0.0000 19.5164 0.0000
# 6 0.0000 0.0000 0.0000 0.0000 0.0000 36.4445
#
#
#
# Elastic Compliance Matrix: (Units=1/GPa)
#
#
# Indices 1 2 3 4 5 6 
#
# 1 0.017233 -0.002251 -0.008162 0.000000 0.000000 0.000000
# 2 -0.002251 0.013058 -0.005738 0.000000 0.000000 0.000000
# 3 -0.008162 -0.005738 0.019472 0.000000 0.000000 0.000000
# 4 0.000000 0.000000 0.000000 0.035299 0.000000 0.000000
# 5 0.000000 0.000000 0.000000 0.000000 0.051239 0.000000
# 6 0.000000 0.000000 0.000000 0.000000 0.000000 0.027439
#
#
# Mechanical properties :
#
#
# Convention : Reuss Voigt Hill
#
# Bulk Modulus (GPa) = 57.27379 57.56601 57.41990
# Shear Modulus (GPa) = 24.76941 26.54409 25.65675
#
# Velocity S-wave (km/s) = 3.62011 3.74755 3.68438
# Velocity P-wave (km/s) = 6.91205 7.01306 6.96274
#
# Compressibility (1/GPa) = 0.01745999
#
# Stress axis : x y z
#
# Youngs Moduli (GPa) = 58.02920 76.58080 51.35618
#
# Poissons Ratio (x) = 0.17235 0.41919
# Poissons Ratio (y) = 0.13060 0.29470
# Poissons Ratio (z) = 0.47365 0.43945
#
# Static dielectric constant tensor:
#      x y z
#    x 3.497790 0.000000 0.000000 
#    y 0.000000 3.713010 0.000000 
#    z 0.000000 0.000000 3.290710 
# 
# 
# High freq. dielectric constant tensor:
#      x y z
#    x 1.745150 0.000000 0.000000 
#    y 0.000000 1.747700 0.000000 
#    z 0.000000 0.000000 1.717520 
# 
# From -- ./inp_files/19971.got.cif
#   From: 2010.03.12/outbox.cif.g09.slc.cpg/sg57_10_cif.got.tgz:19971.got - 2010.04.16 15:48:40.
