data_PCOD8232601
_publ_section_title
;
Structure prediction by ZEFSAII (Michael W. Deem and Ramdas Pophale) SiO2 
 PCOD8232601
Probable space group: P B C M
;
_chemical_formula_sum "Si O2"
_cell_formula_units_Z 56
_cell_length_a 14.005799
_cell_length_b 14.015297
_cell_length_c 14.358387
_cell_angle_alpha 90.000000
_cell_angle_beta 90.000000
_cell_angle_gamma 90.000000
_cell_volume 2818.485789
_symmetry_space_group_name_H-M "P B C M"
_symmetry_group_IT_number 57
_symmetry_cell_setting 'orthorhombic'
loop_
_space_group_symop_operation_xyz
x,y,z
-x,-y,1/2+z
x,1/2-y,-z
-x,1/2+y,1/2-z
-x,-y,-z
x,y,1/2-z
-x,1/2+y,z
x,1/2-y,1/2+z
loop_
_atom_site_type_symbol
_atom_site_label
_atom_site_fract_x
_atom_site_fract_y
_atom_site_fract_z
Si Si1 0.783167 0.025328 0.989101
Si Si2 0.812397 0.195674 0.646036
Si Si3 0.572568 0.087885 0.001325
Si Si4 0.396720 0.750559 0.640807
Si Si5 0.981884 0.769597 0.392845
Si Si6 0.930606 0.985101 0.143667
Si Si7 0.118046 0.408850 0.852085
O O1 0.824377 0.112657 0.929020
O O2 0.673271 0.036358 0.012053
O O3 0.797350 0.930519 0.925290
O O4 0.838827 0.016561 0.085506
O O5 0.801632 0.152476 0.750000
O O6 0.718178 0.259048 0.624630
O O7 0.909601 0.257199 0.639123
O O8 0.567067 0.151600 0.906724
O O9 0.555712 0.158117 0.089998
O O10 0.500000 0.000000 0.000000
O O11 0.424776 0.749905 0.750000
O O12 0.970095 0.750000 0.500000
O O13 0.952856 0.874262 0.363625
O O14 0.905061 0.702592 0.341875
O O15 0.909071 0.013282 0.250000
O O16 0.023455 0.040351 0.106247
O O17 0.145733 0.448986 0.750000
#
# Coordination Sequence:
#
# PCOD8232601 Si02
#       7
#     8   8   8   8   8   8   8
#     4  11  21  38  58  82 116 158 200 245 298 356
#     4  10  20  34  57  88 120 153 192 251 305 347
#     4  10  23  42  66  94 124 157 201 259 315 366
#     4   9  21  40  65  96 124 152 197 254 315 372
#     4  12  22  34  54  80 123 164 202 244 291 345
#     4  11  23  38  53  82 122 157 199 244 289 352
#     4  11  22  35  55  83 117 159 200 236 291 359
#
# _framework density 19.868824
#
# number of rings (size 3 to 8) (size 9 to 14) (size 15 to 20)
#    0.000    1.429    2.857    3.000    6.000    1.714 
#    0.000    2.857    0.000    0.000    0.000    0.000 
#    0.000    0.000    0.000    0.000    0.000    0.000 
#
# Total GULP energy -694306.044234 kJ/mol
# GULP energy per Si atom -12398.322218 kJ/mol
# Density = 1.982360 g / cm^3
# Si number density = 19.868824 Si / 1000 Ang^3
#
#
#
# Elastic Constant Matrix: (Units=GPa)
#
#
# Indices 1 2 3 4 5 6 
#
# 1 70.7711 38.8421 37.9127 0.0000 0.0000 0.0000
# 2 38.8421 96.9047 30.9209 0.0000 0.0000 0.0000
# 3 37.9127 30.9209 124.3000 0.0000 0.0000 0.0000
# 4 0.0000 0.0000 0.0000 22.8877 0.0000 0.0000
# 5 0.0000 0.0000 0.0000 0.0000 41.1617 0.0000
# 6 0.0000 0.0000 0.0000 0.0000 0.0000 35.6874
#
#
#
# Elastic Compliance Matrix: (Units=1/GPa)
#
#
# Indices 1 2 3 4 5 6 
#
# 1 0.020197 -0.006658 -0.004504 0.000000 0.000000 0.000000
# 2 -0.006658 0.013404 -0.001304 0.000000 0.000000 0.000000
# 3 -0.004504 -0.001304 0.009743 0.000000 0.000000 0.000000
# 4 0.000000 0.000000 0.000000 0.043692 0.000000 0.000000
# 5 0.000000 0.000000 0.000000 0.000000 0.024294 0.000000
# 6 0.000000 0.000000 0.000000 0.000000 0.000000 0.028021
#
#
# Mechanical properties :
#
#
# Convention : Reuss Voigt Hill
#
# Bulk Modulus (GPa) = 54.31064 56.36970 55.34017
# Shear Modulus (GPa) = 29.33904 32.23405 30.78655
#
# Velocity S-wave (km/s) = 3.84687 4.03220 3.94063
# Velocity P-wave (km/s) = 6.86478 7.07889 6.97266
#
# Compressibility (1/GPa) = 0.01841260
#
# Stress axis : x y z
#
# Youngs Moduli (GPa) = 49.51145 74.60316 102.63682
#
# Poissons Ratio (x) = 0.49674 0.46228
# Poissons Ratio (y) = 0.32967 0.13379
# Poissons Ratio (z) = 0.22300 0.09725
#
# Static dielectric constant tensor:
#      x y z
#    x 3.344350 0.000000 0.000000 
#    y 0.000000 4.776840 0.000000 
#    z 0.000000 0.000000 3.707750 
# 
# 
# High freq. dielectric constant tensor:
#      x y z
#    x 1.731180 0.000000 0.000000 
#    y 0.000000 1.774150 0.000000 
#    z 0.000000 0.000000 1.796540 
# 
# From -- ./inp_files/17752.got.cif
#   From: 2010.03.12/outbox.cif.g09.slc.cpg/sg57_9_cif.got.tgz:17752.got - 2010.04.16 15:48:40.
