data_PCOD8232356
_publ_section_title
;
Structure prediction by ZEFSAII (Michael W. Deem and Ramdas Pophale) SiO2 
 PCOD8232356
Probable space group: P B C M
;
_chemical_formula_sum "Si O2"
_cell_formula_units_Z 48
_cell_length_a 16.133270
_cell_length_b 19.204734
_cell_length_c 8.933681
_cell_angle_alpha 90.000000
_cell_angle_beta 90.000000
_cell_angle_gamma 90.000000
_cell_volume 2767.968472
_symmetry_space_group_name_H-M "P B C M"
_symmetry_group_IT_number 57
_symmetry_cell_setting 'orthorhombic'
loop_
_space_group_symop_operation_xyz
x,y,z
-x,-y,1/2+z
x,1/2-y,-z
-x,1/2+y,1/2-z
-x,-y,-z
x,y,1/2-z
-x,1/2+y,z
x,1/2-y,1/2+z
loop_
_atom_site_type_symbol
_atom_site_label
_atom_site_fract_x
_atom_site_fract_y
_atom_site_fract_z
Si Si1 0.609213 0.557823 0.081973
Si Si2 0.454278 0.900369 0.416767
Si Si3 0.303948 0.859666 0.913880
Si Si4 0.078612 0.963372 0.429105
Si Si5 0.238632 0.014052 0.583364
Si Si6 0.125440 0.820219 0.929150
O O1 0.625696 0.583324 0.250000
O O2 0.578862 0.478662 0.079993
O O3 0.538220 0.606761 0.012013
O O4 0.694880 0.566718 0.990247
O O5 0.475212 0.876233 0.250000
O O6 0.383008 0.848682 0.479167
O O7 0.328049 0.831277 0.750000
O O8 0.222684 0.820374 0.974935
O O9 0.282644 0.940436 0.901755
O O10 0.073509 0.960805 0.250000
O O11 0.080456 0.885550 0.495352
O O12 0.158395 0.008261 0.478051
O O13 0.000000 0.000000 0.500000
O O14 0.213618 0.040546 0.750000
O O15 0.113515 0.823683 0.750000
O O16 0.086581 0.750000 0.000000
#
# Coordination Sequence:
#
# PCOD8232356 Si02
#       6
#     8   8   8   8   8   8
#     4   9  15  22  33  51  77 110 145 180 220 264
#     4   9  15  21  32  51  76 108 145 181 216 256
#     4   8  15  26  39  56  82 114 147 183 223 269
#     4  11  21  34  51  71  96 127 162 202 251 305
#     4   9  16  27  41  59  84 114 149 188 231 281
#     4  10  20  34  51  72  97 127 162 200 243 293
#
# _framework density 17.341235999999999
#
# number of rings (size 3 to 8) (size 9 to 14) (size 15 to 20)
#    0.000    2.667    0.000    4.500    0.000    8.667 
#    0.000    0.000    0.000    0.000    0.000    0.000 
#    0.000    1.333    0.000   11.333    0.000   19.167 
#
# Total GULP energy -594934.408628 kJ/mol
# GULP energy per Si atom -12394.466846 kJ/mol
# Density = 1.730177 g / cm^3
# Si number density = 17.341236 Si / 1000 Ang^3
#
#
#
# Elastic Constant Matrix: (Units=GPa)
#
#
# Indices 1 2 3 4 5 6 
#
# 1 102.2162 39.4927 62.5204 0.0000 0.0000 0.0000
# 2 39.4927 43.7909 38.5812 0.0000 0.0000 0.0000
# 3 62.5204 38.5812 153.9877 0.0000 0.0000 0.0000
# 4 0.0000 0.0000 0.0000 15.7739 0.0000 0.0000
# 5 0.0000 0.0000 0.0000 0.0000 32.8082 0.0000
# 6 0.0000 0.0000 0.0000 0.0000 0.0000 11.1594
#
#
#
# Elastic Compliance Matrix: (Units=1/GPa)
#
#
# Indices 1 2 3 4 5 6 
#
# 1 0.016613 -0.011601 -0.003839 0.000000 0.000000 0.000000
# 2 -0.011601 0.037405 -0.004662 0.000000 0.000000 0.000000
# 3 -0.003839 -0.004662 0.009221 0.000000 0.000000 0.000000
# 4 0.000000 0.000000 0.000000 0.063396 0.000000 0.000000
# 5 0.000000 0.000000 0.000000 0.000000 0.030480 0.000000
# 6 0.000000 0.000000 0.000000 0.000000 0.000000 0.089610
#
#
# Mechanical properties :
#
#
# Convention : Reuss Voigt Hill
#
# Bulk Modulus (GPa) = 43.40900 64.57595 53.99247
# Shear Modulus (GPa) = 16.97185 22.57499 19.77342
#
# Velocity S-wave (km/s) = 3.13181 3.61197 3.38043
# Velocity P-wave (km/s) = 6.17772 7.39692 6.81464
#
# Compressibility (1/GPa) = 0.02303670
#
# Stress axis : x y z
#
# Youngs Moduli (GPa) = 60.19355 26.73448 108.45374
#
# Poissons Ratio (x) = 0.31013 0.41631
# Poissons Ratio (y) = 0.69828 0.50559
# Poissons Ratio (z) = 0.23106 0.12463
#
# Static dielectric constant tensor:
#      x y z
#    x 3.261140 0.000000 0.000000 
#    y 0.000000 2.781910 0.000000 
#    z 0.000000 0.000000 3.529250 
# 
# 
# High freq. dielectric constant tensor:
#      x y z
#    x 1.660370 0.000000 0.000000 
#    y 0.000000 1.601710 0.000000 
#    z 0.000000 0.000000 1.690260 
# 
# From -- ./inp_files/4638.got.cif
#   From: 2010.03.12/outbox.cif.g09.slc.cpg/sg57_3_cif.got.tgz:4638.got - 2010.04.16 15:48:40.
