data_PCOD8232391
_publ_section_title
;
Structure prediction by ZEFSAII (Michael W. Deem and Ramdas Pophale) SiO2 
 PCOD8232391
Probable space group: P B C M
;
_chemical_formula_sum "Si O2"
_cell_formula_units_Z 64
_cell_length_a 9.118630
_cell_length_b 20.786763
_cell_length_c 16.651150
_cell_angle_alpha 90.000000
_cell_angle_beta 90.000000
_cell_angle_gamma 90.000000
_cell_volume 3156.172210
_symmetry_space_group_name_H-M "P B C M"
_symmetry_group_IT_number 57
_symmetry_cell_setting 'orthorhombic'
loop_
_space_group_symop_operation_xyz
x,y,z
-x,-y,1/2+z
x,1/2-y,-z
-x,1/2+y,1/2-z
-x,-y,-z
x,y,1/2-z
-x,1/2+y,z
x,1/2-y,1/2+z
loop_
_atom_site_type_symbol
_atom_site_label
_atom_site_fract_x
_atom_site_fract_y
_atom_site_fract_z
Si Si1 0.406317 0.630972 0.406062
Si Si2 0.109812 0.261799 0.843226
Si Si3 0.554293 0.507285 0.909330
Si Si4 0.603113 0.128610 0.594267
Si Si5 0.077350 0.863007 0.343077
Si Si6 0.133596 0.021263 0.656177
Si Si7 0.572986 0.751482 0.406297
Si Si8 0.092384 0.876365 0.657058
O O1 0.456954 0.562799 0.366427
O O2 0.432219 0.626254 0.500576
O O3 0.504271 0.687106 0.366884
O O4 0.236218 0.645207 0.390618
O O5 0.151832 0.263123 0.750000
O O6 0.254623 0.246858 0.892956
O O7 0.998824 0.204357 0.862798
O O8 0.040938 0.330207 0.871260
O O9 0.453823 0.561409 0.866409
O O10 0.724556 0.528785 0.900933
O O11 0.500000 0.500000 0.000000
O O12 0.774551 0.136371 0.606817
O O13 0.509444 0.187136 0.632981
O O14 0.116709 0.869366 0.250000
O O15 0.977882 0.923019 0.370732
O O16 0.178266 0.028966 0.750000
O O17 0.056093 0.951684 0.641645
O O18 0.537706 0.750000 0.500000
O O19 0.124124 0.862874 0.750000
#
# Coordination Sequence:
#
# PCOD8232391 Si02
#       8
#     8   8   8   8   8   8   8   8
#     4   9  19  35  52  74 101 131 166 205 250 298
#     4  10  21  35  51  74 102 131 166 208 252 298
#     4   9  18  34  53  75 104 134 167 207 251 300
#     4  10  20  34  52  75 103 133 168 209 249 297
#     4  10  21  35  52  76 104 134 170 209 250 300
#     4   9  18  34  54  75 103 137 169 206 253 300
#     4  10  21  35  52  74 102 133 168 210 251 297
#     4   9  18  34  54  75 101 131 165 206 250 298
#
# _framework density 20.277728
#
# number of rings (size 3 to 8) (size 9 to 14) (size 15 to 20)
#    0.000    2.500    0.000    1.500    0.000    3.500 
#    0.000    5.625    0.000    0.000    0.000    0.000 
#    0.000    0.000    0.000    0.000    0.000    0.000 
#
# Total GULP energy -793349.777101 kJ/mol
# GULP energy per Si atom -12396.090267 kJ/mol
# Density = 2.023157 g / cm^3
# Si number density = 20.277728 Si / 1000 Ang^3
#
#
#
# Elastic Constant Matrix: (Units=GPa)
#
#
# Indices 1 2 3 4 5 6 
#
# 1 114.0429 67.4635 19.1929 0.0000 0.0000 0.0000
# 2 67.4635 148.5557 23.9617 0.0000 0.0000 0.0000
# 3 19.1929 23.9617 15.7842 0.0000 0.0000 0.0000
# 4 0.0000 0.0000 0.0000 10.2108 0.0000 0.0000
# 5 0.0000 0.0000 0.0000 0.0000 16.0763 0.0000
# 6 0.0000 0.0000 0.0000 0.0000 0.0000 44.4368
#
#
#
# Elastic Compliance Matrix: (Units=1/GPa)
#
#
# Indices 1 2 3 4 5 6 
#
# 1 0.012885 -0.004402 -0.008984 0.000000 0.000000 0.000000
# 2 -0.004402 0.010418 -0.010463 0.000000 0.000000 0.000000
# 3 -0.008984 -0.010463 0.090163 0.000000 0.000000 0.000000
# 4 0.000000 0.000000 0.000000 0.097935 0.000000 0.000000
# 5 0.000000 0.000000 0.000000 0.000000 0.062203 0.000000
# 6 0.000000 0.000000 0.000000 0.000000 0.000000 0.022504
#
#
# Mechanical properties :
#
#
# Convention : Reuss Voigt Hill
#
# Bulk Modulus (GPa) = 15.20530 55.51325 35.35927
# Shear Modulus (GPa) = 13.67130 25.32911 19.50021
#
# Velocity S-wave (km/s) = 2.59936 3.53811 3.10442
# Velocity P-wave (km/s) = 4.06493 6.64280 5.50684
#
# Compressibility (1/GPa) = 0.06576653
#
# Stress axis : x y z
#
# Youngs Moduli (GPa) = 77.61052 95.98488 11.09108
#
# Poissons Ratio (x) = 0.42255 0.09965
# Poissons Ratio (y) = 0.34166 0.11605
# Poissons Ratio (z) = 0.69729 1.00428
#
# Static dielectric constant tensor:
#      x y z
#    x 3.467750 0.000000 0.000000 
#    y 0.000000 4.467710 0.000000 
#    z 0.000000 0.000000 3.309100 
# 
# 
# High freq. dielectric constant tensor:
#      x y z
#    x 1.785010 0.000000 0.000000 
#    y 0.000000 1.820400 0.000000 
#    z 0.000000 0.000000 1.756990 
# 
# From -- ./inp_files/24576.got.cif
#   From: 2010.03.12/outbox.cif.g09.slc.cpg/sg57_13_cif.got.tgz:24576.got - 2010.04.16 15:48:40.
