data_PCOD8232603
_publ_section_title
;
Structure prediction by ZEFSAII (Michael W. Deem and Ramdas Pophale) SiO2 
 PCOD8232603
Probable space group: P B C M
;
_chemical_formula_sum "Si O2"
_cell_formula_units_Z 56
_cell_length_a 13.058067
_cell_length_b 10.273747
_cell_length_c 18.998239
_cell_angle_alpha 90.000000
_cell_angle_beta 90.000000
_cell_angle_gamma 90.000000
_cell_volume 2548.714009
_symmetry_space_group_name_H-M "P B C M"
_symmetry_group_IT_number 57
_symmetry_cell_setting 'orthorhombic'
loop_
_space_group_symop_operation_xyz
x,y,z
-x,-y,1/2+z
x,1/2-y,-z
-x,1/2+y,1/2-z
-x,-y,-z
x,y,1/2-z
-x,1/2+y,z
x,1/2-y,1/2+z
loop_
_atom_site_type_symbol
_atom_site_label
_atom_site_fract_x
_atom_site_fract_y
_atom_site_fract_z
Si Si1 0.241185 0.008517 0.669940
Si Si2 0.243713 0.130694 0.455394
Si Si3 0.545957 0.622752 0.831268
Si Si4 0.397299 0.403170 0.832985
Si Si5 0.981320 0.879170 0.913340
Si Si6 0.804061 0.118678 0.035289
Si Si7 0.024588 0.126585 0.669681
O O1 0.250799 0.957018 0.750000
O O2 0.340888 0.084739 0.642515
O O3 0.147415 0.109649 0.661633
O O4 0.222289 0.884808 0.618932
O O5 0.293369 0.250000 0.500000
O O6 0.295124 0.114241 0.378877
O O7 0.123576 0.160285 0.449839
O O8 0.256888 0.997781 0.498431
O O9 0.540922 0.588843 0.750000
O O10 0.457687 0.529553 0.863473
O O11 0.529118 0.776450 0.845450
O O12 0.366409 0.411786 0.750000
O O13 0.012931 0.763947 0.860219
O O14 0.071751 0.894408 0.971946
O O15 0.965242 0.012175 0.870612
O O16 0.763638 0.250000 0.000000
O O17 0.989873 0.119987 0.750000
#
# Coordination Sequence:
#
# PCOD8232603 Si02
#       7
#     8   8   8   8   8   8   8
#     4   9  19  38  63  87 117 161 204 243 296 362
#     4  12  24  41  62  87 119 162 206 246 294 359
#     4   9  18  37  63  89 120 157 199 245 300 364
#     4  10  22  40  64  93 121 155 200 249 300 358
#     4  11  21  37  58  83 119 166 204 240 293 361
#     4  11  23  39  58  89 124 159 201 251 301 351
#     4  10  20  34  57  90 122 154 200 254 298 341
#
# _framework density 21.971864
#
# number of rings (size 3 to 8) (size 9 to 14) (size 15 to 20)
#    0.000    1.714    0.000    5.571    0.000    4.000 
#    0.000    5.714    0.000    0.000    0.000    0.000 
#    0.000    0.000    0.000    0.000    0.000    0.000 
#
# Total GULP energy -694303.787662 kJ/mol
# GULP energy per Si atom -12398.281923 kJ/mol
# Density = 2.192186 g / cm^3
# Si number density = 21.971864 Si / 1000 Ang^3
#
#
#
# Elastic Constant Matrix: (Units=GPa)
#
#
# Indices 1 2 3 4 5 6 
#
# 1 60.5158 20.5529 25.6554 0.0000 0.0000 0.0000
# 2 20.5529 132.6377 46.6884 0.0000 0.0000 0.0000
# 3 25.6554 46.6884 96.0117 0.0000 0.0000 0.0000
# 4 0.0000 0.0000 0.0000 31.5707 0.0000 0.0000
# 5 0.0000 0.0000 0.0000 0.0000 25.9664 0.0000
# 6 0.0000 0.0000 0.0000 0.0000 0.0000 23.1686
#
#
#
# Elastic Compliance Matrix: (Units=1/GPa)
#
#
# Indices 1 2 3 4 5 6 
#
# 1 0.018844 -0.001385 -0.004362 0.000000 0.000000 0.000000
# 2 -0.001385 0.009198 -0.004103 0.000000 0.000000 0.000000
# 3 -0.004362 -0.004103 0.013576 0.000000 0.000000 0.000000
# 4 0.000000 0.000000 0.000000 0.031675 0.000000 0.000000
# 5 0.000000 0.000000 0.000000 0.000000 0.038511 0.000000
# 6 0.000000 0.000000 0.000000 0.000000 0.000000 0.043162
#
#
# Mechanical properties :
#
#
# Convention : Reuss Voigt Hill
#
# Bulk Modulus (GPa) = 45.62175 52.77316 49.19745
# Shear Modulus (GPa) = 27.47679 29.22572 28.35125
#
# Velocity S-wave (km/s) = 3.54014 3.65107 3.59603
# Velocity P-wave (km/s) = 6.12527 6.46872 6.29934
#
# Compressibility (1/GPa) = 0.02191937
#
# Stress axis : x y z
#
# Youngs Moduli (GPa) = 53.06691 108.71828 73.65871
#
# Poissons Ratio (x) = 0.15052 0.32131
# Poissons Ratio (y) = 0.07347 0.30221
# Poissons Ratio (z) = 0.23148 0.44606
#
# Static dielectric constant tensor:
#      x y z
#    x 3.775900 0.000000 0.000000 
#    y 0.000000 3.982290 0.000000 
#    z 0.000000 0.000000 3.946420 
# 
# 
# High freq. dielectric constant tensor:
#      x y z
#    x 1.835330 0.000000 0.000000 
#    y 0.000000 1.868740 0.000000 
#    z 0.000000 0.000000 1.862030 
# 
# From -- ./inp_files/25013.got.cif
#   From: 2010.03.12/outbox.cif.g09.slc.cpg/sg57_13_cif.got.tgz:25013.got - 2010.04.16 15:48:40.
