data_PCOD8232892
_publ_section_title
;
Structure prediction by ZEFSAII (Michael W. Deem and Ramdas Pophale) SiO2 
 PCOD8232892
Probable space group: P B C M
;
_chemical_formula_sum "Si O2"
_cell_formula_units_Z 56
_cell_length_a 21.092872
_cell_length_b 14.935845
_cell_length_c 9.144539
_cell_angle_alpha 90.000000
_cell_angle_beta 90.000000
_cell_angle_gamma 90.000000
_cell_volume 2880.894348
_symmetry_space_group_name_H-M "P B C M"
_symmetry_group_IT_number 57
_symmetry_cell_setting 'orthorhombic'
loop_
_space_group_symop_operation_xyz
x,y,z
-x,-y,1/2+z
x,1/2-y,-z
-x,1/2+y,1/2-z
-x,-y,-z
x,y,1/2-z
-x,1/2+y,z
x,1/2-y,1/2+z
loop_
_atom_site_type_symbol
_atom_site_label
_atom_site_fract_x
_atom_site_fract_y
_atom_site_fract_z
Si Si1 0.505105 0.848094 0.576449
Si Si2 0.039253 0.832350 0.916462
Si Si3 0.149031 0.901292 0.409353
Si Si4 0.731621 0.502828 0.419662
Si Si5 0.202760 0.161496 0.577285
Si Si6 0.413724 0.980858 0.080787
Si Si7 0.088683 0.093244 0.089601
O O1 0.514783 0.750000 0.500000
O O2 0.497851 0.831570 0.750000
O O3 0.443918 0.901220 0.515484
O O4 0.562816 0.917719 0.541912
O O5 0.048141 0.808446 0.750000
O O6 0.986929 0.909635 0.945262
O O7 0.007623 0.750000 0.000000
O O8 0.111043 0.844924 0.972530
O O9 0.146152 0.854488 0.250000
O O10 0.222266 0.918234 0.454553
O O11 0.111887 0.993455 0.402933
O O12 0.740723 0.531837 0.250000
O O13 0.750880 0.583241 0.524654
O O14 0.660390 0.474449 0.453575
O O15 0.229266 0.250000 0.500000
O O16 0.207086 0.170380 0.750000
O O17 0.129640 0.145970 0.530813
O O18 0.429268 0.960792 0.250000
O O19 0.099005 0.138942 0.250000
#
# Coordination Sequence:
#
# PCOD8232892 Si02
#       7
#     8   8   8   8   8   8   8
#     4  10  20  35  58  88 120 151 185 225 268 319
#     4  11  22  34  50  72  98 128 167 214 263 313
#     4   9  18  34  54  74  99 129 163 206 257 312
#     4   9  19  37  57  77 105 140 176 216 264 314
#     4  11  21  32  49  74 105 139 176 219 266 320
#     4   9  19  37  60  85 115 150 186 227 274 322
#     4   9  19  35  53  73  97 128 166 212 266 320
#
# _framework density 19.438409
#
# number of rings (size 3 to 8) (size 9 to 14) (size 15 to 20)
#    0.000    2.286    0.000    3.857    0.000    6.286 
#    0.000    2.143    0.000    0.000    0.000    0.000 
#    0.000    0.000    0.000    0.000    0.000    0.000 
#
# Total GULP energy -693828.764317 kJ/mol
# GULP energy per Si atom -12389.799363 kJ/mol
# Density = 1.939417 g / cm^3
# Si number density = 19.438409 Si / 1000 Ang^3
#
#
#
# Elastic Constant Matrix: (Units=GPa)
#
#
# Indices 1 2 3 4 5 6 
#
# 1 133.6832 29.0915 42.4978 0.0000 0.0000 0.0000
# 2 29.0915 67.2184 33.3031 0.0000 0.0000 0.0000
# 3 42.4978 33.3031 112.5464 0.0000 0.0000 0.0000
# 4 0.0000 0.0000 0.0000 33.2385 0.0000 0.0000
# 5 0.0000 0.0000 0.0000 0.0000 3.6503 0.0000
# 6 0.0000 0.0000 0.0000 0.0000 0.0000 14.3465
#
#
#
# Elastic Compliance Matrix: (Units=1/GPa)
#
#
# Indices 1 2 3 4 5 6 
#
# 1 0.008859 -0.002551 -0.002590 0.000000 0.000000 0.000000
# 2 -0.002551 0.018167 -0.004413 0.000000 0.000000 0.000000
# 3 -0.002590 -0.004413 0.011169 0.000000 0.000000 0.000000
# 4 0.000000 0.000000 0.000000 0.030086 0.000000 0.000000
# 5 0.000000 0.000000 0.000000 0.000000 0.273948 0.000000
# 6 0.000000 0.000000 0.000000 0.000000 0.000000 0.069704
#
#
# Mechanical properties :
#
#
# Convention : Reuss Voigt Hill
#
# Bulk Modulus (GPa) = 52.38971 58.13695 55.26333
# Shear Modulus (GPa) = 11.43112 24.15076 17.79094
#
# Velocity S-wave (km/s) = 2.42764 3.52863 3.02859
# Velocity P-wave (km/s) = 5.90492 6.82458 6.38134
#
# Compressibility (1/GPa) = 0.01908772
#
# Stress axis : x y z
#
# Youngs Moduli (GPa) = 112.88061 55.04492 89.53292
#
# Poissons Ratio (x) = 0.14040 0.23193
# Poissons Ratio (y) = 0.28792 0.39507
# Poissons Ratio (z) = 0.29241 0.24289
#
# Static dielectric constant tensor:
#      x y z
#    x 3.681200 0.000000 0.000000 
#    y 0.000000 4.467960 0.000000 
#    z 0.000000 0.000000 3.675690 
# 
# 
# High freq. dielectric constant tensor:
#      x y z
#    x 1.752310 0.000000 0.000000 
#    y 0.000000 1.742410 0.000000 
#    z 0.000000 0.000000 1.760200 
# 
# From -- ./inp_files/8161.got.cif
#   From: 2010.03.12/outbox.cif.g09.slc.cpg/sg57_5_cif.got.tgz:8161.got - 2010.04.16 15:48:40.
