data_PCOD8232698
_publ_section_title
;
Structure prediction by ZEFSAII (Michael W. Deem and Ramdas Pophale) SiO2 
 PCOD8232698
Probable space group: P B C M
;
_chemical_formula_sum "Si O2"
_cell_formula_units_Z 56
_cell_length_a 19.033143
_cell_length_b 9.076512
_cell_length_c 16.063790
_cell_angle_alpha 90.000000
_cell_angle_beta 90.000000
_cell_angle_gamma 90.000000
_cell_volume 2775.092826
_symmetry_space_group_name_H-M "P B C M"
_symmetry_group_IT_number 57
_symmetry_cell_setting 'orthorhombic'
loop_
_space_group_symop_operation_xyz
x,y,z
-x,-y,1/2+z
x,1/2-y,-z
-x,1/2+y,1/2-z
-x,-y,-z
x,y,1/2-z
-x,1/2+y,z
x,1/2-y,1/2+z
loop_
_atom_site_type_symbol
_atom_site_label
_atom_site_fract_x
_atom_site_fract_y
_atom_site_fract_z
Si Si1 0.424634 0.356651 0.346113
Si Si2 0.726707 0.711854 0.905214
Si Si3 0.109409 0.786754 0.094700
Si Si4 0.839115 0.574030 0.157280
Si Si5 0.048109 0.207851 0.903573
Si Si6 0.472575 0.629411 0.058876
Si Si7 0.158367 0.497639 0.346041
O O1 0.448180 0.348067 0.250000
O O2 0.343684 0.314430 0.354149
O O3 0.468480 0.233046 0.397345
O O4 0.430248 0.530602 0.374095
O O5 0.766086 0.849574 0.864762
O O6 0.776705 0.568896 0.898098
O O7 0.708407 0.750000 0.000000
O O8 0.157590 0.673469 0.146354
O O9 0.030681 0.798102 0.132546
O O10 0.150097 0.939659 0.095504
O O11 0.100940 0.750000 0.000000
O O12 0.835545 0.511465 0.250000
O O13 0.905150 0.682183 0.150548
O O14 0.084179 0.049183 0.888592
O O15 0.051872 0.250000 0.000000
O O16 0.430101 0.750000 0.000000
O O17 0.500000 0.500000 0.000000
O O18 0.164712 0.446979 0.250000
#
# Coordination Sequence:
#
# PCOD8232698 Si02
#       7
#     8   8   8   8   8   8   8
#     4  11  21  38  64  95 126 159 198 244 291 336
#     4  11  22  40  62  81 110 154 192 226 279 347
#     4  11  22  36  53  76 107 143 185 235 289 345
#     4  11  22  36  55  81 109 141 187 238 286 342
#     4  10  20  35  55  76 103 143 186 229 285 350
#     4   9  19  37  61  92 127 161 198 235 281 341
#     4  11  22  36  54  79 109 141 183 236 288 338
#
# _framework density 20.179506
#
# number of rings (size 3 to 8) (size 9 to 14) (size 15 to 20)
#    0.000    1.429    0.000    9.000    0.000    5.714 
#    0.000    5.000    0.000    0.000    0.000    0.000 
#    0.000    0.000    0.000    0.000    0.000    0.000 
#
# Total GULP energy -693989.329085 kJ/mol
# GULP energy per Si atom -12392.666591 kJ/mol
# Density = 2.013358 g / cm^3
# Si number density = 20.179506 Si / 1000 Ang^3
#
#
#
# Elastic Constant Matrix: (Units=GPa)
#
#
# Indices 1 2 3 4 5 6 
#
# 1 96.7622 52.9673 18.9034 0.0000 0.0000 0.0000
# 2 52.9673 130.5283 26.3360 0.0000 0.0000 0.0000
# 3 18.9034 26.3360 91.6527 0.0000 0.0000 0.0000
# 4 0.0000 0.0000 0.0000 38.0682 0.0000 0.0000
# 5 0.0000 0.0000 0.0000 0.0000 22.6291 0.0000
# 6 0.0000 0.0000 0.0000 0.0000 0.0000 8.9479
#
#
#
# Elastic Compliance Matrix: (Units=1/GPa)
#
#
# Indices 1 2 3 4 5 6 
#
# 1 0.013425 -0.005190 -0.001278 0.000000 0.000000 0.000000
# 2 -0.005190 0.010139 -0.001843 0.000000 0.000000 0.000000
# 3 -0.001278 -0.001843 0.011704 0.000000 0.000000 0.000000
# 4 0.000000 0.000000 0.000000 0.026269 0.000000 0.000000
# 5 0.000000 0.000000 0.000000 0.000000 0.044191 0.000000
# 6 0.000000 0.000000 0.000000 0.000000 0.000000 0.111758
#
#
# Mechanical properties :
#
#
# Convention : Reuss Voigt Hill
#
# Bulk Modulus (GPa) = 53.62837 57.26186 55.44511
# Shear Modulus (GPa) = 20.80541 28.64482 24.72511
#
# Velocity S-wave (km/s) = 3.21443 3.77171 3.50417
# Velocity P-wave (km/s) = 6.35689 6.88517 6.62630
#
# Compressibility (1/GPa) = 0.01864685
#
# Stress axis : x y z
#
# Youngs Moduli (GPa) = 74.48662 98.62804 85.44212
#
# Poissons Ratio (x) = 0.51189 0.10916
# Poissons Ratio (y) = 0.38659 0.15747
# Poissons Ratio (z) = 0.09517 0.18177
#
# Static dielectric constant tensor:
#      x y z
#    x 3.453760 0.000000 0.000000 
#    y 0.000000 4.148830 0.000000 
#    z 0.000000 0.000000 3.775510 
# 
# 
# High freq. dielectric constant tensor:
#      x y z
#    x 1.756940 0.000000 0.000000 
#    y 0.000000 1.799730 0.000000 
#    z 0.000000 0.000000 1.802540 
# 
# From -- ./inp_files/19349.got.cif
#   From: 2010.03.12/outbox.cif.g09.slc.cpg/sg57_10_cif.got.tgz:19349.got - 2010.04.16 15:48:40.
