data_PCOD8232549
_publ_section_title
;
Structure prediction by ZEFSAII (Michael W. Deem and Ramdas Pophale) SiO2 
 PCOD8232549
Probable space group: P B C M
;
_chemical_formula_sum "Si O2"
_cell_formula_units_Z 64
_cell_length_a 14.128699
_cell_length_b 25.351064
_cell_length_c 9.055797
_cell_angle_alpha 90.000000
_cell_angle_beta 90.000000
_cell_angle_gamma 90.000000
_cell_volume 3243.583206
_symmetry_space_group_name_H-M "P B C M"
_symmetry_group_IT_number 57
_symmetry_cell_setting 'orthorhombic'
loop_
_space_group_symop_operation_xyz
x,y,z
-x,-y,1/2+z
x,1/2-y,-z
-x,1/2+y,1/2-z
-x,-y,-z
x,y,1/2-z
-x,1/2+y,z
x,1/2-y,1/2+z
loop_
_atom_site_type_symbol
_atom_site_label
_atom_site_fract_x
_atom_site_fract_y
_atom_site_fract_z
Si Si1 0.424152 0.303392 0.923067
Si Si2 0.880518 0.104871 0.079796
Si Si3 0.208054 0.196957 0.077643
Si Si4 0.771153 0.194645 0.575704
Si Si5 0.217538 0.495704 0.423580
Si Si6 0.899698 0.592929 0.078345
Si Si7 0.595263 0.483440 0.079373
Si Si8 0.580194 0.138333 0.918682
O O1 0.437272 0.296800 0.750000
O O2 0.316219 0.315855 0.967294
O O3 0.459752 0.250000 0.000000
O O4 0.489096 0.351048 0.979916
O O5 0.864003 0.120237 0.250000
O O6 0.821548 0.053260 0.036231
O O7 0.989507 0.093313 0.047523
O O8 0.848887 0.153153 0.978588
O O9 0.198686 0.207092 0.250000
O O10 0.143776 0.148507 0.025427
O O11 0.171462 0.250000 0.000000
O O12 0.792287 0.250000 0.500000
O O13 0.780823 0.200691 0.750000
O O14 0.666781 0.175048 0.529878
O O15 0.231992 0.488463 0.250000
O O16 0.143222 0.453167 0.480392
O O17 0.317489 0.486261 0.504057
O O18 0.876060 0.582593 0.250000
O O19 0.589898 0.500238 0.250000
O O20 0.612277 0.421476 0.059569
O O21 0.500000 0.500000 0.000000
O O22 0.551987 0.149741 0.750000
#
# Coordination Sequence:
#
# PCOD8232549 Si02
#       8
#     8   8   8   8   8   8   8   8
#     4  10  20  34  55  82 112 150 192 236 286 348
#     4  10  22  41  63  89 122 159 204 257 310 364
#     4   9  20  38  58  84 117 154 194 239 298 354
#     4  11  23  40  62  89 122 162 206 254 314 372
#     4  11  23  40  63  93 123 160 206 250 303 365
#     4  10  22  40  63  90 121 159 203 254 308 365
#     4  11  24  42  62  90 125 161 200 246 303 363
#     4  10  22  39  59  85 117 155 197 244 298 360
#
# _framework density 19.731265
#
# number of rings (size 3 to 8) (size 9 to 14) (size 15 to 20)
#    0.000    1.750    1.250    2.250    1.750    5.500 
#    0.000    1.250    0.000    0.000    0.000    0.000 
#    0.000    0.000    0.000    0.000    0.000    0.000 
#
# Total GULP energy -793995.825394 kJ/mol
# GULP energy per Si atom -12406.184772 kJ/mol
# Density = 1.968636 g / cm^3
# Si number density = 19.731265 Si / 1000 Ang^3
#
#
#
# Elastic Constant Matrix: (Units=GPa)
#
#
# Indices 1 2 3 4 5 6 
#
# 1 113.4969 46.1383 56.7172 0.0000 0.0000 0.0000
# 2 46.1383 95.6111 57.3910 0.0000 0.0000 0.0000
# 3 56.7172 57.3910 95.6971 0.0000 0.0000 0.0000
# 4 0.0000 0.0000 0.0000 37.0005 0.0000 0.0000
# 5 0.0000 0.0000 0.0000 0.0000 31.3371 0.0000
# 6 0.0000 0.0000 0.0000 0.0000 0.0000 25.4791
#
#
#
# Elastic Compliance Matrix: (Units=1/GPa)
#
#
# Indices 1 2 3 4 5 6 
#
# 1 0.012907 -0.002557 -0.006116 0.000000 0.000000 0.000000
# 2 -0.002557 0.016848 -0.008589 0.000000 0.000000 0.000000
# 3 -0.006116 -0.008589 0.019225 0.000000 0.000000 0.000000
# 4 0.000000 0.000000 0.000000 0.027027 0.000000 0.000000
# 5 0.000000 0.000000 0.000000 0.000000 0.031911 0.000000
# 6 0.000000 0.000000 0.000000 0.000000 0.000000 0.039248
#
#
# Mechanical properties :
#
#
# Convention : Reuss Voigt Hill
#
# Bulk Modulus (GPa) = 69.17193 69.47758 69.32476
# Shear Modulus (GPa) = 26.80851 28.40058 27.60454
#
# Velocity S-wave (km/s) = 3.69003 3.79802 3.74441
# Velocity P-wave (km/s) = 7.29988 7.38388 7.34200
#
# Compressibility (1/GPa) = 0.01445673
#
# Stress axis : x y z
#
# Youngs Moduli (GPa) = 77.48000 59.35267 52.01537
#
# Poissons Ratio (x) = 0.15178 0.31812
# Poissons Ratio (y) = 0.19813 0.44674
# Poissons Ratio (z) = 0.47385 0.50976
#
# Static dielectric constant tensor:
#      x y z
#    x 3.588540 0.000000 0.000000 
#    y 0.000000 3.633290 0.000000 
#    z 0.000000 0.000000 3.633050 
# 
# 
# High freq. dielectric constant tensor:
#      x y z
#    x 1.775840 0.000000 0.000000 
#    y 0.000000 1.773180 0.000000 
#    z 0.000000 0.000000 1.771390 
# 
# From -- ./inp_files/5615.got.cif
#   From: 2010.03.12/outbox.cif.g09.slc.cpg/sg57_3_cif.got.tgz:5615.got - 2010.04.16 15:48:40.
