data_PCOD8232546
_publ_section_title
;
Structure prediction by ZEFSAII (Michael W. Deem and Ramdas Pophale) SiO2 
 PCOD8232546
Probable space group: P B C M
;
_chemical_formula_sum "Si O2"
_cell_formula_units_Z 48
_cell_length_a 16.203927
_cell_length_b 18.053876
_cell_length_c 8.809606
_cell_angle_alpha 90.000000
_cell_angle_beta 90.000000
_cell_angle_gamma 90.000000
_cell_volume 2577.194636
_symmetry_space_group_name_H-M "P B C M"
_symmetry_group_IT_number 57
_symmetry_cell_setting 'orthorhombic'
loop_
_space_group_symop_operation_xyz
x,y,z
-x,-y,1/2+z
x,1/2-y,-z
-x,1/2+y,1/2-z
-x,-y,-z
x,y,1/2-z
-x,1/2+y,z
x,1/2-y,1/2+z
loop_
_atom_site_type_symbol
_atom_site_label
_atom_site_fract_x
_atom_site_fract_y
_atom_site_fract_z
Si Si1 0.329146 0.595151 0.571582
Si Si2 0.249928 0.043933 0.926864
Si Si3 0.494170 0.580613 0.071623
Si Si4 0.919343 0.466501 0.573449
Si Si5 0.838130 0.171728 0.928854
Si Si6 0.657201 0.830422 0.570765
O O1 0.343073 0.591242 0.750000
O O2 0.308897 0.512984 0.514169
O O3 0.412950 0.622653 0.491777
O O4 0.255790 0.651053 0.526525
O O5 0.272502 0.041636 0.750000
O O6 0.154626 0.024171 0.955244
O O7 0.266705 0.124641 0.996862
O O8 0.486932 0.571703 0.250000
O O9 0.572106 0.629841 0.024793
O O10 0.500000 0.500000 0.000000
O O11 0.933993 0.452135 0.750000
O O12 0.900674 0.388290 0.495483
O O13 0.000000 0.500000 0.500000
O O14 0.850130 0.174661 0.750000
O O15 0.861149 0.250000 0.000000
O O16 0.657002 0.750000 0.500000
O O17 0.669763 0.825686 0.750000
#
# Coordination Sequence:
#
# PCOD8232546 Si02
#       6
#     8   8   8   8   8   8
#     4  10  20  34  55  82 111 148 191 232 280 336
#     4  10  20  36  59  83 110 145 185 229 277 335
#     4  11  22  35  55  81 111 150 195 240 285 336
#     4  10  21  38  62  91 118 149 189 231 281 343
#     4  10  21  37  58  85 119 154 189 236 289 341
#     4  11  24  39  56  80 112 150 192 238 288 334
#
# _framework density 18.624901999999999
#
# number of rings (size 3 to 8) (size 9 to 14) (size 15 to 20)
#    0.000    1.667    1.667    3.000    0.000    6.667 
#    0.000    4.167    0.000    4.000    0.000    0.000 
#    0.000    0.000    0.000    0.000    0.000    0.000 
#
# Total GULP energy -595421.912691 kJ/mol
# GULP energy per Si atom -12404.623181 kJ/mol
# Density = 1.858251 g / cm^3
# Si number density = 18.624902 Si / 1000 Ang^3
#
#
#
# Elastic Constant Matrix: (Units=GPa)
#
#
# Indices 1 2 3 4 5 6 
#
# 1 109.2109 62.2696 50.8415 0.0000 0.0000 0.0000
# 2 62.2696 146.4241 59.4027 0.0000 0.0000 0.0000
# 3 50.8415 59.4027 85.2936 0.0000 0.0000 0.0000
# 4 0.0000 0.0000 0.0000 34.0390 0.0000 0.0000
# 5 0.0000 0.0000 0.0000 0.0000 34.5105 0.0000
# 6 0.0000 0.0000 0.0000 0.0000 0.0000 29.8843
#
#
#
# Elastic Compliance Matrix: (Units=1/GPa)
#
#
# Indices 1 2 3 4 5 6 
#
# 1 0.013882 -0.003549 -0.005803 0.000000 0.000000 0.000000
# 2 -0.003549 0.010427 -0.005146 0.000000 0.000000 0.000000
# 3 -0.005803 -0.005146 0.018767 0.000000 0.000000 0.000000
# 4 0.000000 0.000000 0.000000 0.029378 0.000000 0.000000
# 5 0.000000 0.000000 0.000000 0.000000 0.028977 0.000000
# 6 0.000000 0.000000 0.000000 0.000000 0.000000 0.033462
#
#
# Mechanical properties :
#
#
# Convention : Reuss Voigt Hill
#
# Bulk Modulus (GPa) = 71.02572 76.21733 73.62152
# Shear Modulus (GPa) = 29.65936 30.91443 30.28690
#
# Velocity S-wave (km/s) = 3.99489 4.07854 4.03693
# Velocity P-wave (km/s) = 7.71339 7.94924 7.83220
#
# Compressibility (1/GPa) = 0.01407941
#
# Stress axis : x y z
#
# Youngs Moduli (GPa) = 72.03744 95.90904 53.28558
#
# Poissons Ratio (x) = 0.34042 0.30919
# Poissons Ratio (y) = 0.25569 0.27420
# Poissons Ratio (z) = 0.41800 0.49353
#
# Static dielectric constant tensor:
#      x y z
#    x 3.572240 0.000000 0.000000 
#    y 0.000000 3.352840 0.000000 
#    z 0.000000 0.000000 3.566740 
# 
# 
# High freq. dielectric constant tensor:
#      x y z
#    x 1.720270 0.000000 0.000000 
#    y 0.000000 1.714270 0.000000 
#    z 0.000000 0.000000 1.742460 
# 
# From -- ./inp_files/4717.got.cif
#   From: 2010.03.12/outbox.cif.g09.slc.cpg/sg57_3_cif.got.tgz:4717.got - 2010.04.16 15:48:40.
