data_PCOD8232786
_publ_section_title
;
Structure prediction by ZEFSAII (Michael W. Deem and Ramdas Pophale) SiO2 
 PCOD8232786
Probable space group: P B C M
;
_chemical_formula_sum "Si O2"
_cell_formula_units_Z 32
_cell_length_a 7.767111
_cell_length_b 26.487628
_cell_length_c 8.803937
_cell_angle_alpha 90.000000
_cell_angle_beta 90.000000
_cell_angle_gamma 90.000000
_cell_volume 1811.254620
_symmetry_space_group_name_H-M "P B C M"
_symmetry_group_IT_number 57
_symmetry_cell_setting 'orthorhombic'
loop_
_space_group_symop_operation_xyz
x,y,z
-x,-y,1/2+z
x,1/2-y,-z
-x,1/2+y,1/2-z
-x,-y,-z
x,y,1/2-z
-x,1/2+y,z
x,1/2-y,1/2+z
loop_
_atom_site_type_symbol
_atom_site_label
_atom_site_fract_x
_atom_site_fract_y
_atom_site_fract_z
Si Si1 0.466134 0.554173 0.930575
Si Si2 0.958882 0.801493 0.078268
Si Si3 0.771328 0.614687 0.428669
Si Si4 0.894725 0.096679 0.921880
O O1 0.473973 0.551570 0.750000
O O2 0.278993 0.572754 0.987939
O O3 0.500000 0.500000 0.000000
O O4 0.603451 0.593917 0.989880
O O5 0.899559 0.790224 0.250000
O O6 0.117707 0.841648 0.075407
O O7 0.018862 0.750000 0.000000
O O8 0.799764 0.827611 0.986810
O O9 0.744874 0.612702 0.250000
O O10 0.938869 0.580739 0.476565
O O11 0.927331 0.077769 0.750000
#
# Coordination Sequence:
#
# PCOD8232786 Si02
#       4
#     8   8   8   8
#     4  11  22  38  57  80 110 145 185 229 274 324
#     4   9  17  34  57  82 108 142 180 220 271 321
#     4  10  20  35  56  82 111 144 181 223 270 324
#     4   8  19  37  56  77 109 145 180 223 269 318
#
# _framework density 17.667311000000002
#
# number of rings (size 3 to 8) (size 9 to 14) (size 15 to 20)
#    1.500    1.000    0.000    3.000    0.000    3.000 
#    0.000    1.250    0.000    3.000    0.000    0.000 
#    0.000    0.000    0.000    0.000    0.000    0.000 
#
# Total GULP energy -396446.766164 kJ/mol
# GULP energy per Si atom -12388.961443 kJ/mol
# Density = 1.762710 g / cm^3
# Si number density = 17.667311 Si / 1000 Ang^3
#
#
#
# Elastic Constant Matrix: (Units=GPa)
#
#
# Indices 1 2 3 4 5 6 
#
# 1 58.5398 -6.9453 22.4003 0.0000 0.0000 0.0000
# 2 -6.9453 44.3331 13.2402 0.0000 0.0000 0.0000
# 3 22.4003 13.2402 91.9004 0.0000 0.0000 0.0000
# 4 0.0000 0.0000 0.0000 31.1880 0.0000 0.0000
# 5 0.0000 0.0000 0.0000 0.0000 18.2226 0.0000
# 6 0.0000 0.0000 0.0000 0.0000 0.0000 26.0779
#
#
#
# Elastic Compliance Matrix: (Units=1/GPa)
#
#
# Indices 1 2 3 4 5 6 
#
# 1 0.019747 0.004735 -0.005495 0.000000 0.000000 0.000000
# 2 0.004735 0.024706 -0.004713 0.000000 0.000000 0.000000
# 3 -0.005495 -0.004713 0.012900 0.000000 0.000000 0.000000
# 4 0.000000 0.000000 0.000000 0.032064 0.000000 0.000000
# 5 0.000000 0.000000 0.000000 0.000000 0.054877 0.000000
# 6 0.000000 0.000000 0.000000 0.000000 0.000000 0.038347
#
#
# Mechanical properties :
#
#
# Convention : Reuss Voigt Hill
#
# Bulk Modulus (GPa) = 21.54957 28.01818 24.78388
# Shear Modulus (GPa) = 23.91701 26.16959 25.04330
#
# Velocity S-wave (km/s) = 3.68332 3.85287 3.76905
# Velocity P-wave (km/s) = 5.50572 5.97378 5.74452
#
# Compressibility (1/GPa) = 0.04640464
#
# Stress axis : x y z
#
# Youngs Moduli (GPa) = 50.64078 40.47609 77.52003
#
# Poissons Ratio (x) = -0.19165 0.42600
# Poissons Ratio (y) = -0.23977 0.36539
# Poissons Ratio (z) = 0.27829 0.19078
#
# Static dielectric constant tensor:
#      x y z
#    x 3.212510 0.000000 0.000000 
#    y 0.000000 3.200600 0.000000 
#    z 0.000000 0.000000 3.311270 
# 
# 
# High freq. dielectric constant tensor:
#      x y z
#    x 1.663410 0.000000 0.000000 
#    y 0.000000 1.670430 0.000000 
#    z 0.000000 0.000000 1.695420 
# 
# From -- ./inp_files/789.got.cif
#   From: 2010.03.12/outbox.cif.g09.slc.cpg/sg57_1_cif.got.tgz:789.got - 2010.04.16 15:48:40.
