data_PCOD8232485
_publ_section_title
;
Structure prediction by ZEFSAII (Michael W. Deem and Ramdas Pophale) SiO2 
 PCOD8232485
Probable space group: P B C M
;
_chemical_formula_sum "Si O2"
_cell_formula_units_Z 64
_cell_length_a 22.276818
_cell_length_b 17.621615
_cell_length_c 8.763562
_cell_angle_alpha 90.000000
_cell_angle_beta 90.000000
_cell_angle_gamma 90.000000
_cell_volume 3440.167025
_symmetry_space_group_name_H-M "P B C M"
_symmetry_group_IT_number 57
_symmetry_cell_setting 'orthorhombic'
loop_
_space_group_symop_operation_xyz
x,y,z
-x,-y,1/2+z
x,1/2-y,-z
-x,1/2+y,1/2-z
-x,-y,-z
x,y,1/2-z
-x,1/2+y,z
x,1/2-y,1/2+z
loop_
_atom_site_type_symbol
_atom_site_label
_atom_site_fract_x
_atom_site_fract_y
_atom_site_fract_z
Si Si1 0.139248 0.970496 0.430354
Si Si2 0.743288 0.520304 0.573021
Si Si3 0.057798 0.830955 0.427723
Si Si4 0.295759 0.171282 0.428820
Si Si5 0.548662 0.328303 0.430791
Si Si6 0.956882 0.938563 0.071225
Si Si7 0.571352 0.620903 0.428185
Si Si8 0.390168 0.970943 0.927763
O O1 0.139120 0.974417 0.250000
O O2 0.206785 0.968356 0.492570
O O3 0.107834 0.048227 0.493252
O O4 0.104462 0.894959 0.489143
O O5 0.758195 0.528061 0.750000
O O6 0.743108 0.604227 0.501826
O O7 0.680541 0.478568 0.543219
O O8 0.071546 0.750000 0.500000
O O9 0.068268 0.821728 0.250000
O O10 0.988676 0.857090 0.462035
O O11 0.273350 0.250000 0.500000
O O12 0.284017 0.171352 0.250000
O O13 0.365790 0.160436 0.468209
O O14 0.572599 0.250000 0.500000
O O15 0.556710 0.330298 0.250000
O O16 0.478842 0.337276 0.473210
O O17 0.589842 0.390510 0.510175
O O18 0.950599 0.952408 0.250000
O O19 0.000000 0.000000 0.000000
O O20 0.555232 0.626500 0.250000
O O21 0.573251 0.533245 0.476822
O O22 0.406342 0.980062 0.750000
#
# Coordination Sequence:
#
# PCOD8232485 Si02
#       8
#     8   8   8   8   8   8   8   8
#     4  10  20  35  55  80 108 141 182 222 262 312
#     4  10  21  37  58  80 104 140 183 223 264 314
#     4   9  19  33  52  80 111 141 174 216 262 308
#     4  10  20  34  54  79 108 139 172 216 267 319
#     4  12  24  37  54  77 106 138 174 220 273 326
#     4   9  17  31  51  77 106 136 171 210 256 308
#     4  10  20  35  56  81 107 137 173 214 266 326
#     4  10  21  38  57  78 105 138 178 221 268 323
#
# _framework density 18.603746999999998
#
# number of rings (size 3 to 8) (size 9 to 14) (size 15 to 20)
#    0.000    2.000    0.000    4.875    0.000    7.000 
#    0.000    1.250    0.000    3.000    0.000    0.000 
#    0.000    0.000    0.000    0.000    0.000    0.000 
#
# Total GULP energy -793595.010254 kJ/mol
# GULP energy per Si atom -12399.922035 kJ/mol
# Density = 1.856140 g / cm^3
# Si number density = 18.603747 Si / 1000 Ang^3
#
#
#
# Elastic Constant Matrix: (Units=GPa)
#
#
# Indices 1 2 3 4 5 6 
#
# 1 60.6059 28.6870 24.5916 0.0000 0.0000 0.0000
# 2 28.6870 105.4899 22.6789 0.0000 0.0000 0.0000
# 3 24.5916 22.6789 66.6473 0.0000 0.0000 0.0000
# 4 0.0000 0.0000 0.0000 33.5535 0.0000 0.0000
# 5 0.0000 0.0000 0.0000 0.0000 33.1176 0.0000
# 6 0.0000 0.0000 0.0000 0.0000 0.0000 21.8543
#
#
#
# Elastic Compliance Matrix: (Units=1/GPa)
#
#
# Indices 1 2 3 4 5 6 
#
# 1 0.021137 -0.004393 -0.006305 0.000000 0.000000 0.000000
# 2 -0.004393 0.011141 -0.002170 0.000000 0.000000 0.000000
# 3 -0.006305 -0.002170 0.018069 0.000000 0.000000 0.000000
# 4 0.000000 0.000000 0.000000 0.029803 0.000000 0.000000
# 5 0.000000 0.000000 0.000000 0.000000 0.030195 0.000000
# 6 0.000000 0.000000 0.000000 0.000000 0.000000 0.045758
#
#
# Mechanical properties :
#
#
# Convention : Reuss Voigt Hill
#
# Bulk Modulus (GPa) = 40.62999 42.73979 41.68489
# Shear Modulus (GPa) = 26.30992 28.15745 27.23368
#
# Velocity S-wave (km/s) = 3.76470 3.89464 3.83022
# Velocity P-wave (km/s) = 6.38627 6.57632 6.48199
#
# Compressibility (1/GPa) = 0.02461236
#
# Stress axis : x y z
#
# Youngs Moduli (GPa) = 47.30943 89.76096 55.34314
#
# Poissons Ratio (x) = 0.39430 0.34891
# Poissons Ratio (y) = 0.20782 0.12010
# Poissons Ratio (z) = 0.29826 0.19479
#
# Static dielectric constant tensor:
#      x y z
#    x 3.481620 0.000000 0.000000 
#    y 0.000000 3.584880 0.000000 
#    z 0.000000 0.000000 3.617880 
# 
# 
# High freq. dielectric constant tensor:
#      x y z
#    x 1.710400 0.000000 0.000000 
#    y 0.000000 1.715320 0.000000 
#    z 0.000000 0.000000 1.736770 
# 
# From -- ./inp_files/9279.got.cif
#   From: 2010.03.12/outbox.cif.g09.slc.cpg/sg57_5_cif.got.tgz:9279.got - 2010.04.16 15:48:40.
