data_PCOD8232513
_publ_section_title
;
Structure prediction by ZEFSAII (Michael W. Deem and Ramdas Pophale) SiO2 
 PCOD8232513
Probable space group: P B C M
;
_chemical_formula_sum "Si O2"
_cell_formula_units_Z 64
_cell_length_a 19.754074
_cell_length_b 20.025397
_cell_length_c 8.949493
_cell_angle_alpha 90.000000
_cell_angle_beta 90.000000
_cell_angle_gamma 90.000000
_cell_volume 3540.268849
_symmetry_space_group_name_H-M "P B C M"
_symmetry_group_IT_number 57
_symmetry_cell_setting 'orthorhombic'
loop_
_space_group_symop_operation_xyz
x,y,z
-x,-y,1/2+z
x,1/2-y,-z
-x,1/2+y,1/2-z
-x,-y,-z
x,y,1/2-z
-x,1/2+y,z
x,1/2-y,1/2+z
loop_
_atom_site_type_symbol
_atom_site_label
_atom_site_fract_x
_atom_site_fract_y
_atom_site_fract_z
Si Si1 0.176739 0.954494 0.079712
Si Si2 0.332349 0.417855 0.425866
Si Si3 0.801651 0.606377 0.421985
Si Si4 0.689538 0.431790 0.926045
Si Si5 0.064657 0.179539 0.427509
Si Si6 0.399652 0.818989 0.426350
Si Si7 0.554275 0.818086 0.425402
Si Si8 0.975758 0.432302 0.074946
O O1 0.200514 0.943232 0.250000
O O2 0.169537 0.032885 0.044428
O O3 0.104292 0.921383 0.050032
O O4 0.232157 0.920962 0.971313
O O5 0.326811 0.416280 0.250000
O O6 0.266660 0.379414 0.487254
O O7 0.334379 0.494641 0.480808
O O8 0.399533 0.379621 0.482177
O O9 0.783281 0.615612 0.250000
O O10 0.859357 0.658017 0.472667
O O11 0.681156 0.421923 0.750000
O O12 0.643974 0.379192 0.011462
O O13 0.048706 0.250000 0.500000
O O14 0.055783 0.181698 0.250000
O O15 0.010851 0.129050 0.494923
O O16 0.374860 0.750000 0.500000
O O17 0.390017 0.813259 0.250000
O O18 0.477262 0.833709 0.471722
O O19 0.580147 0.750000 0.500000
O O20 0.561346 0.808220 0.250000
O O21 0.993782 0.434772 0.250000
O O22 0.000000 0.500000 0.000000
#
# Coordination Sequence:
#
# PCOD8232513 Si02
#       8
#     8   8   8   8   8   8   8   8
#     4   9  18  35  56  80 108 139 179 223 266 319
#     4   9  19  34  52  78 111 143 179 223 269 319
#     4   9  18  34  53  75 106 142 181 221 265 321
#     4  10  20  34  54  82 111 140 177 224 271 322
#     4  11  23  39  55  80 114 149 188 233 279 331
#     4  10  20  36  57  78 104 141 180 224 274 328
#     4   9  19  35  53  75 105 141 183 224 268 322
#     4  11  21  36  60  86 111 145 185 229 275 328
#
# _framework density 18.077724
#
# number of rings (size 3 to 8) (size 9 to 14) (size 15 to 20)
#    0.000    2.250    1.250    1.500    0.000    4.500 
#    0.000    3.125    0.000    3.000    0.000    0.000 
#    0.000    0.000    0.000    0.000    0.000    0.000 
#
# Total GULP energy -793713.425569 kJ/mol
# GULP energy per Si atom -12401.772275 kJ/mol
# Density = 1.803658 g / cm^3
# Si number density = 18.077724 Si / 1000 Ang^3
#
#
#
# Elastic Constant Matrix: (Units=GPa)
#
#
# Indices 1 2 3 4 5 6 
#
# 1 108.4203 76.5059 49.4957 0.0000 0.0000 0.0000
# 2 76.5059 126.0939 51.9860 0.0000 0.0000 0.0000
# 3 49.4957 51.9860 71.1336 0.0000 0.0000 0.0000
# 4 0.0000 0.0000 0.0000 30.8329 0.0000 0.0000
# 5 0.0000 0.0000 0.0000 0.0000 31.9223 0.0000
# 6 0.0000 0.0000 0.0000 0.0000 0.0000 26.5192
#
#
#
# Elastic Compliance Matrix: (Units=1/GPa)
#
#
# Indices 1 2 3 4 5 6 
#
# 1 0.018013 -0.008246 -0.006507 0.000000 0.000000 0.000000
# 2 -0.008246 0.015126 -0.005316 0.000000 0.000000 0.000000
# 3 -0.006507 -0.005316 0.022471 0.000000 0.000000 0.000000
# 4 0.000000 0.000000 0.000000 0.032433 0.000000 0.000000
# 5 0.000000 0.000000 0.000000 0.000000 0.031326 0.000000
# 6 0.000000 0.000000 0.000000 0.000000 0.000000 0.037709
#
#
# Mechanical properties :
#
#
# Convention : Reuss Voigt Hill
#
# Bulk Modulus (GPa) = 64.63995 73.51366 69.07680
# Shear Modulus (GPa) = 24.70682 26.36556 25.53619
#
# Velocity S-wave (km/s) = 3.70090 3.82312 3.76250
# Velocity P-wave (km/s) = 7.35503 7.76157 7.56103
#
# Compressibility (1/GPa) = 0.01547031
#
# Stress axis : x y z
#
# Youngs Moduli (GPa) = 55.51573 66.11208 44.50190
#
# Poissons Ratio (x) = 0.54519 0.28957
# Poissons Ratio (y) = 0.45781 0.23659
# Poissons Ratio (z) = 0.36124 0.35147
#
# Static dielectric constant tensor:
#      x y z
#    x 3.539870 0.000000 0.000000 
#    y 0.000000 3.355790 0.000000 
#    z 0.000000 0.000000 3.392010 
# 
# 
# High freq. dielectric constant tensor:
#      x y z
#    x 1.704480 0.000000 0.000000 
#    y 0.000000 1.690420 0.000000 
#    z 0.000000 0.000000 1.705570 
# 
# From -- ./inp_files/7137.got.cif
#   From: 2010.03.12/outbox.cif.g09.slc.cpg/sg57_4_cif.got.tgz:7137.got - 2010.04.16 15:48:40.
