data_PCOD8232223
_publ_section_title
;
Structure prediction by ZEFSAII (Michael W. Deem and Ramdas Pophale) SiO2 
 PCOD8232223
Probable space group: P B C M
;
_chemical_formula_sum "Si O2"
_cell_formula_units_Z 48
_cell_length_a 13.432091
_cell_length_b 23.713933
_cell_length_c 8.818349
_cell_angle_alpha 90.000000
_cell_angle_beta 90.000000
_cell_angle_gamma 90.000000
_cell_volume 2808.888478
_symmetry_space_group_name_H-M "P B C M"
_symmetry_group_IT_number 57
_symmetry_cell_setting 'orthorhombic'
loop_
_space_group_symop_operation_xyz
x,y,z
-x,-y,1/2+z
x,1/2-y,-z
-x,1/2+y,1/2-z
-x,-y,-z
x,y,1/2-z
-x,1/2+y,z
x,1/2-y,1/2+z
loop_
_atom_site_type_symbol
_atom_site_label
_atom_site_fract_x
_atom_site_fract_y
_atom_site_fract_z
Si Si1 0.952876 0.082504 0.074148
Si Si2 0.640936 0.969522 0.072512
Si Si3 0.352552 0.691412 0.927777
Si Si4 0.123378 0.691378 0.571397
Si Si5 0.845759 0.518503 0.425294
Si Si6 0.459047 0.586330 0.427468
O O1 0.923011 0.082333 0.250000
O O2 0.065528 0.062523 0.049140
O O3 0.945368 0.144323 0.004621
O O4 0.875949 0.042596 0.986870
O O5 0.631137 0.957851 0.250000
O O6 0.611727 0.033668 0.031429
O O7 0.752494 0.957788 0.017767
O O8 0.570074 0.926006 0.985283
O O9 0.367502 0.696189 0.750000
O O10 0.238053 0.679392 0.970968
O O11 0.388890 0.750000 0.000000
O O12 0.419183 0.641236 0.989759
O O13 0.088048 0.750000 0.500000
O O14 0.105537 0.692519 0.750000
O O15 0.817058 0.511911 0.250000
O O16 0.461720 0.598156 0.250000
#
# Coordination Sequence:
#
# PCOD8232223 Si02
#       6
#     8   8   8   8   8   8
#     4  10  20  33  50  73 101 132 166 203 244 292
#     4  10  20  33  51  74 100 131 165 202 245 293
#     4  10  20  33  50  73 100 130 164 201 243 290
#     4  10  20  33  51  74 101 132 165 203 245 291
#     4  10  20  33  50  73 101 132 165 203 247 293
#     4  10  20  33  50  73 101 131 163 201 244 291
#
# _framework density 17.088609999999999
#
# number of rings (size 3 to 8) (size 9 to 14) (size 15 to 20)
#    0.000    2.000    0.000    4.000    0.000    8.667 
#    0.000    0.000    0.000    1.000    0.000    2.333 
#    0.000    0.000    0.000    0.000    0.000    0.000 
#
# Total GULP energy -595468.889209 kJ/mol
# GULP energy per Si atom -12405.601859 kJ/mol
# Density = 1.704972 g / cm^3
# Si number density = 17.088610 Si / 1000 Ang^3
#
#
#
# Elastic Constant Matrix: (Units=GPa)
#
#
# Indices 1 2 3 4 5 6 
#
# 1 71.7080 38.6172 27.5392 0.0000 0.0000 0.0000
# 2 38.6172 121.6429 42.4107 0.0000 0.0000 0.0000
# 3 27.5392 42.4107 61.1752 0.0000 0.0000 0.0000
# 4 0.0000 0.0000 0.0000 34.7607 0.0000 0.0000
# 5 0.0000 0.0000 0.0000 0.0000 31.1107 0.0000
# 6 0.0000 0.0000 0.0000 0.0000 0.0000 21.7003
#
#
#
# Elastic Compliance Matrix: (Units=1/GPa)
#
#
# Indices 1 2 3 4 5 6 
#
# 1 0.018123 -0.003836 -0.005499 0.000000 0.000000 0.000000
# 2 -0.003836 0.011653 -0.006352 0.000000 0.000000 0.000000
# 3 -0.005499 -0.006352 0.023225 0.000000 0.000000 0.000000
# 4 0.000000 0.000000 0.000000 0.028768 0.000000 0.000000
# 5 0.000000 0.000000 0.000000 0.000000 0.032143 0.000000
# 6 0.000000 0.000000 0.000000 0.000000 0.000000 0.046082
#
#
# Mechanical properties :
#
#
# Convention : Reuss Voigt Hill
#
# Bulk Modulus (GPa) = 46.23671 52.40669 49.32170
# Shear Modulus (GPa) = 25.17890 27.24496 26.21193
#
# Velocity S-wave (km/s) = 3.84269 3.99724 3.92073
# Velocity P-wave (km/s) = 6.84136 7.21375 7.03002
#
# Compressibility (1/GPa) = 0.02162784
#
# Stress axis : x y z
#
# Youngs Moduli (GPa) = 55.17770 85.81321 43.05617
#
# Poissons Ratio (x) = 0.32920 0.23676
# Poissons Ratio (y) = 0.21168 0.27349
# Poissons Ratio (z) = 0.30342 0.54507
#
# Static dielectric constant tensor:
#      x y z
#    x 3.102000 0.000000 0.000000 
#    y 0.000000 3.108210 0.000000 
#    z 0.000000 0.000000 3.355320 
# 
# 
# High freq. dielectric constant tensor:
#      x y z
#    x 1.646790 0.000000 0.000000 
#    y 0.000000 1.651500 0.000000 
#    z 0.000000 0.000000 1.681060 
# 
# From -- ./inp_files/3092.got.cif
#   From: 2010.03.12/outbox.cif.g09.slc.cpg/sg57_2_cif.got.tgz:3092.got - 2010.04.16 15:48:40.
