data_PCOD8232169
_publ_section_title
;
Structure prediction by ZEFSAII (Michael W. Deem and Ramdas Pophale) SiO2 
 PCOD8232169
Probable space group: P B C M
;
_chemical_formula_sum "Si O2"
_cell_formula_units_Z 40
_cell_length_a 11.278236
_cell_length_b 18.181605
_cell_length_c 9.987935
_cell_angle_alpha 90.000000
_cell_angle_beta 90.000000
_cell_angle_gamma 90.000000
_cell_volume 2048.090315
_symmetry_space_group_name_H-M "P B C M"
_symmetry_group_IT_number 57
_symmetry_cell_setting 'orthorhombic'
loop_
_space_group_symop_operation_xyz
x,y,z
-x,-y,1/2+z
x,1/2-y,-z
-x,1/2+y,1/2-z
-x,-y,-z
x,y,1/2-z
-x,1/2+y,z
x,1/2-y,1/2+z
loop_
_atom_site_type_symbol
_atom_site_label
_atom_site_fract_x
_atom_site_fract_y
_atom_site_fract_z
Si Si1 0.434144 0.600563 0.904467
Si Si2 0.083872 0.174784 0.750000
Si Si3 0.479342 0.250000 0.500000
Si Si4 0.675925 0.985444 0.095231
Si Si5 0.924493 0.926787 0.009483
Si Si6 0.687216 0.739328 0.250000
Si Si7 0.915695 0.661870 0.250000
O O1 0.389044 0.597359 0.750000
O O2 0.434722 0.683264 0.960063
O O3 0.567193 0.570380 0.912921
O O4 0.347396 0.556233 0.002472
O O5 0.036058 0.128758 0.625251
O O6 0.229409 0.186239 0.750000
O O7 0.025457 0.256315 0.750000
O O8 0.394419 0.267942 0.622342
O O9 0.699637 0.009223 0.250000
O O10 0.787414 0.944904 0.031098
O O11 0.955926 0.883372 0.876713
O O12 0.000000 0.000000 0.000000
O O13 0.772765 0.668630 0.250000
#
# Coordination Sequence:
#
# PCOD8232169 Si02
#       7
#     8   4   4   8   8   4   4
#     4  10  22  38  59  88 124 160 201 258 304 383
#     4  10  21  41  59  91 130 149 210 272 317 368
#     4  12  20  34  58  92 118 164 206 252 322 372
#     4  10  22  40  60  85 126 163 204 252 316 369
#     4  12  23  40  65  93 127 168 213 262 318 384
#     4  10  20  32  60  88 124 152 204 270 320 362
#     4  10  23  35  63  95 120 157 202 268 325 366
#
# _framework density 19.530390000000001
#
# number of rings (size 3 to 8) (size 9 to 14) (size 15 to 20)
#    0.600    0.800    2.000    4.800    2.800    0.000 
#    0.000    0.000    4.400    0.000    0.000    0.000 
#    0.000    0.000    0.000    0.000    0.000    0.000 
#
# Total GULP energy -495865.093568 kJ/mol
# GULP energy per Si atom -12396.627339 kJ/mol
# Density = 1.948594 g / cm^3
# Si number density = 19.530390 Si / 1000 Ang^3
#
#
#
# Elastic Constant Matrix: (Units=GPa)
#
#
# Indices 1 2 3 4 5 6 
#
# 1 22.8155 24.3615 21.4661 0.0000 0.0000 0.0000
# 2 24.3615 159.4817 83.5268 0.0000 0.0000 0.0000
# 3 21.4661 83.5268 176.4139 0.0000 0.0000 0.0000
# 4 0.0000 0.0000 0.0000 43.8729 0.0000 0.0000
# 5 0.0000 0.0000 0.0000 0.0000 31.3650 0.0000
# 6 0.0000 0.0000 0.0000 0.0000 0.0000 31.6144
#
#
#
# Elastic Compliance Matrix: (Units=1/GPa)
#
#
# Indices 1 2 3 4 5 6 
#
# 1 0.053988 -0.006391 -0.003543 0.000000 0.000000 0.000000
# 2 -0.006391 0.009094 -0.003528 0.000000 0.000000 0.000000
# 3 -0.003543 -0.003528 0.007770 0.000000 0.000000 0.000000
# 4 0.000000 0.000000 0.000000 0.022793 0.000000 0.000000
# 5 0.000000 0.000000 0.000000 0.000000 0.031883 0.000000
# 6 0.000000 0.000000 0.000000 0.000000 0.000000 0.031631
#
#
# Mechanical properties :
#
#
# Convention : Reuss Voigt Hill
#
# Bulk Modulus (GPa) = 22.76497 68.60222 45.68359
# Shear Modulus (GPa) = 25.16012 36.66091 30.91052
#
# Velocity S-wave (km/s) = 3.59312 4.33728 3.98262
# Velocity P-wave (km/s) = 5.37545 7.76433 6.67758
#
# Compressibility (1/GPa) = 0.04392714
#
# Stress axis : x y z
#
# Youngs Moduli (GPa) = 18.52269 109.95667 128.69725
#
# Poissons Ratio (x) = 0.70275 0.45601
# Poissons Ratio (y) = 0.11838 0.45408
# Poissons Ratio (z) = 0.06563 0.38796
#
# Static dielectric constant tensor:
#      x y z
#    x 3.116070 0.000000 0.000000 
#    y 0.000000 3.751560 0.000000 
#    z 0.000000 0.000000 3.829770 
# 
# 
# High freq. dielectric constant tensor:
#      x y z
#    x 1.716860 0.000000 0.000000 
#    y 0.000000 1.769820 0.000000 
#    z 0.000000 0.000000 1.783380 
# 
# From -- ./inp_files/2759.got.cif
#   From: 2010.03.12/outbox.cif.g09.slc.cpg/sg57_2_cif.got.tgz:2759.got - 2010.04.16 15:48:40.
