data_PCOD8232559
_publ_section_title
;
Structure prediction by ZEFSAII (Michael W. Deem and Ramdas Pophale) SiO2 
 PCOD8232559
Probable space group: P B C M
;
_chemical_formula_sum "Si O2"
_cell_formula_units_Z 64
_cell_length_a 19.870194
_cell_length_b 19.798952
_cell_length_c 8.845827
_cell_angle_alpha 90.000000
_cell_angle_beta 90.000000
_cell_angle_gamma 90.000000
_cell_volume 3480.028107
_symmetry_space_group_name_H-M "P B C M"
_symmetry_group_IT_number 57
_symmetry_cell_setting 'orthorhombic'
loop_
_space_group_symop_operation_xyz
x,y,z
-x,-y,1/2+z
x,1/2-y,-z
-x,1/2+y,1/2-z
-x,-y,-z
x,y,1/2-z
-x,1/2+y,z
x,1/2-y,1/2+z
loop_
_atom_site_type_symbol
_atom_site_label
_atom_site_fract_x
_atom_site_fract_y
_atom_site_fract_z
Si Si1 0.519321 0.570044 0.572975
Si Si2 0.303464 0.593171 0.423636
Si Si3 0.921615 0.822528 0.575002
Si Si4 0.843919 0.054201 0.074514
Si Si5 0.330536 0.440509 0.074230
Si Si6 0.020603 0.928914 0.070985
Si Si7 0.198419 0.081717 0.076728
Si Si8 0.587828 0.321822 0.072122
O O1 0.500000 0.500000 0.500000
O O2 0.509993 0.560396 0.750000
O O3 0.596442 0.589807 0.534135
O O4 0.470943 0.628806 0.511159
O O5 0.320916 0.608296 0.250000
O O6 0.223542 0.597621 0.453058
O O7 0.330297 0.519433 0.470621
O O8 0.339511 0.649222 0.525284
O O9 0.923737 0.750000 0.500000
O O10 0.942527 0.817615 0.750000
O O11 0.846334 0.851533 0.557141
O O12 0.973813 0.870003 0.489738
O O13 0.864221 0.053585 0.250000
O O14 0.902977 0.088157 0.977181
O O15 0.833005 0.977006 0.025354
O O16 0.312256 0.432373 0.250000
O O17 0.274153 0.400996 0.977844
O O18 0.014808 0.933767 0.250000
O O19 0.000000 0.000000 0.000000
O O20 0.199309 0.057153 0.250000
O O21 0.585400 0.313920 0.250000
O O22 0.574390 0.250000 0.000000
#
# Coordination Sequence:
#
# PCOD8232559 Si02
#       8
#     8   8   8   8   8   8   8   8
#     4  10  20  35  56  84 112 147 190 237 290 343
#     4   9  18  34  56  82 112 146 183 230 283 338
#     4  11  24  41  60  85 118 157 197 242 296 355
#     4  10  20  35  58  86 117 149 186 235 291 340
#     4   9  18  33  55  82 114 145 181 232 289 339
#     4  12  23  37  60  89 120 155 197 244 291 346
#     4  10  20  34  55  84 115 147 190 236 283 341
#     4  11  23  37  56  81 113 153 193 235 288 348
#
# _framework density 18.390657999999998
#
# number of rings (size 3 to 8) (size 9 to 14) (size 15 to 20)
#    0.000    1.750    2.500    3.375    0.000    5.000 
#    0.000    1.250    0.000    6.000    0.000    0.000 
#    0.000    0.000    0.000    0.000    0.000    0.000 
#
# Total GULP energy -793768.557492 kJ/mol
# GULP energy per Si atom -12402.633711 kJ/mol
# Density = 1.834880 g / cm^3
# Si number density = 18.390658 Si / 1000 Ang^3
#
#
#
# Elastic Constant Matrix: (Units=GPa)
#
#
# Indices 1 2 3 4 5 6 
#
# 1 132.6448 66.5112 60.6884 0.0000 0.0000 0.0000
# 2 66.5112 116.0838 58.0261 0.0000 0.0000 0.0000
# 3 60.6884 58.0261 108.1587 0.0000 0.0000 0.0000
# 4 0.0000 0.0000 0.0000 28.7818 0.0000 0.0000
# 5 0.0000 0.0000 0.0000 0.0000 33.4201 0.0000
# 6 0.0000 0.0000 0.0000 0.0000 0.0000 22.1436
#
#
#
# Elastic Compliance Matrix: (Units=1/GPa)
#
#
# Indices 1 2 3 4 5 6 
#
# 1 0.011762 -0.004701 -0.004078 0.000000 0.000000 0.000000
# 2 -0.004701 0.013650 -0.004685 0.000000 0.000000 0.000000
# 3 -0.004078 -0.004685 0.014047 0.000000 0.000000 0.000000
# 4 0.000000 0.000000 0.000000 0.034744 0.000000 0.000000
# 5 0.000000 0.000000 0.000000 0.000000 0.029922 0.000000
# 6 0.000000 0.000000 0.000000 0.000000 0.000000 0.045160
#
#
# Mechanical properties :
#
#
# Convention : Reuss Voigt Hill
#
# Bulk Modulus (GPa) = 79.80011 80.81543 80.30777
# Shear Modulus (GPa) = 27.71782 28.31320 28.01551
#
# Velocity S-wave (km/s) = 3.88644 3.92796 3.90725
# Velocity P-wave (km/s) = 7.97653 8.03809 8.00737
#
# Compressibility (1/GPa) = 0.01253131
#
# Stress axis : x y z
#
# Youngs Moduli (GPa) = 85.02285 73.26107 71.18781
#
# Poissons Ratio (x) = 0.34437 0.29028
# Poissons Ratio (y) = 0.39966 0.33355
# Poissons Ratio (z) = 0.34669 0.34326
#
# Static dielectric constant tensor:
#      x y z
#    x 3.885530 0.000000 0.000000 
#    y 0.000000 3.156330 0.000000 
#    z 0.000000 0.000000 3.479570 
# 
# 
# High freq. dielectric constant tensor:
#      x y z
#    x 1.729510 0.000000 0.000000 
#    y 0.000000 1.681460 0.000000 
#    z 0.000000 0.000000 1.722480 
# 
# From -- ./inp_files/8456.got.cif
#   From: 2010.03.12/outbox.cif.g09.slc.cpg/sg57_5_cif.got.tgz:8456.got - 2010.04.16 15:48:40.
