data_PCOD8232608
_publ_section_title
;
Structure prediction by ZEFSAII (Michael W. Deem and Ramdas Pophale) SiO2 
 PCOD8232608
Probable space group: P B C M
;
_chemical_formula_sum "Si O2"
_cell_formula_units_Z 60
_cell_length_a 14.931343
_cell_length_b 9.318428
_cell_length_c 21.424212
_cell_angle_alpha 90.000000
_cell_angle_beta 90.000000
_cell_angle_gamma 90.000000
_cell_volume 2980.892973
_symmetry_space_group_name_H-M "P B C M"
_symmetry_group_IT_number 57
_symmetry_cell_setting 'orthorhombic'
loop_
_space_group_symop_operation_xyz
x,y,z
-x,-y,1/2+z
x,1/2-y,-z
-x,1/2+y,1/2-z
-x,-y,-z
x,y,1/2-z
-x,1/2+y,z
x,1/2-y,1/2+z
loop_
_atom_site_type_symbol
_atom_site_label
_atom_site_fract_x
_atom_site_fract_y
_atom_site_fract_z
Si Si1 0.004988 0.463238 0.364935
Si Si2 0.706802 0.209030 0.930640
Si Si3 0.604179 0.750000 0.500000
Si Si4 0.567543 0.608741 0.179087
Si Si5 0.512580 0.349642 0.392326
Si Si6 0.116520 0.208804 0.319078
Si Si7 0.106575 0.787819 0.927791
Si Si8 0.728574 0.600878 0.398326
O O1 0.074064 0.367176 0.325197
O O2 0.056846 0.561064 0.416066
O O3 0.953958 0.577056 0.320989
O O4 0.937873 0.348483 0.394572
O O5 0.613990 0.214302 0.892669
O O6 0.788748 0.308955 0.905726
O O7 0.753560 0.052573 0.926442
O O8 0.679163 0.250000 0.000000
O O9 0.538249 0.649522 0.541067
O O10 0.668009 0.669866 0.452078
O O11 0.545287 0.569311 0.250000
O O12 0.540100 0.770064 0.162830
O O13 0.512477 0.513663 0.129392
O O14 0.672647 0.586315 0.166012
O O15 0.161135 0.202845 0.250000
O O16 0.184127 0.190209 0.377934
O O17 0.105948 0.750000 0.000000
#
# Coordination Sequence:
#
# PCOD8232608 Si02
#       8
#     8   8   4   8   8   8   8   8
#     4  10  22  39  62  90 118 157 206 244 299 361
#     4  10  20  34  58  87 122 153 195 243 301 356
#     4  10  22  38  60  94 118 154 208 248 310 362
#     4  10  21  38  58  84 117 160 203 240 300 358
#     4  10  21  36  62  84 119 158 198 256 295 357
#     4  11  22  42  64  88 120 161 205 251 300 360
#     4  10  20  37  59  90 125 156 192 240 304 361
#     4  10  22  37  60  89 120 160 196 252 303 362
#
# _framework density 20.128197
#
# number of rings (size 3 to 8) (size 9 to 14) (size 15 to 20)
#    0.000    1.867    2.000    1.600    1.867    3.733 
#    7.200    0.000    0.000    0.000    0.000    0.000 
#    0.000    0.000    0.000    0.000    0.000    0.000 
#
# Total GULP energy -743309.214488 kJ/mol
# GULP energy per Si atom -12388.486908 kJ/mol
# Density = 2.008238 g / cm^3
# Si number density = 20.128197 Si / 1000 Ang^3
#
#
#
# Elastic Constant Matrix: (Units=GPa)
#
#
# Indices 1 2 3 4 5 6 
#
# 1 85.7989 25.5336 36.8455 0.0000 0.0000 0.0000
# 2 25.5336 85.7539 24.4733 0.0000 0.0000 0.0000
# 3 36.8455 24.4733 105.0498 0.0000 0.0000 0.0000
# 4 0.0000 0.0000 0.0000 20.2201 0.0000 0.0000
# 5 0.0000 0.0000 0.0000 0.0000 27.7146 0.0000
# 6 0.0000 0.0000 0.0000 0.0000 0.0000 25.9848
#
#
#
# Elastic Compliance Matrix: (Units=1/GPa)
#
#
# Indices 1 2 3 4 5 6 
#
# 1 0.014433 -0.003056 -0.004350 0.000000 0.000000 0.000000
# 2 -0.003056 0.013139 -0.001989 0.000000 0.000000 0.000000
# 3 -0.004350 -0.001989 0.011509 0.000000 0.000000 0.000000
# 4 0.000000 0.000000 0.000000 0.049456 0.000000 0.000000
# 5 0.000000 0.000000 0.000000 0.000000 0.036082 0.000000
# 6 0.000000 0.000000 0.000000 0.000000 0.000000 0.038484
#
#
# Mechanical properties :
#
#
# Convention : Reuss Voigt Hill
#
# Bulk Modulus (GPa) = 49.28630 50.03413 49.66021
# Shear Modulus (GPa) = 26.50332 27.43393 26.96863
#
# Velocity S-wave (km/s) = 3.63261 3.69583 3.66436
# Velocity P-wave (km/s) = 6.49106 6.56688 6.52908
#
# Compressibility (1/GPa) = 0.02028962
#
# Stress axis : x y z
#
# Youngs Moduli (GPa) = 69.28680 76.11019 86.89216
#
# Poissons Ratio (x) = 0.23258 0.37800
# Poissons Ratio (y) = 0.21173 0.17284
# Poissons Ratio (z) = 0.30142 0.15139
#
# Static dielectric constant tensor:
#      x y z
#    x 3.872560 0.000000 0.000000 
#    y 0.000000 3.651510 0.000000 
#    z 0.000000 0.000000 3.507360 
# 
# 
# High freq. dielectric constant tensor:
#      x y z
#    x 1.794230 0.000000 0.000000 
#    y 0.000000 1.784200 0.000000 
#    z 0.000000 0.000000 1.773860 
# 
# From -- ./inp_files/27418.got.cif
#   From: 2010.03.12/outbox.cif.g09.slc.cpg/sg57_14_cif.got.tgz:27418.got - 2010.04.16 15:48:40.
