data_PCOD8232673
_publ_section_title
;
Structure prediction by ZEFSAII (Michael W. Deem and Ramdas Pophale) SiO2 
 PCOD8232673
Probable space group: P B C M
;
_chemical_formula_sum "Si O2"
_cell_formula_units_Z 48
_cell_length_a 30.217274
_cell_length_b 9.548102
_cell_length_c 8.712012
_cell_angle_alpha 90.000000
_cell_angle_beta 90.000000
_cell_angle_gamma 90.000000
_cell_volume 2513.568918
_symmetry_space_group_name_H-M "P B C M"
_symmetry_group_IT_number 57
_symmetry_cell_setting 'orthorhombic'
loop_
_space_group_symop_operation_xyz
x,y,z
-x,-y,1/2+z
x,1/2-y,-z
-x,1/2+y,1/2-z
-x,-y,-z
x,y,1/2-z
-x,1/2+y,z
x,1/2-y,1/2+z
loop_
_atom_site_type_symbol
_atom_site_label
_atom_site_fract_x
_atom_site_fract_y
_atom_site_fract_z
Si Si1 0.788004 0.104979 0.570218
Si Si2 0.889281 0.100729 0.567787
Si Si3 0.365000 0.898791 0.430506
Si Si4 0.961035 0.905617 0.066617
Si Si5 0.712199 0.902407 0.931638
Si Si6 0.535594 0.101492 0.569423
O O1 0.771228 0.250000 0.500000
O O2 0.783520 0.121773 0.750000
O O3 0.838394 0.072778 0.522776
O O4 0.756484 0.980991 0.509955
O O5 0.905215 0.250000 0.500000
O O6 0.897524 0.100413 0.750000
O O7 0.915222 0.974546 0.487516
O O8 0.351939 0.750000 0.500000
O O9 0.360758 0.882175 0.250000
O O10 0.414671 0.944773 0.478102
O O11 0.331007 0.015178 0.492550
O O12 0.963775 0.899994 0.250000
O O13 0.964850 0.750000 0.000000
O O14 0.000000 0.000000 0.000000
O O15 0.711619 0.891226 0.750000
O O16 0.711787 0.750000 0.000000
O O17 0.524293 0.250000 0.500000
O O18 0.530133 0.107466 0.750000
O O19 0.500000 0.000000 0.500000
#
# Coordination Sequence:
#
# PCOD8232673 Si02
#       6
#     8   8   8   8   8   8
#     4   9  19  35  57  82 110 143 182 222 265 318
#     4  10  20  37  59  86 116 148 185 227 272 324
#     4   9  19  35  55  77 103 135 177 220 264 318
#     4  12  25  42  62  86 115 150 188 230 277 327
#     4  10  21  36  52  77 109 141 177 221 268 318
#     4  10  20  35  54  78 106 139 176 220 269 323
#
# _framework density 19.096354000000002
#
# number of rings (size 3 to 8) (size 9 to 14) (size 15 to 20)
#    0.000    2.000    0.000    3.500    0.000    4.000 
#    0.000    3.333    0.000    0.000    0.000    0.000 
#    0.000    0.000    0.000    0.000    0.000    0.000 
#
# Total GULP energy -595262.151732 kJ/mol
# GULP energy per Si atom -12401.294828 kJ/mol
# Density = 1.905289 g / cm^3
# Si number density = 19.096354 Si / 1000 Ang^3
#
#
#
# Elastic Constant Matrix: (Units=GPa)
#
#
# Indices 1 2 3 4 5 6 
#
# 1 137.6510 107.7945 46.6474 0.0000 0.0000 0.0000
# 2 107.7945 181.2726 58.7821 0.0000 0.0000 0.0000
# 3 46.6474 58.7821 73.9147 0.0000 0.0000 0.0000
# 4 0.0000 0.0000 0.0000 39.9718 0.0000 0.0000
# 5 0.0000 0.0000 0.0000 0.0000 26.1481 0.0000
# 6 0.0000 0.0000 0.0000 0.0000 0.0000 43.7698
#
#
#
# Elastic Compliance Matrix: (Units=1/GPa)
#
#
# Indices 1 2 3 4 5 6 
#
# 1 0.014073 -0.007396 -0.003000 0.000000 0.000000 0.000000
# 2 -0.007396 0.011320 -0.004335 0.000000 0.000000 0.000000
# 3 -0.003000 -0.004335 0.018870 0.000000 0.000000 0.000000
# 4 0.000000 0.000000 0.000000 0.025018 0.000000 0.000000
# 5 0.000000 0.000000 0.000000 0.000000 0.038244 0.000000
# 6 0.000000 0.000000 0.000000 0.000000 0.000000 0.022847
#
#
# Mechanical properties :
#
#
# Convention : Reuss Voigt Hill
#
# Bulk Modulus (GPa) = 67.56018 91.03182 79.29600
# Shear Modulus (GPa) = 30.34594 33.95223 32.14908
#
# Velocity S-wave (km/s) = 3.99067 4.22114 4.10752
# Velocity P-wave (km/s) = 7.52923 8.45758 8.00687
#
# Compressibility (1/GPa) = 0.01480162
#
# Stress axis : x y z
#
# Youngs Moduli (GPa) = 71.05821 88.33695 52.99446
#
# Poissons Ratio (x) = 0.65332 0.15897
# Poissons Ratio (y) = 0.52553 0.22974
# Poissons Ratio (z) = 0.21316 0.38296
#
# Static dielectric constant tensor:
#      x y z
#    x 3.894330 0.000000 0.000000 
#    y 0.000000 3.319920 0.000000 
#    z 0.000000 0.000000 3.347370 
# 
# 
# High freq. dielectric constant tensor:
#      x y z
#    x 1.758500 0.000000 0.000000 
#    y 0.000000 1.742890 0.000000 
#    z 0.000000 0.000000 1.745120 
# 
# From -- ./inp_files/9941.got.cif
#   From: 2010.03.12/outbox.cif.g09.slc.cpg/sg57_5_cif.got.tgz:9941.got - 2010.04.16 15:48:40.
