data_PCOD8232828
_publ_section_title
;
Structure prediction by ZEFSAII (Michael W. Deem and Ramdas Pophale) SiO2 
 PCOD8232828
Probable space group: P B C M
;
_chemical_formula_sum "Si O2"
_cell_formula_units_Z 48
_cell_length_a 30.694499
_cell_length_b 9.600262
_cell_length_c 8.723725
_cell_angle_alpha 90.000000
_cell_angle_beta 90.000000
_cell_angle_gamma 90.000000
_cell_volume 2570.665691
_symmetry_space_group_name_H-M "P B C M"
_symmetry_group_IT_number 57
_symmetry_cell_setting 'orthorhombic'
loop_
_space_group_symop_operation_xyz
x,y,z
-x,-y,1/2+z
x,1/2-y,-z
-x,1/2+y,1/2-z
-x,-y,-z
x,y,1/2-z
-x,1/2+y,z
x,1/2-y,1/2+z
loop_
_atom_site_type_symbol
_atom_site_label
_atom_site_fract_x
_atom_site_fract_y
_atom_site_fract_z
Si Si1 0.632441 0.896795 0.069876
Si Si2 0.876581 0.600687 0.072898
Si Si3 0.534323 0.603418 0.569241
Si Si4 0.291791 0.902774 0.568745
Si Si5 0.219964 0.097072 0.071967
Si Si6 0.962690 0.595080 0.568363
O O1 0.635385 0.877991 0.250000
O O2 0.583458 0.937640 0.018790
O O3 0.664622 0.017856 0.012299
O O4 0.647368 0.750000 0.000000
O O5 0.890203 0.612532 0.250000
O O6 0.828901 0.531963 0.053581
O O7 0.870993 0.750000 0.000000
O O8 0.916187 0.525607 0.981994
O O9 0.521448 0.750000 0.500000
O O10 0.500000 0.500000 0.500000
O O11 0.529641 0.607724 0.750000
O O12 0.291987 0.750000 0.500000
O O13 0.290015 0.890890 0.750000
O O14 0.250191 0.987392 0.512503
O O15 0.232598 0.109195 0.250000
O O16 0.225241 0.250000 0.000000
O O17 0.966489 0.750000 0.500000
O O18 0.966671 0.600301 0.750000
O O19 0.000000 0.500000 0.500000
#
# Coordination Sequence:
#
# PCOD8232828 Si02
#       6
#     8   8   8   8   8   8
#     4   9  20  37  57  80 106 139 180 223 265 315
#     4   9  17  31  52  78 106 137 176 219 263 312
#     4  10  20  36  56  81 111 143 180 221 268 318
#     4  11  23  38  55  78 109 143 178 219 269 321
#     4  10  20  35  57  83 109 139 177 220 264 315
#     4  11  21  35  55  80 110 143 180 222 268 317
#
# _framework density 18.672205999999999
#
# number of rings (size 3 to 8) (size 9 to 14) (size 15 to 20)
#    0.000    2.000    0.000    5.000    0.000    6.000 
#    0.000    2.500    0.000    4.000    0.000    0.000 
#    0.000    0.000    0.000    0.000    0.000    0.000 
#
# Total GULP energy -595028.331481 kJ/mol
# GULP energy per Si atom -12396.423573 kJ/mol
# Density = 1.862971 g / cm^3
# Si number density = 18.672206 Si / 1000 Ang^3
#
#
#
# Elastic Constant Matrix: (Units=GPa)
#
#
# Indices 1 2 3 4 5 6 
#
# 1 152.3901 90.2758 61.3269 0.0000 0.0000 0.0000
# 2 90.2758 118.4811 51.7758 0.0000 0.0000 0.0000
# 3 61.3269 51.7758 111.7053 0.0000 0.0000 0.0000
# 4 0.0000 0.0000 0.0000 33.0316 0.0000 0.0000
# 5 0.0000 0.0000 0.0000 0.0000 30.5145 0.0000
# 6 0.0000 0.0000 0.0000 0.0000 0.0000 39.0926
#
#
#
# Elastic Compliance Matrix: (Units=1/GPa)
#
#
# Indices 1 2 3 4 5 6 
#
# 1 0.012782 -0.008368 -0.003139 0.000000 0.000000 0.000000
# 2 -0.008368 0.016062 -0.002851 0.000000 0.000000 0.000000
# 3 -0.003139 -0.002851 0.011997 0.000000 0.000000 0.000000
# 4 0.000000 0.000000 0.000000 0.030274 0.000000 0.000000
# 5 0.000000 0.000000 0.000000 0.000000 0.032771 0.000000
# 6 0.000000 0.000000 0.000000 0.000000 0.000000 0.025580
#
#
# Mechanical properties :
#
#
# Convention : Reuss Voigt Hill
#
# Bulk Modulus (GPa) = 82.46898 87.70374 85.08636
# Shear Modulus (GPa) = 30.82166 32.47426 31.64796
#
# Velocity S-wave (km/s) = 4.06725 4.17487 4.12141
# Velocity P-wave (km/s) = 8.14367 8.38520 8.26531
#
# Compressibility (1/GPa) = 0.01212577
#
# Stress axis : x y z
#
# Youngs Moduli (GPa) = 78.23244 62.26031 83.35506
#
# Poissons Ratio (x) = 0.52097 0.26167
# Poissons Ratio (y) = 0.65462 0.23762
# Poissons Ratio (z) = 0.24559 0.17749
#
# Static dielectric constant tensor:
#      x y z
#    x 4.166070 0.000000 0.000000 
#    y 0.000000 3.142110 0.000000 
#    z 0.000000 0.000000 3.555600 
# 
# 
# High freq. dielectric constant tensor:
#      x y z
#    x 1.747340 0.000000 0.000000 
#    y 0.000000 1.696760 0.000000 
#    z 0.000000 0.000000 1.741320 
# 
# From -- ./inp_files/10080.got.cif
#   From: 2010.03.12/outbox.cif.g09.slc.cpg/sg57_6_cif.got.tgz:10080.got - 2010.04.16 15:48:40.
