data_PCOD8232022
_publ_section_title
;
Structure prediction by ZEFSAII (Michael W. Deem and Ramdas Pophale) SiO2 
 PCOD8232022
Probable space group: P B C M
;
_chemical_formula_sum "Si O2"
_cell_formula_units_Z 56
_cell_length_a 5.353945
_cell_length_b 29.462650
_cell_length_c 14.843822
_cell_angle_alpha 90.000000
_cell_angle_beta 90.000000
_cell_angle_gamma 90.000000
_cell_volume 2341.485377
_symmetry_space_group_name_H-M "P B C M"
_symmetry_group_IT_number 57
_symmetry_cell_setting 'orthorhombic'
loop_
_space_group_symop_operation_xyz
x,y,z
-x,-y,1/2+z
x,1/2-y,-z
-x,1/2+y,1/2-z
-x,-y,-z
x,y,1/2-z
-x,1/2+y,z
x,1/2-y,1/2+z
loop_
_atom_site_type_symbol
_atom_site_label
_atom_site_fract_x
_atom_site_fract_y
_atom_site_fract_z
Si Si1 0.683250 0.053794 0.848610
Si Si2 0.435579 0.361190 0.646866
Si Si3 0.772384 0.226870 0.903105
Si Si4 0.729631 0.764265 0.604754
Si Si5 0.881408 0.568192 0.439696
Si Si6 0.768401 0.129884 0.977001
Si Si7 0.203676 0.008504 0.902136
O O1 0.683157 0.076446 0.750000
O O2 0.610812 0.091800 0.922769
O O3 0.460243 0.016316 0.848506
O O4 0.957788 0.032714 0.861533
O O5 0.532615 0.358063 0.750000
O O6 0.259987 0.318171 0.622532
O O7 0.289079 0.409206 0.636987
O O8 0.660024 0.358848 0.575517
O O9 0.520892 0.242584 0.850660
O O10 0.783817 0.172996 0.912957
O O11 0.019940 0.243523 0.849795
O O12 0.767833 0.250000 0.000000
O O13 0.733241 0.750000 0.500000
O O14 0.748675 0.527114 0.495201
O O15 0.954782 0.609522 0.507065
O O16 0.139459 0.545593 0.400654
#
# Coordination Sequence:
#
# PCOD8232022 Si02
#       7
#     8   8   8   8   8   8   8
#     4  11  24  43  68  98 132 178 228 283 340 398
#     4  12  25  41  64  99 139 181 226 280 343 405
#     4  10  19  36  68  87 118 167 208 259 328 387
#     4  10  20  39  62  88 120 166 213 261 319 392
#     4  10  23  41  66  96 132 179 226 276 345 406
#     4  11  23  42  68  99 136 176 221 286 337 411
#     4  10  23  42  70  95 133 175 228 279 341 407
#
# _framework density 23.916445
#
# number of rings (size 3 to 8) (size 9 to 14) (size 15 to 20)
#    0.000    1.429    4.286    2.143    2.000    3.429 
#    0.000    1.429    0.000    0.000    0.000    0.000 
#    0.000    0.000    0.000    0.000    0.000    0.000 
#
# Total GULP energy -693876.640721 kJ/mol
# GULP energy per Si atom -12390.654299 kJ/mol
# Density = 2.386201 g / cm^3
# Si number density = 23.916445 Si / 1000 Ang^3
#
#
#
# Elastic Constant Matrix: (Units=GPa)
#
#
# Indices 1 2 3 4 5 6 
#
# 1 137.7776 21.0091 6.8564 0.0000 0.0000 0.0000
# 2 21.0091 104.4929 4.5965 0.0000 0.0000 0.0000
# 3 6.8564 4.5965 99.5816 0.0000 0.0000 0.0000
# 4 0.0000 0.0000 0.0000 11.0479 0.0000 0.0000
# 5 0.0000 0.0000 0.0000 0.0000 8.4716 0.0000
# 6 0.0000 0.0000 0.0000 0.0000 0.0000 38.0551
#
#
#
# Elastic Compliance Matrix: (Units=1/GPa)
#
#
# Indices 1 2 3 4 5 6 
#
# 1 0.007508 -0.001490 -0.000448 0.000000 0.000000 0.000000
# 2 -0.001490 0.009885 -0.000354 0.000000 0.000000 0.000000
# 3 -0.000448 -0.000354 0.010089 0.000000 0.000000 0.000000
# 4 0.000000 0.000000 0.000000 0.090515 0.000000 0.000000
# 5 0.000000 0.000000 0.000000 0.000000 0.118041 0.000000
# 6 0.000000 0.000000 0.000000 0.000000 0.000000 0.026278
#
#
# Mechanical properties :
#
#
# Convention : Reuss Voigt Hill
#
# Bulk Modulus (GPa) = 43.67065 45.19733 44.43399
# Shear Modulus (GPa) = 18.21280 32.14092 25.17686
#
# Velocity S-wave (km/s) = 2.76255 3.66988 3.24805
# Velocity P-wave (km/s) = 5.33619 6.07424 5.71714
#
# Compressibility (1/GPa) = 0.02289868
#
# Stress axis : x y z
#
# Youngs Moduli (GPa) = 133.19942 101.16223 99.11587
#
# Poissons Ratio (x) = 0.15071 0.04442
# Poissons Ratio (y) = 0.19843 0.03506
# Poissons Ratio (z) = 0.05969 0.03578
#
# Static dielectric constant tensor:
#      x y z
#    x 6.132730 0.000000 0.000000 
#    y 0.000000 4.666100 0.000000 
#    z 0.000000 0.000000 3.855050 
# 
# 
# High freq. dielectric constant tensor:
#      x y z
#    x 1.954810 0.000000 0.000000 
#    y 0.000000 1.954220 0.000000 
#    z 0.000000 0.000000 1.907280 
# 
# From -- ./inp_files/15242.got.cif
#   From: 2010.03.12/outbox.cif.g09.slc.cpg/sg57_8_cif.got.tgz:15242.got - 2010.04.16 15:48:40.
