data_PCOD8232466
_publ_section_title
;
Structure prediction by ZEFSAII (Michael W. Deem and Ramdas Pophale) SiO2 
 PCOD8232466
Probable space group: P B C M
;
_chemical_formula_sum "Si O2"
_cell_formula_units_Z 64
_cell_length_a 17.357517
_cell_length_b 8.755403
_cell_length_c 20.658752
_cell_angle_alpha 90.000000
_cell_angle_beta 90.000000
_cell_angle_gamma 90.000000
_cell_volume 3139.553024
_symmetry_space_group_name_H-M "P B C M"
_symmetry_group_IT_number 57
_symmetry_cell_setting 'orthorhombic'
loop_
_space_group_symop_operation_xyz
x,y,z
-x,-y,1/2+z
x,1/2-y,-z
-x,1/2+y,1/2-z
-x,-y,-z
x,y,1/2-z
-x,1/2+y,z
x,1/2-y,1/2+z
loop_
_atom_site_type_symbol
_atom_site_label
_atom_site_fract_x
_atom_site_fract_y
_atom_site_fract_z
Si Si1 0.399591 0.305057 0.372730
Si Si2 0.636117 0.312433 0.099757
Si Si3 0.086344 0.322231 0.672425
Si Si4 0.934275 0.160367 0.673850
Si Si5 0.588305 0.021203 0.480461
Si Si6 0.526705 0.990886 0.675931
Si Si7 0.775748 0.311619 0.826376
Si Si8 0.763695 0.843542 0.174378
O O1 0.387018 0.361134 0.446793
O O2 0.439708 0.449379 0.335962
O O3 0.452737 0.154730 0.368890
O O4 0.317186 0.263415 0.341969
O O5 0.599547 0.160082 0.069813
O O6 0.581416 0.367003 0.158103
O O7 0.720386 0.293013 0.130199
O O8 0.639357 0.444618 0.044318
O O9 0.086997 0.322923 0.750000
O O10 0.080820 0.493281 0.644484
O O11 0.164671 0.248616 0.643688
O O12 0.013036 0.229263 0.645008
O O13 0.944251 0.145892 0.750000
O O14 0.863271 0.269974 0.656705
O O15 0.500000 0.000000 0.500000
O O16 0.537878 0.941752 0.750000
O O17 0.758182 0.288609 0.750000
O O18 0.762507 0.483425 0.850814
O O19 0.777183 0.844770 0.250000
#
# Coordination Sequence:
#
# PCOD8232466 Si02
#       8
#     8   8   8   8   8   8   8   8
#     4  12  25  42  60  87 118 159 206 257 313 367
#     4  11  24  41  63  87 116 155 210 258 309 364
#     4   9  17  30  50  80 119 163 202 240 291 368
#     4   9  17  30  52  81 120 162 200 239 296 373
#     4  11  24  43  65  84 111 159 215 266 303 356
#     4  12  26  41  61  88 121 157 199 246 315 385
#     4  10  20  35  57  87 123 158 195 248 317 383
#     4  10  20  34  53  81 122 158 196 248 309 372
#
# _framework density 20.385065999999998
#
# number of rings (size 3 to 8) (size 9 to 14) (size 15 to 20)
#    0.000    1.500    2.500    3.000    3.500    3.500 
#    0.000    0.000    0.000    0.000    0.000    0.875 
#    0.000    0.000    0.000    0.000    0.000    0.000 
#
# Total GULP energy -793450.280371 kJ/mol
# GULP energy per Si atom -12397.660631 kJ/mol
# Density = 2.033867 g / cm^3
# Si number density = 20.385066 Si / 1000 Ang^3
#
#
#
# Elastic Constant Matrix: (Units=GPa)
#
#
# Indices 1 2 3 4 5 6 
#
# 1 137.8861 46.0505 17.2908 0.0000 0.0000 0.0000
# 2 46.0505 72.7128 18.9355 0.0000 0.0000 0.0000
# 3 17.2908 18.9355 40.3688 0.0000 0.0000 0.0000
# 4 0.0000 0.0000 0.0000 28.9448 0.0000 0.0000
# 5 0.0000 0.0000 0.0000 0.0000 13.1812 0.0000
# 6 0.0000 0.0000 0.0000 0.0000 0.0000 33.5304
#
#
#
# Elastic Compliance Matrix: (Units=1/GPa)
#
#
# Indices 1 2 3 4 5 6 
#
# 1 0.009265 -0.005507 -0.001385 0.000000 0.000000 0.000000
# 2 -0.005507 0.018940 -0.006525 0.000000 0.000000 0.000000
# 3 -0.001385 -0.006525 0.028426 0.000000 0.000000 0.000000
# 4 0.000000 0.000000 0.000000 0.034548 0.000000 0.000000
# 5 0.000000 0.000000 0.000000 0.000000 0.075865 0.000000
# 6 0.000000 0.000000 0.000000 0.000000 0.000000 0.029824
#
#
# Mechanical properties :
#
#
# Convention : Reuss Voigt Hill
#
# Bulk Modulus (GPa) = 33.56207 46.16906 39.86556
# Shear Modulus (GPa) = 21.40086 26.37735 23.88911
#
# Velocity S-wave (km/s) = 3.24362 3.60106 3.42701
# Velocity P-wave (km/s) = 5.52521 6.32359 5.93783
#
# Compressibility (1/GPa) = 0.02979554
#
# Stress axis : x y z
#
# Youngs Moduli (GPa) = 107.92914 52.79897 35.17947
#
# Poissons Ratio (x) = 0.29077 0.04874
# Poissons Ratio (y) = 0.59438 0.22955
# Poissons Ratio (z) = 0.14952 0.34452
#
# Static dielectric constant tensor:
#      x y z
#    x 3.696000 0.000000 0.000000 
#    y 0.000000 3.989080 0.000000 
#    z 0.000000 0.000000 3.580590 
# 
# 
# High freq. dielectric constant tensor:
#      x y z
#    x 1.793930 0.000000 0.000000 
#    y 0.000000 1.811780 0.000000 
#    z 0.000000 0.000000 1.749000 
# 
# From -- ./inp_files/25644.got.cif
#   From: 2010.03.12/outbox.cif.g09.slc.cpg/sg57_13_cif.got.tgz:25644.got - 2010.04.16 15:48:40.
