data_PCOD8232901
_publ_section_title
;
Structure prediction by ZEFSAII (Michael W. Deem and Ramdas Pophale) SiO2 
 PCOD8232901
Probable space group: P B C M
;
_chemical_formula_sum "Si O2"
_cell_formula_units_Z 64
_cell_length_a 11.876012
_cell_length_b 16.995424
_cell_length_c 16.581855
_cell_angle_alpha 90.000000
_cell_angle_beta 90.000000
_cell_angle_gamma 90.000000
_cell_volume 3346.846118
_symmetry_space_group_name_H-M "P B C M"
_symmetry_group_IT_number 57
_symmetry_cell_setting 'orthorhombic'
loop_
_space_group_symop_operation_xyz
x,y,z
-x,-y,1/2+z
x,1/2-y,-z
-x,1/2+y,1/2-z
-x,-y,-z
x,y,1/2-z
-x,1/2+y,z
x,1/2-y,1/2+z
loop_
_atom_site_type_symbol
_atom_site_label
_atom_site_fract_x
_atom_site_fract_y
_atom_site_fract_z
Si Si1 0.875741 0.026965 0.988727
Si Si2 0.174565 0.444842 0.660349
Si Si3 0.318071 0.062877 0.929284
Si Si4 0.620794 0.404448 0.845411
Si Si5 0.966506 0.707681 0.156926
Si Si6 0.812869 0.313463 0.937310
Si Si7 0.737496 0.783129 0.155968
Si Si8 0.382414 0.362242 0.905574
O O1 0.842247 0.020495 0.895137
O O2 0.802105 0.967062 0.041178
O O3 0.860342 0.116445 0.009804
O O4 0.000000 0.000000 0.000000
O O5 0.154975 0.474819 0.750000
O O6 0.083763 0.378202 0.636139
O O7 0.301012 0.413133 0.651272
O O8 0.297453 0.127413 0.860285
O O9 0.383093 0.989234 0.889757
O O10 0.386218 0.102359 0.003638
O O11 0.636244 0.416552 0.750000
O O12 0.719473 0.346463 0.876023
O O13 0.505142 0.361728 0.866596
O O14 0.999063 0.712505 0.250000
O O15 0.870035 0.771554 0.135076
O O16 0.080814 0.725000 0.108551
O O17 0.760799 0.250000 0.000000
O O18 0.716244 0.761928 0.250000
O O19 0.662831 0.727364 0.097744
#
# Coordination Sequence:
#
# PCOD8232901 Si02
#       8
#     8   8   8   8   8   8   8   8
#     4  10  20  36  54  84 113 148 189 232 293 354
#     4   9  17  33  57  83 110 143 185 236 293 349
#     4  10  22  36  60  90 119 150 198 248 292 349
#     4  11  23  42  61  82 118 161 200 243 297 356
#     4   9  18  33  54  80 112 146 187 234 289 346
#     4  11  24  37  56  78 113 157 197 236 284 356
#     4  10  20  35  58  93 120 148 193 247 302 346
#     4  10  20  37  61  87 117 152 194 242 303 352
#
# _framework density 19.122481000000001
#
# number of rings (size 3 to 8) (size 9 to 14) (size 15 to 20)
#    0.000    2.000    1.250    3.375    1.750    1.000 
#    0.000    1.875    0.000    0.000    0.000    0.000 
#    0.000    0.000    0.000    0.000    0.000    0.000 
#
# Total GULP energy -793495.650520 kJ/mol
# GULP energy per Si atom -12398.369539 kJ/mol
# Density = 1.907896 g / cm^3
# Si number density = 19.122481 Si / 1000 Ang^3
#
#
#
# Elastic Constant Matrix: (Units=GPa)
#
#
# Indices 1 2 3 4 5 6 
#
# 1 97.9210 31.2724 31.8210 0.0000 0.0000 0.0000
# 2 31.2724 80.6147 40.9984 0.0000 0.0000 0.0000
# 3 31.8210 40.9984 97.9803 0.0000 0.0000 0.0000
# 4 0.0000 0.0000 0.0000 31.1829 0.0000 0.0000
# 5 0.0000 0.0000 0.0000 0.0000 24.8855 0.0000
# 6 0.0000 0.0000 0.0000 0.0000 0.0000 13.1642
#
#
#
# Elastic Compliance Matrix: (Units=1/GPa)
#
#
# Indices 1 2 3 4 5 6 
#
# 1 0.012120 -0.003430 -0.002501 0.000000 0.000000 0.000000
# 2 -0.003430 0.016729 -0.005886 0.000000 0.000000 0.000000
# 3 -0.002501 -0.005886 0.013481 0.000000 0.000000 0.000000
# 4 0.000000 0.000000 0.000000 0.032069 0.000000 0.000000
# 5 0.000000 0.000000 0.000000 0.000000 0.040184 0.000000
# 6 0.000000 0.000000 0.000000 0.000000 0.000000 0.075964
#
#
# Mechanical properties :
#
#
# Convention : Reuss Voigt Hill
#
# Bulk Modulus (GPa) = 53.48587 53.85552 53.67069
# Shear Modulus (GPa) = 22.68467 25.34147 24.01307
#
# Velocity S-wave (km/s) = 3.44798 3.64430 3.54750
# Velocity P-wave (km/s) = 6.62437 6.77735 6.70130
#
# Compressibility (1/GPa) = 0.01869653
#
# Stress axis : x y z
#
# Youngs Moduli (GPa) = 82.50507 59.77783 74.17658
#
# Poissons Ratio (x) = 0.20502 0.18553
# Poissons Ratio (y) = 0.28297 0.43660
# Poissons Ratio (z) = 0.20636 0.35185
#
# Static dielectric constant tensor:
#      x y z
#    x 3.436790 0.000000 0.000000 
#    y 0.000000 3.295620 0.000000 
#    z 0.000000 0.000000 3.374550 
# 
# 
# High freq. dielectric constant tensor:
#      x y z
#    x 1.738630 0.000000 0.000000 
#    y 0.000000 1.731350 0.000000 
#    z 0.000000 0.000000 1.751800 
# 
# From -- ./inp_files/18000.got.cif
#   From: 2010.03.12/outbox.cif.g09.slc.cpg/sg57_9_cif.got.tgz:18000.got - 2010.04.16 15:48:40.
