data_PCOD8232728
_publ_section_title
;
Structure prediction by ZEFSAII (Michael W. Deem and Ramdas Pophale) SiO2 
 PCOD8232728
Probable space group: P B C M
;
_chemical_formula_sum "Si O2"
_cell_formula_units_Z 40
_cell_length_a 8.929715
_cell_length_b 8.539591
_cell_length_c 25.819953
_cell_angle_alpha 90.000000
_cell_angle_beta 90.000000
_cell_angle_gamma 90.000000
_cell_volume 1968.929275
_symmetry_space_group_name_H-M "P B C M"
_symmetry_group_IT_number 57
_symmetry_cell_setting 'orthorhombic'
loop_
_space_group_symop_operation_xyz
x,y,z
-x,-y,1/2+z
x,1/2-y,-z
-x,1/2+y,1/2-z
-x,-y,-z
x,y,1/2-z
-x,1/2+y,z
x,1/2-y,1/2+z
loop_
_atom_site_type_symbol
_atom_site_label
_atom_site_fract_x
_atom_site_fract_y
_atom_site_fract_z
Si Si1 0.884392 0.333515 0.250000
Si Si2 0.300310 0.713394 0.847864
Si Si3 0.882221 0.168773 0.946701
Si Si4 0.615288 0.644920 0.347877
Si Si5 0.198776 0.193150 0.054024
Si Si6 0.798974 0.693463 0.250000
O O1 0.812148 0.253321 0.300549
O O2 0.859669 0.517968 0.250000
O O3 0.061849 0.310525 0.250000
O O4 0.215057 0.745697 0.901297
O O5 0.361758 0.538910 0.844987
O O6 0.438542 0.830975 0.844129
O O7 0.056361 0.197179 0.934228
O O8 0.857734 0.984095 0.950469
O O9 0.832459 0.250000 0.000000
O O10 0.679060 0.716050 0.401268
O O11 0.698958 0.729058 0.300368
O O12 0.273148 0.250000 0.000000
#
# Coordination Sequence:
#
# PCOD8232728 Si02
#       6
#     4   8   8   8   8   4
#     4  10  21  38  58  82 108 138 177 220 264 316
#     4  10  22  37  55  80 110 141 177 218 265 317
#     4  10  20  35  55  80 107 140 180 221 263 313
#     4  10  22  37  55  80 110 141 177 218 265 317
#     4  10  20  35  55  80 107 140 180 221 263 313
#     4  10  21  38  58  82 108 138 177 220 264 316
#
# _framework density 20.315608999999998
#
# number of rings (size 3 to 8) (size 9 to 14) (size 15 to 20)
#    0.000    2.000    0.000    4.200    0.000    5.600 
#    0.000    4.000    0.000    0.000    0.000    0.000 
#    0.000    0.000    0.000    0.000    0.000    0.000 
#
# Total GULP energy -496176.040897 kJ/mol
# GULP energy per Si atom -12404.401022 kJ/mol
# Density = 2.026937 g / cm^3
# Si number density = 20.315609 Si / 1000 Ang^3
#
#
#
# Elastic Constant Matrix: (Units=GPa)
#
#
# Indices 1 2 3 4 5 6 
#
# 1 58.9605 -4.3405 33.6698 0.0000 0.0000 0.0000
# 2 -4.3405 23.1553 16.5593 0.0000 0.0000 0.0000
# 3 33.6698 16.5593 130.5898 0.0000 0.0000 0.0000
# 4 0.0000 0.0000 0.0000 28.6505 0.0000 0.0000
# 5 0.0000 0.0000 0.0000 0.0000 31.4525 0.0000
# 6 0.0000 0.0000 0.0000 0.0000 0.0000 31.0095
#
#
#
# Elastic Compliance Matrix: (Units=1/GPa)
#
#
# Indices 1 2 3 4 5 6 
#
# 1 0.021386 0.008745 -0.006623 0.000000 0.000000 0.000000
# 2 0.008745 0.051070 -0.008731 0.000000 0.000000 0.000000
# 3 -0.006623 -0.008731 0.010472 0.000000 0.000000 0.000000
# 4 0.000000 0.000000 0.000000 0.034903 0.000000 0.000000
# 5 0.000000 0.000000 0.000000 0.000000 0.031794 0.000000
# 6 0.000000 0.000000 0.000000 0.000000 0.000000 0.032248
#
#
# Mechanical properties :
#
#
# Convention : Reuss Voigt Hill
#
# Bulk Modulus (GPa) = 14.34481 33.83144 24.08813
# Shear Modulus (GPa) = 22.90136 29.34363 26.12250
#
# Velocity S-wave (km/s) = 3.36114 3.80463 3.58974
# Velocity P-wave (km/s) = 4.70524 5.99912 5.39114
#
# Compressibility (1/GPa) = 0.06971160
#
# Stress axis : x y z
#
# Youngs Moduli (GPa) = 46.75868 19.58111 95.49061
#
# Poissons Ratio (x) = -0.17124 0.63243
# Poissons Ratio (y) = -0.40892 0.83369
# Poissons Ratio (z) = 0.30968 0.17096
#
# Static dielectric constant tensor:
#      x y z
#    x 3.587080 0.000000 0.000000 
#    y 0.000000 3.479970 0.000000 
#    z 0.000000 0.000000 4.095950 
# 
# 
# High freq. dielectric constant tensor:
#      x y z
#    x 1.788910 0.000000 0.000000 
#    y 0.000000 1.785870 0.000000 
#    z 0.000000 0.000000 1.813750 
# 
# From -- ./inp_files/26539.got.cif
#   From: 2010.03.12/outbox.cif.g09.slc.cpg/sg57_14_cif.got.tgz:26539.got - 2010.04.16 15:48:40.
