data_PCOD8232963
_publ_section_title
;
Structure prediction by ZEFSAII (Michael W. Deem and Ramdas Pophale) SiO2 
 PCOD8232963
Probable space group: P B C M
;
_chemical_formula_sum "Si O2"
_cell_formula_units_Z 48
_cell_length_a 30.731727
_cell_length_b 9.388616
_cell_length_c 8.669920
_cell_angle_alpha 90.000000
_cell_angle_beta 90.000000
_cell_angle_gamma 90.000000
_cell_volume 2501.518005
_symmetry_space_group_name_H-M "P B C M"
_symmetry_group_IT_number 57
_symmetry_cell_setting 'orthorhombic'
loop_
_space_group_symop_operation_xyz
x,y,z
-x,-y,1/2+z
x,1/2-y,-z
-x,1/2+y,1/2-z
-x,-y,-z
x,y,1/2-z
-x,1/2+y,z
x,1/2-y,1/2+z
loop_
_atom_site_type_symbol
_atom_site_label
_atom_site_fract_x
_atom_site_fract_y
_atom_site_fract_z
Si Si1 0.633318 0.097703 0.068997
Si Si2 0.802668 0.594371 0.066852
Si Si3 0.711084 0.597412 0.933725
Si Si4 0.877454 0.405761 0.568532
Si Si5 0.463135 0.596634 0.068847
Si Si6 0.038467 0.407542 0.430383
O O1 0.636815 0.112044 0.250000
O O2 0.585197 0.040200 0.022740
O O3 0.670936 0.996015 0.005742
O O4 0.642481 0.250000 0.000000
O O5 0.802438 0.606443 0.250000
O O6 0.814797 0.750000 0.000000
O O7 0.755985 0.540854 0.006021
O O8 0.835964 0.474262 0.013184
O O9 0.715507 0.601007 0.750000
O O10 0.700297 0.750000 0.000000
O O11 0.887013 0.250000 0.500000
O O12 0.869050 0.392204 0.750000
O O13 0.917422 0.509426 0.531087
O O14 0.468856 0.604136 0.250000
O O15 0.470647 0.750000 0.000000
O O16 0.500000 0.500000 0.000000
O O17 0.040320 0.250000 0.500000
O O18 0.030510 0.391660 0.250000
O O19 0.000000 0.500000 0.500000
#
# Coordination Sequence:
#
# PCOD8232963 Si02
#       6
#     8   8   8   8   8   8
#     4   9  20  36  55  78 107 141 180 223 272 329
#     4  11  22  38  60  85 114 150 189 234 283 335
#     4  10  20  36  56  81 111 144 184 230 276 331
#     4  11  24  41  61  88 119 154 194 238 284 337
#     4  10  20  36  55  79 108 142 182 226 275 329
#     4  11  24  41  64  91 122 157 196 239 287 339
#
# _framework density 19.188348000000001
#
# number of rings (size 3 to 8) (size 9 to 14) (size 15 to 20)
#    0.000    1.667    0.000    5.500    0.000    8.667 
#    0.000    3.333    0.000    0.000    0.000    0.000 
#    0.000    0.000    0.000    0.000    0.000    0.000 
#
# Total GULP energy -595217.974593 kJ/mol
# GULP energy per Si atom -12400.374471 kJ/mol
# Density = 1.914467 g / cm^3
# Si number density = 19.188348 Si / 1000 Ang^3
#
#
#
# Elastic Constant Matrix: (Units=GPa)
#
#
# Indices 1 2 3 4 5 6 
#
# 1 168.3780 102.7091 76.3231 0.0000 0.0000 0.0000
# 2 102.7091 129.3329 69.4232 0.0000 0.0000 0.0000
# 3 76.3231 69.4232 109.4614 0.0000 0.0000 0.0000
# 4 0.0000 0.0000 0.0000 38.0624 0.0000 0.0000
# 5 0.0000 0.0000 0.0000 0.0000 26.9520 0.0000
# 6 0.0000 0.0000 0.0000 0.0000 0.0000 41.5443
#
#
#
# Elastic Compliance Matrix: (Units=1/GPa)
#
#
# Indices 1 2 3 4 5 6 
#
# 1 0.012408 -0.007899 -0.003642 0.000000 0.000000 0.000000
# 2 -0.007899 0.016751 -0.005116 0.000000 0.000000 0.000000
# 3 -0.003642 -0.005116 0.014920 0.000000 0.000000 0.000000
# 4 0.000000 0.000000 0.000000 0.026273 0.000000 0.000000
# 5 0.000000 0.000000 0.000000 0.000000 0.037103 0.000000
# 6 0.000000 0.000000 0.000000 0.000000 0.000000 0.024071
#
#
# Mechanical properties :
#
#
# Convention : Reuss Voigt Hill
#
# Bulk Modulus (GPa) = 92.89648 100.45370 96.67509
# Shear Modulus (GPa) = 29.68609 31.89286 30.78947
#
# Velocity S-wave (km/s) = 3.93757 4.08130 4.01008
# Velocity P-wave (km/s) = 8.31809 8.64144 8.48131
#
# Compressibility (1/GPa) = 0.01076467
#
# Stress axis : x y z
#
# Youngs Moduli (GPa) = 80.59204 59.69681 67.02370
#
# Poissons Ratio (x) = 0.47154 0.24410
# Poissons Ratio (y) = 0.63659 0.34293
# Poissons Ratio (z) = 0.29352 0.30544
#
# Static dielectric constant tensor:
#      x y z
#    x 3.921790 0.000000 0.000000 
#    y 0.000000 3.481850 0.000000 
#    z 0.000000 0.000000 3.664030 
# 
# 
# High freq. dielectric constant tensor:
#      x y z
#    x 1.765200 0.000000 0.000000 
#    y 0.000000 1.747080 0.000000 
#    z 0.000000 0.000000 1.761520 
# 
# From -- ./inp_files/9897.got.cif
#   From: 2010.03.12/outbox.cif.g09.slc.cpg/sg57_5_cif.got.tgz:9897.got - 2010.04.16 15:48:40.
