data_PCOD8232336
_publ_section_title
;
Structure prediction by ZEFSAII (Michael W. Deem and Ramdas Pophale) SiO2 
 PCOD8232336
Probable space group: P B C M
;
_chemical_formula_sum "Si O2"
_cell_formula_units_Z 52
_cell_length_a 21.441229
_cell_length_b 5.168825
_cell_length_c 24.923283
_cell_angle_alpha 90.000000
_cell_angle_beta 90.000000
_cell_angle_gamma 90.000000
_cell_volume 2762.146777
_symmetry_space_group_name_H-M "P B C M"
_symmetry_group_IT_number 57
_symmetry_cell_setting 'orthorhombic'
loop_
_space_group_symop_operation_xyz
x,y,z
-x,-y,1/2+z
x,1/2-y,-z
-x,1/2+y,1/2-z
-x,-y,-z
x,y,1/2-z
-x,1/2+y,z
x,1/2-y,1/2+z
loop_
_atom_site_type_symbol
_atom_site_label
_atom_site_fract_x
_atom_site_fract_y
_atom_site_fract_z
Si Si1 0.754781 0.750000 0.000000
Si Si2 0.960301 0.589333 0.861008
Si Si3 0.890091 0.931167 0.250000
Si Si4 0.673488 0.381891 0.443126
Si Si5 0.191994 0.933020 0.250000
Si Si6 0.833376 0.655862 0.593029
Si Si7 0.469670 0.699389 0.561989
Si Si8 0.774393 0.175505 0.863336
O O1 0.707286 0.653473 0.046461
O O2 0.802638 0.927716 0.035248
O O3 0.932193 0.620611 0.801801
O O4 0.908283 0.645484 0.906858
O O5 0.985776 0.300587 0.869031
O O6 0.834888 0.721443 0.250000
O O7 0.863808 0.223664 0.250000
O O8 0.686718 0.250000 0.500000
O O9 0.600874 0.392572 0.429268
O O10 0.708382 0.258324 0.392164
O O11 0.236624 0.899826 0.301614
O O12 0.813164 0.442128 0.636851
O O13 0.812348 0.947838 0.606999
O O14 0.486109 0.750000 0.500000
O O15 0.513690 0.477083 0.588509
#
# Coordination Sequence:
#
# PCOD8232336 Si02
#       8
#     4   8   4   8   4   8   8   8
#     4  10  22  36  58  80 108 144 182 232 264 328
#     4  12  23  38  55  78 104 135 179 220 267 339
#     4  12  22  37  56  80 106 137 168 220 280 340
#     4  10  20  33  56  82 111 144 189 214 262 322
#     4  12  20  37  58  82 114 135 174 220 288 322
#     4  11  22  39  56  79 106 138 180 221 281 313
#     4   9  19  30  47  75 114 147 172 214 262 308
#     4  11  21  36  56  82 109 144 174 228 270 325
#
# _framework density 18.825935000000001
#
# number of rings (size 3 to 8) (size 9 to 14) (size 15 to 20)
#    0.000    1.231    4.615    2.308    5.385    0.000 
#    0.000    0.769    0.000    0.000    0.000    1.077 
#    0.000    0.000    0.000    0.000    0.000    0.000 
#
# Total GULP energy -644244.075526 kJ/mol
# GULP energy per Si atom -12389.309145 kJ/mol
# Density = 1.878309 g / cm^3
# Si number density = 18.825935 Si / 1000 Ang^3
#
#
#
# Elastic Constant Matrix: (Units=GPa)
#
#
# Indices 1 2 3 4 5 6 
#
# 1 115.6683 27.3711 43.7037 0.0000 0.0000 0.0000
# 2 27.3711 87.9545 4.6799 0.0000 0.0000 0.0000
# 3 43.7037 4.6799 56.3787 0.0000 0.0000 0.0000
# 4 0.0000 0.0000 0.0000 18.0900 0.0000 0.0000
# 5 0.0000 0.0000 0.0000 0.0000 16.5324 0.0000
# 6 0.0000 0.0000 0.0000 0.0000 0.0000 23.2678
#
#
#
# Elastic Compliance Matrix: (Units=1/GPa)
#
#
# Indices 1 2 3 4 5 6 
#
# 1 0.013271 -0.003598 -0.009989 0.000000 0.000000 0.000000
# 2 -0.003598 0.012396 0.001760 0.000000 0.000000 0.000000
# 3 -0.009989 0.001760 0.025334 0.000000 0.000000 0.000000
# 4 0.000000 0.000000 0.000000 0.055279 0.000000 0.000000
# 5 0.000000 0.000000 0.000000 0.000000 0.060487 0.000000
# 6 0.000000 0.000000 0.000000 0.000000 0.000000 0.042978
#
#
# Mechanical properties :
#
#
# Convention : Reuss Voigt Hill
#
# Bulk Modulus (GPa) = 36.56644 45.72341 41.14493
# Shear Modulus (GPa) = 20.61733 23.86115 22.23924
#
# Velocity S-wave (km/s) = 3.31290 3.56401 3.44075
# Velocity P-wave (km/s) = 5.83947 6.42467 6.13905
#
# Compressibility (1/GPa) = 0.02734748
#
# Stress axis : x y z
#
# Youngs Moduli (GPa) = 75.35205 80.67340 39.47241
#
# Poissons Ratio (x) = 0.29030 0.39428
# Poissons Ratio (y) = 0.27115 -0.06949
# Poissons Ratio (z) = 0.75267 -0.14202
#
# Static dielectric constant tensor:
#      x y z
#    x 3.349040 0.000000 0.000000 
#    y 0.000000 3.638570 0.000000 
#    z 0.000000 0.000000 3.451430 
# 
# 
# High freq. dielectric constant tensor:
#      x y z
#    x 1.720100 0.000000 0.000000 
#    y 0.000000 1.744610 0.000000 
#    z 0.000000 0.000000 1.696610 
# 
# From -- ./inp_files/28849.got.cif
#   From: 2010.03.12/outbox.cif.g09.slc.cpg/sg57_15_cif.got.tgz:28849.got - 2010.04.16 15:48:40.
