data_PCOD8232224
_publ_section_title
;
Structure prediction by ZEFSAII (Michael W. Deem and Ramdas Pophale) SiO2 
 PCOD8232224
Probable space group: P B C M
;
_chemical_formula_sum "Si O2"
_cell_formula_units_Z 48
_cell_length_a 30.391559
_cell_length_b 10.000555
_cell_length_c 8.923736
_cell_angle_alpha 90.000000
_cell_angle_beta 90.000000
_cell_angle_gamma 90.000000
_cell_volume 2712.213011
_symmetry_space_group_name_H-M "P B C M"
_symmetry_group_IT_number 57
_symmetry_cell_setting 'orthorhombic'
loop_
_space_group_symop_operation_xyz
x,y,z
-x,-y,1/2+z
x,1/2-y,-z
-x,1/2+y,1/2-z
-x,-y,-z
x,y,1/2-z
-x,1/2+y,z
x,1/2-y,1/2+z
loop_
_atom_site_type_symbol
_atom_site_label
_atom_site_fract_x
_atom_site_fract_y
_atom_site_fract_z
Si Si1 0.467953 0.394715 0.425038
Si Si2 0.288309 0.393339 0.923441
Si Si3 0.370308 0.107011 0.923178
Si Si4 0.191056 0.105763 0.074944
Si Si5 0.130741 0.611504 0.424076
Si Si6 0.971546 0.387421 0.576213
O O1 0.473612 0.250000 0.500000
O O2 0.500000 0.500000 0.500000
O O3 0.478964 0.378993 0.250000
O O4 0.418674 0.456038 0.447691
O O5 0.299051 0.377641 0.750000
O O6 0.240079 0.457938 0.948505
O O7 0.286461 0.250000 0.000000
O O8 0.329391 0.474890 0.999864
O O9 0.359252 0.122465 0.750000
O O10 0.371986 0.250000 0.000000
O O11 0.180376 0.121310 0.250000
O O12 0.186682 0.250000 0.000000
O O13 0.156509 0.008523 0.999627
O O14 0.144963 0.750000 0.500000
O O15 0.142749 0.620288 0.250000
O O16 0.079568 0.581641 0.450603
O O17 0.985499 0.250000 0.500000
O O18 0.983325 0.378858 0.750000
O O19 0.000000 0.500000 0.500000
#
# Coordination Sequence:
#
# PCOD8232224 Si02
#       6
#     8   8   8   8   8   8
#     4  10  20  33  50  73 100 131 167 206 250 300
#     4   9  16  26  43  68  97 127 160 201 247 291
#     4   9  16  26  43  67  94 125 161 200 244 294
#     4  10  20  33  51  77 106 135 169 209 252 296
#     4  10  21  37  56  77 103 137 173 208 250 301
#     4  10  21  37  57  80 105 135 171 210 253 300
#
# _framework density 17.697724999999998
#
# number of rings (size 3 to 8) (size 9 to 14) (size 15 to 20)
#    0.000    2.333    0.000    4.000    0.000    6.667 
#    0.000    0.000    0.000    1.000    0.000    7.000 
#    0.000    0.000    0.000    0.000    0.000    0.000 
#
# Total GULP energy -594845.029932 kJ/mol
# GULP energy per Si atom -12392.604790 kJ/mol
# Density = 1.765744 g / cm^3
# Si number density = 17.697725 Si / 1000 Ang^3
#
#
#
# Elastic Constant Matrix: (Units=GPa)
#
#
# Indices 1 2 3 4 5 6 
#
# 1 110.4445 70.3860 80.7678 0.0000 0.0000 0.0000
# 2 70.3860 90.1577 65.2622 0.0000 0.0000 0.0000
# 3 80.7678 65.2622 157.1773 0.0000 0.0000 0.0000
# 4 0.0000 0.0000 0.0000 29.8732 0.0000 0.0000
# 5 0.0000 0.0000 0.0000 0.0000 33.2998 0.0000
# 6 0.0000 0.0000 0.0000 0.0000 0.0000 21.3955
#
#
#
# Elastic Compliance Matrix: (Units=1/GPa)
#
#
# Indices 1 2 3 4 5 6 
#
# 1 0.021094 -0.012327 -0.005721 0.000000 0.000000 0.000000
# 2 -0.012327 0.023061 -0.003241 0.000000 0.000000 0.000000
# 3 -0.005721 -0.003241 0.010648 0.000000 0.000000 0.000000
# 4 0.000000 0.000000 0.000000 0.033475 0.000000 0.000000
# 5 0.000000 0.000000 0.000000 0.000000 0.030030 0.000000
# 6 0.000000 0.000000 0.000000 0.000000 0.000000 0.046739
#
#
# Mechanical properties :
#
#
# Convention : Reuss Voigt Hill
#
# Bulk Modulus (GPa) = 81.79870 87.84570 84.82220
# Shear Modulus (GPa) = 23.61835 26.33794 24.97814
#
# Velocity S-wave (km/s) = 3.65710 3.86192 3.76090
# Velocity P-wave (km/s) = 8.00954 8.34448 8.17873
#
# Compressibility (1/GPa) = 0.01222513
#
# Stress axis : x y z
#
# Youngs Moduli (GPa) = 47.40695 43.36299 93.91476
#
# Poissons Ratio (x) = 0.53452 0.53731
# Poissons Ratio (y) = 0.58437 0.30439
# Poissons Ratio (z) = 0.27123 0.14054
#
# Static dielectric constant tensor:
#      x y z
#    x 4.256190 0.000000 0.000000 
#    y 0.000000 2.873450 0.000000 
#    z 0.000000 0.000000 3.530180 
# 
# 
# High freq. dielectric constant tensor:
#      x y z
#    x 1.705530 0.000000 0.000000 
#    y 0.000000 1.634830 0.000000 
#    z 0.000000 0.000000 1.709640 
# 
# From -- ./inp_files/9691.got.cif
#   From: 2010.03.12/outbox.cif.g09.slc.cpg/sg57_5_cif.got.tgz:9691.got - 2010.04.16 15:48:40.
