data_PCOD8232991
_publ_section_title
;
Structure prediction by ZEFSAII (Michael W. Deem and Ramdas Pophale) SiO2 
 PCOD8232991
Probable space group: P B C M
;
_chemical_formula_sum "Si O2"
_cell_formula_units_Z 56
_cell_length_a 23.617448
_cell_length_b 14.309109
_cell_length_c 8.791617
_cell_angle_alpha 90.000000
_cell_angle_beta 90.000000
_cell_angle_gamma 90.000000
_cell_volume 2971.079822
_symmetry_space_group_name_H-M "P B C M"
_symmetry_group_IT_number 57
_symmetry_cell_setting 'orthorhombic'
loop_
_space_group_symop_operation_xyz
x,y,z
-x,-y,1/2+z
x,1/2-y,-z
-x,1/2+y,1/2-z
-x,-y,-z
x,y,1/2-z
-x,1/2+y,z
x,1/2-y,1/2+z
loop_
_atom_site_type_symbol
_atom_site_label
_atom_site_fract_x
_atom_site_fract_y
_atom_site_fract_z
Si Si1 0.147280 0.649918 0.427827
Si Si2 0.060880 0.487279 0.071522
Si Si3 0.557105 0.150926 0.426286
Si Si4 0.852994 0.851425 0.929532
Si Si5 0.232155 0.985822 0.428689
Si Si6 0.645444 0.500026 0.929977
Si Si7 0.569104 0.850510 0.571865
O O1 0.134045 0.750000 0.500000
O O2 0.156214 0.663143 0.250000
O O3 0.095321 0.581356 0.465940
O O4 0.204081 0.605130 0.495928
O O5 0.056096 0.469170 0.250000
O O6 0.089990 0.396456 0.997246
O O7 0.000000 0.500000 0.000000
O O8 0.567072 0.250000 0.500000
O O9 0.566873 0.165637 0.250000
O O10 0.494269 0.109261 0.456674
O O11 0.604194 0.081155 0.491813
O O12 0.860151 0.841186 0.750000
O O13 0.800601 0.918866 0.973474
O O14 0.841393 0.750000 0.000000
O O15 0.231374 0.970314 0.250000
O O16 0.295287 0.992152 0.487492
O O17 0.654296 0.497223 0.750000
O O18 0.616292 0.595494 0.978312
O O19 0.570466 0.750000 0.500000
O O20 0.584318 0.849088 0.750000
#
# Coordination Sequence:
#
# PCOD8232991 Si02
#       7
#     8   8   8   8   8   8   8
#     4  10  21  38  60  84 111 148 188 229 277 327
#     4  10  21  37  58  86 120 152 187 229 272 321
#     4   9  20  36  55  79 107 140 178 222 273 329
#     4  10  21  38  60  83 110 146 187 229 278 329
#     4  10  22  39  57  80 110 145 186 232 277 326
#     4  11  22  36  55  81 111 143 181 226 275 329
#     4  10  20  36  56  79 107 140 179 223 274 331
#
# _framework density 18.848365999999999
#
# number of rings (size 3 to 8) (size 9 to 14) (size 15 to 20)
#    0.000    2.000    0.000    3.000    0.000    6.857 
#    0.000    4.286    0.000    0.000    0.000    0.000 
#    0.000    0.000    0.000    0.000    0.000    0.000 
#
# Total GULP energy -694490.406760 kJ/mol
# GULP energy per Si atom -12401.614406 kJ/mol
# Density = 1.880547 g / cm^3
# Si number density = 18.848366 Si / 1000 Ang^3
#
#
#
# Elastic Constant Matrix: (Units=GPa)
#
#
# Indices 1 2 3 4 5 6 
#
# 1 125.3515 41.2928 34.5826 0.0000 0.0000 0.0000
# 2 41.2928 93.8871 45.9817 0.0000 0.0000 0.0000
# 3 34.5826 45.9817 63.3174 0.0000 0.0000 0.0000
# 4 0.0000 0.0000 0.0000 37.3176 0.0000 0.0000
# 5 0.0000 0.0000 0.0000 0.0000 37.7047 0.0000
# 6 0.0000 0.0000 0.0000 0.0000 0.0000 20.3547
#
#
#
# Elastic Compliance Matrix: (Units=1/GPa)
#
#
# Indices 1 2 3 4 5 6 
#
# 1 0.009791 -0.002618 -0.003446 0.000000 0.000000 0.000000
# 2 -0.002618 0.017231 -0.011083 0.000000 0.000000 0.000000
# 3 -0.003446 -0.011083 0.025724 0.000000 0.000000 0.000000
# 4 0.000000 0.000000 0.000000 0.026797 0.000000 0.000000
# 5 0.000000 0.000000 0.000000 0.000000 0.026522 0.000000
# 6 0.000000 0.000000 0.000000 0.000000 0.000000 0.049129
#
#
# Mechanical properties :
#
#
# Convention : Reuss Voigt Hill
#
# Bulk Modulus (GPa) = 54.19807 58.47446 56.33627
# Shear Modulus (GPa) = 25.55738 29.78866 27.67302
#
# Velocity S-wave (km/s) = 3.68631 3.97978 3.83586
# Velocity P-wave (km/s) = 6.85097 7.22559 7.04077
#
# Compressibility (1/GPa) = 0.01845084
#
# Stress axis : x y z
#
# Youngs Moduli (GPa) = 102.13644 58.03616 38.87407
#
# Poissons Ratio (x) = 0.15196 0.13396
# Poissons Ratio (y) = 0.26744 0.43084
# Poissons Ratio (z) = 0.35196 0.64321
#
# Static dielectric constant tensor:
#      x y z
#    x 3.590720 0.000000 0.000000 
#    y 0.000000 3.455430 0.000000 
#    z 0.000000 0.000000 1.254130 
# 
# 
# High freq. dielectric constant tensor:
#      x y z
#    x 1.735490 0.000000 0.000000 
#    y 0.000000 1.736300 0.000000 
#    z 0.000000 0.000000 1.746690 
# 
# From -- ./inp_files/8010.got.cif
#   From: 2010.03.12/outbox.cif.g09.slc.cpg/sg57_5_cif.got.tgz:8010.got - 2010.04.16 15:48:40.
