data_PCOD8232801
_publ_section_title
;
Structure prediction by ZEFSAII (Michael W. Deem and Ramdas Pophale) SiO2 
 PCOD8232801
Probable space group: P B C M
;
_chemical_formula_sum "Si O2"
_cell_formula_units_Z 64
_cell_length_a 20.900076
_cell_length_b 18.686521
_cell_length_c 8.778673
_cell_angle_alpha 90.000000
_cell_angle_beta 90.000000
_cell_angle_gamma 90.000000
_cell_volume 3428.508186
_symmetry_space_group_name_H-M "P B C M"
_symmetry_group_IT_number 57
_symmetry_cell_setting 'orthorhombic'
loop_
_space_group_symop_operation_xyz
x,y,z
-x,-y,1/2+z
x,1/2-y,-z
-x,1/2+y,1/2-z
-x,-y,-z
x,y,1/2-z
-x,1/2+y,z
x,1/2-y,1/2+z
loop_
_atom_site_type_symbol
_atom_site_label
_atom_site_fract_x
_atom_site_fract_y
_atom_site_fract_z
Si Si1 0.901614 0.176302 0.429220
Si Si2 0.375348 0.176344 0.569861
Si Si3 0.746999 0.890494 0.571435
Si Si4 0.302771 0.970387 0.569608
Si Si5 0.885260 0.828043 0.929644
Si Si6 0.246927 0.822647 0.573115
Si Si7 0.997169 0.922066 0.431003
Si Si8 0.563003 0.531393 0.572267
O O1 0.927426 0.250000 0.500000
O O2 0.916572 0.174294 0.250000
O O3 0.827168 0.166722 0.465833
O O4 0.936801 0.113489 0.517144
O O5 0.401761 0.250000 0.500000
O O6 0.371180 0.182707 0.750000
O O7 0.304479 0.160316 0.509457
O O8 0.423951 0.113158 0.519939
O O9 0.733415 0.889626 0.750000
O O10 0.816146 0.859819 0.530232
O O11 0.742702 0.971503 0.510291
O O12 0.292123 0.978081 0.750000
O O13 0.284396 0.891671 0.509063
O O14 0.376330 0.983502 0.523496
O O15 0.897140 0.823669 0.750000
O O16 0.892565 0.750000 0.000000
O O17 0.937052 0.879813 0.003248
O O18 0.274293 0.750000 0.500000
O O19 0.259228 0.815060 0.750000
O O20 0.992531 0.925293 0.250000
O O21 0.000000 0.000000 0.500000
O O22 0.500000 0.500000 0.500000
O O23 0.552788 0.528370 0.750000
#
# Coordination Sequence:
#
# PCOD8232801 Si02
#       8
#     8   8   8   8   8   8   8   8
#     4  10  20  37  59  83 108 142 183 226 278 335
#     4  10  20  35  56  83 114 148 186 230 276 329
#     4  10  21  35  56  86 115 146 183 227 277 332
#     4   9  19  36  56  81 113 148 185 229 280 330
#     4  11  24  41  59  84 114 147 186 227 277 335
#     4   9  19  35  57  83 110 143 181 226 279 331
#     4  12  26  42  59  80 109 145 184 233 281 332
#     4   9  19  35  55  79 111 148 187 228 271 323
#
# _framework density 18.667012
#
# number of rings (size 3 to 8) (size 9 to 14) (size 15 to 20)
#    0.000    2.000    0.000    4.125    1.750    6.500 
#    0.000    0.625    0.000    3.000    0.000    0.000 
#    0.000    0.000    0.000    0.000    0.000    0.000 
#
# Total GULP energy -793730.273879 kJ/mol
# GULP energy per Si atom -12402.035529 kJ/mol
# Density = 1.862453 g / cm^3
# Si number density = 18.667012 Si / 1000 Ang^3
#
#
#
# Elastic Constant Matrix: (Units=GPa)
#
#
# Indices 1 2 3 4 5 6 
#
# 1 101.0499 86.4500 54.0734 0.0000 0.0000 0.0000
# 2 86.4500 195.6554 64.6243 0.0000 0.0000 0.0000
# 3 54.0734 64.6243 88.8613 0.0000 0.0000 0.0000
# 4 0.0000 0.0000 0.0000 37.8486 0.0000 0.0000
# 5 0.0000 0.0000 0.0000 0.0000 28.8201 0.0000
# 6 0.0000 0.0000 0.0000 0.0000 0.0000 30.2959
#
#
#
# Elastic Compliance Matrix: (Units=1/GPa)
#
#
# Indices 1 2 3 4 5 6 
#
# 1 0.018795 -0.005958 -0.007104 0.000000 0.000000 0.000000
# 2 -0.005958 0.008616 -0.002640 0.000000 0.000000 0.000000
# 3 -0.007104 -0.002640 0.017496 0.000000 0.000000 0.000000
# 4 0.000000 0.000000 0.000000 0.026421 0.000000 0.000000
# 5 0.000000 0.000000 0.000000 0.000000 0.034698 0.000000
# 6 0.000000 0.000000 0.000000 0.000000 0.000000 0.033008
#
#
# Mechanical properties :
#
#
# Convention : Reuss Voigt Hill
#
# Bulk Modulus (GPa) = 74.06007 88.42910 81.24459
# Shear Modulus (GPa) = 28.58149 31.42085 30.00117
#
# Velocity S-wave (km/s) = 3.91720 4.10717 4.01331
# Velocity P-wave (km/s) = 7.76014 8.36460 8.06803
#
# Compressibility (1/GPa) = 0.01350255
#
# Stress axis : x y z
#
# Youngs Moduli (GPa) = 53.20654 116.06862 57.15477
#
# Poissons Ratio (x) = 0.69154 0.40602
# Poissons Ratio (y) = 0.31700 0.15090
# Poissons Ratio (z) = 0.37797 0.30644
#
# Static dielectric constant tensor:
#      x y z
#    x 3.501980 0.000000 0.000000 
#    y 0.000000 3.739840 0.000000 
#    z 0.000000 0.000000 3.471120 
# 
# 
# High freq. dielectric constant tensor:
#      x y z
#    x 1.715420 0.000000 0.000000 
#    y 0.000000 1.739040 0.000000 
#    z 0.000000 0.000000 1.731830 
# 
# From -- ./inp_files/8542.got.cif
#   From: 2010.03.12/outbox.cif.g09.slc.cpg/sg57_5_cif.got.tgz:8542.got - 2010.04.16 15:48:40.
