data_PCOD8232796
_publ_section_title
;
Structure prediction by ZEFSAII (Michael W. Deem and Ramdas Pophale) SiO2 
 PCOD8232796
Probable space group: P B C M
;
_chemical_formula_sum "Si O2"
_cell_formula_units_Z 48
_cell_length_a 9.104336
_cell_length_b 18.546497
_cell_length_c 15.260321
_cell_angle_alpha 90.000000
_cell_angle_beta 90.000000
_cell_angle_gamma 90.000000
_cell_volume 2576.759227
_symmetry_space_group_name_H-M "P B C M"
_symmetry_group_IT_number 57
_symmetry_cell_setting 'orthorhombic'
loop_
_space_group_symop_operation_xyz
x,y,z
-x,-y,1/2+z
x,1/2-y,-z
-x,1/2+y,1/2-z
-x,-y,-z
x,y,1/2-z
-x,1/2+y,z
x,1/2-y,1/2+z
loop_
_atom_site_type_symbol
_atom_site_label
_atom_site_fract_x
_atom_site_fract_y
_atom_site_fract_z
Si Si1 0.079570 0.924740 0.509439
Si Si2 0.917369 0.320132 0.151655
Si Si3 0.411790 0.331422 0.850119
Si Si4 0.077579 0.326293 0.852526
Si Si5 0.421601 0.925195 0.515590
Si Si6 0.392892 0.709491 0.910937
O O1 0.055004 0.882523 0.418581
O O2 0.249731 0.938266 0.529084
O O3 0.016873 0.882240 0.592173
O O4 0.000000 0.000000 0.500000
O O5 0.949767 0.349154 0.250000
O O6 0.749693 0.292301 0.150178
O O7 0.024563 0.254498 0.128227
O O8 0.415491 0.353794 0.750000
O O9 0.245452 0.331965 0.884843
O O10 0.510158 0.390422 0.897886
O O11 0.475834 0.251008 0.862855
O O12 0.059724 0.345358 0.750000
O O13 0.448381 0.871281 0.433484
O O14 0.500000 0.000000 0.500000
O O15 0.345399 0.750000 0.000000
#
# Coordination Sequence:
#
# PCOD8232796 Si02
#       6
#     8   8   8   8   8   8
#     4  11  23  37  56  80 111 150 185 224 275 329
#     4  10  20  36  57  81 108 140 180 227 274 327
#     4  10  20  35  56  83 109 138 179 227 272 321
#     4  10  21  36  57  83 111 143 183 227 273 324
#     4  10  21  37  54  78 109 145 184 221 272 329
#     4   9  18  33  56  81 106 140 178 218 270 328
#
# _framework density 18.628050000000002
#
# number of rings (size 3 to 8) (size 9 to 14) (size 15 to 20)
#    0.000    2.000    0.000    5.000    0.000    8.000 
#    0.000    5.833    0.000    0.000    0.000    0.000 
#    0.000    0.000    0.000    0.000    0.000    0.000 
#
# Total GULP energy -595282.515903 kJ/mol
# GULP energy per Si atom -12401.719081 kJ/mol
# Density = 1.858565 g / cm^3
# Si number density = 18.628050 Si / 1000 Ang^3
#
#
#
# Elastic Constant Matrix: (Units=GPa)
#
#
# Indices 1 2 3 4 5 6 
#
# 1 148.0875 82.0528 58.0576 0.0000 0.0000 0.0000
# 2 82.0528 138.5159 55.7307 0.0000 0.0000 0.0000
# 3 58.0576 55.7307 86.8647 0.0000 0.0000 0.0000
# 4 0.0000 0.0000 0.0000 18.2329 0.0000 0.0000
# 5 0.0000 0.0000 0.0000 0.0000 31.0237 0.0000
# 6 0.0000 0.0000 0.0000 0.0000 0.0000 38.7883
#
#
#
# Elastic Compliance Matrix: (Units=1/GPa)
#
#
# Indices 1 2 3 4 5 6 
#
# 1 0.011142 -0.004858 -0.004330 0.000000 0.000000 0.000000
# 2 -0.004858 0.011850 -0.004355 0.000000 0.000000 0.000000
# 3 -0.004330 -0.004355 0.017201 0.000000 0.000000 0.000000
# 4 0.000000 0.000000 0.000000 0.054846 0.000000 0.000000
# 5 0.000000 0.000000 0.000000 0.000000 0.032233 0.000000
# 6 0.000000 0.000000 0.000000 0.000000 0.000000 0.025781
#
#
# Mechanical properties :
#
#
# Convention : Reuss Voigt Hill
#
# Bulk Modulus (GPa) = 76.30718 85.01670 80.66194
# Shear Modulus (GPa) = 27.09899 29.45077 28.27488
#
# Velocity S-wave (km/s) = 3.81824 3.98048 3.90021
# Velocity P-wave (km/s) = 7.77761 8.17703 7.97982
#
# Compressibility (1/GPa) = 0.01310493
#
# Stress axis : x y z
#
# Youngs Moduli (GPa) = 89.74870 84.39133 58.13704
#
# Poissons Ratio (x) = 0.40998 0.25175
# Poissons Ratio (y) = 0.43601 0.25321
# Poissons Ratio (z) = 0.38863 0.36756
#
# Static dielectric constant tensor:
#      x y z
#    x 3.592940 0.000000 0.000000 
#    y 0.000000 3.480210 0.000000 
#    z 0.000000 0.000000 4.224600 
# 
# 
# High freq. dielectric constant tensor:
#      x y z
#    x 1.735430 0.000000 0.000000 
#    y 0.000000 1.718260 0.000000 
#    z 0.000000 0.000000 1.723900 
# 
# From -- ./inp_files/16310.got.cif
#   From: 2010.03.12/outbox.cif.g09.slc.cpg/sg57_9_cif.got.tgz:16310.got - 2010.04.16 15:48:40.
