data_PCOD8232295
_publ_section_title
;
Structure prediction by ZEFSAII (Michael W. Deem and Ramdas Pophale) SiO2 
 PCOD8232295
Probable space group: P B C M
;
_chemical_formula_sum "Si O2"
_cell_formula_units_Z 48
_cell_length_a 20.736177
_cell_length_b 8.639578
_cell_length_c 13.648755
_cell_angle_alpha 90.000000
_cell_angle_beta 90.000000
_cell_angle_gamma 90.000000
_cell_volume 2445.199280
_symmetry_space_group_name_H-M "P B C M"
_symmetry_group_IT_number 57
_symmetry_cell_setting 'orthorhombic'
loop_
_space_group_symop_operation_xyz
x,y,z
-x,-y,1/2+z
x,1/2-y,-z
-x,1/2+y,1/2-z
-x,-y,-z
x,y,1/2-z
-x,1/2+y,z
x,1/2-y,1/2+z
loop_
_atom_site_type_symbol
_atom_site_label
_atom_site_fract_x
_atom_site_fract_y
_atom_site_fract_z
Si Si1 0.338699 0.094158 0.139675
Si Si2 0.920125 0.988287 0.955189
Si Si3 0.221435 0.072472 0.482147
Si Si4 0.025764 0.170638 0.866900
Si Si5 0.673926 0.549637 0.862135
Si Si6 0.569820 0.071468 0.492341
O O1 0.352340 0.051250 0.250000
O O2 0.265684 0.049580 0.113063
O O3 0.346792 0.274717 0.116361
O O4 0.389298 0.995260 0.080764
O O5 0.843628 0.017960 0.955041
O O6 0.945285 0.838282 0.893448
O O7 0.937255 0.963230 0.070487
O O8 0.951897 0.142011 0.905395
O O9 0.201634 0.250000 0.500000
O O10 0.261933 0.006586 0.575374
O O11 0.032218 0.141773 0.750000
O O12 0.691262 0.517040 0.750000
O O13 0.609951 0.455536 0.892174
O O14 0.558568 0.250000 0.500000
O O15 0.500000 0.000000 0.500000
#
# Coordination Sequence:
#
# PCOD8232295 Si02
#       6
#     8   8   8   8   8   8
#     4   9  19  35  58  84 113 145 189 237 282 337
#     4  10  20  35  54  79 110 147 187 239 286 345
#     4   9  16  33  55  83 108 141 183 237 282 335
#     4  10  20  33  52  78 108 143 185 232 286 344
#     4   9  19  36  60  87 113 146 191 239 285 340
#     4  11  22  37  59  85 119 157 188 231 278 330
#
# _framework density 19.630300999999999
#
# number of rings (size 3 to 8) (size 9 to 14) (size 15 to 20)
#    0.000    2.333    1.667    3.000    0.000    3.333 
#    0.000    0.000   29.333    0.000    0.000    0.000 
#    0.000    0.000    0.000    0.000    0.000    0.000 
#
# Total GULP energy -594720.276562 kJ/mol
# GULP energy per Si atom -12390.005762 kJ/mol
# Density = 1.958562 g / cm^3
# Si number density = 19.630301 Si / 1000 Ang^3
#
#
#
# Elastic Constant Matrix: (Units=GPa)
#
#
# Indices 1 2 3 4 5 6 
#
# 1 160.3986 54.1953 24.6747 0.0000 0.0000 0.0000
# 2 54.1953 64.2934 39.7649 0.0000 0.0000 0.0000
# 3 24.6747 39.7649 99.1158 0.0000 0.0000 0.0000
# 4 0.0000 0.0000 0.0000 19.5812 0.0000 0.0000
# 5 0.0000 0.0000 0.0000 0.0000 -55.5597 0.0000
# 6 0.0000 0.0000 0.0000 0.0000 0.0000 17.2746
#
#
#
# Elastic Compliance Matrix: (Units=1/GPa)
#
#
# Indices 1 2 3 4 5 6 
#
# 1 0.008798 -0.008062 0.001044 0.000000 0.000000 0.000000
# 2 -0.008062 0.028074 -0.009256 0.000000 0.000000 0.000000
# 3 0.001044 -0.009256 0.013543 0.000000 0.000000 0.000000
# 4 0.000000 0.000000 0.000000 0.051069 0.000000 0.000000
# 5 0.000000 0.000000 0.000000 0.000000 -0.017999 0.000000
# 6 0.000000 0.000000 0.000000 0.000000 0.000000 0.057888
#
#
# Mechanical properties :
#
#
# Convention : Reuss Voigt Hill
#
# Bulk Modulus (GPa) = 55.96909 62.34198 59.15554
# Shear Modulus (GPa) = 27.79673 9.93742 18.86708
#
# Velocity S-wave (km/s) = 3.76707 2.25239 3.10356
# Velocity P-wave (km/s) = 6.89163 6.21219 6.56072
#
# Compressibility (1/GPa) = 0.01786700
#
# Stress axis : x y z
#
# Youngs Moduli (GPa) = 113.66562 35.61993 73.83968
#
# Poissons Ratio (x) = 0.28716 -0.07710
# Poissons Ratio (y) = 0.91634 0.68348
# Poissons Ratio (z) = -0.11869 0.32971
#
# Static dielectric constant tensor:
#      x y z
#    x 3.540830 0.000000 0.000000 
#    y 0.000000 3.606900 0.000000 
#    z 0.000000 0.000000 3.695450 
# 
# 
# High freq. dielectric constant tensor:
#      x y z
#    x 1.769110 0.000000 0.000000 
#    y 0.000000 1.740690 0.000000 
#    z 0.000000 0.000000 1.766150 
# 
# From -- ./inp_files/19265.got.cif
#   From: 2010.03.12/outbox.cif.g09.slc.cpg/sg57_10_cif.got.tgz:19265.got - 2010.04.16 15:48:40.
