data_PCOD8232010
_publ_section_title
;
Structure prediction by ZEFSAII (Michael W. Deem and Ramdas Pophale) SiO2 
 PCOD8232010
Probable space group: P B C M
;
_chemical_formula_sum "Si O2"
_cell_formula_units_Z 64
_cell_length_a 14.046124
_cell_length_b 9.550535
_cell_length_c 23.915230
_cell_angle_alpha 90.000000
_cell_angle_beta 90.000000
_cell_angle_gamma 90.000000
_cell_volume 3208.180247
_symmetry_space_group_name_H-M "P B C M"
_symmetry_group_IT_number 57
_symmetry_cell_setting 'orthorhombic'
loop_
_space_group_symop_operation_xyz
x,y,z
-x,-y,1/2+z
x,1/2-y,-z
-x,1/2+y,1/2-z
-x,-y,-z
x,y,1/2-z
-x,1/2+y,z
x,1/2-y,1/2+z
loop_
_atom_site_type_symbol
_atom_site_label
_atom_site_fract_x
_atom_site_fract_y
_atom_site_fract_z
Si Si1 0.600707 0.924799 0.393634
Si Si2 0.584942 0.898275 0.887587
Si Si3 0.695930 0.910167 0.994891
Si Si4 0.890549 0.457674 0.501573
Si Si5 0.773388 0.892103 0.315162
Si Si6 0.757441 0.576027 0.315078
Si Si7 0.898108 0.390714 0.117948
Si Si8 0.920582 0.416419 0.875661
O O1 0.564551 0.765335 0.398358
O O2 0.649094 0.982592 0.450800
O O3 0.677114 0.940341 0.344667
O O4 0.513767 0.024343 0.378742
O O5 0.646277 0.921676 0.831392
O O6 0.644654 0.966765 0.939021
O O7 0.810749 0.922907 0.992035
O O8 0.671915 0.750000 0.000000
O O9 0.876205 0.355727 0.448016
O O10 0.870987 0.400464 0.563549
O O11 0.000000 0.500000 0.500000
O O12 0.756061 0.910044 0.250000
O O13 0.799745 0.730417 0.329927
O O14 0.858501 0.991908 0.333803
O O15 0.768625 0.541281 0.250000
O O16 0.808038 0.453620 0.349969
O O17 0.929804 0.243969 0.146540
O O18 0.977463 0.510776 0.121658
#
# Coordination Sequence:
#
# PCOD8232010 Si02
#       8
#     8   8   8   8   8   8   8   8
#     4  10  21  38  60  88 118 155 196 244 300 357
#     4  10  21  38  60  88 118 155 196 244 300 357
#     4  10  19  36  62  87 120 161 196 236 297 361
#     4  10  21  36  59  93 123 154 194 237 289 352
#     4  10  22  41  63  86 116 157 204 250 297 349
#     4  10  22  41  63  86 116 157 204 250 297 349
#     4  11  23  39  61  90 123 158 196 241 294 355
#     4  11  23  39  61  90 123 158 196 241 294 355
#
# _framework density 19.949002
#
# number of rings (size 3 to 8) (size 9 to 14) (size 15 to 20)
#    0.000    1.750    2.500    1.500    0.000    6.500 
#    0.000    0.000    0.000    0.000    0.000    0.000 
#    0.000    0.000    0.000    0.000    0.000    0.000 
#
# Total GULP energy -793082.439189 kJ/mol
# GULP energy per Si atom -12391.913112 kJ/mol
# Density = 1.990360 g / cm^3
# Si number density = 19.949002 Si / 1000 Ang^3
#
#
#
# Elastic Constant Matrix: (Units=GPa)
#
#
# Indices 1 2 3 4 5 6 
#
# 1 57.1700 1.7781 -1.2252 0.0000 0.0000 0.0000
# 2 1.7781 50.3633 -3.4799 0.0000 0.0000 0.0000
# 3 -1.2252 -3.4799 64.0078 0.0000 0.0000 0.0000
# 4 0.0000 0.0000 0.0000 9.0596 0.0000 0.0000
# 5 0.0000 0.0000 0.0000 0.0000 21.7334 0.0000
# 6 0.0000 0.0000 0.0000 0.0000 0.0000 36.0050
#
#
#
# Elastic Compliance Matrix: (Units=1/GPa)
#
#
# Indices 1 2 3 4 5 6 
#
# 1 0.017517 -0.000598 0.000303 0.000000 0.000000 0.000000
# 2 -0.000598 0.019951 0.001073 0.000000 0.000000 0.000000
# 3 0.000303 0.001073 0.015687 0.000000 0.000000 0.000000
# 4 0.000000 0.000000 0.000000 0.110380 0.000000 0.000000
# 5 0.000000 0.000000 0.000000 0.000000 0.046012 0.000000
# 6 0.000000 0.000000 0.000000 0.000000 0.000000 0.027774
#
#
# Mechanical properties :
#
#
# Convention : Reuss Voigt Hill
#
# Bulk Modulus (GPa) = 18.27751 18.40968 18.34359
# Shear Modulus (GPa) = 19.68496 24.99080 22.33788
#
# Velocity S-wave (km/s) = 3.14469 3.54324 3.34990
# Velocity P-wave (km/s) = 4.72942 5.09782 4.91707
#
# Compressibility (1/GPa) = 0.05471205
#
# Stress axis : x y z
#
# Youngs Moduli (GPa) = 57.08813 50.12285 63.74611
#
# Poissons Ratio (x) = 0.02995 -0.01930
# Poissons Ratio (y) = 0.03411 -0.06841
# Poissons Ratio (z) = -0.01729 -0.05379
#
# Static dielectric constant tensor:
#      x y z
#    x 3.446180 0.000000 0.000000 
#    y 0.000000 3.474490 0.000000 
#    z 0.000000 0.000000 3.930150 
# 
# 
# High freq. dielectric constant tensor:
#      x y z
#    x 1.773620 0.000000 0.000000 
#    y 0.000000 1.763380 0.000000 
#    z 0.000000 0.000000 1.783200 
# 
# From -- ./inp_files/27514.got.cif
#   From: 2010.03.12/outbox.cif.g09.slc.cpg/sg57_14_cif.got.tgz:27514.got - 2010.04.16 15:48:40.
