data_PCOD8232693
_publ_section_title
;
Structure prediction by ZEFSAII (Michael W. Deem and Ramdas Pophale) SiO2 
 PCOD8232693
Probable space group: P B C M
;
_chemical_formula_sum "Si O2"
_cell_formula_units_Z 40
_cell_length_a 13.801041
_cell_length_b 18.026344
_cell_length_c 8.467208
_cell_angle_alpha 90.000000
_cell_angle_beta 90.000000
_cell_angle_gamma 90.000000
_cell_volume 2106.491588
_symmetry_space_group_name_H-M "P B C M"
_symmetry_group_IT_number 57
_symmetry_cell_setting 'orthorhombic'
loop_
_space_group_symop_operation_xyz
x,y,z
-x,-y,1/2+z
x,1/2-y,-z
-x,1/2+y,1/2-z
-x,-y,-z
x,y,1/2-z
-x,1/2+y,z
x,1/2-y,1/2+z
loop_
_atom_site_type_symbol
_atom_site_label
_atom_site_fract_x
_atom_site_fract_y
_atom_site_fract_z
Si Si1 0.797529 0.548168 0.564735
Si Si2 0.299733 0.827350 0.563353
Si Si3 0.601985 0.024596 0.435120
Si Si4 0.073578 0.168653 0.434498
Si Si5 0.882558 0.097303 0.565914
O O1 0.800825 0.565994 0.750000
O O2 0.688833 0.528590 0.505274
O O3 0.830705 0.619810 0.466538
O O4 0.867278 0.478081 0.532160
O O5 0.342388 0.750000 0.500000
O O6 0.284080 0.826049 0.750000
O O7 0.375472 0.891101 0.512122
O O8 0.196491 0.841316 0.481551
O O9 0.597712 0.019561 0.250000
O O10 0.500000 0.000000 0.500000
O O11 0.093651 0.250000 0.500000
O O12 0.049390 0.172002 0.250000
O O13 0.986745 0.130581 0.528592
O O14 0.875156 0.078573 0.750000
#
# Coordination Sequence:
#
# PCOD8232693 Si02
#       5
#     8   8   8   8   8
#     4  10  21  39  58  81 110 143 182 226 270 322
#     4  10  20  35  54  82 113 142 177 225 275 324
#     4   9  20  37  59  82 108 139 178 224 272 324
#     4  12  24  38  55  79 111 149 186 225 268 319
#     4  11  21  35  56  82 111 147 183 222 268 321
#
# _framework density 18.988918000000002
#
# number of rings (size 3 to 8) (size 9 to 14) (size 15 to 20)
#    0.000    1.600    0.000    7.200    0.000    4.800 
#    0.000    1.000    0.000    2.400    0.000    0.000 
#    0.000    0.000    0.000    0.000    0.000    0.000 
#
# Total GULP energy -496137.415765 kJ/mol
# GULP energy per Si atom -12403.435394 kJ/mol
# Density = 1.894570 g / cm^3
# Si number density = 18.988918 Si / 1000 Ang^3
#
#
#
# Elastic Constant Matrix: (Units=GPa)
#
#
# Indices 1 2 3 4 5 6 
#
# 1 123.7731 69.9829 21.9558 0.0000 0.0000 0.0000
# 2 69.9829 117.2960 14.1197 0.0000 0.0000 0.0000
# 3 21.9558 14.1197 66.8780 0.0000 0.0000 0.0000
# 4 0.0000 0.0000 0.0000 32.7203 0.0000 0.0000
# 5 0.0000 0.0000 0.0000 0.0000 32.7330 0.0000
# 6 0.0000 0.0000 0.0000 0.0000 0.0000 15.0029
#
#
#
# Elastic Compliance Matrix: (Units=1/GPa)
#
#
# Indices 1 2 3 4 5 6 
#
# 1 0.012625 -0.007217 -0.002621 0.000000 0.000000 0.000000
# 2 -0.007217 0.012873 -0.000349 0.000000 0.000000 0.000000
# 3 -0.002621 -0.000349 0.015887 0.000000 0.000000 0.000000
# 4 0.000000 0.000000 0.000000 0.030562 0.000000 0.000000
# 5 0.000000 0.000000 0.000000 0.000000 0.030550 0.000000
# 6 0.000000 0.000000 0.000000 0.000000 0.000000 0.066654
#
#
# Mechanical properties :
#
#
# Convention : Reuss Voigt Hill
#
# Bulk Modulus (GPa) = 47.59246 57.78489 52.68867
# Shear Modulus (GPa) = 25.44175 29.55049 27.49612
#
# Velocity S-wave (km/s) = 3.66433 3.94915 3.80940
# Velocity P-wave (km/s) = 6.55902 7.16179 6.86702
#
# Compressibility (1/GPa) = 0.02101173
#
# Stress axis : x y z
#
# Youngs Moduli (GPa) = 79.20956 77.68051 62.94585
#
# Poissons Ratio (x) = 0.56061 0.16498
# Poissons Ratio (y) = 0.57164 0.02194
# Poissons Ratio (z) = 0.20761 0.02708
#
# Static dielectric constant tensor:
#      x y z
#    x 3.085760 0.000000 0.000000 
#    y 0.000000 3.618360 0.000000 
#    z 0.000000 0.000000 3.513110 
# 
# 
# High freq. dielectric constant tensor:
#      x y z
#    x 1.722280 0.000000 0.000000 
#    y 0.000000 1.742850 0.000000 
#    z 0.000000 0.000000 1.748810 
# 
# From -- ./inp_files/2899.got.cif
#   From: 2010.03.12/outbox.cif.g09.slc.cpg/sg57_2_cif.got.tgz:2899.got - 2010.04.16 15:48:40.
