data_PCOD8232923
_publ_section_title
;
Structure prediction by ZEFSAII (Michael W. Deem and Ramdas Pophale) SiO2 
 PCOD8232923
Probable space group: P B C M
;
_chemical_formula_sum "Si O2"
_cell_formula_units_Z 40
_cell_length_a 8.965517
_cell_length_b 10.383505
_cell_length_c 20.930749
_cell_angle_alpha 90.000000
_cell_angle_beta 90.000000
_cell_angle_gamma 90.000000
_cell_volume 1948.516485
_symmetry_space_group_name_H-M "P B C M"
_symmetry_group_IT_number 57
_symmetry_cell_setting 'orthorhombic'
loop_
_space_group_symop_operation_xyz
x,y,z
-x,-y,1/2+z
x,1/2-y,-z
-x,1/2+y,1/2-z
-x,-y,-z
x,y,1/2-z
-x,1/2+y,z
x,1/2-y,1/2+z
loop_
_atom_site_type_symbol
_atom_site_label
_atom_site_fract_x
_atom_site_fract_y
_atom_site_fract_z
Si Si1 0.320774 0.473391 0.320915
Si Si2 0.419571 0.422523 0.597966
Si Si3 0.185981 0.214823 0.325985
Si Si4 0.635066 0.300511 0.063553
Si Si5 0.155457 0.776203 0.822641
O O1 0.362934 0.435687 0.250000
O O2 0.467022 0.537018 0.347653
O O3 0.272901 0.339925 0.352821
O O4 0.182968 0.571290 0.324559
O O5 0.259390 0.398766 0.632135
O O6 0.405494 0.548419 0.552111
O O7 0.488247 0.293522 0.565565
O O8 0.201987 0.188496 0.250000
O O9 0.014701 0.239549 0.343878
O O10 0.735497 0.294420 0.127360
O O11 0.722776 0.250000 0.000000
O O12 0.183468 0.723176 0.750000
#
# Coordination Sequence:
#
# PCOD8232923 Si02
#       5
#     8   8   8   8   8
#     4   9  18  34  55  86 121 150 193 248 295 355
#     4  11  21  39  61  86 118 158 203 244 304 355
#     4  10  20  35  59  92 122 155 198 249 305 360
#     4  11  24  42  63  88 122 160 205 251 303 359
#     4   9  21  38  61  87 121 158 199 249 301 357
#
# _framework density 20.528438000000001
#
# number of rings (size 3 to 8) (size 9 to 14) (size 15 to 20)
#    0.000    2.000    2.000    1.200    2.800    2.400 
#    0.000    2.000    0.000    0.000    0.000    0.000 
#    0.000    0.000    0.000    0.000    0.000    0.000 
#
# Total GULP energy -495533.207342 kJ/mol
# GULP energy per Si atom -12388.330184 kJ/mol
# Density = 2.048171 g / cm^3
# Si number density = 20.528438 Si / 1000 Ang^3
#
#
#
# Elastic Constant Matrix: (Units=GPa)
#
#
# Indices 1 2 3 4 5 6 
#
# 1 69.5478 10.8837 29.9386 0.0000 0.0000 0.0000
# 2 10.8837 83.7242 20.4456 0.0000 0.0000 0.0000
# 3 29.9386 20.4456 70.6650 0.0000 0.0000 0.0000
# 4 0.0000 0.0000 0.0000 28.2952 0.0000 0.0000
# 5 0.0000 0.0000 0.0000 0.0000 16.1365 0.0000
# 6 0.0000 0.0000 0.0000 0.0000 0.0000 20.3461
#
#
#
# Elastic Compliance Matrix: (Units=1/GPa)
#
#
# Indices 1 2 3 4 5 6 
#
# 1 0.017606 -0.000503 -0.007313 0.000000 0.000000 0.000000
# 2 -0.000503 0.012866 -0.003510 0.000000 0.000000 0.000000
# 3 -0.007313 -0.003510 0.018265 0.000000 0.000000 0.000000
# 4 0.000000 0.000000 0.000000 0.035342 0.000000 0.000000
# 5 0.000000 0.000000 0.000000 0.000000 0.061971 0.000000
# 6 0.000000 0.000000 0.000000 0.000000 0.000000 0.049149
#
#
# Mechanical properties :
#
#
# Convention : Reuss Voigt Hill
#
# Bulk Modulus (GPa) = 38.33547 38.49697 38.41622
# Shear Modulus (GPa) = 22.07055 23.80019 22.93537
#
# Velocity S-wave (km/s) = 3.28246 3.40866 3.34615
# Velocity P-wave (km/s) = 5.75160 5.85539 5.80373
#
# Compressibility (1/GPa) = 0.02608550
#
# Stress axis : x y z
#
# Youngs Moduli (GPa) = 56.80034 77.72189 54.74878
#
# Poissons Ratio (x) = 0.03907 0.40040
# Poissons Ratio (y) = 0.02855 0.19215
# Poissons Ratio (z) = 0.41541 0.27278
#
# Static dielectric constant tensor:
#      x y z
#    x 3.619990 0.000000 0.000000 
#    y 0.000000 4.038160 0.000000 
#    z 0.000000 0.000000 3.590700 
# 
# 
# High freq. dielectric constant tensor:
#      x y z
#    x 1.787700 0.000000 0.000000 
#    y 0.000000 1.816110 0.000000 
#    z 0.000000 0.000000 1.785440 
# 
# From -- ./inp_files/20521.got.cif
#   From: 2010.03.12/outbox.cif.g09.slc.cpg/sg57_11_cif.got.tgz:20521.got - 2010.04.16 15:48:40.
