data_PCOD8232613
_publ_section_title
;
Structure prediction by ZEFSAII (Michael W. Deem and Ramdas Pophale) SiO2 
 PCOD8232613
Probable space group: P B C M
;
_chemical_formula_sum "Si O2"
_cell_formula_units_Z 64
_cell_length_a 15.283826
_cell_length_b 23.653906
_cell_length_c 8.872275
_cell_angle_alpha 90.000000
_cell_angle_beta 90.000000
_cell_angle_gamma 90.000000
_cell_volume 3207.524231
_symmetry_space_group_name_H-M "P B C M"
_symmetry_group_IT_number 57
_symmetry_cell_setting 'orthorhombic'
loop_
_space_group_symop_operation_xyz
x,y,z
-x,-y,1/2+z
x,1/2-y,-z
-x,1/2+y,1/2-z
-x,-y,-z
x,y,1/2-z
-x,1/2+y,z
x,1/2-y,1/2+z
loop_
_atom_site_type_symbol
_atom_site_label
_atom_site_fract_x
_atom_site_fract_y
_atom_site_fract_z
Si Si1 0.856173 0.502764 0.427748
Si Si2 0.598993 0.124164 0.574858
Si Si3 0.249932 0.310649 0.073109
Si Si4 0.402573 0.108993 0.924674
Si Si5 0.654712 0.001571 0.573445
Si Si6 0.091742 0.887803 0.572140
Si Si7 0.252067 0.690919 0.073004
Si Si8 0.082853 0.383241 0.072440
O O1 0.869369 0.493576 0.250000
O O2 0.755013 0.506426 0.473268
O O3 0.900745 0.451908 0.516995
O O4 0.902029 0.559637 0.480429
O O5 0.624550 0.128416 0.750000
O O6 0.496892 0.137440 0.547648
O O7 0.653684 0.170673 0.485024
O O8 0.621442 0.061812 0.512003
O O9 0.261277 0.303236 0.250000
O O10 0.327666 0.350181 0.007666
O O11 0.157065 0.337952 0.030609
O O12 0.257480 0.250000 0.000000
O O13 0.384357 0.098529 0.750000
O O14 0.402265 0.047780 0.000571
O O15 0.640142 0.997885 0.750000
O O16 0.075615 0.885766 0.750000
O O17 0.178821 0.854333 0.524975
O O18 0.009778 0.858791 0.485956
O O19 0.257067 0.699041 0.250000
O O20 0.225893 0.750000 0.000000
O O21 0.081476 0.395865 0.250000
#
# Coordination Sequence:
#
# PCOD8232613 Si02
#       8
#     8   8   8   8   8   8   8   8
#     4  11  21  36  61  91 123 158 195 242 295 350
#     4  10  21  39  62  90 124 158 198 245 296 352
#     4  10  23  41  60  84 114 154 199 243 294 344
#     4  10  21  38  61  89 123 159 196 244 296 353
#     4  10  20  34  58  91 123 158 196 241 295 351
#     4  11  24  41  62  90 120 155 197 242 297 357
#     4  11  25  43  64  87 117 157 201 250 300 353
#     4  11  23  40  62  88 120 157 196 243 297 356
#
# _framework density 19.953082999999999
#
# number of rings (size 3 to 8) (size 9 to 14) (size 15 to 20)
#    0.000    1.500    2.500    2.250    0.000    5.500 
#    0.000    3.750    0.000    0.000    0.000    0.000 
#    0.000    0.000    0.000    0.000    0.000    0.000 
#
# Total GULP energy -793952.124005 kJ/mol
# GULP energy per Si atom -12405.501938 kJ/mol
# Density = 1.990767 g / cm^3
# Si number density = 19.953083 Si / 1000 Ang^3
#
#
#
# Elastic Constant Matrix: (Units=GPa)
#
#
# Indices 1 2 3 4 5 6 
#
# 1 101.4409 23.1526 34.8344 0.0000 0.0000 0.0000
# 2 23.1526 94.0847 25.6009 0.0000 0.0000 0.0000
# 3 34.8344 25.6009 50.6657 0.0000 0.0000 0.0000
# 4 0.0000 0.0000 0.0000 35.8675 0.0000 0.0000
# 5 0.0000 0.0000 0.0000 0.0000 25.0396 0.0000
# 6 0.0000 0.0000 0.0000 0.0000 0.0000 15.7237
#
#
#
# Elastic Compliance Matrix: (Units=1/GPa)
#
#
# Indices 1 2 3 4 5 6 
#
# 1 0.012968 -0.000887 -0.008468 0.000000 0.000000 0.000000
# 2 -0.000887 0.012384 -0.005647 0.000000 0.000000 0.000000
# 3 -0.008468 -0.005647 0.028413 0.000000 0.000000 0.000000
# 4 0.000000 0.000000 0.000000 0.027880 0.000000 0.000000
# 5 0.000000 0.000000 0.000000 0.000000 0.039937 0.000000
# 6 0.000000 0.000000 0.000000 0.000000 0.000000 0.063598
#
#
# Mechanical properties :
#
#
# Convention : Reuss Voigt Hill
#
# Bulk Modulus (GPa) = 42.08775 45.92966 44.00870
# Shear Modulus (GPa) = 22.41096 26.16638 24.28867
#
# Velocity S-wave (km/s) = 3.35503 3.62525 3.49275
# Velocity P-wave (km/s) = 6.01227 6.37119 6.19433
#
# Compressibility (1/GPa) = 0.02375989
#
# Stress axis : x y z
#
# Youngs Moduli (GPa) = 77.11137 80.75114 35.19542
#
# Poissons Ratio (x) = 0.07164 0.29803
# Poissons Ratio (y) = 0.06841 0.19876
# Poissons Ratio (z) = 0.65297 0.45604
#
# Static dielectric constant tensor:
#      x y z
#    x 3.923900 0.000000 0.000000 
#    y 0.000000 3.544410 0.000000 
#    z 0.000000 0.000000 3.521240 
# 
# 
# High freq. dielectric constant tensor:
#      x y z
#    x 1.796390 0.000000 0.000000 
#    y 0.000000 1.772150 0.000000 
#    z 0.000000 0.000000 1.774940 
# 
# From -- ./inp_files/5635.got.cif
#   From: 2010.03.12/outbox.cif.g09.slc.cpg/sg57_3_cif.got.tgz:5635.got - 2010.04.16 15:48:40.
