data_PCOD8232428
_publ_section_title
;
Structure prediction by ZEFSAII (Michael W. Deem and Ramdas Pophale) SiO2 
 PCOD8232428
Probable space group: P B C M
;
_chemical_formula_sum "Si O2"
_cell_formula_units_Z 64
_cell_length_a 9.058920
_cell_length_b 13.725059
_cell_length_c 27.903939
_cell_angle_alpha 90.000000
_cell_angle_beta 90.000000
_cell_angle_gamma 90.000000
_cell_volume 3469.414253
_symmetry_space_group_name_H-M "P B C M"
_symmetry_group_IT_number 57
_symmetry_cell_setting 'orthorhombic'
loop_
_space_group_symop_operation_xyz
x,y,z
-x,-y,1/2+z
x,1/2-y,-z
-x,1/2+y,1/2-z
-x,-y,-z
x,y,1/2-z
-x,1/2+y,z
x,1/2-y,1/2+z
loop_
_atom_site_type_symbol
_atom_site_label
_atom_site_fract_x
_atom_site_fract_y
_atom_site_fract_z
Si Si1 0.156207 0.860948 0.864131
Si Si2 0.843642 0.032654 0.554770
Si Si3 0.311498 0.016118 0.695461
Si Si4 0.318637 0.836418 0.374600
Si Si5 0.183056 0.357585 0.625510
Si Si6 0.649596 0.989038 0.694962
Si Si7 0.817998 0.994496 0.052367
Si Si8 0.340155 0.340471 0.113027
O O1 0.195463 0.935286 0.821533
O O2 0.251105 0.764440 0.856882
O O3 0.194417 0.908896 0.915322
O O4 0.984412 0.836332 0.859734
O O5 0.802946 0.934616 0.582746
O O6 0.018554 0.051173 0.554694
O O7 0.770106 0.126114 0.579209
O O8 0.777866 0.024217 0.501545
O O9 0.277125 0.045118 0.750000
O O10 0.475045 0.972185 0.689377
O O11 0.293847 0.113643 0.664126
O O12 0.486722 0.820436 0.389781
O O13 0.300863 0.911852 0.330977
O O14 0.270474 0.395950 0.671940
O O15 0.254158 0.259394 0.605823
O O16 0.697720 0.997551 0.750000
O O17 0.702458 0.913824 0.070263
#
# Coordination Sequence:
#
# PCOD8232428 Si02
#       8
#     8   8   8   8   8   8   8   8
#     4  10  20  34  53  77 104 133 168 211 256 302
#     4   9  19  36  55  74 100 136 175 214 257 305
#     4   9  19  36  55  74  99 133 171 208 248 298
#     4  10  20  34  53  77 105 136 170 210 256 306
#     4  10  20  34  53  77 104 133 168 211 256 302
#     4   9  19  36  55  74  99 133 171 208 248 298
#     4   9  19  36  55  74 100 136 175 214 257 305
#     4  10  20  34  53  77 105 136 170 210 256 306
#
# _framework density 18.446918
#
# number of rings (size 3 to 8) (size 9 to 14) (size 15 to 20)
#    0.000    2.500    0.000    1.500    0.000    5.000 
#    0.000    7.500    0.000    0.000    0.000    0.000 
#    0.000    0.000    0.000    0.000    0.000    0.000 
#
# Total GULP energy -793885.115330 kJ/mol
# GULP energy per Si atom -12404.454927 kJ/mol
# Density = 1.840493 g / cm^3
# Si number density = 18.446918 Si / 1000 Ang^3
#
#
#
# Elastic Constant Matrix: (Units=GPa)
#
#
# Indices 1 2 3 4 5 6 
#
# 1 55.1504 13.7155 4.1915 0.0000 0.0000 0.0000
# 2 13.7155 53.0920 -4.3321 0.0000 0.0000 0.0000
# 3 4.1915 -4.3321 92.3999 0.0000 0.0000 0.0000
# 4 0.0000 0.0000 0.0000 13.0919 0.0000 0.0000
# 5 0.0000 0.0000 0.0000 0.0000 27.2089 0.0000
# 6 0.0000 0.0000 0.0000 0.0000 0.0000 35.4536
#
#
#
# Elastic Compliance Matrix: (Units=1/GPa)
#
#
# Indices 1 2 3 4 5 6 
#
# 1 0.019493 -0.005127 -0.001125 0.000000 0.000000 0.000000
# 2 -0.005127 0.020256 0.001182 0.000000 0.000000 0.000000
# 3 -0.001125 0.001182 0.010929 0.000000 0.000000 0.000000
# 4 0.000000 0.000000 0.000000 0.076383 0.000000 0.000000
# 5 0.000000 0.000000 0.000000 0.000000 0.036753 0.000000
# 6 0.000000 0.000000 0.000000 0.000000 0.000000 0.028206
#
#
# Mechanical properties :
#
#
# Convention : Reuss Voigt Hill
#
# Bulk Modulus (GPa) = 24.66788 25.31023 24.98906
# Shear Modulus (GPa) = 23.18334 27.62204 25.40269
#
# Velocity S-wave (km/s) = 3.54893 3.87380 3.71491
# Velocity P-wave (km/s) = 5.49496 5.81023 5.65479
#
# Compressibility (1/GPa) = 0.04053855
#
# Stress axis : x y z
#
# Youngs Moduli (GPa) = 51.30087 49.36736 91.49989
#
# Poissons Ratio (x) = 0.25313 0.10290
# Poissons Ratio (y) = 0.26304 -0.10818
# Poissons Ratio (z) = 0.05770 -0.05837
#
# Static dielectric constant tensor:
#      x y z
#    x 3.444390 0.000000 0.000000 
#    y 0.000000 3.238790 0.000000 
#    z 0.000000 0.000000 3.420060 
# 
# 
# High freq. dielectric constant tensor:
#      x y z
#    x 1.720940 0.000000 0.000000 
#    y 0.000000 1.711740 0.000000 
#    z 0.000000 0.000000 1.713560 
# 
# From -- ./inp_files/20366.got.cif
#   From: 2010.03.12/outbox.cif.g09.slc.cpg/sg57_11_cif.got.tgz:20366.got - 2010.04.16 15:48:40.
