data_PCOD8232699
_publ_section_title
;
Structure prediction by ZEFSAII (Michael W. Deem and Ramdas Pophale) SiO2 
 PCOD8232699
Probable space group: P B C M
;
_chemical_formula_sum "Si O2"
_cell_formula_units_Z 64
_cell_length_a 16.170987
_cell_length_b 24.078212
_cell_length_c 9.209945
_cell_angle_alpha 90.000000
_cell_angle_beta 90.000000
_cell_angle_gamma 90.000000
_cell_volume 3586.062039
_symmetry_space_group_name_H-M "P B C M"
_symmetry_group_IT_number 57
_symmetry_cell_setting 'orthorhombic'
loop_
_space_group_symop_operation_xyz
x,y,z
-x,-y,1/2+z
x,1/2-y,-z
-x,1/2+y,1/2-z
-x,-y,-z
x,y,1/2-z
-x,1/2+y,z
x,1/2-y,1/2+z
loop_
_atom_site_type_symbol
_atom_site_label
_atom_site_fract_x
_atom_site_fract_y
_atom_site_fract_z
Si Si1 0.106646 0.388469 0.411174
Si Si2 0.375991 0.104976 0.578076
Si Si3 0.255081 0.302983 0.409079
Si Si4 0.769324 0.525721 0.922203
Si Si5 0.782677 0.193666 0.920388
Si Si6 0.973457 0.306507 0.421163
Si Si7 0.707550 0.408579 0.918449
Si Si8 0.479694 0.943380 0.580372
O O1 0.078201 0.405590 0.250000
O O2 0.177529 0.342997 0.406784
O O3 0.147518 0.443623 0.487760
O O4 0.026706 0.358934 0.485644
O O5 0.393547 0.100136 0.750000
O O6 0.335094 0.163606 0.534663
O O7 0.315081 0.055317 0.525346
O O8 0.460582 0.103113 0.487670
O O9 0.232770 0.250000 0.500000
O O10 0.274762 0.280580 0.250000
O O11 0.772888 0.534470 0.750000
O O12 0.765908 0.460839 0.964079
O O13 0.765898 0.200528 0.750000
O O14 0.878200 0.180547 0.954166
O O15 0.754831 0.250000 0.000000
O O16 0.729084 0.143266 0.981545
O O17 0.001384 0.250000 0.500000
O O18 0.990674 0.298693 0.250000
O O19 0.721946 0.393329 0.750000
O O20 0.613499 0.424800 0.948325
O O21 0.496890 0.951205 0.750000
O O22 0.500000 0.000000 0.500000
#
# Coordination Sequence:
#
# PCOD8232699 Si02
#       8
#     8   8   8   8   8   8   8   8
#     4   8  14  26  47  73 100 134 171 205 245 294
#     4   9  17  32  49  70 100 134 171 207 243 290
#     4   9  17  28  46  69  99 136 171 204 243 295
#     4   8  14  28  49  72 101 135 169 201 240 298
#     4  10  21  37  56  77 102 131 167 214 260 304
#     4   9  17  30  50  75 100 130 171 214 255 298
#     4  10  20  35  55  77 101 133 171 208 250 305
#     4  11  21  33  53  79 103 128 164 208 249 297
#
# _framework density 17.846872999999999
#
# number of rings (size 3 to 8) (size 9 to 14) (size 15 to 20)
#    0.000    2.750    1.250    2.625    0.000    2.000 
#    0.000    1.250    0.000    3.000    0.000    0.000 
#    0.000    0.000    0.000    0.000    0.000    0.000 
#
# Total GULP energy -793061.320360 kJ/mol
# GULP energy per Si atom -12391.583131 kJ/mol
# Density = 1.780625 g / cm^3
# Si number density = 17.846873 Si / 1000 Ang^3
#
#
#
# Elastic Constant Matrix: (Units=GPa)
#
#
# Indices 1 2 3 4 5 6 
#
# 1 66.2943 37.1403 33.8574 0.0000 0.0000 0.0000
# 2 37.1403 97.9912 41.9396 0.0000 0.0000 0.0000
# 3 33.8574 41.9396 57.7921 0.0000 0.0000 0.0000
# 4 0.0000 0.0000 0.0000 25.4684 0.0000 0.0000
# 5 0.0000 0.0000 0.0000 0.0000 20.9385 0.0000
# 6 0.0000 0.0000 0.0000 0.0000 0.0000 27.0056
#
#
#
# Elastic Compliance Matrix: (Units=1/GPa)
#
#
# Indices 1 2 3 4 5 6 
#
# 1 0.022665 -0.004217 -0.010218 0.000000 0.000000 0.000000
# 2 -0.004217 0.015587 -0.008841 0.000000 0.000000 0.000000
# 3 -0.010218 -0.008841 0.029705 0.000000 0.000000 0.000000
# 4 0.000000 0.000000 0.000000 0.039264 0.000000 0.000000
# 5 0.000000 0.000000 0.000000 0.000000 0.047759 0.000000
# 6 0.000000 0.000000 0.000000 0.000000 0.000000 0.037029
#
#
# Mechanical properties :
#
#
# Convention : Reuss Voigt Hill
#
# Bulk Modulus (GPa) = 46.71668 49.77246 48.24457
# Shear Modulus (GPa) = 20.35013 21.95851 21.15432
#
# Velocity S-wave (km/s) = 3.38044 3.51149 3.44659
# Velocity P-wave (km/s) = 6.43970 6.66257 6.55208
#
# Compressibility (1/GPa) = 0.02140563
#
# Stress axis : x y z
#
# Youngs Moduli (GPa) = 44.12006 64.15473 33.66383
#
# Poissons Ratio (x) = 0.27056 0.34398
# Poissons Ratio (y) = 0.18607 0.29762
# Poissons Ratio (z) = 0.45082 0.56719
#
# Static dielectric constant tensor:
#      x y z
#    x 3.404420 0.000000 0.000000 
#    y 0.000000 3.448640 0.000000 
#    z 0.000000 0.000000 3.146110 
# 
# 
# High freq. dielectric constant tensor:
#      x y z
#    x 1.686540 0.000000 0.000000 
#    y 0.000000 1.686260 0.000000 
#    z 0.000000 0.000000 1.662840 
# 
# From -- ./inp_files/5590.got.cif
#   From: 2010.03.12/outbox.cif.g09.slc.cpg/sg57_3_cif.got.tgz:5590.got - 2010.04.16 15:48:40.
