data_PCOD8232824
_publ_section_title
;
Structure prediction by ZEFSAII (Michael W. Deem and Ramdas Pophale) SiO2 
 PCOD8232824
Probable space group: P B C M
;
_chemical_formula_sum "Si O2"
_cell_formula_units_Z 56
_cell_length_a 12.037200
_cell_length_b 14.155899
_cell_length_c 17.179542
_cell_angle_alpha 90.000000
_cell_angle_beta 90.000000
_cell_angle_gamma 90.000000
_cell_volume 2927.349074
_symmetry_space_group_name_H-M "P B C M"
_symmetry_group_IT_number 57
_symmetry_cell_setting 'orthorhombic'
loop_
_space_group_symop_operation_xyz
x,y,z
-x,-y,1/2+z
x,1/2-y,-z
-x,1/2+y,1/2-z
-x,-y,-z
x,y,1/2-z
-x,1/2+y,z
x,1/2-y,1/2+z
loop_
_atom_site_type_symbol
_atom_site_label
_atom_site_fract_x
_atom_site_fract_y
_atom_site_fract_z
Si Si1 0.829338 0.779862 0.414155
Si Si2 0.320421 0.551045 0.427964
Si Si3 0.598349 0.167385 0.560169
Si Si4 0.005795 0.847923 0.660724
Si Si5 0.081101 0.018616 0.569657
Si Si6 0.385751 0.366151 0.342507
Si Si7 0.758175 0.229873 0.341183
O O1 0.790746 0.750000 0.500000
O O2 0.897718 0.689967 0.383539
O O3 0.910941 0.870709 0.409197
O O4 0.718580 0.799669 0.364426
O O5 0.389700 0.572873 0.507304
O O6 0.200900 0.517086 0.457262
O O7 0.376511 0.470532 0.376956
O O8 0.311668 0.639894 0.370512
O O9 0.578108 0.250000 0.500000
O O10 0.498342 0.172948 0.621085
O O11 0.712259 0.180817 0.609953
O O12 0.975738 0.842430 0.750000
O O13 0.111705 0.782571 0.639964
O O14 0.034559 0.957180 0.641843
O O15 0.000000 0.000000 0.500000
O O16 0.395764 0.370374 0.250000
O O17 0.737302 0.244295 0.250000
#
# Coordination Sequence:
#
# PCOD8232824 Si02
#       7
#     8   8   8   8   8   8   8
#     4  11  22  36  59  83 115 153 195 234 287 348
#     4   9  20  34  56  80 107 143 187 230 275 330
#     4  10  20  35  57  81 108 140 185 236 280 330
#     4  10  21  36  57  85 118 149 189 237 287 341
#     4  10  20  35  58  84 113 152 191 232 279 345
#     4  11  22  37  56  80 111 148 188 230 285 345
#     4   9  18  33  54  81 108 140 181 230 280 327
#
# _framework density 19.129935
#
# number of rings (size 3 to 8) (size 9 to 14) (size 15 to 20)
#    0.000    2.000    1.429    2.143    2.000    4.571 
#    0.000    0.000    0.000    0.000    0.000    0.000 
#    0.000    0.000    0.000    0.000    0.000    0.000 
#
# Total GULP energy -694204.116564 kJ/mol
# GULP energy per Si atom -12396.502081 kJ/mol
# Density = 1.908639 g / cm^3
# Si number density = 19.129935 Si / 1000 Ang^3
#
#
#
# Elastic Constant Matrix: (Units=GPa)
#
#
# Indices 1 2 3 4 5 6 
#
# 1 60.6223 15.9175 46.4373 0.0000 0.0000 0.0000
# 2 15.9175 59.6054 30.3602 0.0000 0.0000 0.0000
# 3 46.4373 30.3602 128.4386 0.0000 0.0000 0.0000
# 4 0.0000 0.0000 0.0000 26.1220 0.0000 0.0000
# 5 0.0000 0.0000 0.0000 0.0000 32.8367 0.0000
# 6 0.0000 0.0000 0.0000 0.0000 0.0000 20.3949
#
#
#
# Elastic Compliance Matrix: (Units=1/GPa)
#
#
# Indices 1 2 3 4 5 6 
#
# 1 0.023059 -0.002173 -0.007823 0.000000 0.000000 0.000000
# 2 -0.002173 0.019278 -0.003771 0.000000 0.000000 0.000000
# 3 -0.007823 -0.003771 0.011506 0.000000 0.000000 0.000000
# 4 0.000000 0.000000 0.000000 0.038282 0.000000 0.000000
# 5 0.000000 0.000000 0.000000 0.000000 0.030454 0.000000
# 6 0.000000 0.000000 0.000000 0.000000 0.000000 0.049032
#
#
# Mechanical properties :
#
#
# Convention : Reuss Voigt Hill
#
# Bulk Modulus (GPa) = 38.01177 48.23291 43.12234
# Shear Modulus (GPa) = 24.04830 26.26748 25.15789
#
# Velocity S-wave (km/s) = 3.54941 3.70957 3.63037
# Velocity P-wave (km/s) = 6.05898 6.60423 6.33747
#
# Compressibility (1/GPa) = 0.02630764
#
# Stress axis : x y z
#
# Youngs Moduli (GPa) = 43.36718 51.87202 86.91243
#
# Poissons Ratio (x) = 0.11272 0.67995
# Poissons Ratio (y) = 0.09424 0.32777
# Poissons Ratio (z) = 0.33928 0.19563
#
# Static dielectric constant tensor:
#      x y z
#    x 3.453790 0.000000 0.000000 
#    y 0.000000 3.589880 0.000000 
#    z 0.000000 0.000000 7.057770 
# 
# 
# High freq. dielectric constant tensor:
#      x y z
#    x 1.742340 0.000000 0.000000 
#    y 0.000000 1.734800 0.000000 
#    z 0.000000 0.000000 1.750680 
# 
# From -- ./inp_files/17703.got.cif
#   From: 2010.03.12/outbox.cif.g09.slc.cpg/sg57_9_cif.got.tgz:17703.got - 2010.04.16 15:48:40.
