data_PCOD8232993
_publ_section_title
;
Structure prediction by ZEFSAII (Michael W. Deem and Ramdas Pophale) SiO2 
 PCOD8232993
Probable space group: P B C M
;
_chemical_formula_sum "Si O2"
_cell_formula_units_Z 40
_cell_length_a 16.230297
_cell_length_b 14.452446
_cell_length_c 8.784822
_cell_angle_alpha 90.000000
_cell_angle_beta 90.000000
_cell_angle_gamma 90.000000
_cell_volume 2060.633655
_symmetry_space_group_name_H-M "P B C M"
_symmetry_group_IT_number 57
_symmetry_cell_setting 'orthorhombic'
loop_
_space_group_symop_operation_xyz
x,y,z
-x,-y,1/2+z
x,1/2-y,-z
-x,1/2+y,1/2-z
-x,-y,-z
x,y,1/2-z
-x,1/2+y,z
x,1/2-y,1/2+z
loop_
_atom_site_type_symbol
_atom_site_label
_atom_site_fract_x
_atom_site_fract_y
_atom_site_fract_z
Si Si1 0.877116 0.485922 0.428824
Si Si2 0.025840 0.147848 0.570904
Si Si3 0.294197 0.985759 0.569506
Si Si4 0.618794 0.848357 0.929859
Si Si5 0.566548 0.347110 0.928556
O O1 0.870007 0.501633 0.250000
O O2 0.901497 0.584303 0.503081
O O3 0.791040 0.451401 0.497669
O O4 0.940574 0.403894 0.469151
O O5 0.026288 0.250000 0.500000
O O6 0.039542 0.157145 0.750000
O O7 0.286943 0.985833 0.750000
O O8 0.314411 0.086806 0.507998
O O9 0.367658 0.920403 0.509706
O O10 0.631905 0.847003 0.750000
O O11 0.525669 0.878938 0.974640
O O12 0.638157 0.750000 0.000000
O O13 0.573226 0.335260 0.750000
O O14 0.590164 0.250000 0.000000
#
# Coordination Sequence:
#
# PCOD8232993 Si02
#       5
#     8   8   8   8   8
#     4  10  22  39  58  84 114 144 182 224 268 323
#     4  10  21  39  63  86 111 144 179 220 271 326
#     4  11  22  36  55  82 114 146 182 227 276 323
#     4  10  20  36  56  79 108 145 188 231 276 325
#     4   9  20  36  55  79 109 146 187 230 274 323
#
# _framework density 19.411503
#
# number of rings (size 3 to 8) (size 9 to 14) (size 15 to 20)
#    0.000    2.000    0.000    3.000    0.000    6.400 
#    0.000    8.000    0.000    0.000    0.000    0.000 
#    0.000    0.000    0.000    0.000    0.000    0.000 
#
# Total GULP energy -496098.942818 kJ/mol
# GULP energy per Si atom -12402.473570 kJ/mol
# Density = 1.936732 g / cm^3
# Si number density = 19.411503 Si / 1000 Ang^3
#
#
#
# Elastic Constant Matrix: (Units=GPa)
#
#
# Indices 1 2 3 4 5 6 
#
# 1 61.0980 11.4177 17.1777 0.0000 0.0000 0.0000
# 2 11.4177 76.8483 26.4180 0.0000 0.0000 0.0000
# 3 17.1777 26.4180 61.7905 0.0000 0.0000 0.0000
# 4 0.0000 0.0000 0.0000 35.4818 0.0000 0.0000
# 5 0.0000 0.0000 0.0000 0.0000 34.8594 0.0000
# 6 0.0000 0.0000 0.0000 0.0000 0.0000 20.4015
#
#
#
# Elastic Compliance Matrix: (Units=1/GPa)
#
#
# Indices 1 2 3 4 5 6 
#
# 1 0.017835 -0.001108 -0.004484 0.000000 0.000000 0.000000
# 2 -0.001108 0.015324 -0.006243 0.000000 0.000000 0.000000
# 3 -0.004484 -0.006243 0.020100 0.000000 0.000000 0.000000
# 4 0.000000 0.000000 0.000000 0.028183 0.000000 0.000000
# 5 0.000000 0.000000 0.000000 0.000000 0.028687 0.000000
# 6 0.000000 0.000000 0.000000 0.000000 0.000000 0.049016
#
#
# Mechanical properties :
#
#
# Convention : Reuss Voigt Hill
#
# Bulk Modulus (GPa) = 33.79930 34.41815 34.10873
# Shear Modulus (GPa) = 25.94999 27.79677 26.87338
#
# Velocity S-wave (km/s) = 3.66024 3.78825 3.72480
# Velocity P-wave (km/s) = 5.94247 6.07484 6.00902
#
# Compressibility (1/GPa) = 0.02958641
#
# Stress axis : x y z
#
# Youngs Moduli (GPa) = 56.06953 65.25892 49.75215
#
# Poissons Ratio (x) = 0.07232 0.22310
# Poissons Ratio (y) = 0.06214 0.31062
# Poissons Ratio (z) = 0.25143 0.40743
#
# Static dielectric constant tensor:
#      x y z
#    x 3.684970 0.000000 0.000000 
#    y 0.000000 3.503520 0.000000 
#    z 0.000000 0.000000 3.638000 
# 
# 
# High freq. dielectric constant tensor:
#      x y z
#    x 1.759380 0.000000 0.000000 
#    y 0.000000 1.756450 0.000000 
#    z 0.000000 0.000000 1.766020 
# 
# From -- ./inp_files/4262.got.cif
#   From: 2010.03.12/outbox.cif.g09.slc.cpg/sg57_3_cif.got.tgz:4262.got - 2010.04.16 15:48:40.
