data_PCOD8232683
_publ_section_title
;
Structure prediction by ZEFSAII (Michael W. Deem and Ramdas Pophale) SiO2 
 PCOD8232683
Probable space group: P B C M
;
_chemical_formula_sum "Si O2"
_cell_formula_units_Z 48
_cell_length_a 27.540213
_cell_length_b 9.882973
_cell_length_c 9.645877
_cell_angle_alpha 90.000000
_cell_angle_beta 90.000000
_cell_angle_gamma 90.000000
_cell_volume 2625.406907
_symmetry_space_group_name_H-M "P B C M"
_symmetry_group_IT_number 57
_symmetry_cell_setting 'orthorhombic'
loop_
_space_group_symop_operation_xyz
x,y,z
-x,-y,1/2+z
x,1/2-y,-z
-x,1/2+y,1/2-z
-x,-y,-z
x,y,1/2-z
-x,1/2+y,z
x,1/2-y,1/2+z
loop_
_atom_site_type_symbol
_atom_site_label
_atom_site_fract_x
_atom_site_fract_y
_atom_site_fract_z
Si Si1 0.890664 0.401733 0.481199
Si Si2 0.360363 0.876574 0.092365
Si Si3 0.944905 0.454666 0.750000
Si Si4 0.183417 0.372594 0.906654
Si Si5 0.527003 0.384990 0.085629
Si Si6 0.705731 0.876472 0.911421
Si Si7 0.966567 0.350421 0.250000
O O1 0.869767 0.250000 0.500000
O O2 0.908780 0.468046 0.621972
O O3 0.847893 0.492119 0.420653
O O4 0.937507 0.398218 0.383770
O O5 0.348322 0.837637 0.250000
O O6 0.416219 0.918263 0.075795
O O7 0.327190 0.999158 0.040923
O O8 0.346051 0.750000 0.000000
O O9 0.973920 0.311989 0.750000
O O10 0.981124 0.580708 0.750000
O O11 0.180804 0.319937 0.750000
O O12 0.238421 0.410295 0.947955
O O13 0.163174 0.250000 0.000000
O O14 0.511307 0.375543 0.250000
O O15 0.514535 0.250000 0.000000
O O16 0.500000 0.500000 0.000000
O O17 0.698490 0.843115 0.750000
O O18 0.687307 0.750000 0.000000
#
# Coordination Sequence:
#
# PCOD8232683 Si02
#       7
#     8   8   4   8   8   8   4
#     4  10  21  37  56  79 108 141 174 216 262 310
#     4   9  19  35  55  79 109 142 182 225 271 323
#     4  10  22  34  56  80 106 138 174 214 257 314
#     4  10  21  37  57  80 108 139 176 220 265 315
#     4  10  20  35  54  79 110 147 187 232 278 330
#     4   9  19  36  55  78 107 139 175 220 268 318
#     4  10  20  38  54  78 108 138 174 214 261 306
#
# _framework density 18.282878
#
# number of rings (size 3 to 8) (size 9 to 14) (size 15 to 20)
#    0.000    2.333    0.833    1.000    1.167    4.000 
#    0.000    1.667    0.000    0.000    0.000    0.000 
#    0.000    0.000    0.000    0.000    0.000    0.000 
#
# Total GULP energy -595222.527498 kJ/mol
# GULP energy per Si atom -12400.469323 kJ/mol
# Density = 1.824127 g / cm^3
# Si number density = 18.282878 Si / 1000 Ang^3
#
#
#
# Elastic Constant Matrix: (Units=GPa)
#
#
# Indices 1 2 3 4 5 6 
#
# 1 58.4053 56.6264 28.1426 0.0000 0.0000 0.0000
# 2 56.6264 114.2483 43.7343 0.0000 0.0000 0.0000
# 3 28.1426 43.7343 97.3970 0.0000 0.0000 0.0000
# 4 0.0000 0.0000 0.0000 38.7297 0.0000 0.0000
# 5 0.0000 0.0000 0.0000 0.0000 -7.2257 0.0000
# 6 0.0000 0.0000 0.0000 0.0000 0.0000 36.3109
#
#
#
# Elastic Compliance Matrix: (Units=1/GPa)
#
#
# Indices 1 2 3 4 5 6 
#
# 1 0.033534 -0.015592 -0.002688 0.000000 0.000000 0.000000
# 2 -0.015592 0.017819 -0.003496 0.000000 0.000000 0.000000
# 3 -0.002688 -0.003496 0.012614 0.000000 0.000000 0.000000
# 4 0.000000 0.000000 0.000000 0.025820 0.000000 0.000000
# 5 0.000000 0.000000 0.000000 0.000000 -0.138395 0.000000
# 6 0.000000 0.000000 0.000000 0.000000 0.000000 0.027540
#
#
# Mechanical properties :
#
#
# Convention : Reuss Voigt Hill
#
# Bulk Modulus (GPa) = 48.98477 58.56190 53.77334
# Shear Modulus (GPa) = 170.70979 22.99947 96.85463
#
# Velocity S-wave (km/s) = 9.67337 3.55065 7.28633
# Velocity P-wave (km/s) = 12.31326 6.99357 10.01315
#
# Compressibility (1/GPa) = 0.02041451
#
# Stress axis : x y z
#
# Youngs Moduli (GPa) = 29.82037 56.11919 79.27749
#
# Poissons Ratio (x) = 0.87500 0.21313
# Poissons Ratio (y) = 0.46496 0.27717
# Poissons Ratio (z) = 0.08017 0.19620
#
# Static dielectric constant tensor:
#      x y z
#    x 3.242390 0.000000 0.000000 
#    y 0.000000 3.359930 0.000000 
#    z 0.000000 0.000000 3.602440 
# 
# 
# High freq. dielectric constant tensor:
#      x y z
#    x 1.699710 0.000000 0.000000 
#    y 0.000000 1.708170 0.000000 
#    z 0.000000 0.000000 1.725320 
# 
# From -- ./inp_files/10114.got.cif
#   From: 2010.03.12/outbox.cif.g09.slc.cpg/sg57_6_cif.got.tgz:10114.got - 2010.04.16 15:48:40.
