data_PCOD8232973
_publ_section_title
;
Structure prediction by ZEFSAII (Michael W. Deem and Ramdas Pophale) SiO2 
 PCOD8232973
Probable space group: P B C M
;
_chemical_formula_sum "Si O2"
_cell_formula_units_Z 64
_cell_length_a 14.564060
_cell_length_b 8.699542
_cell_length_c 28.240727
_cell_angle_alpha 90.000000
_cell_angle_beta 90.000000
_cell_angle_gamma 90.000000
_cell_volume 3578.118514
_symmetry_space_group_name_H-M "P B C M"
_symmetry_group_IT_number 57
_symmetry_cell_setting 'orthorhombic'
loop_
_space_group_symop_operation_xyz
x,y,z
-x,-y,1/2+z
x,1/2-y,-z
-x,1/2+y,1/2-z
-x,-y,-z
x,y,1/2-z
-x,1/2+y,z
x,1/2-y,1/2+z
loop_
_atom_site_type_symbol
_atom_site_label
_atom_site_fract_x
_atom_site_fract_y
_atom_site_fract_z
Si Si1 0.588516 0.900829 0.060668
Si Si2 0.242785 0.675206 0.546905
Si Si3 0.057692 0.511108 0.952870
Si Si4 0.026062 0.314978 0.197037
Si Si5 0.397075 0.048721 0.450821
Si Si6 0.241926 0.965185 0.608673
Si Si7 0.866043 0.386254 0.698054
Si Si8 0.911752 0.799174 0.401596
O O1 0.597539 0.719334 0.070305
O O2 0.652665 0.987485 0.099005
O O3 0.484470 0.954274 0.067842
O O4 0.615558 0.945457 0.007388
O O5 0.288977 0.750000 0.500000
O O6 0.147086 0.602862 0.531953
O O7 0.309754 0.545265 0.568838
O O8 0.220546 0.803736 0.585005
O O9 0.089638 0.343828 0.936412
O O10 0.000910 0.595074 0.911535
O O11 0.000000 0.500000 0.000000
O O12 0.055087 0.253864 0.250000
O O13 0.046954 0.496901 0.194376
O O14 0.084616 0.242692 0.153327
O O15 0.917083 0.277601 0.188634
O O16 0.178916 0.100863 0.587550
O O17 0.216958 0.933655 0.663507
O O18 0.820631 0.389649 0.750000
#
# Coordination Sequence:
#
# PCOD8232973 Si02
#       8
#     8   8   8   8   8   8   8   8
#     4  10  20  36  55  81 103 136 168 220 276 322
#     4  12  22  35  50  74 103 142 179 220 261 314
#     4  12  24  35  47  66 102 145 188 216 255 310
#     4   9  17  31  51  72  97 129 175 226 274 311
#     4  10  21  35  57  77 107 132 174 219 270 320
#     4  11  21  34  54  76 108 140 179 222 272 324
#     4   9  18  32  52  78 105 141 184 230 277 325
#     4  11  21  35  50  71 100 141 182 222 262 320
#
# _framework density 17.886496000000001
#
# number of rings (size 3 to 8) (size 9 to 14) (size 15 to 20)
#    0.000    1.500    1.250    6.375    1.750    0.000 
#    0.000    0.000    0.000    0.000    0.000    3.500 
#    0.000    0.000    0.000    0.000    0.000    0.000 
#
# Total GULP energy -793270.772595 kJ/mol
# GULP energy per Si atom -12394.855822 kJ/mol
# Density = 1.784579 g / cm^3
# Si number density = 17.886496 Si / 1000 Ang^3
#
#
#
# Elastic Constant Matrix: (Units=GPa)
#
#
# Indices 1 2 3 4 5 6 
#
# 1 101.6067 41.0788 39.0509 0.0000 0.0000 0.0000
# 2 41.0788 101.0116 44.0312 0.0000 0.0000 0.0000
# 3 39.0509 44.0312 97.2105 0.0000 0.0000 0.0000
# 4 0.0000 0.0000 0.0000 21.3504 0.0000 0.0000
# 5 0.0000 0.0000 0.0000 0.0000 23.9961 0.0000
# 6 0.0000 0.0000 0.0000 0.0000 0.0000 36.3282
#
#
#
# Elastic Compliance Matrix: (Units=1/GPa)
#
#
# Indices 1 2 3 4 5 6 
#
# 1 0.012631 -0.003644 -0.003423 0.000000 0.000000 0.000000
# 2 -0.003644 0.013387 -0.004600 0.000000 0.000000 0.000000
# 3 -0.003423 -0.004600 0.013745 0.000000 0.000000 0.000000
# 4 0.000000 0.000000 0.000000 0.046837 0.000000 0.000000
# 5 0.000000 0.000000 0.000000 0.000000 0.041673 0.000000
# 6 0.000000 0.000000 0.000000 0.000000 0.000000 0.027527
#
#
# Mechanical properties :
#
#
# Convention : Reuss Voigt Hill
#
# Bulk Modulus (GPa) = 60.86874 60.90562 60.88718
# Shear Modulus (GPa) = 27.08382 28.04613 27.56498
#
# Velocity S-wave (km/s) = 3.89550 3.96410 3.92995
# Velocity P-wave (km/s) = 7.37141 7.42140 7.39645
#
# Compressibility (1/GPa) = 0.01642879
#
# Stress axis : x y z
#
# Youngs Moduli (GPa) = 79.17043 74.69981 72.75112
#
# Poissons Ratio (x) = 0.27224 0.24905
# Poissons Ratio (y) = 0.28853 0.33462
# Poissons Ratio (z) = 0.27102 0.34358
#
# Static dielectric constant tensor:
#      x y z
#    x 3.127220 0.000000 0.000000 
#    y 0.000000 3.497650 0.000000 
#    z 0.000000 0.000000 3.278690 
# 
# 
# High freq. dielectric constant tensor:
#      x y z
#    x 1.669220 0.000000 0.000000 
#    y 0.000000 1.708970 0.000000 
#    z 0.000000 0.000000 1.671570 
# 
# From -- ./inp_files/29895.got.cif
#   From: 2010.03.12/outbox.cif.g09.slc.cpg/sg57_15_cif.got.tgz:29895.got - 2010.04.16 15:48:40.
