data_PCOD8232463
_publ_section_title
;
Structure prediction by ZEFSAII (Michael W. Deem and Ramdas Pophale) SiO2 
 PCOD8232463
Probable space group: P B C M
;
_chemical_formula_sum "Si O2"
_cell_formula_units_Z 56
_cell_length_a 19.984657
_cell_length_b 15.644668
_cell_length_c 8.783431
_cell_angle_alpha 90.000000
_cell_angle_beta 90.000000
_cell_angle_gamma 90.000000
_cell_volume 2746.168897
_symmetry_space_group_name_H-M "P B C M"
_symmetry_group_IT_number 57
_symmetry_cell_setting 'orthorhombic'
loop_
_space_group_symop_operation_xyz
x,y,z
-x,-y,1/2+z
x,1/2-y,-z
-x,1/2+y,1/2-z
-x,-y,-z
x,y,1/2-z
-x,1/2+y,z
x,1/2-y,1/2+z
loop_
_atom_site_type_symbol
_atom_site_label
_atom_site_fract_x
_atom_site_fract_y
_atom_site_fract_z
Si Si1 0.626050 0.665510 0.926254
Si Si2 0.927577 0.500027 0.926324
Si Si3 0.897288 0.830418 0.919325
Si Si4 0.799852 0.057511 0.573011
Si Si5 0.329478 0.657419 0.930678
Si Si6 0.572892 0.495104 0.429957
Si Si7 0.247880 0.368131 0.917174
O O1 0.606021 0.658987 0.750000
O O2 0.591184 0.750000 0.000000
O O3 0.608721 0.580771 0.017647
O O4 0.705963 0.673146 0.951324
O O5 0.935108 0.481711 0.750000
O O6 0.901438 0.593542 0.961890
O O7 0.872392 0.432298 0.990443
O O8 0.000000 0.500000 0.000000
O O9 0.928392 0.848502 0.750000
O O10 0.818810 0.812004 0.901881
O O11 0.933366 0.750000 0.000000
O O12 0.815550 0.067948 0.750000
O O13 0.745141 0.127443 0.517108
O O14 0.768081 0.965764 0.538133
O O15 0.331957 0.664271 0.750000
O O16 0.385302 0.588350 0.986331
O O17 0.346152 0.750000 0.000000
O O18 0.500000 0.500000 0.500000
O O19 0.566927 0.492884 0.250000
O O20 0.284038 0.366853 0.750000
#
# Coordination Sequence:
#
# PCOD8232463 Si02
#       7
#     8   8   8   8   8   8   8
#     4  12  24  37  58  88 121 159 200 247 302 366
#     4  11  22  37  58  85 117 158 204 253 307 373
#     4  10  20  34  53  80 114 150 189 235 290 353
#     4   9  18  37  61  86 119 160 200 253 313 367
#     4  10  22  41  67  95 128 166 211 266 324 380
#     4  11  24  45  66  90 125 166 209 261 321 382
#     4   9  17  33  56  82 117 153 188 235 292 353
#
# _framework density 20.392046000000001
#
# number of rings (size 3 to 8) (size 9 to 14) (size 15 to 20)
#    0.000    1.714    1.429    4.714    0.000    6.286 
#    0.000    2.143    0.000    1.714    0.000    0.000 
#    0.000    0.000    0.000    0.000    0.000    0.000 
#
# Total GULP energy -693906.393012 kJ/mol
# GULP energy per Si atom -12391.185590 kJ/mol
# Density = 2.034563 g / cm^3
# Si number density = 20.392046 Si / 1000 Ang^3
#
#
#
# Elastic Constant Matrix: (Units=GPa)
#
#
# Indices 1 2 3 4 5 6 
#
# 1 123.5268 43.3901 47.6105 0.0000 0.0000 0.0000
# 2 43.3901 118.7046 37.5438 0.0000 0.0000 0.0000
# 3 47.6105 37.5438 98.3809 0.0000 0.0000 0.0000
# 4 0.0000 0.0000 0.0000 32.5141 0.0000 0.0000
# 5 0.0000 0.0000 0.0000 0.0000 34.1865 0.0000
# 6 0.0000 0.0000 0.0000 0.0000 0.0000 10.5186
#
#
#
# Elastic Compliance Matrix: (Units=1/GPa)
#
#
# Indices 1 2 3 4 5 6 
#
# 1 0.010594 -0.002560 -0.004150 0.000000 0.000000 0.000000
# 2 -0.002560 0.010199 -0.002653 0.000000 0.000000 0.000000
# 3 -0.004150 -0.002653 0.013186 0.000000 0.000000 0.000000
# 4 0.000000 0.000000 0.000000 0.030756 0.000000 0.000000
# 5 0.000000 0.000000 0.000000 0.000000 0.029251 0.000000
# 6 0.000000 0.000000 0.000000 0.000000 0.000000 0.095070
#
#
# Mechanical properties :
#
#
# Convention : Reuss Voigt Hill
#
# Bulk Modulus (GPa) = 65.56396 66.41122 65.98759
# Shear Modulus (GPa) = 23.48893 29.58170 26.53532
#
# Velocity S-wave (km/s) = 3.39760 3.81287 3.61121
# Velocity P-wave (km/s) = 6.90022 7.21262 7.05815
#
# Compressibility (1/GPa) = 0.01525228
#
# Stress axis : x y z
#
# Youngs Moduli (GPa) = 94.39184 98.04704 75.84084
#
# Poissons Ratio (x) = 0.25099 0.31474
# Poissons Ratio (y) = 0.24163 0.20123
# Poissons Ratio (z) = 0.39173 0.26015
#
# Static dielectric constant tensor:
#      x y z
#    x 0.797470 0.000000 0.000000 
#    y 0.000000 3.724220 0.000000 
#    z 0.000000 0.000000 4.884570 
# 
# 
# High freq. dielectric constant tensor:
#      x y z
#    x 1.787690 0.000000 0.000000 
#    y 0.000000 1.791480 0.000000 
#    z 0.000000 0.000000 1.794910 
# 
# From -- ./inp_files/8022.got.cif
#   From: 2010.03.12/outbox.cif.g09.slc.cpg/sg57_5_cif.got.tgz:8022.got - 2010.04.16 15:48:40.
