data_PCOD8232967
_publ_section_title
;
Structure prediction by ZEFSAII (Michael W. Deem and Ramdas Pophale) SiO2 
 PCOD8232967
Probable space group: P B C M
;
_chemical_formula_sum "Si O2"
_cell_formula_units_Z 56
_cell_length_a 14.067072
_cell_length_b 24.156160
_cell_length_c 8.643623
_cell_angle_alpha 90.000000
_cell_angle_beta 90.000000
_cell_angle_gamma 90.000000
_cell_volume 2937.158777
_symmetry_space_group_name_H-M "P B C M"
_symmetry_group_IT_number 57
_symmetry_cell_setting 'orthorhombic'
loop_
_space_group_symop_operation_xyz
x,y,z
-x,-y,1/2+z
x,1/2-y,-z
-x,1/2+y,1/2-z
-x,-y,-z
x,y,1/2-z
-x,1/2+y,z
x,1/2-y,1/2+z
loop_
_atom_site_type_symbol
_atom_site_label
_atom_site_fract_x
_atom_site_fract_y
_atom_site_fract_z
Si Si1 0.324051 0.587634 0.931677
Si Si2 0.795140 0.308574 0.065894
Si Si3 0.829179 0.630297 0.932693
Si Si4 0.713898 0.975519 0.429431
Si Si5 0.998850 0.808339 0.933004
Si Si6 0.538471 0.902273 0.068239
Si Si7 0.344643 0.307874 0.568232
O O1 0.319913 0.589707 0.750000
O O2 0.274759 0.643271 0.996182
O O3 0.432735 0.583377 0.989075
O O4 0.267212 0.533249 0.985229
O O5 0.798041 0.305155 0.250000
O O6 0.758263 0.250000 0.000000
O O7 0.899367 0.322788 0.003884
O O8 0.844402 0.633962 0.750000
O O9 0.792216 0.569475 0.983400
O O10 0.752045 0.675479 0.982196
O O11 0.927590 0.642557 0.019419
O O12 0.724901 0.987127 0.250000
O O13 0.608036 0.953540 0.468927
O O14 0.007186 0.803803 0.750000
O O15 0.960885 0.750000 0.000000
O O16 0.543309 0.887221 0.250000
O O17 0.570843 0.850029 0.968559
O O18 0.379179 0.250000 0.500000
O O19 0.325522 0.304664 0.750000
#
# Coordination Sequence:
#
# PCOD8232967 Si02
#       7
#     8   8   8   8   8   8   8
#     4  10  21  36  57  80 107 140 178 222 269 315
#     4  10  21  38  57  80 107 139 176 221 267 313
#     4  10  20  36  55  79 110 142 175 218 264 314
#     4   9  19  34  55  80 109 141 176 217 264 315
#     4  11  21  35  57  83 108 140 177 218 264 318
#     4   9  19  36  53  76 108 143 181 224 267 313
#     4  11  21  33  50  76 108 143 179 220 267 320
#
# _framework density 19.066044999999999
#
# number of rings (size 3 to 8) (size 9 to 14) (size 15 to 20)
#    0.000    2.000    0.000    6.000    0.000    5.143 
#    0.000    2.143    0.000    0.000    0.000    0.000 
#    0.000    0.000    0.000    0.000    0.000    0.000 
#
# Total GULP energy -694500.679112 kJ/mol
# GULP energy per Si atom -12401.797841 kJ/mol
# Density = 1.902265 g / cm^3
# Si number density = 19.066045 Si / 1000 Ang^3
#
#
#
# Elastic Constant Matrix: (Units=GPa)
#
#
# Indices 1 2 3 4 5 6 
#
# 1 87.3047 62.5437 25.3188 0.0000 0.0000 0.0000
# 2 62.5437 140.8560 38.5006 0.0000 0.0000 0.0000
# 3 25.3188 38.5006 63.4496 0.0000 0.0000 0.0000
# 4 0.0000 0.0000 0.0000 34.5131 0.0000 0.0000
# 5 0.0000 0.0000 0.0000 0.0000 24.3830 0.0000
# 6 0.0000 0.0000 0.0000 0.0000 0.0000 51.4035
#
#
#
# Elastic Compliance Matrix: (Units=1/GPa)
#
#
# Indices 1 2 3 4 5 6 
#
# 1 0.017166 -0.006893 -0.002667 0.000000 0.000000 0.000000
# 2 -0.006893 0.011279 -0.004093 0.000000 0.000000 0.000000
# 3 -0.002667 -0.004093 0.019309 0.000000 0.000000 0.000000
# 4 0.000000 0.000000 0.000000 0.028974 0.000000 0.000000
# 5 0.000000 0.000000 0.000000 0.000000 0.041012 0.000000
# 6 0.000000 0.000000 0.000000 0.000000 0.000000 0.019454
#
#
# Mechanical properties :
#
#
# Convention : Reuss Voigt Hill
#
# Bulk Modulus (GPa) = 48.90881 60.48184 54.69532
# Shear Modulus (GPa) = 29.18578 33.07641 31.13109
#
# Velocity S-wave (km/s) = 3.91675 4.16965 4.04518
# Velocity P-wave (km/s) = 6.79431 7.41434 7.11109
#
# Compressibility (1/GPa) = 0.02044621
#
# Stress axis : x y z
#
# Youngs Moduli (GPa) = 58.25593 88.66055 51.79016
#
# Poissons Ratio (x) = 0.61113 0.13813
# Poissons Ratio (y) = 0.40156 0.21200
# Poissons Ratio (z) = 0.15538 0.36293
#
# Static dielectric constant tensor:
#      x y z
#    x 3.535050 0.000000 0.000000 
#    y 0.000000 3.598720 0.000000 
#    z 0.000000 0.000000 3.431750 
# 
# 
# High freq. dielectric constant tensor:
#      x y z
#    x 1.731690 0.000000 0.000000 
#    y 0.000000 1.741900 0.000000 
#    z 0.000000 0.000000 1.744070 
# 
# From -- ./inp_files/5119.got.cif
#   From: 2010.03.12/outbox.cif.g09.slc.cpg/sg57_3_cif.got.tgz:5119.got - 2010.04.16 15:48:40.
