data_PCOD8232337
_publ_section_title
;
Structure prediction by ZEFSAII (Michael W. Deem and Ramdas Pophale) SiO2 
 PCOD8232337
Probable space group: P B C M
;
_chemical_formula_sum "Si O2"
_cell_formula_units_Z 40
_cell_length_a 8.746743
_cell_length_b 9.853791
_cell_length_c 24.630523
_cell_angle_alpha 90.000000
_cell_angle_beta 90.000000
_cell_angle_gamma 90.000000
_cell_volume 2122.869739
_symmetry_space_group_name_H-M "P B C M"
_symmetry_group_IT_number 57
_symmetry_cell_setting 'orthorhombic'
loop_
_space_group_symop_operation_xyz
x,y,z
-x,-y,1/2+z
x,1/2-y,-z
-x,1/2+y,1/2-z
-x,-y,-z
x,y,1/2-z
-x,1/2+y,z
x,1/2-y,1/2+z
loop_
_atom_site_type_symbol
_atom_site_label
_atom_site_fract_x
_atom_site_fract_y
_atom_site_fract_z
Si Si1 0.622438 0.765121 0.649925
Si Si2 0.331235 0.949951 0.646309
Si Si3 0.303241 0.616521 0.472240
Si Si4 0.333302 0.366110 0.962611
Si Si5 0.122061 0.974764 0.750000
Si Si6 0.161127 0.280634 0.750000
O O1 0.460169 0.837834 0.658423
O O2 0.597425 0.602411 0.642642
O O3 0.710351 0.831026 0.598833
O O4 0.730918 0.799992 0.699007
O O5 0.244713 0.914796 0.589169
O O6 0.214041 0.937232 0.695716
O O7 0.231728 0.750000 0.500000
O O8 0.484660 0.626985 0.467199
O O9 0.255815 0.502930 0.515904
O O10 0.264235 0.250000 0.000000
O O11 0.964569 0.896005 0.750000
O O12 0.081441 0.133812 0.750000
#
# Coordination Sequence:
#
# PCOD8232337 Si02
#       6
#     8   8   8   8   4   4
#     4  10  20  33  56  83 111 137 178 220 267 314
#     4  10  20  34  55  84 111 138 175 224 263 314
#     4   9  17  27  46  77 113 139 170 209 262 316
#     4   9  15  27  46  75 110 140 164 207 262 314
#     4  10  23  42  58  74 106 142 183 226 268 316
#     4  10  23  42  56  76 104 144 183 224 268 322
#
# _framework density 18.842417999999999
#
# number of rings (size 3 to 8) (size 9 to 14) (size 15 to 20)
#    0.000    2.400    2.000    0.600    8.400    1.600 
#    0.000    0.000    0.000    2.400    0.000    0.000 
#    0.000    0.000    0.000    0.000    0.000    0.000 
#
# Total GULP energy -495747.850722 kJ/mol
# GULP energy per Si atom -12393.696268 kJ/mol
# Density = 1.879953 g / cm^3
# Si number density = 18.842418 Si / 1000 Ang^3
#
#
#
# Elastic Constant Matrix: (Units=GPa)
#
#
# Indices 1 2 3 4 5 6 
#
# 1 28.9267 20.0069 26.6637 0.0000 0.0000 0.0000
# 2 20.0069 116.5175 61.0479 0.0000 0.0000 0.0000
# 3 26.6637 61.0479 166.3627 0.0000 0.0000 0.0000
# 4 0.0000 0.0000 0.0000 35.7965 0.0000 0.0000
# 5 0.0000 0.0000 0.0000 0.0000 -85.3861 0.0000
# 6 0.0000 0.0000 0.0000 0.0000 0.0000 23.4373
#
#
#
# Elastic Compliance Matrix: (Units=1/GPa)
#
#
# Indices 1 2 3 4 5 6 
#
# 1 0.042476 -0.004614 -0.005115 0.000000 0.000000 0.000000
# 2 -0.004614 0.011126 -0.003343 0.000000 0.000000 0.000000
# 3 -0.005115 -0.003343 0.008058 0.000000 0.000000 0.000000
# 4 0.000000 0.000000 0.000000 0.027936 0.000000 0.000000
# 5 0.000000 0.000000 0.000000 0.000000 -0.011712 0.000000
# 6 0.000000 0.000000 0.000000 0.000000 0.000000 0.042667
#
#
# Mechanical properties :
#
#
# Convention : Reuss Voigt Hill
#
# Bulk Modulus (GPa) = 28.15627 58.58268 43.36948
# Shear Modulus (GPa) = 31.53911 8.37543 19.95727
#
# Velocity S-wave (km/s) = 4.09569 2.11060 3.25802
# Velocity P-wave (km/s) = 6.11079 6.09080 6.10080
#
# Compressibility (1/GPa) = 0.03551607
#
# Stress axis : x y z
#
# Youngs Moduli (GPa) = 23.54286 89.87684 124.10590
#
# Poissons Ratio (x) = 0.41465 0.63478
# Poissons Ratio (y) = 0.10862 0.41494
# Poissons Ratio (z) = 0.12042 0.30050
#
# Static dielectric constant tensor:
#      x y z
#    x 2.772020 0.000000 0.000000 
#    y 0.000000 3.793180 0.000000 
#    z 0.000000 0.000000 3.913540 
# 
# 
# High freq. dielectric constant tensor:
#      x y z
#    x 1.663840 0.000000 0.000000 
#    y 0.000000 1.750200 0.000000 
#    z 0.000000 0.000000 1.759540 
# 
# From -- ./inp_files/24158.got.cif
#   From: 2010.03.12/outbox.cif.g09.slc.cpg/sg57_13_cif.got.tgz:24158.got - 2010.04.16 15:48:40.
