data_PCOD8232173
_publ_section_title
;
Structure prediction by ZEFSAII (Michael W. Deem and Ramdas Pophale) SiO2 
 PCOD8232173
Probable space group: P B C M
;
_chemical_formula_sum "Si O2"
_cell_formula_units_Z 56
_cell_length_a 20.581556
_cell_length_b 18.089075
_cell_length_c 9.107679
_cell_angle_alpha 90.000000
_cell_angle_beta 90.000000
_cell_angle_gamma 90.000000
_cell_volume 3390.800824
_symmetry_space_group_name_H-M "P B C M"
_symmetry_group_IT_number 57
_symmetry_cell_setting 'orthorhombic'
loop_
_space_group_symop_operation_xyz
x,y,z
-x,-y,1/2+z
x,1/2-y,-z
-x,1/2+y,1/2-z
-x,-y,-z
x,y,1/2-z
-x,1/2+y,z
x,1/2-y,1/2+z
loop_
_atom_site_type_symbol
_atom_site_label
_atom_site_fract_x
_atom_site_fract_y
_atom_site_fract_z
Si Si1 0.438786 0.033237 0.581165
Si Si2 0.877323 0.103861 0.424518
Si Si3 0.491396 0.824499 0.082312
Si Si4 0.986054 0.823968 0.582113
Si Si5 0.065322 0.023936 0.077960
Si Si6 0.369638 0.918915 0.420073
Si Si7 0.244470 0.824610 0.422739
O O1 0.439891 0.009525 0.750000
O O2 0.445466 0.121984 0.564599
O O3 0.500000 0.000000 0.500000
O O4 0.374728 0.997539 0.506013
O O5 0.868178 0.096878 0.250000
O O6 0.943801 0.145413 0.468743
O O7 0.820573 0.150806 0.496541
O O8 0.877027 0.021330 0.497178
O O9 0.479084 0.803607 0.250000
O O10 0.425393 0.862818 0.021132
O O11 0.508069 0.750000 0.000000
O O12 0.965077 0.750000 0.500000
O O13 0.991055 0.801545 0.750000
O O14 0.930407 0.886954 0.557555
O O15 0.063430 0.003369 0.250000
O O16 0.000000 0.000000 0.000000
O O17 0.382119 0.935375 0.250000
O O18 0.298873 0.886299 0.449458
O O19 0.269144 0.750000 0.500000
O O20 0.231857 0.811459 0.250000
#
# Coordination Sequence:
#
# PCOD8232173 Si02
#       7
#     8   8   8   8   8   8   8
#     4   9  17  29  45  65  89 117 151 188 227 271
#     4  10  20  33  47  66  92 125 162 194 228 273
#     4   9  17  28  43  66  92 117 147 184 224 269
#     4   9  18  29  44  67  93 119 149 186 228 273
#     4   9  17  30  46  66  91 120 154 192 233 277
#     4   9  19  33  46  64  91 122 157 190 224 268
#     4  11  22  34  48  68  95 126 159 194 228 269
#
# _framework density 16.515272
#
# number of rings (size 3 to 8) (size 9 to 14) (size 15 to 20)
#    0.000    2.571    0.000    4.286    0.000    8.571 
#    0.000    0.000    0.000    0.000    0.000    1.000 
#    0.000    6.857    0.000    0.000    0.000    0.000 
#
# Total GULP energy -694014.904568 kJ/mol
# GULP energy per Si atom -12393.123296 kJ/mol
# Density = 1.647768 g / cm^3
# Si number density = 16.515272 Si / 1000 Ang^3
#
#
#
# Elastic Constant Matrix: (Units=GPa)
#
#
# Indices 1 2 3 4 5 6 
#
# 1 28.2745 16.1868 19.6768 0.0000 0.0000 0.0000
# 2 16.1868 87.2185 44.8532 0.0000 0.0000 0.0000
# 3 19.6768 44.8532 84.8609 0.0000 0.0000 0.0000
# 4 0.0000 0.0000 0.0000 35.5218 0.0000 0.0000
# 5 0.0000 0.0000 0.0000 0.0000 22.6004 0.0000
# 6 0.0000 0.0000 0.0000 0.0000 0.0000 23.1954
#
#
#
# Elastic Compliance Matrix: (Units=1/GPa)
#
#
# Indices 1 2 3 4 5 6 
#
# 1 0.043132 -0.003930 -0.007924 0.000000 0.000000 0.000000
# 2 -0.003930 0.016103 -0.007600 0.000000 0.000000 0.000000
# 3 -0.007924 -0.007600 0.017638 0.000000 0.000000 0.000000
# 4 0.000000 0.000000 0.000000 0.028152 0.000000 0.000000
# 5 0.000000 0.000000 0.000000 0.000000 0.044247 0.000000
# 6 0.000000 0.000000 0.000000 0.000000 0.000000 0.043112
#
#
# Mechanical properties :
#
#
# Convention : Reuss Voigt Hill
#
# Bulk Modulus (GPa) = 26.33963 40.19862 33.26912
# Shear Modulus (GPa) = 20.49625 24.23933 22.36779
#
# Velocity S-wave (km/s) = 3.52667 3.83520 3.68417
# Velocity P-wave (km/s) = 5.70671 6.63361 6.18754
#
# Compressibility (1/GPa) = 0.03796561
#
# Stress axis : x y z
#
# Youngs Moduli (GPa) = 23.18478 62.09921 56.69458
#
# Poissons Ratio (x) = 0.24404 0.44924
# Poissons Ratio (y) = 0.09111 0.43089
# Poissons Ratio (z) = 0.18371 0.47196
#
# Static dielectric constant tensor:
#      x y z
#    x 3.102230 0.000000 0.000000 
#    y 0.000000 3.601820 0.000000 
#    z 0.000000 0.000000 3.316440 
# 
# 
# High freq. dielectric constant tensor:
#      x y z
#    x 1.591040 0.000000 0.000000 
#    y 0.000000 1.637460 0.000000 
#    z 0.000000 0.000000 1.649880 
# 
# From -- ./inp_files/8314.got.cif
#   From: 2010.03.12/outbox.cif.g09.slc.cpg/sg57_5_cif.got.tgz:8314.got - 2010.04.16 15:48:40.
