data_PCOD8232938
_publ_section_title
;
Structure prediction by ZEFSAII (Michael W. Deem and Ramdas Pophale) SiO2 
 PCOD8232938
Probable space group: P B C M
;
_chemical_formula_sum "Si O2"
_cell_formula_units_Z 48
_cell_length_a 11.482419
_cell_length_b 11.855511
_cell_length_c 17.812842
_cell_angle_alpha 90.000000
_cell_angle_beta 90.000000
_cell_angle_gamma 90.000000
_cell_volume 2424.861197
_symmetry_space_group_name_H-M "P B C M"
_symmetry_group_IT_number 57
_symmetry_cell_setting 'orthorhombic'
loop_
_space_group_symop_operation_xyz
x,y,z
-x,-y,1/2+z
x,1/2-y,-z
-x,1/2+y,1/2-z
-x,-y,-z
x,y,1/2-z
-x,1/2+y,z
x,1/2-y,1/2+z
loop_
_atom_site_type_symbol
_atom_site_label
_atom_site_fract_x
_atom_site_fract_y
_atom_site_fract_z
Si Si1 0.069144 0.948912 0.071759
Si Si2 0.169066 0.377950 0.092274
Si Si3 0.293146 0.799981 0.076519
Si Si4 0.549620 0.992445 0.583488
Si Si5 0.775987 0.861981 0.583327
Si Si6 0.319686 0.926076 0.837806
O O1 0.168001 0.854881 0.054507
O O2 0.965620 0.890692 0.118476
O O3 0.134810 0.046687 0.119973
O O4 0.000000 0.000000 0.000000
O O5 0.210645 0.257751 0.125111
O O6 0.238443 0.484198 0.121636
O O7 0.187178 0.367256 0.003548
O O8 0.385889 0.891569 0.106582
O O9 0.283810 0.699805 0.136904
O O10 0.346125 0.750000 0.000000
O O11 0.500000 0.000000 0.500000
O O12 0.641210 0.891470 0.589964
O O13 0.451110 0.960424 0.642799
O O14 0.300197 0.934280 0.750000
#
# Coordination Sequence:
#
# PCOD8232938 Si02
#       6
#     8   8   8   8   8   8
#     4   9  19  34  60  98 127 154 206 269 324 367
#     4  10  20  35  61  90 128 160 204 260 318 383
#     4  11  22  38  68  96 127 166 216 272 325 383
#     4  11  21  40  62  90 124 163 213 265 321 379
#     4   9  19  34  60  95 119 155 209 266 315 370
#     4  12  27  42  61  94 133 173 216 266 331 397
#
# _framework density 19.794948000000002
#
# number of rings (size 3 to 8) (size 9 to 14) (size 15 to 20)
#    0.000    1.667    3.333    2.000    9.333    0.667 
#    0.000    0.833    0.000    2.000    0.000    0.000 
#    0.000    0.000    0.000    0.000    0.000    0.000 
#
# Total GULP energy -594749.777336 kJ/mol
# GULP energy per Si atom -12390.620361 kJ/mol
# Density = 1.974989 g / cm^3
# Si number density = 19.794948 Si / 1000 Ang^3
#
#
#
# Elastic Constant Matrix: (Units=GPa)
#
#
# Indices 1 2 3 4 5 6 
#
# 1 139.9468 69.0328 11.9199 0.0000 0.0000 0.0000
# 2 69.0328 165.4574 21.8963 0.0000 0.0000 0.0000
# 3 11.9199 21.8963 30.0326 0.0000 0.0000 0.0000
# 4 0.0000 0.0000 0.0000 10.9065 0.0000 0.0000
# 5 0.0000 0.0000 0.0000 0.0000 3.9838 0.0000
# 6 0.0000 0.0000 0.0000 0.0000 0.0000 33.0236
#
#
#
# Elastic Compliance Matrix: (Units=1/GPa)
#
#
# Indices 1 2 3 4 5 6 
#
# 1 0.009020 -0.003641 -0.000926 0.000000 0.000000 0.000000
# 2 -0.003641 0.008159 -0.004503 0.000000 0.000000 0.000000
# 3 -0.000926 -0.004503 0.036948 0.000000 0.000000 0.000000
# 4 0.000000 0.000000 0.000000 0.091689 0.000000 0.000000
# 5 0.000000 0.000000 0.000000 0.000000 0.251014 0.000000
# 6 0.000000 0.000000 0.000000 0.000000 0.000000 0.030281
#
#
# Mechanical properties :
#
#
# Convention : Reuss Voigt Hill
#
# Bulk Modulus (GPa) = 27.78770 60.12611 43.95690
# Shear Modulus (GPa) = 10.93499 25.08863 18.01181
#
# Velocity S-wave (km/s) = 2.35290 3.56395 3.01976
# Velocity P-wave (km/s) = 4.63139 6.88303 5.86625
#
# Compressibility (1/GPa) = 0.03598715
#
# Stress axis : x y z
#
# Youngs Moduli (GPa) = 110.85900 122.56452 27.06515
#
# Poissons Ratio (x) = 0.44627 0.02505
# Poissons Ratio (y) = 0.40364 0.12189
# Poissons Ratio (z) = 0.10261 0.55196
#
# Static dielectric constant tensor:
#      x y z
#    x 4.087480 0.000000 0.000000 
#    y 0.000000 6.866690 0.000000 
#    z 0.000000 0.000000 2.686010 
# 
# 
# High freq. dielectric constant tensor:
#      x y z
#    x 1.794060 0.000000 0.000000 
#    y 0.000000 1.798990 0.000000 
#    z 0.000000 0.000000 1.700030 
# 
# From -- ./inp_files/24954.got.cif
#   From: 2010.03.12/outbox.cif.g09.slc.cpg/sg57_13_cif.got.tgz:24954.got - 2010.04.16 15:48:40.
