data_PCOD8232096
_publ_section_title
;
Structure prediction by ZEFSAII (Michael W. Deem and Ramdas Pophale) SiO2 
 PCOD8232096
Probable space group: P B C M
;
_chemical_formula_sum "Si O2"
_cell_formula_units_Z 44
_cell_length_a 8.305047
_cell_length_b 16.408945
_cell_length_c 15.310057
_cell_angle_alpha 90.000000
_cell_angle_beta 90.000000
_cell_angle_gamma 90.000000
_cell_volume 2086.409548
_symmetry_space_group_name_H-M "P B C M"
_symmetry_group_IT_number 57
_symmetry_cell_setting 'orthorhombic'
loop_
_space_group_symop_operation_xyz
x,y,z
-x,-y,1/2+z
x,1/2-y,-z
-x,1/2+y,1/2-z
-x,-y,-z
x,y,1/2-z
-x,1/2+y,z
x,1/2-y,1/2+z
loop_
_atom_site_type_symbol
_atom_site_label
_atom_site_fract_x
_atom_site_fract_y
_atom_site_fract_z
Si Si1 0.851849 0.379245 0.652105
Si Si2 0.096624 0.388010 0.993942
Si Si3 0.826071 0.206154 0.588343
Si Si4 0.504227 0.156188 0.849191
Si Si5 0.661095 0.750000 0.000000
Si Si6 0.642895 0.995156 0.430398
O O1 0.878549 0.411714 0.750000
O O2 0.997343 0.410956 0.592123
O O3 0.851523 0.280837 0.655350
O O4 0.683182 0.417752 0.614524
O O5 0.985990 0.346971 0.069867
O O6 0.232301 0.324193 0.965803
O O7 0.186438 0.468789 0.026930
O O8 0.766263 0.250000 0.500000
O O9 0.693030 0.144652 0.627267
O O10 0.482078 0.186719 0.750000
O O11 0.410547 0.070989 0.858605
O O12 0.441728 0.224716 0.915600
O O13 0.500000 0.000000 0.500000
#
# Coordination Sequence:
#
# PCOD8232096 Si02
#       6
#     8   8   8   8   4   8
#     4  11  22  38  60  95 125 157 212 272 318 375
#     4  10  21  41  64  86 121 171 208 250 322 391
#     4  10  19  40  65  87 123 162 213 255 318 383
#     4  11  23  39  63  94 127 170 215 264 327 389
#     4  10  20  38  62  90 128 158 216 264 316 388
#     4  11  24  42  64  87 128 174 212 262 325 394
#
# _framework density 21.088861000000001
#
# number of rings (size 3 to 8) (size 9 to 14) (size 15 to 20)
#    0.000    1.455    3.636    3.818    2.545    0.727 
#    0.000    6.364    0.000    0.000    0.000    0.000 
#    0.000    0.000    0.000    0.000    0.000    0.000 
#
# Total GULP energy -545406.452468 kJ/mol
# GULP energy per Si atom -12395.601192 kJ/mol
# Density = 2.104086 g / cm^3
# Si number density = 21.088861 Si / 1000 Ang^3
#
#
#
# Elastic Constant Matrix: (Units=GPa)
#
#
# Indices 1 2 3 4 5 6 
#
# 1 124.3424 37.1012 64.1333 0.0000 0.0000 0.0000
# 2 37.1012 72.2250 36.1622 0.0000 0.0000 0.0000
# 3 64.1333 36.1622 135.3702 0.0000 0.0000 0.0000
# 4 0.0000 0.0000 0.0000 20.5671 0.0000 0.0000
# 5 0.0000 0.0000 0.0000 0.0000 6.3762 0.0000
# 6 0.0000 0.0000 0.0000 0.0000 0.0000 35.5548
#
#
#
# Elastic Compliance Matrix: (Units=1/GPa)
#
#
# Indices 1 2 3 4 5 6 
#
# 1 0.011417 -0.003644 -0.004436 0.000000 0.000000 0.000000
# 2 -0.003644 0.017147 -0.002854 0.000000 0.000000 0.000000
# 3 -0.004436 -0.002854 0.010251 0.000000 0.000000 0.000000
# 4 0.000000 0.000000 0.000000 0.048621 0.000000 0.000000
# 5 0.000000 0.000000 0.000000 0.000000 0.156832 0.000000
# 6 0.000000 0.000000 0.000000 0.000000 0.000000 0.028126
#
#
# Mechanical properties :
#
#
# Convention : Reuss Voigt Hill
#
# Bulk Modulus (GPa) = 59.00618 67.41457 63.21037
# Shear Modulus (GPa) = 16.67161 25.46902 21.07031
#
# Velocity S-wave (km/s) = 2.81471 3.47897 3.16432
# Velocity P-wave (km/s) = 6.21321 6.94074 6.58703
#
# Compressibility (1/GPa) = 0.01694738
#
# Stress axis : x y z
#
# Youngs Moduli (GPa) = 87.58496 58.32085 97.55128
#
# Poissons Ratio (x) = 0.21253 0.43271
# Poissons Ratio (y) = 0.31917 0.27841
# Poissons Ratio (z) = 0.38850 0.16645
#
# Static dielectric constant tensor:
#      x y z
#    x 3.935980 0.000000 0.000000 
#    y 0.000000 3.924490 0.000000 
#    z 0.000000 0.000000 3.651860 
# 
# 
# High freq. dielectric constant tensor:
#      x y z
#    x 1.833280 0.000000 0.000000 
#    y 0.000000 1.826050 0.000000 
#    z 0.000000 0.000000 1.806850 
# 
# From -- ./inp_files/16207.got.cif
#   From: 2010.03.12/outbox.cif.g09.slc.cpg/sg57_9_cif.got.tgz:16207.got - 2010.04.16 15:48:40.
