data_PCOD8232783
_publ_section_title
;
Structure prediction by ZEFSAII (Michael W. Deem and Ramdas Pophale) SiO2 
 PCOD8232783
Probable space group: P B C M
;
_chemical_formula_sum "Si O2"
_cell_formula_units_Z 40
_cell_length_a 9.116828
_cell_length_b 11.689985
_cell_length_c 18.005091
_cell_angle_alpha 90.000000
_cell_angle_beta 90.000000
_cell_angle_gamma 90.000000
_cell_volume 1918.903063
_symmetry_space_group_name_H-M "P B C M"
_symmetry_group_IT_number 57
_symmetry_cell_setting 'orthorhombic'
loop_
_space_group_symop_operation_xyz
x,y,z
-x,-y,1/2+z
x,1/2-y,-z
-x,1/2+y,1/2-z
-x,-y,-z
x,y,1/2-z
-x,1/2+y,z
x,1/2-y,1/2+z
loop_
_atom_site_type_symbol
_atom_site_label
_atom_site_fract_x
_atom_site_fract_y
_atom_site_fract_z
Si Si1 0.826266 0.149230 0.836333
Si Si2 0.867780 0.859247 0.547236
Si Si3 0.092208 0.021462 0.596711
Si Si4 0.349525 0.418585 0.836447
Si Si5 0.321352 0.621439 0.335423
O O1 0.863364 0.165034 0.750000
O O2 0.750759 0.263418 0.871038
O O3 0.983362 0.123045 0.875922
O O4 0.710501 0.046733 0.848749
O O5 0.907771 0.750000 0.500000
O O6 0.837063 0.956400 0.484557
O O7 0.736929 0.836360 0.605870
O O8 0.004723 0.901447 0.595688
O O9 0.225766 0.993570 0.651993
O O10 0.327945 0.381261 0.750000
O O11 0.516076 0.407115 0.864388
O O12 0.334815 0.648493 0.250000
#
# Coordination Sequence:
#
# PCOD8232783 Si02
#       5
#     8   8   8   8   8
#     4   9  18  35  57  82 115 150 184 228 278 327
#     4  10  21  37  55  80 112 146 185 229 279 333
#     4  10  20  35  56  81 114 148 184 231 280 331
#     4   9  20  38  57  79 110 147 187 229 273 329
#     4  10  20  35  58  86 113 147 190 230 274 328
#
# _framework density 20.845241000000001
#
# number of rings (size 3 to 8) (size 9 to 14) (size 15 to 20)
#    0.000    2.400    0.000    1.800    0.000    3.200 
#    0.000    9.000    0.000    1.200    0.000    0.000 
#    0.000    0.000    0.000    0.000    0.000    0.000 
#
# Total GULP energy -495586.295338 kJ/mol
# GULP energy per Si atom -12389.657383 kJ/mol
# Density = 2.079780 g / cm^3
# Si number density = 20.845241 Si / 1000 Ang^3
#
#
#
# Elastic Constant Matrix: (Units=GPa)
#
#
# Indices 1 2 3 4 5 6 
#
# 1 108.4756 23.3237 55.6852 0.0000 0.0000 0.0000
# 2 23.3237 35.7658 15.3873 0.0000 0.0000 0.0000
# 3 55.6852 15.3873 63.6964 0.0000 0.0000 0.0000
# 4 0.0000 0.0000 0.0000 29.7302 0.0000 0.0000
# 5 0.0000 0.0000 0.0000 0.0000 26.2651 0.0000
# 6 0.0000 0.0000 0.0000 0.0000 0.0000 19.1999
#
#
#
# Elastic Compliance Matrix: (Units=1/GPa)
#
#
# Indices 1 2 3 4 5 6 
#
# 1 0.017620 -0.005427 -0.014093 0.000000 0.000000 0.000000
# 2 -0.005427 0.032874 -0.003197 0.000000 0.000000 0.000000
# 3 -0.014093 -0.003197 0.028792 0.000000 0.000000 0.000000
# 4 0.000000 0.000000 0.000000 0.033636 0.000000 0.000000
# 5 0.000000 0.000000 0.000000 0.000000 0.038073 0.000000
# 6 0.000000 0.000000 0.000000 0.000000 0.000000 0.052083
#
#
# Mechanical properties :
#
#
# Convention : Reuss Voigt Hill
#
# Bulk Modulus (GPa) = 29.53991 44.08113 36.81052
# Shear Modulus (GPa) = 19.24576 22.60848 20.92712
#
# Velocity S-wave (km/s) = 3.04183 3.29688 3.17192
# Velocity P-wave (km/s) = 5.15158 5.97372 5.57782
#
# Compressibility (1/GPa) = 0.03385250
#
# Stress axis : x y z
#
# Youngs Moduli (GPa) = 56.75343 30.41884 34.73177
#
# Poissons Ratio (x) = 0.16509 0.48947
# Poissons Ratio (y) = 0.30802 0.11103
# Poissons Ratio (z) = 0.79982 0.09724
#
# Static dielectric constant tensor:
#      x y z
#    x 3.854080 0.000000 0.000000 
#    y 0.000000 3.726010 0.000000 
#    z 0.000000 0.000000 3.897520 
# 
# 
# High freq. dielectric constant tensor:
#      x y z
#    x 1.810350 0.000000 0.000000 
#    y 0.000000 1.807230 0.000000 
#    z 0.000000 0.000000 1.811380 
# 
# From -- ./inp_files/20525.got.cif
#   From: 2010.03.12/outbox.cif.g09.slc.cpg/sg57_11_cif.got.tgz:20525.got - 2010.04.16 15:48:40.
