data_PCOD8232344
_publ_section_title
;
Structure prediction by ZEFSAII (Michael W. Deem and Ramdas Pophale) SiO2 
 PCOD8232344
Probable space group: P B C M
;
_chemical_formula_sum "Si O2"
_cell_formula_units_Z 56
_cell_length_a 20.419360
_cell_length_b 18.141532
_cell_length_c 8.833529
_cell_angle_alpha 90.000000
_cell_angle_beta 90.000000
_cell_angle_gamma 90.000000
_cell_volume 3272.278993
_symmetry_space_group_name_H-M "P B C M"
_symmetry_group_IT_number 57
_symmetry_cell_setting 'orthorhombic'
loop_
_space_group_symop_operation_xyz
x,y,z
-x,-y,1/2+z
x,1/2-y,-z
-x,1/2+y,1/2-z
-x,-y,-z
x,y,1/2-z
-x,1/2+y,z
x,1/2-y,1/2+z
loop_
_atom_site_type_symbol
_atom_site_label
_atom_site_fract_x
_atom_site_fract_y
_atom_site_fract_z
Si Si1 0.639351 0.581734 0.070473
Si Si2 0.562944 0.035389 0.073894
Si Si3 0.879319 0.888180 0.929553
Si Si4 0.932066 0.477747 0.572291
Si Si5 0.513184 0.827120 0.923751
Si Si6 0.751102 0.673360 0.930157
Si Si7 0.019401 0.674518 0.424809
O O1 0.648736 0.581973 0.250000
O O2 0.578684 0.632563 0.014451
O O3 0.626115 0.497641 0.013193
O O4 0.704907 0.608363 0.989345
O O5 0.567040 0.014496 0.250000
O O6 0.552469 0.123334 0.052230
O O7 0.500000 0.000000 0.000000
O O8 0.868854 0.887439 0.750000
O O9 0.947870 0.851820 0.981801
O O10 0.824050 0.840955 0.011440
O O11 0.876406 0.973378 0.989244
O O12 0.931868 0.495635 0.750000
O O13 0.925908 0.389326 0.544258
O O14 0.000000 0.500000 0.500000
O O15 0.526125 0.811407 0.750000
O O16 0.500013 0.750000 0.000000
O O17 0.749738 0.677689 0.750000
O O18 0.725397 0.750000 0.000000
O O19 0.042927 0.750000 0.500000
O O20 0.013288 0.691356 0.250000
#
# Coordination Sequence:
#
# PCOD8232344 Si02
#       7
#     8   8   8   8   8   8   8
#     4  10  20  34  49  68  94 127 164 200 236 281
#     4   9  17  30  46  67  93 123 158 197 239 285
#     4  10  20  34  49  68  94 127 164 200 236 281
#     4   9  17  30  46  67  93 123 158 197 239 285
#     4   9  18  29  45  69  96 123 154 192 236 280
#     4  12  24  36  50  70  97 130 163 198 234 276
#     4   9  18  29  45  69  96 123 154 192 236 280
#
# _framework density 17.113454999999998
#
# number of rings (size 3 to 8) (size 9 to 14) (size 15 to 20)
#    0.000    2.286    0.000    5.571    0.000    9.143 
#    0.000    0.000    0.000    0.000    0.000    1.000 
#    0.000    0.000    0.000    0.000    0.000    0.000 
#
# Total GULP energy -694037.959645 kJ/mol
# GULP energy per Si atom -12393.534994 kJ/mol
# Density = 1.707450 g / cm^3
# Si number density = 17.113455 Si / 1000 Ang^3
#
#
#
# Elastic Constant Matrix: (Units=GPa)
#
#
# Indices 1 2 3 4 5 6 
#
# 1 29.4867 13.0392 17.0908 0.0000 0.0000 0.0000
# 2 13.0392 87.0614 35.8668 0.0000 0.0000 0.0000
# 3 17.0908 35.8668 90.8715 0.0000 0.0000 0.0000
# 4 0.0000 0.0000 0.0000 34.7676 0.0000 0.0000
# 5 0.0000 0.0000 0.0000 0.0000 24.9383 0.0000
# 6 0.0000 0.0000 0.0000 0.0000 0.0000 25.6423
#
#
#
# Elastic Compliance Matrix: (Units=1/GPa)
#
#
# Indices 1 2 3 4 5 6 
#
# 1 0.038867 -0.003355 -0.005986 0.000000 0.000000 0.000000
# 2 -0.003355 0.014006 -0.004897 0.000000 0.000000 0.000000
# 3 -0.005986 -0.004897 0.014063 0.000000 0.000000 0.000000
# 4 0.000000 0.000000 0.000000 0.028762 0.000000 0.000000
# 5 0.000000 0.000000 0.000000 0.000000 0.040099 0.000000
# 6 0.000000 0.000000 0.000000 0.000000 0.000000 0.038998
#
#
# Mechanical properties :
#
#
# Convention : Reuss Voigt Hill
#
# Bulk Modulus (GPa) = 26.00099 37.71258 31.85679
# Shear Modulus (GPa) = 23.13837 26.49784 24.81810
#
# Velocity S-wave (km/s) = 3.68102 3.93919 3.81229
# Velocity P-wave (km/s) = 5.77000 6.54021 6.16714
#
# Compressibility (1/GPa) = 0.03846007
#
# Stress axis : x y z
#
# Youngs Moduli (GPa) = 25.72900 71.39722 71.10747
#
# Poissons Ratio (x) = 0.23955 0.42562
# Poissons Ratio (y) = 0.08632 0.34823
# Poissons Ratio (z) = 0.15400 0.34964
#
# Static dielectric constant tensor:
#      x y z
#    x 3.004520 0.000000 0.000000 
#    y 0.000000 3.755030 0.000000 
#    z 0.000000 0.000000 3.120120 
# 
# 
# High freq. dielectric constant tensor:
#      x y z
#    x 1.614230 0.000000 0.000000 
#    y 0.000000 1.663760 0.000000 
#    z 0.000000 0.000000 1.674590 
# 
# From -- ./inp_files/8328.got.cif
#   From: 2010.03.12/outbox.cif.g09.slc.cpg/sg57_5_cif.got.tgz:8328.got - 2010.04.16 15:48:40.
