data_PCOD8232394
_publ_section_title
;
Structure prediction by ZEFSAII (Michael W. Deem and Ramdas Pophale) SiO2 
 PCOD8232394
Probable space group: P B C M
;
_chemical_formula_sum "Si O2"
_cell_formula_units_Z 64
_cell_length_a 22.637850
_cell_length_b 15.843658
_cell_length_c 9.133951
_cell_angle_alpha 90.000000
_cell_angle_beta 90.000000
_cell_angle_gamma 90.000000
_cell_volume 3276.040896
_symmetry_space_group_name_H-M "P B C M"
_symmetry_group_IT_number 57
_symmetry_cell_setting 'orthorhombic'
loop_
_space_group_symop_operation_xyz
x,y,z
-x,-y,1/2+z
x,1/2-y,-z
-x,1/2+y,1/2-z
-x,-y,-z
x,y,1/2-z
-x,1/2+y,z
x,1/2-y,1/2+z
loop_
_atom_site_type_symbol
_atom_site_label
_atom_site_fract_x
_atom_site_fract_y
_atom_site_fract_z
Si Si1 0.761443 0.505723 0.082787
Si Si2 0.857862 0.079596 0.414140
Si Si3 0.971791 0.166693 0.421544
Si Si4 0.071276 0.408112 0.412310
Si Si5 0.807089 0.666349 0.921897
Si Si6 0.580191 0.664208 0.578225
Si Si7 0.374291 0.000003 0.418149
Si Si8 0.557641 0.334456 0.079884
O O1 0.779038 0.525311 0.250000
O O2 0.694298 0.475924 0.069524
O O3 0.802763 0.429408 0.023664
O O4 0.770513 0.588282 0.985537
O O5 0.833268 0.094936 0.250000
O O6 0.902920 0.152927 0.464649
O O7 0.899905 0.999146 0.416040
O O8 0.994949 0.250000 0.500000
O O9 0.978826 0.174475 0.250000
O O10 0.016576 0.094036 0.475791
O O11 0.047128 0.387971 0.250000
O O12 0.123239 0.342577 0.455106
O O13 0.793861 0.670578 0.750000
O O14 0.782976 0.750000 0.000000
O O15 0.602973 0.750000 0.500000
O O16 0.594339 0.671222 0.750000
O O17 0.612918 0.582836 0.513329
O O18 0.511123 0.652202 0.547088
O O19 0.392356 0.018871 0.250000
O O20 0.409651 0.918540 0.479142
O O21 0.571068 0.321720 0.250000
O O22 0.581166 0.250000 0.000000
#
# Coordination Sequence:
#
# PCOD8232394 Si02
#       8
#     8   8   8   8   8   8   8   8
#     4  10  21  36  55  76 100 136 178 218 262 309
#     4   9  20  38  55  72  98 132 169 210 254 302
#     4  11  22  34  51  76 103 130 162 204 255 308
#     4   9  18  33  53  76 100 127 161 204 254 308
#     4  10  20  34  52  75 105 138 173 214 260 312
#     4  10  20  34  56  85 116 151 184 217 265 322
#     4  10  21  37  56  81 113 145 182 229 273 317
#     4   9  19  36  57  83 114 145 181 226 273 322
#
# _framework density 19.535775999999998
#
# number of rings (size 3 to 8) (size 9 to 14) (size 15 to 20)
#    0.000    2.250    0.000    3.375    0.000    7.000 
#    0.000    0.625    0.000    3.000    0.000    0.000 
#    0.000    0.000    0.000    0.000    0.000    0.000 
#
# Total GULP energy -793537.860681 kJ/mol
# GULP energy per Si atom -12399.029073 kJ/mol
# Density = 1.949131 g / cm^3
# Si number density = 19.535776 Si / 1000 Ang^3
#
#
#
# Elastic Constant Matrix: (Units=GPa)
#
#
# Indices 1 2 3 4 5 6 
#
# 1 74.9134 26.3282 43.4133 0.0000 0.0000 0.0000
# 2 26.3282 71.5878 31.9090 0.0000 0.0000 0.0000
# 3 43.4133 31.9090 87.3133 0.0000 0.0000 0.0000
# 4 0.0000 0.0000 0.0000 29.8449 0.0000 0.0000
# 5 0.0000 0.0000 0.0000 0.0000 28.3867 0.0000
# 6 0.0000 0.0000 0.0000 0.0000 0.0000 16.7218
#
#
#
# Elastic Compliance Matrix: (Units=1/GPa)
#
#
# Indices 1 2 3 4 5 6 
#
# 1 0.019417 -0.003390 -0.008416 0.000000 0.000000 0.000000
# 2 -0.003390 0.017279 -0.004629 0.000000 0.000000 0.000000
# 3 -0.008416 -0.004629 0.017329 0.000000 0.000000 0.000000
# 4 0.000000 0.000000 0.000000 0.033507 0.000000 0.000000
# 5 0.000000 0.000000 0.000000 0.000000 0.035228 0.000000
# 6 0.000000 0.000000 0.000000 0.000000 0.000000 0.059802
#
#
# Mechanical properties :
#
#
# Convention : Reuss Voigt Hill
#
# Bulk Modulus (GPa) = 47.26843 48.56839 47.91841
# Shear Modulus (GPa) = 22.47363 23.80160 23.13761
#
# Velocity S-wave (km/s) = 3.39541 3.49429 3.44520
# Velocity P-wave (km/s) = 6.29445 6.41836 6.35670
#
# Compressibility (1/GPa) = 0.02115577
#
# Stress axis : x y z
#
# Youngs Moduli (GPa) = 51.50103 57.87378 57.70661
#
# Poissons Ratio (x) = 0.19620 0.48563
# Poissons Ratio (y) = 0.17459 0.26713
# Poissons Ratio (z) = 0.43341 0.26790
#
# Static dielectric constant tensor:
#      x y z
#    x 3.534740 0.000000 0.000000 
#    y 0.000000 3.614750 0.000000 
#    z 0.000000 0.000000 3.620490 
# 
# 
# High freq. dielectric constant tensor:
#      x y z
#    x 1.752130 0.000000 0.000000 
#    y 0.000000 1.753980 0.000000 
#    z 0.000000 0.000000 1.763790 
# 
# From -- ./inp_files/9311.got.cif
#   From: 2010.03.12/outbox.cif.g09.slc.cpg/sg57_5_cif.got.tgz:9311.got - 2010.04.16 15:48:40.
