data_PCOD8232208
_publ_section_title
;
Structure prediction by ZEFSAII (Michael W. Deem and Ramdas Pophale) SiO2 
 PCOD8232208
Probable space group: P B C M
;
_chemical_formula_sum "Si O2"
_cell_formula_units_Z 64
_cell_length_a 14.410672
_cell_length_b 27.975489
_cell_length_c 8.809043
_cell_angle_alpha 90.000000
_cell_angle_beta 90.000000
_cell_angle_gamma 90.000000
_cell_volume 3551.326891
_symmetry_space_group_name_H-M "P B C M"
_symmetry_group_IT_number 57
_symmetry_cell_setting 'orthorhombic'
loop_
_space_group_symop_operation_xyz
x,y,z
-x,-y,1/2+z
x,1/2-y,-z
-x,1/2+y,1/2-z
-x,-y,-z
x,y,1/2-z
-x,1/2+y,z
x,1/2-y,1/2+z
loop_
_atom_site_type_symbol
_atom_site_label
_atom_site_fract_x
_atom_site_fract_y
_atom_site_fract_z
Si Si1 0.532437 0.384177 0.075244
Si Si2 0.854830 0.027742 0.926688
Si Si3 0.029263 0.884148 0.430748
Si Si4 0.660861 0.925676 0.075254
Si Si5 0.852830 0.920935 0.569842
Si Si6 0.640616 0.299733 0.572420
Si Si7 0.354963 0.524506 0.572925
Si Si8 0.851854 0.199568 0.070391
O O1 0.560265 0.375913 0.250000
O O2 0.421660 0.387386 0.053942
O O3 0.577479 0.433628 0.017290
O O4 0.570251 0.340588 0.978144
O O5 0.874287 0.026020 0.750000
O O6 0.921379 0.068028 0.998050
O O7 0.749225 0.042285 0.961475
O O8 0.874997 0.974679 0.991399
O O9 0.033388 0.881197 0.250000
O O10 0.080166 0.838920 0.499316
O O11 0.923303 0.884630 0.488559
O O12 0.691047 0.929508 0.250000
O O13 0.747942 0.907601 0.976782
O O14 0.622767 0.977106 0.022002
O O15 0.861703 0.916640 0.750000
O O16 0.608632 0.250000 0.500000
O O17 0.633463 0.293173 0.750000
O O18 0.745871 0.312873 0.523931
O O19 0.367732 0.512123 0.750000
O O20 0.864902 0.201205 0.250000
O O21 0.881065 0.250000 0.000000
#
# Coordination Sequence:
#
# PCOD8232208 Si02
#       8
#     8   8   8   8   8   8   8   8
#     4  10  20  33  52  76 104 136 173 215 258 304
#     4   8  16  29  47  72 102 135 170 205 248 298
#     4  11  20  32  53  78 103 135 172 212 256 305
#     4  10  20  33  49  73 103 137 176 218 259 302
#     4  10  20  35  51  70 101 140 178 217 256 300
#     4  10  21  36  56  80 107 136 168 206 252 305
#     4   9  17  31  49  72 104 140 172 207 253 305
#     4  10  21  37  55  79 107 135 166 204 250 303
#
# _framework density 18.021433999999999
#
# number of rings (size 3 to 8) (size 9 to 14) (size 15 to 20)
#    0.000    2.250    0.000    4.125    0.000    4.000 
#    0.000    6.875    0.000    0.750    0.000    1.750 
#    0.000    0.000    0.000    0.000    0.000    0.000 
#
# Total GULP energy -793667.904107 kJ/mol
# GULP energy per Si atom -12401.061002 kJ/mol
# Density = 1.798042 g / cm^3
# Si number density = 18.021434 Si / 1000 Ang^3
#
#
#
# Elastic Constant Matrix: (Units=GPa)
#
#
# Indices 1 2 3 4 5 6 
#
# 1 95.8541 62.5425 36.9135 0.0000 0.0000 0.0000
# 2 62.5425 92.7089 41.8141 0.0000 0.0000 0.0000
# 3 36.9135 41.8141 69.6949 0.0000 0.0000 0.0000
# 4 0.0000 0.0000 0.0000 29.5359 0.0000 0.0000
# 5 0.0000 0.0000 0.0000 0.0000 28.2439 0.0000
# 6 0.0000 0.0000 0.0000 0.0000 0.0000 23.1100
#
#
#
# Elastic Compliance Matrix: (Units=1/GPa)
#
#
# Indices 1 2 3 4 5 6 
#
# 1 0.019168 -0.011450 -0.003282 0.000000 0.000000 0.000000
# 2 -0.011450 0.021628 -0.006911 0.000000 0.000000 0.000000
# 3 -0.003282 -0.006911 0.020233 0.000000 0.000000 0.000000
# 4 0.000000 0.000000 0.000000 0.033857 0.000000 0.000000
# 5 0.000000 0.000000 0.000000 0.000000 0.035406 0.000000
# 6 0.000000 0.000000 0.000000 0.000000 0.000000 0.043271
#
#
# Mechanical properties :
#
#
# Convention : Reuss Voigt Hill
#
# Bulk Modulus (GPa) = 56.36664 60.08869 58.22766
# Shear Modulus (GPa) = 22.44518 23.97714 23.21116
#
# Velocity S-wave (km/s) = 3.53295 3.65153 3.59273
# Velocity P-wave (km/s) = 6.92732 7.15496 7.04206
#
# Compressibility (1/GPa) = 0.01774099
#
# Stress axis : x y z
#
# Youngs Moduli (GPa) = 52.17148 46.23606 49.42354
#
# Poissons Ratio (x) = 0.52941 0.16222
# Poissons Ratio (y) = 0.59738 0.34159
# Poissons Ratio (z) = 0.17124 0.31956
#
# Static dielectric constant tensor:
#      x y z
#    x 3.358540 0.000000 0.000000 
#    y 0.000000 3.431290 0.000000 
#    z 0.000000 0.000000 3.248990 
# 
# 
# High freq. dielectric constant tensor:
#      x y z
#    x 1.699170 0.000000 0.000000 
#    y 0.000000 1.676810 0.000000 
#    z 0.000000 0.000000 1.697000 
# 
# From -- ./inp_files/5596.got.cif
#   From: 2010.03.12/outbox.cif.g09.slc.cpg/sg57_3_cif.got.tgz:5596.got - 2010.04.16 15:48:40.
