data_PCOD8232948
_publ_section_title
;
Structure prediction by ZEFSAII (Michael W. Deem and Ramdas Pophale) SiO2 
 PCOD8232948
Probable space group: P B C M
;
_chemical_formula_sum "Si O2"
_cell_formula_units_Z 48
_cell_length_a 12.106112
_cell_length_b 8.562735
_cell_length_c 25.642371
_cell_angle_alpha 90.000000
_cell_angle_beta 90.000000
_cell_angle_gamma 90.000000
_cell_volume 2658.124819
_symmetry_space_group_name_H-M "P B C M"
_symmetry_group_IT_number 57
_symmetry_cell_setting 'orthorhombic'
loop_
_space_group_symop_operation_xyz
x,y,z
-x,-y,1/2+z
x,1/2-y,-z
-x,1/2+y,1/2-z
-x,-y,-z
x,y,1/2-z
-x,1/2+y,z
x,1/2-y,1/2+z
loop_
_atom_site_type_symbol
_atom_site_label
_atom_site_fract_x
_atom_site_fract_y
_atom_site_fract_z
Si Si1 0.120737 0.933486 0.994562
Si Si2 0.628876 0.542178 0.691096
Si Si3 0.460262 0.352883 0.451779
Si Si4 0.276388 0.927525 0.907149
Si Si5 0.307418 0.931061 0.427306
Si Si6 0.574542 0.647046 0.145833
O O1 0.205857 0.998218 0.038454
O O2 0.115912 0.750000 0.000000
O O3 0.165335 0.980497 0.937202
O O4 0.000000 0.000000 0.000000
O O5 0.657352 0.492977 0.750000
O O6 0.727206 0.484069 0.652974
O O7 0.514525 0.463807 0.672944
O O8 0.620210 0.730231 0.688173
O O9 0.416044 0.250000 0.500000
O O10 0.378138 0.492018 0.437170
O O11 0.580637 0.430503 0.463399
O O12 0.480050 0.243265 0.401479
O O13 0.283208 0.741944 0.907721
O O14 0.325041 0.042497 0.377136
#
# Coordination Sequence:
#
# PCOD8232948 Si02
#       6
#     8   8   8   8   8   8
#     4  10  23  37  55  79 111 143 176 216 264 322
#     4  11  21  34  50  75 108 145 181 222 266 312
#     4  11  19  29  51  82 111 144 171 210 268 330
#     4  10  20  36  52  78 111 143 181 216 264 319
#     4  11  19  33  53  77 110 144 175 215 268 326
#     4  11  20  32  49  77 110 142 181 213 265 323
#
# _framework density 18.057842999999998
#
# number of rings (size 3 to 8) (size 9 to 14) (size 15 to 20)
#    0.000    1.333    5.000    3.000    0.000    5.333 
#    0.000    0.833    0.000    0.000    0.000   11.667 
#    0.000    0.000    0.000    0.000    0.000    0.000 
#
# Total GULP energy -595001.518854 kJ/mol
# GULP energy per Si atom -12395.864976 kJ/mol
# Density = 1.801674 g / cm^3
# Si number density = 18.057843 Si / 1000 Ang^3
#
#
#
# Elastic Constant Matrix: (Units=GPa)
#
#
# Indices 1 2 3 4 5 6 
#
# 1 110.4399 29.8042 52.8634 0.0000 0.0000 0.0000
# 2 29.8042 75.8317 37.6335 0.0000 0.0000 0.0000
# 3 52.8634 37.6335 139.4805 0.0000 0.0000 0.0000
# 4 0.0000 0.0000 0.0000 23.6344 0.0000 0.0000
# 5 0.0000 0.0000 0.0000 0.0000 13.8736 0.0000
# 6 0.0000 0.0000 0.0000 0.0000 0.0000 24.7223
#
#
#
# Elastic Compliance Matrix: (Units=1/GPa)
#
#
# Indices 1 2 3 4 5 6 
#
# 1 0.011530 -0.002728 -0.003634 0.000000 0.000000 0.000000
# 2 -0.002728 0.015871 -0.003248 0.000000 0.000000 0.000000
# 3 -0.003634 -0.003248 0.009423 0.000000 0.000000 0.000000
# 4 0.000000 0.000000 0.000000 0.042311 0.000000 0.000000
# 5 0.000000 0.000000 0.000000 0.000000 0.072079 0.000000
# 6 0.000000 0.000000 0.000000 0.000000 0.000000 0.040449
#
#
# Mechanical properties :
#
#
# Convention : Reuss Voigt Hill
#
# Bulk Modulus (GPa) = 56.80543 62.92824 59.86684
# Shear Modulus (GPa) = 23.06765 26.14279 24.60522
#
# Velocity S-wave (km/s) = 3.57799 3.80903 3.69532
# Velocity P-wave (km/s) = 6.97102 7.36673 7.17161
#
# Compressibility (1/GPa) = 0.01760395
#
# Stress axis : x y z
#
# Youngs Moduli (GPa) = 86.72709 63.00613 106.12182
#
# Poissons Ratio (x) = 0.17191 0.38564
# Poissons Ratio (y) = 0.23663 0.34471
# Poissons Ratio (z) = 0.31516 0.20466
#
# Static dielectric constant tensor:
#      x y z
#    x 2.667400 0.000000 0.000000 
#    y 0.000000 3.635880 0.000000 
#    z 0.000000 0.000000 3.455820 
# 
# 
# High freq. dielectric constant tensor:
#      x y z
#    x 1.649290 0.000000 0.000000 
#    y 0.000000 1.722770 0.000000 
#    z 0.000000 0.000000 1.686310 
# 
# From -- ./inp_files/28503.got.cif
#   From: 2010.03.12/outbox.cif.g09.slc.cpg/sg57_15_cif.got.tgz:28503.got - 2010.04.16 15:48:40.
