data_PCOD8232104
_publ_section_title
;
Structure prediction by ZEFSAII (Michael W. Deem and Ramdas Pophale) SiO2 
 PCOD8232104
Probable space group: P B C M
;
_chemical_formula_sum "Si O2"
_cell_formula_units_Z 44
_cell_length_a 17.395119
_cell_length_b 13.394715
_cell_length_c 9.697984
_cell_angle_alpha 90.000000
_cell_angle_beta 90.000000
_cell_angle_gamma 90.000000
_cell_volume 2259.656082
_symmetry_space_group_name_H-M "P B C M"
_symmetry_group_IT_number 57
_symmetry_cell_setting 'orthorhombic'
loop_
_space_group_symop_operation_xyz
x,y,z
-x,-y,1/2+z
x,1/2-y,-z
-x,1/2+y,1/2-z
-x,-y,-z
x,y,1/2-z
-x,1/2+y,z
x,1/2-y,1/2+z
loop_
_atom_site_type_symbol
_atom_site_label
_atom_site_fract_x
_atom_site_fract_y
_atom_site_fract_z
Si Si1 0.856659 0.250000 0.500000
Si Si2 0.904341 0.559858 0.401367
Si Si3 0.392069 0.535868 0.092782
Si Si4 0.006654 0.638659 0.607110
Si Si5 0.506215 0.654334 0.911565
Si Si6 0.214212 0.950515 0.592485
O O1 0.914725 0.298646 0.390896
O O2 0.803452 0.166407 0.430641
O O3 0.875099 0.594456 0.250000
O O4 0.968990 0.476522 0.385667
O O5 0.833165 0.522810 0.492742
O O6 0.948436 0.652896 0.477542
O O7 0.406585 0.573880 0.250000
O O8 0.425496 0.425147 0.074481
O O9 0.302649 0.530687 0.058374
O O10 0.429314 0.611164 0.982656
O O11 0.962969 0.664824 0.750000
O O12 0.490178 0.679884 0.750000
O O13 0.532553 0.750000 0.000000
O O14 0.194345 0.978186 0.750000
#
# Coordination Sequence:
#
# PCOD8232104 Si02
#       6
#     4   8   8   8   8   8
#     4  10  20  30  50  82 110 138 178 228 280 338
#     4   9  18  31  49  71  96 131 176 218 263 316
#     4   9  20  37  57  85 117 151 191 233 284 340
#     4   9  17  30  47  68  97 134 173 213 261 320
#     4  10  20  36  59  85 115 152 194 234 278 337
#     4  10  20  35  54  78 111 145 179 226 281 334
#
# _framework density 19.471990999999999
#
# number of rings (size 3 to 8) (size 9 to 14) (size 15 to 20)
#    0.000    2.545    0.000    1.636    1.273    7.273 
#    0.000    0.000    2.000    0.000    0.000    0.000 
#    0.000    0.000    0.000    0.000    0.000    0.000 
#
# Total GULP energy -545183.338860 kJ/mol
# GULP energy per Si atom -12390.530429 kJ/mol
# Density = 1.942767 g / cm^3
# Si number density = 19.471991 Si / 1000 Ang^3
#
#
#
# Elastic Constant Matrix: (Units=GPa)
#
#
# Indices 1 2 3 4 5 6 
#
# 1 111.3688 30.2051 77.8305 0.0000 0.0000 0.0000
# 2 30.2051 53.2488 44.8412 0.0000 0.0000 0.0000
# 3 77.8305 44.8412 179.2168 0.0000 0.0000 0.0000
# 4 0.0000 0.0000 0.0000 15.4605 0.0000 0.0000
# 5 0.0000 0.0000 0.0000 0.0000 25.0332 0.0000
# 6 0.0000 0.0000 0.0000 0.0000 0.0000 19.7916
#
#
#
# Elastic Compliance Matrix: (Units=1/GPa)
#
#
# Indices 1 2 3 4 5 6 
#
# 1 0.013364 -0.003412 -0.004950 0.000000 0.000000 0.000000
# 2 -0.003412 0.024664 -0.004689 0.000000 0.000000 0.000000
# 3 -0.004950 -0.004689 0.008903 0.000000 0.000000 0.000000
# 4 0.000000 0.000000 0.000000 0.064681 0.000000 0.000000
# 5 0.000000 0.000000 0.000000 0.000000 0.039947 0.000000
# 6 0.000000 0.000000 0.000000 0.000000 0.000000 0.050526
#
#
# Mechanical properties :
#
#
# Convention : Reuss Voigt Hill
#
# Bulk Modulus (GPa) = 48.01227 72.17646 60.09437
# Shear Modulus (GPa) = 21.26477 24.78758 23.02618
#
# Velocity S-wave (km/s) = 3.30823 3.57176 3.44252
# Velocity P-wave (km/s) = 6.26922 7.35916 6.83595
#
# Compressibility (1/GPa) = 0.02082801
#
# Stress axis : x y z
#
# Youngs Moduli (GPa) = 74.82843 40.54459 112.32440
#
# Poissons Ratio (x) = 0.13835 0.55600
# Poissons Ratio (y) = 0.25533 0.52672
# Poissons Ratio (z) = 0.37040 0.19012
#
# Static dielectric constant tensor:
#      x y z
#    x 3.293320 0.000000 0.000000 
#    y 0.000000 3.522540 0.000000 
#    z 0.000000 0.000000 3.680980 
# 
# 
# High freq. dielectric constant tensor:
#      x y z
#    x 1.735710 0.000000 0.000000 
#    y 0.000000 1.747160 0.000000 
#    z 0.000000 0.000000 1.778650 
# 
# From -- ./inp_files/6416.got.cif
#   From: 2010.03.12/outbox.cif.g09.slc.cpg/sg57_4_cif.got.tgz:6416.got - 2010.04.16 15:48:40.
