data_PCOD8232053
_publ_section_title
;
Structure prediction by ZEFSAII (Michael W. Deem and Ramdas Pophale) SiO2 
 PCOD8232053
Probable space group: P B C M
;
_chemical_formula_sum "Si O2"
_cell_formula_units_Z 48
_cell_length_a 11.639763
_cell_length_b 11.749493
_cell_length_c 17.385022
_cell_angle_alpha 90.000000
_cell_angle_beta 90.000000
_cell_angle_gamma 90.000000
_cell_volume 2377.598451
_symmetry_space_group_name_H-M "P B C M"
_symmetry_group_IT_number 57
_symmetry_cell_setting 'orthorhombic'
loop_
_space_group_symop_operation_xyz
x,y,z
-x,-y,1/2+z
x,1/2-y,-z
-x,1/2+y,1/2-z
-x,-y,-z
x,y,1/2-z
-x,1/2+y,z
x,1/2-y,1/2+z
loop_
_atom_site_type_symbol
_atom_site_label
_atom_site_fract_x
_atom_site_fract_y
_atom_site_fract_z
Si Si1 0.206918 0.177972 0.662990
Si Si2 0.942734 0.890456 0.836835
Si Si3 0.253551 0.526453 0.590422
Si Si4 0.399342 0.190739 0.082227
Si Si5 0.831087 0.448004 0.578221
Si Si6 0.345463 0.763217 0.909176
O O1 0.212427 0.132929 0.750000
O O2 0.098200 0.260970 0.651372
O O3 0.322748 0.245171 0.644636
O O4 0.194272 0.074485 0.605447
O O5 0.988617 0.910012 0.750000
O O6 0.040541 0.912749 0.899248
O O7 0.835745 0.975372 0.848767
O O8 0.358364 0.439819 0.573274
O O9 0.182403 0.555248 0.513361
O O10 0.309045 0.641144 0.626412
O O11 0.527950 0.196653 0.116091
O O12 0.388179 0.250000 0.000000
O O13 0.743297 0.359842 0.618363
O O14 0.343662 0.750000 0.000000
#
# Coordination Sequence:
#
# PCOD8232053 Si02
#       6
#     8   8   8   8   8   8
#     4  10  22  39  59  86 119 156 200 242 295 358
#     4  10  23  40  59  83 119 158 195 247 305 351
#     4  10  21  39  61  92 120 152 201 251 294 352
#     4  10  19  37  64  88 118 158 195 243 303 350
#     4  11  21  38  61  89 117 156 203 242 294 357
#     4   9  22  35  60  93 119 150 197 246 294 350
#
# _framework density 20.188438000000001
#
# number of rings (size 3 to 8) (size 9 to 14) (size 15 to 20)
#    0.000    2.000    1.667    1.000    4.667    2.000 
#    3.000    3.333    0.000    0.000    0.000    0.000 
#    0.000    0.000    0.000    0.000    0.000    0.000 
#
# Total GULP energy -595283.716372 kJ/mol
# GULP energy per Si atom -12401.744091 kJ/mol
# Density = 2.014249 g / cm^3
# Si number density = 20.188438 Si / 1000 Ang^3
#
#
#
# Elastic Constant Matrix: (Units=GPa)
#
#
# Indices 1 2 3 4 5 6 
#
# 1 125.9667 49.1585 16.4710 0.0000 0.0000 0.0000
# 2 49.1585 122.5968 17.2847 0.0000 0.0000 0.0000
# 3 16.4710 17.2847 41.0528 0.0000 0.0000 0.0000
# 4 0.0000 0.0000 0.0000 15.6072 0.0000 0.0000
# 5 0.0000 0.0000 0.0000 0.0000 12.8751 0.0000
# 6 0.0000 0.0000 0.0000 0.0000 0.0000 30.9802
#
#
#
# Elastic Compliance Matrix: (Units=1/GPa)
#
#
# Indices 1 2 3 4 5 6 
#
# 1 0.009625 -0.003524 -0.002378 0.000000 0.000000 0.000000
# 2 -0.003524 0.009962 -0.002780 0.000000 0.000000 0.000000
# 3 -0.002378 -0.002780 0.026484 0.000000 0.000000 0.000000
# 4 0.000000 0.000000 0.000000 0.064073 0.000000 0.000000
# 5 0.000000 0.000000 0.000000 0.000000 0.077670 0.000000
# 6 0.000000 0.000000 0.000000 0.000000 0.000000 0.032279
#
#
# Mechanical properties :
#
#
# Convention : Reuss Voigt Hill
#
# Bulk Modulus (GPa) = 34.83641 50.60496 42.72069
# Shear Modulus (GPa) = 20.24088 25.67263 22.95675
#
# Velocity S-wave (km/s) = 3.16982 3.56989 3.37579
# Velocity P-wave (km/s) = 5.53986 6.48944 6.03336
#
# Compressibility (1/GPa) = 0.02870560
#
# Stress axis : x y z
#
# Youngs Moduli (GPa) = 103.89829 100.38251 37.75924
#
# Poissons Ratio (x) = 0.35375 0.08979
# Poissons Ratio (y) = 0.36614 0.10499
# Poissons Ratio (z) = 0.24706 0.27910
#
# Static dielectric constant tensor:
#      x y z
#    x 3.799350 0.000000 0.000000 
#    y 0.000000 3.953190 0.000000 
#    z 0.000000 0.000000 3.343080 
# 
# 
# High freq. dielectric constant tensor:
#      x y z
#    x 1.793600 0.000000 0.000000 
#    y 0.000000 1.801780 0.000000 
#    z 0.000000 0.000000 1.762080 
# 
# From -- ./inp_files/21812.got.cif
#   From: 2010.03.12/outbox.cif.g09.slc.cpg/sg57_11_cif.got.tgz:21812.got - 2010.04.16 15:48:40.
