data_PCOD8232375
_publ_section_title
;
Structure prediction by ZEFSAII (Michael W. Deem and Ramdas Pophale) SiO2 
 PCOD8232375
Probable space group: P B C M
;
_chemical_formula_sum "Si O2"
_cell_formula_units_Z 48
_cell_length_a 15.380450
_cell_length_b 19.802986
_cell_length_c 9.297050
_cell_angle_alpha 90.000000
_cell_angle_beta 90.000000
_cell_angle_gamma 90.000000
_cell_volume 2831.684667
_symmetry_space_group_name_H-M "P B C M"
_symmetry_group_IT_number 57
_symmetry_cell_setting 'orthorhombic'
loop_
_space_group_symop_operation_xyz
x,y,z
-x,-y,1/2+z
x,1/2-y,-z
-x,1/2+y,1/2-z
-x,-y,-z
x,y,1/2-z
-x,1/2+y,z
x,1/2-y,1/2+z
loop_
_atom_site_type_symbol
_atom_site_label
_atom_site_fract_x
_atom_site_fract_y
_atom_site_fract_z
Si Si1 0.966409 0.564669 0.417702
Si Si2 0.426244 0.571618 0.586362
Si Si3 0.387333 0.439804 0.414699
Si Si4 0.098885 0.818127 0.580497
Si Si5 0.756683 0.108664 0.912951
Si Si6 0.773703 0.950474 0.584793
O O1 0.972387 0.547311 0.250000
O O2 0.866686 0.579927 0.462097
O O3 0.000000 0.500000 0.500000
O O4 0.023529 0.629109 0.458902
O O5 0.420706 0.541455 0.750000
O O6 0.411597 0.514028 0.469244
O O7 0.523074 0.604184 0.564375
O O8 0.346823 0.624883 0.568363
O O9 0.359097 0.443420 0.250000
O O10 0.303439 0.411642 0.499691
O O11 0.072888 0.750000 0.500000
O O12 0.106623 0.805383 0.750000
O O13 0.191260 0.844882 0.523398
O O14 0.787331 0.124666 0.750000
O O15 0.773647 0.030227 0.949557
O O16 0.754656 0.936487 0.750000
#
# Coordination Sequence:
#
# PCOD8232375 Si02
#       6
#     8   8   8   8   8   8
#     4  10  20  34  52  73  97 128 166 207 252 300
#     4   8  15  26  39  59  92 128 155 187 236 279
#     4   9  15  23  38  63  93 124 158 192 227 279
#     4  11  23  36  51  72  98 129 166 205 248 299
#     4   9  16  29  48  67  93 128 159 194 244 291
#     4   9  17  29  45  67  97 128 156 196 249 292
#
# _framework density 16.951042000000001
#
# number of rings (size 3 to 8) (size 9 to 14) (size 15 to 20)
#    0.000    2.667    1.667    2.000    0.000    4.667 
#    0.000    0.000    0.000    0.000    0.000    1.167 
#    0.000    5.333    0.000    0.000    0.000    0.000 
#
# Total GULP energy -594759.959769 kJ/mol
# GULP energy per Si atom -12390.832495 kJ/mol
# Density = 1.691246 g / cm^3
# Si number density = 16.951042 Si / 1000 Ang^3
#
#
#
# Elastic Constant Matrix: (Units=GPa)
#
#
# Indices 1 2 3 4 5 6 
#
# 1 175.0698 50.9665 66.9016 0.0000 0.0000 0.0000
# 2 50.9665 55.0160 38.1980 0.0000 0.0000 0.0000
# 3 66.9016 38.1980 81.3180 0.0000 0.0000 0.0000
# 4 0.0000 0.0000 0.0000 17.2560 0.0000 0.0000
# 5 0.0000 0.0000 0.0000 0.0000 31.2087 0.0000
# 6 0.0000 0.0000 0.0000 0.0000 0.0000 13.1558
#
#
#
# Elastic Compliance Matrix: (Units=1/GPa)
#
#
# Indices 1 2 3 4 5 6 
#
# 1 0.009113 -0.004803 -0.005241 0.000000 0.000000 0.000000
# 2 -0.004803 0.029506 -0.009908 0.000000 0.000000 0.000000
# 3 -0.005241 -0.009908 0.021264 0.000000 0.000000 0.000000
# 4 0.000000 0.000000 0.000000 0.057951 0.000000 0.000000
# 5 0.000000 0.000000 0.000000 0.000000 0.032042 0.000000
# 6 0.000000 0.000000 0.000000 0.000000 0.000000 0.076012
#
#
# Mechanical properties :
#
#
# Convention : Reuss Voigt Hill
#
# Bulk Modulus (GPa) = 50.05736 69.28180 59.66958
# Shear Modulus (GPa) = 18.35184 22.67995 20.51590
#
# Velocity S-wave (km/s) = 3.29392 3.66179 3.48272
# Velocity P-wave (km/s) = 6.63786 7.67064 7.17286
#
# Compressibility (1/GPa) = 0.01997708
#
# Stress axis : x y z
#
# Youngs Moduli (GPa) = 109.72949 33.89186 47.02863
#
# Poissons Ratio (x) = 0.16280 0.24649
# Poissons Ratio (y) = 0.52708 0.46596
# Poissons Ratio (z) = 0.57513 0.33580
#
# Static dielectric constant tensor:
#      x y z
#    x 3.911480 0.000000 0.000000 
#    y 0.000000 2.686620 0.000000 
#    z 0.000000 0.000000 3.236990 
# 
# 
# High freq. dielectric constant tensor:
#      x y z
#    x 1.682210 0.000000 0.000000 
#    y 0.000000 1.576050 0.000000 
#    z 0.000000 0.000000 1.661720 
# 
# From -- ./inp_files/4893.got.cif
#   From: 2010.03.12/outbox.cif.g09.slc.cpg/sg57_3_cif.got.tgz:4893.got - 2010.04.16 15:48:40.
