data_PCOD8232373
_publ_section_title
;
Structure prediction by ZEFSAII (Michael W. Deem and Ramdas Pophale) SiO2 
 PCOD8232373
Probable space group: P B C M
;
_chemical_formula_sum "Si O2"
_cell_formula_units_Z 48
_cell_length_a 16.045108
_cell_length_b 18.508396
_cell_length_c 8.839480
_cell_angle_alpha 90.000000
_cell_angle_beta 90.000000
_cell_angle_gamma 90.000000
_cell_volume 2625.053417
_symmetry_space_group_name_H-M "P B C M"
_symmetry_group_IT_number 57
_symmetry_cell_setting 'orthorhombic'
loop_
_space_group_symop_operation_xyz
x,y,z
-x,-y,1/2+z
x,1/2-y,-z
-x,1/2+y,1/2-z
-x,-y,-z
x,y,1/2-z
-x,1/2+y,z
x,1/2-y,1/2+z
loop_
_atom_site_type_symbol
_atom_site_label
_atom_site_fract_x
_atom_site_fract_y
_atom_site_fract_z
Si Si1 0.513192 0.176094 0.573234
Si Si2 0.245757 0.454056 0.578442
Si Si3 0.921442 0.462260 0.074374
Si Si4 0.672527 0.675254 0.572937
Si Si5 0.678495 0.397971 0.072895
Si Si6 0.834376 0.327247 0.569775
O O1 0.543392 0.250000 0.500000
O O2 0.510439 0.189089 0.750000
O O3 0.420904 0.153808 0.515403
O O4 0.582366 0.116748 0.529673
O O5 0.262495 0.429938 0.750000
O O6 0.151915 0.479907 0.555009
O O7 0.262662 0.386482 0.471380
O O8 0.307352 0.518782 0.530794
O O9 0.938055 0.444996 0.250000
O O10 0.898911 0.387350 0.991511
O O11 0.000000 0.500000 0.000000
O O12 0.701942 0.750000 0.500000
O O13 0.674617 0.686034 0.750000
O O14 0.698113 0.384279 0.250000
O O15 0.740086 0.346647 0.978665
O O16 0.859595 0.250000 0.500000
O O17 0.840358 0.323762 0.750000
#
# Coordination Sequence:
#
# PCOD8232373 Si02
#       6
#     8   8   8   8   8   8
#     4   9  18  31  47  70 101 138 178 219 261 303
#     4   9  19  35  54  76 104 135 166 207 260 312
#     4  10  21  39  61  84 110 139 171 211 262 318
#     4  10  20  34  52  73 100 136 179 222 261 305
#     4   9  18  33  51  74 106 140 174 215 263 313
#     4  11  21  34  54  81 112 144 178 216 260 311
#
# _framework density 18.285340999999999
#
# number of rings (size 3 to 8) (size 9 to 14) (size 15 to 20)
#    0.000    2.333    0.000    4.000    0.000    6.667 
#    0.000    0.833    0.000    4.000    0.000    0.000 
#    0.000    0.000    0.000    0.000    0.000    0.000 
#
# Total GULP energy -595193.327252 kJ/mol
# GULP energy per Si atom -12399.860984 kJ/mol
# Density = 1.824372 g / cm^3
# Si number density = 18.285341 Si / 1000 Ang^3
#
#
#
# Elastic Constant Matrix: (Units=GPa)
#
#
# Indices 1 2 3 4 5 6 
#
# 1 68.0160 57.2201 38.6197 0.0000 0.0000 0.0000
# 2 57.2201 127.0451 58.2920 0.0000 0.0000 0.0000
# 3 38.6197 58.2920 96.5358 0.0000 0.0000 0.0000
# 4 0.0000 0.0000 0.0000 34.4114 0.0000 0.0000
# 5 0.0000 0.0000 0.0000 0.0000 27.5427 0.0000
# 6 0.0000 0.0000 0.0000 0.0000 0.0000 29.4851
#
#
#
# Elastic Compliance Matrix: (Units=1/GPa)
#
#
# Indices 1 2 3 4 5 6 
#
# 1 0.024967 -0.009215 -0.004424 0.000000 0.000000 0.000000
# 2 -0.009215 0.014289 -0.004942 0.000000 0.000000 0.000000
# 3 -0.004424 -0.004942 0.015113 0.000000 0.000000 0.000000
# 4 0.000000 0.000000 0.000000 0.029060 0.000000 0.000000
# 5 0.000000 0.000000 0.000000 0.000000 0.036307 0.000000
# 6 0.000000 0.000000 0.000000 0.000000 0.000000 0.033915
#
#
# Mechanical properties :
#
#
# Convention : Reuss Voigt Hill
#
# Bulk Modulus (GPa) = 58.11472 66.65115 62.38293
# Shear Modulus (GPa) = 25.43913 27.45216 26.44565
#
# Velocity S-wave (km/s) = 3.73397 3.87889 3.80712
# Velocity P-wave (km/s) = 7.10219 7.52268 7.31546
#
# Compressibility (1/GPa) = 0.01720735
#
# Stress axis : x y z
#
# Youngs Moduli (GPa) = 40.05356 69.98384 66.17022
#
# Poissons Ratio (x) = 0.64491 0.29271
# Poissons Ratio (y) = 0.36910 0.32699
# Poissons Ratio (z) = 0.17718 0.34584
#
# Static dielectric constant tensor:
#      x y z
#    x 3.391610 0.000000 0.000000 
#    y 0.000000 3.176870 0.000000 
#    z 0.000000 0.000000 3.378120 
# 
# 
# High freq. dielectric constant tensor:
#      x y z
#    x 1.699090 0.000000 0.000000 
#    y 0.000000 1.706460 0.000000 
#    z 0.000000 0.000000 1.713600 
# 
# From -- ./inp_files/4624.got.cif
#   From: 2010.03.12/outbox.cif.g09.slc.cpg/sg57_3_cif.got.tgz:4624.got - 2010.04.16 15:48:40.
