data_PCOD8232894
_publ_section_title
;
Structure prediction by ZEFSAII (Michael W. Deem and Ramdas Pophale) SiO2 
 PCOD8232894
Probable space group: P B C M
;
_chemical_formula_sum "Si O2"
_cell_formula_units_Z 64
_cell_length_a 23.906806
_cell_length_b 15.288510
_cell_length_c 8.948743
_cell_angle_alpha 90.000000
_cell_angle_beta 90.000000
_cell_angle_gamma 90.000000
_cell_volume 3270.760578
_symmetry_space_group_name_H-M "P B C M"
_symmetry_group_IT_number 57
_symmetry_cell_setting 'orthorhombic'
loop_
_space_group_symop_operation_xyz
x,y,z
-x,-y,1/2+z
x,1/2-y,-z
-x,1/2+y,1/2-z
-x,-y,-z
x,y,1/2-z
-x,1/2+y,z
x,1/2-y,1/2+z
loop_
_atom_site_type_symbol
_atom_site_label
_atom_site_fract_x
_atom_site_fract_y
_atom_site_fract_z
Si Si1 0.227112 0.836413 0.920668
Si Si2 0.121577 0.404220 0.924652
Si Si3 0.578198 0.506840 0.925901
Si Si4 0.503133 0.651132 0.072330
Si Si5 0.705455 0.000421 0.072614
Si Si6 0.999247 0.657923 0.425143
Si Si7 0.885634 0.077330 0.078240
Si Si8 0.773915 0.664741 0.573055
O O1 0.244531 0.827749 0.750000
O O2 0.261169 0.916763 0.993258
O O3 0.159987 0.846012 0.937975
O O4 0.248082 0.750000 0.000000
O O5 0.130462 0.388512 0.750000
O O6 0.057345 0.390164 0.974314
O O7 0.137179 0.501880 0.971493
O O8 0.162242 0.340198 0.014708
O O9 0.572958 0.525356 0.750000
O O10 0.549563 0.412937 0.965668
O O11 0.641691 0.497775 0.981628
O O12 0.554690 0.593472 0.009171
O O13 0.509721 0.664420 0.250000
O O14 0.498294 0.750000 0.000000
O O15 0.709181 0.000521 0.250000
O O16 0.736704 0.914748 0.011805
O O17 0.000568 0.750000 0.500000
O O18 0.002830 0.671741 0.250000
O O19 0.053525 0.605373 0.480943
O O20 0.888020 0.044267 0.250000
O O21 0.745978 0.750000 0.500000
O O22 0.774311 0.671592 0.750000
#
# Coordination Sequence:
#
# PCOD8232894 Si02
#       8
#     8   8   8   8   8   8   8   8
#     4  10  20  36  57  82 110 146 187 229 283 340
#     4  11  22  36  55  81 108 140 186 232 282 345
#     4   9  19  37  60  85 116 155 197 240 281 330
#     4  10  20  35  58  88 122 158 193 233 282 334
#     4   9  19  38  60  82 114 153 191 234 287 334
#     4  10  22  36  52  77 107 139 178 227 283 343
#     4  10  20  37  57  77 106 143 181 228 287 342
#     4  11  22  39  60  82 111 149 189 236 288 342
#
# _framework density 19.567314
#
# number of rings (size 3 to 8) (size 9 to 14) (size 15 to 20)
#    0.000    2.000    1.250    2.250    0.000    4.500 
#    0.000    3.125    0.000    0.000    0.000    0.000 
#    0.000    0.000    0.000    0.000    0.000    0.000 
#
# Total GULP energy -793334.067919 kJ/mol
# GULP energy per Si atom -12395.844811 kJ/mol
# Density = 1.952278 g / cm^3
# Si number density = 19.567314 Si / 1000 Ang^3
#
#
#
# Elastic Constant Matrix: (Units=GPa)
#
#
# Indices 1 2 3 4 5 6 
#
# 1 136.5905 60.6542 32.8605 0.0000 0.0000 0.0000
# 2 60.6542 167.8671 49.2592 0.0000 0.0000 0.0000
# 3 32.8605 49.2592 56.4547 0.0000 0.0000 0.0000
# 4 0.0000 0.0000 0.0000 39.0547 0.0000 0.0000
# 5 0.0000 0.0000 0.0000 0.0000 2.1507 0.0000
# 6 0.0000 0.0000 0.0000 0.0000 0.0000 16.6679
#
#
#
# Elastic Compliance Matrix: (Units=1/GPa)
#
#
# Indices 1 2 3 4 5 6 
#
# 1 0.009151 -0.002344 -0.003282 0.000000 0.000000 0.000000
# 2 -0.002344 0.008607 -0.006146 0.000000 0.000000 0.000000
# 3 -0.003282 -0.006146 0.024986 0.000000 0.000000 0.000000
# 4 0.000000 0.000000 0.000000 0.025605 0.000000 0.000000
# 5 0.000000 0.000000 0.000000 0.000000 0.464965 0.000000
# 6 0.000000 0.000000 0.000000 0.000000 0.000000 0.059996
#
#
# Mechanical properties :
#
#
# Convention : Reuss Voigt Hill
#
# Bulk Modulus (GPa) = 52.07816 71.82892 61.95354
# Shear Modulus (GPa) = 8.02240 26.11721 17.06981
#
# Velocity S-wave (km/s) = 2.02702 3.65737 2.95678
# Velocity P-wave (km/s) = 5.67019 7.39077 6.58690
#
# Compressibility (1/GPa) = 0.01920191
#
# Stress axis : x y z
#
# Youngs Moduli (GPa) = 109.27317 116.17845 40.02165
#
# Poissons Ratio (x) = 0.27227 0.13135
# Poissons Ratio (y) = 0.25609 0.24598
# Poissons Ratio (z) = 0.35862 0.71406
#
# Static dielectric constant tensor:
#      x y z
#    x 6.555110 0.000000 0.000000 
#    y 0.000000 3.693750 0.000000 
#    z 0.000000 0.000000 3.361010 
# 
# 
# High freq. dielectric constant tensor:
#      x y z
#    x 1.763060 0.000000 0.000000 
#    y 0.000000 1.770730 0.000000 
#    z 0.000000 0.000000 1.746250 
# 
# From -- ./inp_files/9299.got.cif
#   From: 2010.03.12/outbox.cif.g09.slc.cpg/sg57_5_cif.got.tgz:9299.got - 2010.04.16 15:48:40.
