data_PCOD8232618
_publ_section_title
;
Structure prediction by ZEFSAII (Michael W. Deem and Ramdas Pophale) SiO2 
 PCOD8232618
Probable space group: P B C M
;
_chemical_formula_sum "Si O2"
_cell_formula_units_Z 48
_cell_length_a 10.121512
_cell_length_b 27.780849
_cell_length_c 8.730618
_cell_angle_alpha 90.000000
_cell_angle_beta 90.000000
_cell_angle_gamma 90.000000
_cell_volume 2454.911807
_symmetry_space_group_name_H-M "P B C M"
_symmetry_group_IT_number 57
_symmetry_cell_setting 'orthorhombic'
loop_
_space_group_symop_operation_xyz
x,y,z
-x,-y,1/2+z
x,1/2-y,-z
-x,1/2+y,1/2-z
-x,-y,-z
x,y,1/2-z
-x,1/2+y,z
x,1/2-y,1/2+z
loop_
_atom_site_type_symbol
_atom_site_label
_atom_site_fract_x
_atom_site_fract_y
_atom_site_fract_z
Si Si1 0.727162 0.638178 0.926589
Si Si2 0.229669 0.853306 0.929378
Si Si3 0.523150 0.198297 0.930706
Si Si4 0.986328 0.802163 0.428018
Si Si5 0.134893 0.446851 0.572884
Si Si6 0.854561 0.055440 0.926620
O O1 0.719590 0.622557 0.750000
O O2 0.590443 0.661344 0.983561
O O3 0.840261 0.677583 0.953345
O O4 0.751030 0.590474 0.027048
O O5 0.248372 0.847024 0.750000
O O6 0.337068 0.820866 0.012775
O O7 0.241171 0.909572 0.976162
O O8 0.085555 0.836664 0.982190
O O9 0.525700 0.203819 0.750000
O O10 0.491656 0.250000 0.000000
O O11 0.994465 0.750000 0.500000
O O12 0.025528 0.799936 0.250000
O O13 0.094957 0.440845 0.750000
O O14 0.189266 0.500611 0.541319
O O15 0.007118 0.436703 0.470475
O O16 0.839400 0.069634 0.750000
#
# Coordination Sequence:
#
# PCOD8232618 Si02
#       6
#     8   8   8   8   8   8
#     4  10  22  39  61  87 119 157 198 243 298 352
#     4  12  24  39  60  88 117 156 201 247 298 353
#     4  11  24  43  63  86 118 161 202 245 298 356
#     4  11  22  37  58  86 117 151 192 247 297 351
#     4  10  20  34  59  91 122 156 195 241 296 354
#     4  10  20  36  58  88 123 157 195 243 296 353
#
# _framework density 19.552636
#
# number of rings (size 3 to 8) (size 9 to 14) (size 15 to 20)
#    0.000    1.333    1.667    4.500    0.000    4.000 
#    0.000    0.833    0.000    0.000    0.000    0.000 
#    0.000    0.000    0.000    0.000    0.000    0.000 
#
# Total GULP energy -595465.463263 kJ/mol
# GULP energy per Si atom -12405.530485 kJ/mol
# Density = 1.950813 g / cm^3
# Si number density = 19.552636 Si / 1000 Ang^3
#
#
#
# Elastic Constant Matrix: (Units=GPa)
#
#
# Indices 1 2 3 4 5 6 
#
# 1 47.6396 9.7376 22.7478 0.0000 0.0000 0.0000
# 2 9.7376 110.8094 45.5140 0.0000 0.0000 0.0000
# 3 22.7478 45.5140 75.7915 0.0000 0.0000 0.0000
# 4 0.0000 0.0000 0.0000 37.6313 0.0000 0.0000
# 5 0.0000 0.0000 0.0000 0.0000 23.4284 0.0000
# 6 0.0000 0.0000 0.0000 0.0000 0.0000 31.1616
#
#
#
# Elastic Compliance Matrix: (Units=1/GPa)
#
#
# Indices 1 2 3 4 5 6 
#
# 1 0.024614 0.001157 -0.008082 0.000000 0.000000 0.000000
# 2 0.001157 0.012034 -0.007574 0.000000 0.000000 0.000000
# 3 -0.008082 -0.007574 0.020168 0.000000 0.000000 0.000000
# 4 0.000000 0.000000 0.000000 0.026574 0.000000 0.000000
# 5 0.000000 0.000000 0.000000 0.000000 0.042683 0.000000
# 6 0.000000 0.000000 0.000000 0.000000 0.000000 0.032091
#
#
# Mechanical properties :
#
#
# Convention : Reuss Voigt Hill
#
# Bulk Modulus (GPa) = 35.94888 43.35993 39.65441
# Shear Modulus (GPa) = 25.45396 28.86035 27.15715
#
# Velocity S-wave (km/s) = 3.61199 3.84609 3.73087
# Velocity P-wave (km/s) = 5.98505 6.47667 6.23571
#
# Compressibility (1/GPa) = 0.02781728
#
# Stress axis : x y z
#
# Youngs Moduli (GPa) = 40.62779 83.10041 49.58383
#
# Poissons Ratio (x) = -0.09612 0.40074
# Poissons Ratio (y) = -0.04699 0.37553
# Poissons Ratio (z) = 0.32836 0.62937
#
# Static dielectric constant tensor:
#      x y z
#    x 3.397580 0.000000 0.000000 
#    y 0.000000 3.786250 0.000000 
#    z 0.000000 0.000000 3.640090 
# 
# 
# High freq. dielectric constant tensor:
#      x y z
#    x 1.739590 0.000000 0.000000 
#    y 0.000000 1.780160 0.000000 
#    z 0.000000 0.000000 1.772610 
# 
# From -- ./inp_files/2098.got.cif
#   From: 2010.03.12/outbox.cif.g09.slc.cpg/sg57_2_cif.got.tgz:2098.got - 2010.04.16 15:48:40.
