data_PCOD8232407
_publ_section_title
;
Structure prediction by ZEFSAII (Michael W. Deem and Ramdas Pophale) SiO2 
 PCOD8232407
Probable space group: P B C M
;
_chemical_formula_sum "Si O2"
_cell_formula_units_Z 48
_cell_length_a 14.871632
_cell_length_b 19.007142
_cell_length_c 9.630537
_cell_angle_alpha 90.000000
_cell_angle_beta 90.000000
_cell_angle_gamma 90.000000
_cell_volume 2722.237132
_symmetry_space_group_name_H-M "P B C M"
_symmetry_group_IT_number 57
_symmetry_cell_setting 'orthorhombic'
loop_
_space_group_symop_operation_xyz
x,y,z
-x,-y,1/2+z
x,1/2-y,-z
-x,1/2+y,1/2-z
-x,-y,-z
x,y,1/2-z
-x,1/2+y,z
x,1/2-y,1/2+z
loop_
_atom_site_type_symbol
_atom_site_label
_atom_site_fract_x
_atom_site_fract_y
_atom_site_fract_z
Si Si1 0.758894 0.445688 0.910812
Si Si2 0.964910 0.436235 0.909413
Si Si3 0.429695 0.184563 0.408934
Si Si4 0.635526 0.183095 0.411229
Si Si5 0.272185 0.417618 0.910738
Si Si6 0.106392 0.180011 0.411287
O O1 0.743457 0.464244 0.750000
O O2 0.860693 0.421955 0.939944
O O3 0.695199 0.382411 0.959194
O O4 0.733069 0.513036 0.998956
O O5 0.982274 0.457157 0.750000
O O6 0.018073 0.365343 0.946939
O O7 0.000000 0.500000 0.000000
O O8 0.396839 0.250000 0.500000
O O9 0.418209 0.208086 0.250000
O O10 0.532066 0.163638 0.443142
O O11 0.368295 0.117479 0.442170
O O12 0.666460 0.250000 0.500000
O O13 0.650718 0.201041 0.250000
O O14 0.261490 0.438620 0.750000
O O15 0.193867 0.364165 0.955151
O O16 0.102369 0.250000 0.500000
O O17 0.110378 0.200932 0.250000
#
# Coordination Sequence:
#
# PCOD8232407 Si02
#       6
#     8   8   8   8   8   8
#     4  10  21  35  54  78 105 137 173 215 262 311
#     4  10  20  36  55  75 102 137 174 213 258 309
#     4   9  18  33  53  75 104 140 175 214 259 306
#     4   9  19  36  54  76 105 137 175 217 259 307
#     4  10  20  34  52  77 107 138 173 214 258 309
#     4  10  21  35  52  77 106 133 170 215 257 306
#
# _framework density 17.632556000000001
#
# number of rings (size 3 to 8) (size 9 to 14) (size 15 to 20)
#    0.000    2.333    1.667    0.500    0.000    4.000 
#    0.000    0.000    0.000    0.000    0.000    0.000 
#    0.000    0.000    0.000    0.000    0.000    0.000 
#
# Total GULP energy -595367.107961 kJ/mol
# GULP energy per Si atom -12403.481416 kJ/mol
# Density = 1.759242 g / cm^3
# Si number density = 17.632556 Si / 1000 Ang^3
#
#
#
# Elastic Constant Matrix: (Units=GPa)
#
#
# Indices 1 2 3 4 5 6 
#
# 1 117.8510 87.5139 55.3343 0.0000 0.0000 0.0000
# 2 87.5139 167.0623 86.3956 0.0000 0.0000 0.0000
# 3 55.3343 86.3956 74.7657 0.0000 0.0000 0.0000
# 4 0.0000 0.0000 0.0000 41.6981 0.0000 0.0000
# 5 0.0000 0.0000 0.0000 0.0000 15.5006 0.0000
# 6 0.0000 0.0000 0.0000 0.0000 0.0000 32.2058
#
#
#
# Elastic Compliance Matrix: (Units=1/GPa)
#
#
# Indices 1 2 3 4 5 6 
#
# 1 0.014570 -0.005109 -0.004880 0.000000 0.000000 0.000000
# 2 -0.005109 0.016666 -0.015478 0.000000 0.000000 0.000000
# 3 -0.004880 -0.015478 0.034872 0.000000 0.000000 0.000000
# 4 0.000000 0.000000 0.000000 0.023982 0.000000 0.000000
# 5 0.000000 0.000000 0.000000 0.000000 0.064514 0.000000
# 6 0.000000 0.000000 0.000000 0.000000 0.000000 0.031050
#
#
# Mechanical properties :
#
#
# Convention : Reuss Voigt Hill
#
# Bulk Modulus (GPa) = 65.89508 90.90741 78.40125
# Shear Modulus (GPa) = 20.69146 26.57658 23.63402
#
# Velocity S-wave (km/s) = 3.42933 3.88654 3.66507
# Velocity P-wave (km/s) = 7.28922 8.47400 7.90384
#
# Compressibility (1/GPa) = 0.01517564
#
# Stress axis : x y z
#
# Youngs Moduli (GPa) = 68.63272 60.00178 28.67636
#
# Poissons Ratio (x) = 0.30654 0.13994
# Poissons Ratio (y) = 0.35063 0.44384
# Poissons Ratio (z) = 0.33493 0.92868
#
# Static dielectric constant tensor:
#      x y z
#    x 3.573180 0.000000 0.000000 
#    y 0.000000 3.184000 0.000000 
#    z 0.000000 0.000000 3.274320 
# 
# 
# High freq. dielectric constant tensor:
#      x y z
#    x 1.696250 0.000000 0.000000 
#    y 0.000000 1.675400 0.000000 
#    z 0.000000 0.000000 1.681030 
# 
# From -- ./inp_files/4661.got.cif
#   From: 2010.03.12/outbox.cif.g09.slc.cpg/sg57_3_cif.got.tgz:4661.got - 2010.04.16 15:48:40.
