data_PCOD8232324
_publ_section_title
;
Structure prediction by ZEFSAII (Michael W. Deem and Ramdas Pophale) SiO2 
 PCOD8232324
Probable space group: P B C M
;
_chemical_formula_sum "Si O2"
_cell_formula_units_Z 64
_cell_length_a 11.644660
_cell_length_b 31.575085
_cell_length_c 8.796073
_cell_angle_alpha 90.000000
_cell_angle_beta 90.000000
_cell_angle_gamma 90.000000
_cell_volume 3234.150054
_symmetry_space_group_name_H-M "P B C M"
_symmetry_group_IT_number 57
_symmetry_cell_setting 'orthorhombic'
loop_
_space_group_symop_operation_xyz
x,y,z
-x,-y,1/2+z
x,1/2-y,-z
-x,1/2+y,1/2-z
-x,-y,-z
x,y,1/2-z
-x,1/2+y,z
x,1/2-y,1/2+z
loop_
_atom_site_type_symbol
_atom_site_label
_atom_site_fract_x
_atom_site_fract_y
_atom_site_fract_z
Si Si1 0.928600 0.035899 0.073894
Si Si2 0.425736 0.295403 0.568135
Si Si3 0.939072 0.608199 0.576877
Si Si4 0.281622 0.935206 0.418412
Si Si5 0.490386 0.047735 0.431439
Si Si6 0.683002 0.290963 0.577382
Si Si7 0.326673 0.381368 0.429841
Si Si8 0.155664 0.652793 0.912836
O O1 0.910978 0.028667 0.250000
O O2 0.801942 0.031583 0.000411
O O3 0.001172 0.078030 0.044862
O O4 0.000000 0.000000 0.000000
O O5 0.381566 0.250000 0.500000
O O6 0.410284 0.294758 0.750000
O O7 0.557297 0.302506 0.513032
O O8 0.362098 0.336224 0.500266
O O9 0.947114 0.590239 0.750000
O O10 0.808137 0.616125 0.532548
O O11 0.017220 0.651073 0.564789
O O12 0.317971 0.951493 0.250000
O O13 0.393739 0.927761 0.521381
O O14 0.205183 0.893995 0.403945
O O15 0.478227 0.045201 0.250000
O O16 0.387374 0.077107 0.496712
O O17 0.500000 0.000000 0.500000
O O18 0.735592 0.250000 0.500000
O O19 0.666403 0.280764 0.750000
O O20 0.778661 0.326354 0.552491
O O21 0.352026 0.381360 0.250000
O O22 0.182680 0.675434 0.750000
#
# Coordination Sequence:
#
# PCOD8232324 Si02
#       8
#     8   8   8   8   8   8   8   8
#     4  11  22  36  58  84 113 148 191 243 296 349
#     4  10  21  38  61  91 124 158 202 251 305 368
#     4   9  21  40  59  82 114 154 200 244 294 357
#     4  10  21  39  60  83 111 146 189 236 291 348
#     4  12  26  42  60  86 121 160 203 251 305 366
#     4  10  20  33  54  84 116 148 184 233 287 348
#     4  11  23  41  64  88 121 163 206 255 311 368
#     4   9  18  35  58  82 111 144 182 233 287 345
#
# _framework density 19.788816000000001
#
# number of rings (size 3 to 8) (size 9 to 14) (size 15 to 20)
#    0.000    1.750    0.000    5.250    1.750    7.000 
#    0.000    0.625    0.000    0.000    0.000    0.000 
#    0.000    0.000    0.000    0.000    0.000    0.000 
#
# Total GULP energy -792984.610024 kJ/mol
# GULP energy per Si atom -12390.384532 kJ/mol
# Density = 1.974378 g / cm^3
# Si number density = 19.788816 Si / 1000 Ang^3
#
#
#
# Elastic Constant Matrix: (Units=GPa)
#
#
# Indices 1 2 3 4 5 6 
#
# 1 125.1504 31.6848 37.5401 0.0000 0.0000 0.0000
# 2 31.6848 76.7202 33.8775 0.0000 0.0000 0.0000
# 3 37.5401 33.8775 116.1344 0.0000 0.0000 0.0000
# 4 0.0000 0.0000 0.0000 35.6527 0.0000 0.0000
# 5 0.0000 0.0000 0.0000 0.0000 28.1175 0.0000
# 6 0.0000 0.0000 0.0000 0.0000 0.0000 30.3086
#
#
#
# Elastic Compliance Matrix: (Units=1/GPa)
#
#
# Indices 1 2 3 4 5 6 
#
# 1 0.009382 -0.002911 -0.002184 0.000000 0.000000 0.000000
# 2 -0.002911 0.015864 -0.003687 0.000000 0.000000 0.000000
# 3 -0.002184 -0.003687 0.010392 0.000000 0.000000 0.000000
# 4 0.000000 0.000000 0.000000 0.028048 0.000000 0.000000
# 5 0.000000 0.000000 0.000000 0.000000 0.035565 0.000000
# 6 0.000000 0.000000 0.000000 0.000000 0.000000 0.032994
#
#
# Mechanical properties :
#
#
# Convention : Reuss Voigt Hill
#
# Bulk Modulus (GPa) = 55.32097 58.24554 56.78326
# Shear Modulus (GPa) = 32.08538 33.14261 32.61399
#
# Velocity S-wave (km/s) = 4.03102 4.09689 4.06409
# Velocity P-wave (km/s) = 7.04853 7.20256 7.12596
#
# Compressibility (1/GPa) = 0.01807633
#
# Stress axis : x y z
#
# Youngs Moduli (GPa) = 106.58366 63.03398 96.22656
#
# Poissons Ratio (x) = 0.18346 0.21014
# Poissons Ratio (y) = 0.31021 0.35479
# Poissons Ratio (z) = 0.23276 0.23241
#
# Static dielectric constant tensor:
#      x y z
#    x 3.788050 0.000000 0.000000 
#    y 0.000000 3.099240 0.000000 
#    z 0.000000 0.000000 4.333090 
# 
# 
# High freq. dielectric constant tensor:
#      x y z
#    x 1.776900 0.000000 0.000000 
#    y 0.000000 1.756920 0.000000 
#    z 0.000000 0.000000 1.783180 
# 
# From -- ./inp_files/3725.got.cif
#   From: 2010.03.12/outbox.cif.g09.slc.cpg/sg57_2_cif.got.tgz:3725.got - 2010.04.16 15:48:40.
