data_PCOD8232472
_publ_section_title
;
Structure prediction by ZEFSAII (Michael W. Deem and Ramdas Pophale) SiO2 
 PCOD8232472
Probable space group: P B C M
;
_chemical_formula_sum "Si O2"
_cell_formula_units_Z 56
_cell_length_a 19.522031
_cell_length_b 14.353121
_cell_length_c 9.948314
_cell_angle_alpha 90.000000
_cell_angle_beta 90.000000
_cell_angle_gamma 90.000000
_cell_volume 2787.538207
_symmetry_space_group_name_H-M "P B C M"
_symmetry_group_IT_number 57
_symmetry_cell_setting 'orthorhombic'
loop_
_space_group_symop_operation_xyz
x,y,z
-x,-y,1/2+z
x,1/2-y,-z
-x,1/2+y,1/2-z
-x,-y,-z
x,y,1/2-z
-x,1/2+y,z
x,1/2-y,1/2+z
loop_
_atom_site_type_symbol
_atom_site_label
_atom_site_fract_x
_atom_site_fract_y
_atom_site_fract_z
Si Si1 0.113735 0.160885 0.589738
Si Si2 0.465150 0.149444 0.460689
Si Si3 0.316046 0.322720 0.607835
Si Si4 0.412432 0.525033 0.394377
Si Si5 0.298403 0.967970 0.401345
Si Si6 0.953701 0.331377 0.402129
Si Si7 0.150687 0.991724 0.406267
O O1 0.136274 0.250000 0.500000
O O2 0.133862 0.169063 0.750000
O O3 0.032845 0.145753 0.575764
O O4 0.149356 0.073694 0.516257
O O5 0.496782 0.250000 0.500000
O O6 0.398267 0.172827 0.373733
O O7 0.523210 0.094135 0.381225
O O8 0.438772 0.080198 0.578786
O O9 0.289352 0.250000 0.500000
O O10 0.285766 0.289077 0.750000
O O11 0.287188 0.422780 0.570659
O O12 0.375634 0.522692 0.250000
O O13 0.358054 0.568156 0.500242
O O14 0.324340 0.947206 0.250000
O O15 0.221350 0.930701 0.426224
O O16 0.928292 0.250000 0.500000
O O17 0.939253 0.298402 0.250000
O O18 0.912361 0.424408 0.436981
O O19 0.147866 0.028255 0.250000
#
# Coordination Sequence:
#
# PCOD8232472 Si02
#       7
#     8   8   8   8   8   8   8
#     4  10  20  34  54  83 113 140 171 214 265 317
#     4   9  19  33  52  76 103 132 163 207 267 317
#     4   9  17  30  48  70  96 127 164 206 253 307
#     4  10  20  34  54  78 102 131 173 219 256 304
#     4   9  20  36  50  68 102 142 172 206 259 311
#     4   9  19  35  56  80 107 138 176 222 270 316
#     4  10  20  36  56  77 104 142 182 219 262 314
#
# _framework density 20.089411999999999
#
# number of rings (size 3 to 8) (size 9 to 14) (size 15 to 20)
#    0.000    2.571    0.000    1.286    0.000   11.429 
#    0.000    2.143    0.000    1.714    0.000    0.000 
#    0.000    0.000    0.000    0.000    0.000    0.000 
#
# Total GULP energy -693763.946470 kJ/mol
# GULP energy per Si atom -12388.641901 kJ/mol
# Density = 2.004369 g / cm^3
# Si number density = 20.089412 Si / 1000 Ang^3
#
#
#
# Elastic Constant Matrix: (Units=GPa)
#
#
# Indices 1 2 3 4 5 6 
#
# 1 58.2369 9.4696 28.3919 0.0000 0.0000 0.0000
# 2 9.4696 57.8942 25.8155 0.0000 0.0000 0.0000
# 3 28.3919 25.8155 120.1971 0.0000 0.0000 0.0000
# 4 0.0000 0.0000 0.0000 21.7136 0.0000 0.0000
# 5 0.0000 0.0000 0.0000 0.0000 18.9806 0.0000
# 6 0.0000 0.0000 0.0000 0.0000 0.0000 11.1810
#
#
#
# Elastic Compliance Matrix: (Units=1/GPa)
#
#
# Indices 1 2 3 4 5 6 
#
# 1 0.019488 -0.001255 -0.004334 0.000000 0.000000 0.000000
# 2 -0.001255 0.019183 -0.003824 0.000000 0.000000 0.000000
# 3 -0.004334 -0.003824 0.010165 0.000000 0.000000 0.000000
# 4 0.000000 0.000000 0.000000 0.046054 0.000000 0.000000
# 5 0.000000 0.000000 0.000000 0.000000 0.052685 0.000000
# 6 0.000000 0.000000 0.000000 0.000000 0.000000 0.089437
#
#
# Mechanical properties :
#
#
# Convention : Reuss Voigt Hill
#
# Bulk Modulus (GPa) = 33.32127 40.40912 36.86520
# Shear Modulus (GPa) = 18.80822 21.88513 20.34668
#
# Velocity S-wave (km/s) = 3.06310 3.30417 3.18591
# Velocity P-wave (km/s) = 5.39746 5.89194 5.65011
#
# Compressibility (1/GPa) = 0.03001086
#
# Stress axis : x y z
#
# Youngs Moduli (GPa) = 51.31328 52.12904 98.38095
#
# Poissons Ratio (x) = 0.06543 0.42636
# Poissons Ratio (y) = 0.06441 0.37617
# Poissons Ratio (z) = 0.22238 0.19932
#
# Static dielectric constant tensor:
#      x y z
#    x 3.701370 0.000000 0.000000 
#    y 0.000000 3.476950 0.000000 
#    z 0.000000 0.000000 4.104800 
# 
# 
# High freq. dielectric constant tensor:
#      x y z
#    x 1.786650 0.000000 0.000000 
#    y 0.000000 1.753640 0.000000 
#    z 0.000000 0.000000 1.786920 
# 
# From -- ./inp_files/8080.got.cif
#   From: 2010.03.12/outbox.cif.g09.slc.cpg/sg57_5_cif.got.tgz:8080.got - 2010.04.16 15:48:40.
