data_PCOD8232310
_publ_section_title
;
Structure prediction by ZEFSAII (Michael W. Deem and Ramdas Pophale) SiO2 
 PCOD8232310
Probable space group: P B C M
;
_chemical_formula_sum "Si O2"
_cell_formula_units_Z 40
_cell_length_a 13.836044
_cell_length_b 17.614964
_cell_length_c 8.897615
_cell_angle_alpha 90.000000
_cell_angle_beta 90.000000
_cell_angle_gamma 90.000000
_cell_volume 2168.539335
_symmetry_space_group_name_H-M "P B C M"
_symmetry_group_IT_number 57
_symmetry_cell_setting 'orthorhombic'
loop_
_space_group_symop_operation_xyz
x,y,z
-x,-y,1/2+z
x,1/2-y,-z
-x,1/2+y,1/2-z
-x,-y,-z
x,y,1/2-z
-x,1/2+y,z
x,1/2-y,1/2+z
loop_
_atom_site_type_symbol
_atom_site_label
_atom_site_fract_x
_atom_site_fract_y
_atom_site_fract_z
Si Si1 0.125166 0.395563 0.077009
Si Si2 0.080638 0.831249 0.073367
Si Si3 0.398050 0.017375 0.427771
Si Si4 0.698362 0.826112 0.574534
Si Si5 0.217781 0.946414 0.573786
O O1 0.147857 0.377287 0.250000
O O2 0.147429 0.482942 0.038736
O O3 0.014288 0.380512 0.036344
O O4 0.192237 0.340440 0.979243
O O5 0.098093 0.822854 0.250000
O O6 0.067036 0.750000 0.000000
O O7 0.172366 0.871744 0.999311
O O8 0.401436 0.005564 0.250000
O O9 0.321387 0.959174 0.497748
O O10 0.500000 0.000000 0.500000
O O11 0.369336 0.103373 0.471353
O O12 0.655714 0.750000 0.500000
O O13 0.700310 0.813290 0.750000
O O14 0.232602 0.933385 0.750000
#
# Coordination Sequence:
#
# PCOD8232310 Si02
#       5
#     8   8   8   8   8
#     4   9  19  34  54  79 108 142 179 218 263 313
#     4  11  22  35  51  76 110 147 184 221 261 310
#     4  10  21  38  59  82 106 137 177 222 270 322
#     4  10  20  33  53  81 111 139 172 216 266 315
#     4  10  20  36  57  80 106 139 178 221 268 320
#
# _framework density 18.445595000000001
#
# number of rings (size 3 to 8) (size 9 to 14) (size 15 to 20)
#    0.000    2.000    0.000    3.600    0.000    6.400 
#    0.000    1.000    0.000    2.400    0.000    0.000 
#    0.000    0.000    0.000    0.000    0.000    0.000 
#
# Total GULP energy -496186.328601 kJ/mol
# GULP energy per Si atom -12404.658215 kJ/mol
# Density = 1.840361 g / cm^3
# Si number density = 18.445595 Si / 1000 Ang^3
#
#
#
# Elastic Constant Matrix: (Units=GPa)
#
#
# Indices 1 2 3 4 5 6 
#
# 1 121.6722 33.7647 54.5790 0.0000 0.0000 0.0000
# 2 33.7647 49.5600 35.1992 0.0000 0.0000 0.0000
# 3 54.5790 35.1992 91.6609 0.0000 0.0000 0.0000
# 4 0.0000 0.0000 0.0000 35.1143 0.0000 0.0000
# 5 0.0000 0.0000 0.0000 0.0000 34.1618 0.0000
# 6 0.0000 0.0000 0.0000 0.0000 0.0000 13.7780
#
#
#
# Elastic Compliance Matrix: (Units=1/GPa)
#
#
# Indices 1 2 3 4 5 6 
#
# 1 0.011817 -0.004198 -0.005424 0.000000 0.000000 0.000000
# 2 -0.004198 0.029236 -0.008727 0.000000 0.000000 0.000000
# 3 -0.005424 -0.008727 0.017491 0.000000 0.000000 0.000000
# 4 0.000000 0.000000 0.000000 0.028478 0.000000 0.000000
# 5 0.000000 0.000000 0.000000 0.000000 0.029272 0.000000
# 6 0.000000 0.000000 0.000000 0.000000 0.000000 0.072580
#
#
# Mechanical properties :
#
#
# Convention : Reuss Voigt Hill
#
# Bulk Modulus (GPa) = 45.77781 56.66433 51.22107
# Shear Modulus (GPa) = 21.47252 25.90082 23.68667
#
# Velocity S-wave (km/s) = 3.41559 3.75130 3.58737
# Velocity P-wave (km/s) = 6.35820 7.03913 6.70731
#
# Compressibility (1/GPa) = 0.02184464
#
# Stress axis : x y z
#
# Youngs Moduli (GPa) = 84.62383 34.20408 57.17241
#
# Poissons Ratio (x) = 0.14360 0.31011
# Poissons Ratio (y) = 0.35528 0.49896
# Poissons Ratio (z) = 0.45901 0.29851
#
# Static dielectric constant tensor:
#      x y z
#    x 3.432950 0.000000 0.000000 
#    y 0.000000 3.431150 0.000000 
#    z 0.000000 0.000000 3.496870 
# 
# 
# High freq. dielectric constant tensor:
#      x y z
#    x 1.703710 0.000000 0.000000 
#    y 0.000000 1.715440 0.000000 
#    z 0.000000 0.000000 1.730260 
# 
# From -- ./inp_files/2634.got.cif
#   From: 2010.03.12/outbox.cif.g09.slc.cpg/sg57_2_cif.got.tgz:2634.got - 2010.04.16 15:48:40.
