data_PCOD8232710
_publ_section_title
;
Structure prediction by ZEFSAII (Michael W. Deem and Ramdas Pophale) SiO2 
 PCOD8232710
Probable space group: P B C M
;
_chemical_formula_sum "Si O2"
_cell_formula_units_Z 64
_cell_length_a 19.968428
_cell_length_b 18.590635
_cell_length_c 9.210166
_cell_angle_alpha 90.000000
_cell_angle_beta 90.000000
_cell_angle_gamma 90.000000
_cell_volume 3419.050841
_symmetry_space_group_name_H-M "P B C M"
_symmetry_group_IT_number 57
_symmetry_cell_setting 'orthorhombic'
loop_
_space_group_symop_operation_xyz
x,y,z
-x,-y,1/2+z
x,1/2-y,-z
-x,1/2+y,1/2-z
-x,-y,-z
x,y,1/2-z
-x,1/2+y,z
x,1/2-y,1/2+z
loop_
_atom_site_type_symbol
_atom_site_label
_atom_site_fract_x
_atom_site_fract_y
_atom_site_fract_z
Si Si1 0.923482 0.428534 0.420075
Si Si2 0.319803 0.917481 0.418239
Si Si3 0.574482 0.819464 0.583626
Si Si4 0.190591 0.676007 0.581247
Si Si5 0.696216 0.582504 0.417975
Si Si6 0.422097 0.677001 0.078431
Si Si7 0.924626 0.928244 0.417943
Si Si8 0.194472 0.325666 0.079389
O O1 0.913729 0.440688 0.250000
O O2 0.876138 0.364257 0.475058
O O3 0.900195 0.502489 0.493774
O O4 0.999461 0.407730 0.462184
O O5 0.340579 0.910367 0.250000
O O6 0.253541 0.873437 0.454971
O O7 0.379955 0.889516 0.517881
O O8 0.305174 0.999363 0.460587
O O9 0.601965 0.750000 0.500000
O O10 0.575973 0.796895 0.750000
O O11 0.622175 0.886704 0.550992
O O12 0.499063 0.839605 0.536955
O O13 0.199364 0.750000 0.500000
O O14 0.185088 0.693350 0.750000
O O15 0.716872 0.593839 0.250000
O O16 0.748864 0.621536 0.520623
O O17 0.410702 0.685288 0.250000
O O18 0.397795 0.750000 0.000000
O O19 0.920341 0.949296 0.250000
O O20 0.877863 0.860486 0.454357
O O21 0.205587 0.313778 0.250000
O O22 0.198808 0.250000 0.000000
#
# Coordination Sequence:
#
# PCOD8232710 Si02
#       8
#     8   8   8   8   8   8   8   8
#     4   9  18  35  57  79 105 138 175 214 259 311
#     4  10  21  36  54  78 107 139 175 217 265 316
#     4   9  19  35  55  79 106 137 174 216 261 312
#     4  10  21  35  52  75 103 136 174 215 258 305
#     4  10  21  38  58  79 106 140 178 220 267 318
#     4  10  20  35  55  79 107 139 175 215 261 313
#     4   9  19  35  55  80 108 137 172 215 260 309
#     4  11  23  37  54  79 110 142 179 222 267 316
#
# _framework density 18.718646
#
# number of rings (size 3 to 8) (size 9 to 14) (size 15 to 20)
#    0.000    2.250    0.000    2.250    0.000    7.500 
#    0.000    0.000    0.000    0.000    0.000    0.000 
#    0.000    0.000    0.000    0.000    0.000    0.000 
#
# Total GULP energy -793827.292454 kJ/mol
# GULP energy per Si atom -12403.551445 kJ/mol
# Density = 1.867604 g / cm^3
# Si number density = 18.718646 Si / 1000 Ang^3
#
#
#
# Elastic Constant Matrix: (Units=GPa)
#
#
# Indices 1 2 3 4 5 6 
#
# 1 101.4376 75.0162 51.2142 0.0000 0.0000 0.0000
# 2 75.0162 160.1852 64.9688 0.0000 0.0000 0.0000
# 3 51.2142 64.9688 70.8022 0.0000 0.0000 0.0000
# 4 0.0000 0.0000 0.0000 34.7539 0.0000 0.0000
# 5 0.0000 0.0000 0.0000 0.0000 23.3599 0.0000
# 6 0.0000 0.0000 0.0000 0.0000 0.0000 34.6372
#
#
#
# Elastic Compliance Matrix: (Units=1/GPa)
#
#
# Indices 1 2 3 4 5 6 
#
# 1 0.017673 -0.004924 -0.008265 0.000000 0.000000 0.000000
# 2 -0.004924 0.011315 -0.006821 0.000000 0.000000 0.000000
# 3 -0.008265 -0.006821 0.026362 0.000000 0.000000 0.000000
# 4 0.000000 0.000000 0.000000 0.028774 0.000000 0.000000
# 5 0.000000 0.000000 0.000000 0.000000 0.042808 0.000000
# 6 0.000000 0.000000 0.000000 0.000000 0.000000 0.028871
#
#
# Mechanical properties :
#
#
# Convention : Reuss Voigt Hill
#
# Bulk Modulus (GPa) = 65.23650 79.42482 72.33066
# Shear Modulus (GPa) = 24.88396 27.96528 26.42462
#
# Velocity S-wave (km/s) = 3.65000 3.86940 3.76130
# Velocity P-wave (km/s) = 7.25880 7.90481 7.58868
#
# Compressibility (1/GPa) = 0.01532884
#
# Stress axis : x y z
#
# Youngs Moduli (GPa) = 56.58460 88.37510 37.93406
#
# Poissons Ratio (x) = 0.43517 0.31352
# Poissons Ratio (y) = 0.27863 0.25876
# Poissons Ratio (z) = 0.46767 0.60283
#
# Static dielectric constant tensor:
#      x y z
#    x 3.673640 0.000000 0.000000 
#    y 0.000000 3.411550 0.000000 
#    z 0.000000 0.000000 3.267850 
# 
# 
# High freq. dielectric constant tensor:
#      x y z
#    x 1.738570 0.000000 0.000000 
#    y 0.000000 1.726140 0.000000 
#    z 0.000000 0.000000 1.724630 
# 
# From -- ./inp_files/8483.got.cif
#   From: 2010.03.12/outbox.cif.g09.slc.cpg/sg57_5_cif.got.tgz:8483.got - 2010.04.16 15:48:40.
