data_PCOD8232720
_publ_section_title
;
Structure prediction by ZEFSAII (Michael W. Deem and Ramdas Pophale) SiO2 
 PCOD8232720
Probable space group: P B C M
;
_chemical_formula_sum "Si O2"
_cell_formula_units_Z 48
_cell_length_a 14.936195
_cell_length_b 19.396787
_cell_length_c 8.778319
_cell_angle_alpha 90.000000
_cell_angle_beta 90.000000
_cell_angle_gamma 90.000000
_cell_volume 2543.203605
_symmetry_space_group_name_H-M "P B C M"
_symmetry_group_IT_number 57
_symmetry_cell_setting 'orthorhombic'
loop_
_space_group_symop_operation_xyz
x,y,z
-x,-y,1/2+z
x,1/2-y,-z
-x,1/2+y,1/2-z
-x,-y,-z
x,y,1/2-z
-x,1/2+y,z
x,1/2-y,1/2+z
loop_
_atom_site_type_symbol
_atom_site_label
_atom_site_fract_x
_atom_site_fract_y
_atom_site_fract_z
Si Si1 0.632592 0.321532 0.070887
Si Si2 0.275730 0.092435 0.068775
Si Si3 0.036795 0.568970 0.571202
Si Si4 0.236710 0.561396 0.569272
Si Si5 0.427070 0.322378 0.070166
Si Si6 0.886930 0.824369 0.069827
O O1 0.644811 0.315312 0.250000
O O2 0.692751 0.383381 0.002644
O O3 0.530008 0.336578 0.026900
O O4 0.666105 0.250000 0.000000
O O5 0.273554 0.097109 0.250000
O O6 0.260420 0.014794 0.008952
O O7 0.371586 0.116222 0.006119
O O8 0.200230 0.141466 0.001293
O O9 0.036635 0.557489 0.750000
O O10 0.137653 0.582680 0.512518
O O11 0.000000 0.500000 0.500000
O O12 0.974784 0.632615 0.523042
O O13 0.242325 0.561531 0.750000
O O14 0.410838 0.320615 0.250000
O O15 0.394598 0.250000 0.000000
O O16 0.874054 0.819638 0.250000
O O17 0.901500 0.750000 0.000000
#
# Coordination Sequence:
#
# PCOD8232720 Si02
#       6
#     8   8   8   8   8   8
#     4   9  19  37  58  80 109 145 183 225 274 326
#     4  11  21  35  57  81 110 147 184 225 276 332
#     4  10  20  37  59  81 109 146 184 224 273 328
#     4   9  19  36  58  82 110 145 180 221 278 331
#     4  10  20  35  55  79 110 145 183 227 273 326
#     4  11  23  37  56  83 114 146 185 230 274 325
#
# _framework density 18.873833999999999
#
# number of rings (size 3 to 8) (size 9 to 14) (size 15 to 20)
#    0.000    2.000    1.667    2.000    0.000    2.667 
#    0.000    2.500    0.000    0.000    0.000    0.000 
#    0.000    0.000    0.000    0.000    0.000    0.000 
#
# Total GULP energy -595318.989537 kJ/mol
# GULP energy per Si atom -12402.478949 kJ/mol
# Density = 1.883088 g / cm^3
# Si number density = 18.873834 Si / 1000 Ang^3
#
#
#
# Elastic Constant Matrix: (Units=GPa)
#
#
# Indices 1 2 3 4 5 6 
#
# 1 134.0346 90.5994 33.6584 0.0000 0.0000 0.0000
# 2 90.5994 168.1729 42.6908 0.0000 0.0000 0.0000
# 3 33.6584 42.6908 51.6397 0.0000 0.0000 0.0000
# 4 0.0000 0.0000 0.0000 28.6858 0.0000 0.0000
# 5 0.0000 0.0000 0.0000 0.0000 15.0150 0.0000
# 6 0.0000 0.0000 0.0000 0.0000 0.0000 43.7433
#
#
#
# Elastic Compliance Matrix: (Units=1/GPa)
#
#
# Indices 1 2 3 4 5 6 
#
# 1 0.012130 -0.005730 -0.003169 0.000000 0.000000 0.000000
# 2 -0.005730 0.010233 -0.004724 0.000000 0.000000 0.000000
# 3 -0.003169 -0.004724 0.025336 0.000000 0.000000 0.000000
# 4 0.000000 0.000000 0.000000 0.034860 0.000000 0.000000
# 5 0.000000 0.000000 0.000000 0.000000 0.066600 0.000000
# 6 0.000000 0.000000 0.000000 0.000000 0.000000 0.022861
#
#
# Mechanical properties :
#
#
# Convention : Reuss Voigt Hill
#
# Bulk Modulus (GPa) = 48.89636 76.41603 62.65619
# Shear Modulus (GPa) = 24.26196 29.94874 27.10535
#
# Velocity S-wave (km/s) = 3.58925 3.98777 3.79375
# Velocity P-wave (km/s) = 6.56812 7.85995 7.24289
#
# Compressibility (1/GPa) = 0.02045142
#
# Stress axis : x y z
#
# Youngs Moduli (GPa) = 82.44138 97.72693 39.46935
#
# Poissons Ratio (x) = 0.56000 0.12507
# Poissons Ratio (y) = 0.47241 0.18647
# Poissons Ratio (z) = 0.26125 0.46170
#
# Static dielectric constant tensor:
#      x y z
#    x 3.732720 0.000000 0.000000 
#    y 0.000000 3.646010 0.000000 
#    z 0.000000 0.000000 3.394180 
# 
# 
# High freq. dielectric constant tensor:
#      x y z
#    x 1.745110 0.000000 0.000000 
#    y 0.000000 1.739220 0.000000 
#    z 0.000000 0.000000 1.722120 
# 
# From -- ./inp_files/4558.got.cif
#   From: 2010.03.12/outbox.cif.g09.slc.cpg/sg57_3_cif.got.tgz:4558.got - 2010.04.16 15:48:40.
