data_PCOD8232043
_publ_section_title
;
Structure prediction by ZEFSAII (Michael W. Deem and Ramdas Pophale) SiO2 
 PCOD8232043
Probable space group: P B C M
;
_chemical_formula_sum "Si O2"
_cell_formula_units_Z 60
_cell_length_a 8.670141
_cell_length_b 14.526800
_cell_length_c 23.121763
_cell_angle_alpha 90.000000
_cell_angle_beta 90.000000
_cell_angle_gamma 90.000000
_cell_volume 2912.172276
_symmetry_space_group_name_H-M "P B C M"
_symmetry_group_IT_number 57
_symmetry_cell_setting 'orthorhombic'
loop_
_space_group_symop_operation_xyz
x,y,z
-x,-y,1/2+z
x,1/2-y,-z
-x,1/2+y,1/2-z
-x,-y,-z
x,y,1/2-z
-x,1/2+y,z
x,1/2-y,1/2+z
loop_
_atom_site_type_symbol
_atom_site_label
_atom_site_fract_x
_atom_site_fract_y
_atom_site_fract_z
Si Si1 0.075248 0.205216 0.389091
Si Si2 0.345580 0.912287 0.815658
Si Si3 0.231477 0.250000 0.000000
Si Si4 0.186533 0.544159 0.622132
Si Si5 0.667518 0.542407 0.010536
Si Si6 0.307276 0.110282 0.315352
Si Si7 0.881231 0.477231 0.908468
Si Si8 0.191014 0.720899 0.683491
O O1 0.119579 0.265321 0.444967
O O2 0.239368 0.186346 0.358370
O O3 0.980558 0.116708 0.412739
O O4 0.977928 0.256696 0.340458
O O5 0.317843 0.945571 0.750000
O O6 0.522122 0.920744 0.834657
O O7 0.241903 0.975588 0.856558
O O8 0.305669 0.805378 0.822817
O O9 0.332094 0.155055 0.007079
O O10 0.285878 0.492448 0.573656
O O11 0.195817 0.478580 0.678813
O O12 0.258709 0.641284 0.641742
O O13 0.007022 0.557109 0.604044
O O14 0.792083 0.497762 0.967396
O O15 0.500000 0.500000 0.000000
O O16 0.307299 0.147760 0.250000
O O17 0.176071 0.689062 0.750000
#
# Coordination Sequence:
#
# PCOD8232043 Si02
#       8
#     8   8   4   8   8   8   8   8
#     4  10  22  37  65  90 127 164 214 259 314 384
#     4   9  20  38  62  92 127 164 208 257 317 379
#     4  12  24  44  64  92 128 172 218 276 328 382
#     4  11  22  39  60  93 122 164 210 261 315 379
#     4  12  26  44  64  91 131 169 219 271 325 394
#     4  10  19  37  62  86 121 165 204 253 313 373
#     4  10  21  39  64  88 125 163 208 261 315 379
#     4  10  21  38  61  96 128 161 208 262 316 382
#
# _framework density 20.603175
#
# number of rings (size 3 to 8) (size 9 to 14) (size 15 to 20)
#    0.000    1.600    2.667    2.800    1.867    4.800 
#    2.400    1.333    0.000    1.600    0.000    0.000 
#    0.000    0.000    0.000    0.000    0.000    0.000 
#
# Total GULP energy -743596.051635 kJ/mol
# GULP energy per Si atom -12393.267527 kJ/mol
# Density = 2.055628 g / cm^3
# Si number density = 20.603175 Si / 1000 Ang^3
#
#
#
# Elastic Constant Matrix: (Units=GPa)
#
#
# Indices 1 2 3 4 5 6 
#
# 1 104.1483 17.1278 42.4664 0.0000 0.0000 0.0000
# 2 17.1278 74.2373 34.2207 0.0000 0.0000 0.0000
# 3 42.4664 34.2207 103.1724 0.0000 0.0000 0.0000
# 4 0.0000 0.0000 0.0000 32.4176 0.0000 0.0000
# 5 0.0000 0.0000 0.0000 0.0000 34.6140 0.0000
# 6 0.0000 0.0000 0.0000 0.0000 0.0000 19.2639
#
#
#
# Elastic Compliance Matrix: (Units=1/GPa)
#
#
# Indices 1 2 3 4 5 6 
#
# 1 0.011558 -0.000559 -0.004572 0.000000 0.000000 0.000000
# 2 -0.000559 0.015929 -0.005053 0.000000 0.000000 0.000000
# 3 -0.004572 -0.005053 0.013250 0.000000 0.000000 0.000000
# 4 0.000000 0.000000 0.000000 0.030847 0.000000 0.000000
# 5 0.000000 0.000000 0.000000 0.000000 0.028890 0.000000
# 6 0.000000 0.000000 0.000000 0.000000 0.000000 0.051911
#
#
# Mechanical properties :
#
#
# Convention : Reuss Voigt Hill
#
# Bulk Modulus (GPa) = 49.09515 52.13198 50.61357
# Shear Modulus (GPa) = 27.84856 29.77531 28.81194
#
# Velocity S-wave (km/s) = 3.68049 3.80568 3.74361
# Velocity P-wave (km/s) = 6.47626 6.68347 6.58068
#
# Compressibility (1/GPa) = 0.02036861
#
# Stress axis : x y z
#
# Youngs Moduli (GPa) = 86.52174 62.78001 75.46977
#
# Poissons Ratio (x) = 0.03510 0.34503
# Poissons Ratio (y) = 0.04838 0.38136
# Poissons Ratio (z) = 0.39556 0.31724
#
# Static dielectric constant tensor:
#      x y z
#    x 3.729770 0.000000 0.000000 
#    y 0.000000 3.721670 0.000000 
#    z 0.000000 0.000000 3.877150 
# 
# 
# High freq. dielectric constant tensor:
#      x y z
#    x 1.804310 0.000000 0.000000 
#    y 0.000000 1.791260 0.000000 
#    z 0.000000 0.000000 1.821460 
# 
# From -- ./inp_files/26858.got.cif
#   From: 2010.03.12/outbox.cif.g09.slc.cpg/sg57_14_cif.got.tgz:26858.got - 2010.04.16 15:48:40.
