data_PCOD8232810
_publ_section_title
;
Structure prediction by ZEFSAII (Michael W. Deem and Ramdas Pophale) SiO2 
 PCOD8232810
Probable space group: P B C M
;
_chemical_formula_sum "Si O2"
_cell_formula_units_Z 64
_cell_length_a 12.530132
_cell_length_b 28.431854
_cell_length_c 9.162319
_cell_angle_alpha 90.000000
_cell_angle_beta 90.000000
_cell_angle_gamma 90.000000
_cell_volume 3264.120889
_symmetry_space_group_name_H-M "P B C M"
_symmetry_group_IT_number 57
_symmetry_cell_setting 'orthorhombic'
loop_
_space_group_symop_operation_xyz
x,y,z
-x,-y,1/2+z
x,1/2-y,-z
-x,1/2+y,1/2-z
-x,-y,-z
x,y,1/2-z
-x,1/2+y,z
x,1/2-y,1/2+z
loop_
_atom_site_type_symbol
_atom_site_label
_atom_site_fract_x
_atom_site_fract_y
_atom_site_fract_z
Si Si1 0.897165 0.980743 0.080368
Si Si2 0.476915 0.546728 0.083825
Si Si3 0.173007 0.377358 0.078455
Si Si4 0.436012 0.799760 0.075534
Si Si5 0.791118 0.341656 0.079166
Si Si6 0.245286 0.932087 0.581013
Si Si7 0.609294 0.636565 0.420060
Si Si8 0.992453 0.703701 0.580816
O O1 0.925412 0.978427 0.250000
O O2 0.863135 0.929088 0.024477
O O3 0.800863 0.016420 0.046711
O O4 0.000000 0.000000 0.000000
O O5 0.459407 0.531958 0.250000
O O6 0.367418 0.569586 0.025898
O O7 0.573562 0.582631 0.063101
O O8 0.500000 0.500000 0.000000
O O9 0.202076 0.378032 0.250000
O O10 0.078599 0.341395 0.041359
O O11 0.273417 0.359311 0.986304
O O12 0.445597 0.795424 0.250000
O O13 0.321583 0.820531 0.027300
O O14 0.449425 0.750000 0.000000
O O15 0.530110 0.831740 0.013960
O O16 0.793279 0.350637 0.250000
O O17 0.885739 0.306488 0.032416
O O18 0.816499 0.391774 0.006206
O O19 0.234574 0.919334 0.750000
O O20 0.608266 0.652121 0.250000
O O21 0.949726 0.750000 0.500000
O O22 0.984907 0.715125 0.750000
#
# Coordination Sequence:
#
# PCOD8232810 Si02
#       8
#     8   8   8   8   8   8   8   8
#     4  10  21  37  59  86 119 160 202 249 301 360
#     4  10  21  36  56  83 115 153 197 243 293 349
#     4  10  22  41  62  84 120 163 202 248 302 363
#     4  11  23  39  62  90 121 159 201 248 305 364
#     4  10  21  38  61  90 120 154 196 243 301 363
#     4  10  20  35  56  84 118 155 195 242 298 351
#     4  11  23  40  61  87 120 157 202 252 300 358
#     4  10  22  40  62  88 116 151 195 246 303 360
#
# _framework density 19.607118
#
# number of rings (size 3 to 8) (size 9 to 14) (size 15 to 20)
#    0.000    1.750    1.250    2.625    0.000    6.500 
#    0.000    1.250    0.000    0.000    0.000    0.000 
#    0.000    0.000    0.000    0.000    0.000    0.000 
#
# Total GULP energy -793792.044372 kJ/mol
# GULP energy per Si atom -12403.000693 kJ/mol
# Density = 1.956249 g / cm^3
# Si number density = 19.607118 Si / 1000 Ang^3
#
#
#
# Elastic Constant Matrix: (Units=GPa)
#
#
# Indices 1 2 3 4 5 6 
#
# 1 118.5115 39.3194 45.2723 0.0000 0.0000 0.0000
# 2 39.3194 119.4409 47.6177 0.0000 0.0000 0.0000
# 3 45.2723 47.6177 63.1938 0.0000 0.0000 0.0000
# 4 0.0000 0.0000 0.0000 39.5591 0.0000 0.0000
# 5 0.0000 0.0000 0.0000 0.0000 31.9507 0.0000
# 6 0.0000 0.0000 0.0000 0.0000 0.0000 27.3490
#
#
#
# Elastic Compliance Matrix: (Units=1/GPa)
#
#
# Indices 1 2 3 4 5 6 
#
# 1 0.011661 -0.000727 -0.007807 0.000000 0.000000 0.000000
# 2 -0.000727 0.012013 -0.008531 0.000000 0.000000 0.000000
# 3 -0.007807 -0.008531 0.027846 0.000000 0.000000 0.000000
# 4 0.000000 0.000000 0.000000 0.025279 0.000000 0.000000
# 5 0.000000 0.000000 0.000000 0.000000 0.031298 0.000000
# 6 0.000000 0.000000 0.000000 0.000000 0.000000 0.036564
#
#
# Mechanical properties :
#
#
# Convention : Reuss Voigt Hill
#
# Bulk Modulus (GPa) = 57.50281 62.84056 60.17168
# Shear Modulus (GPa) = 27.08755 31.03422 29.06089
#
# Velocity S-wave (km/s) = 3.72091 3.98276 3.85406
# Velocity P-wave (km/s) = 6.91747 7.29858 7.11058
#
# Compressibility (1/GPa) = 0.01739045
#
# Stress axis : x y z
#
# Youngs Moduli (GPa) = 85.75396 83.24532 35.91236
#
# Poissons Ratio (x) = 0.06048 0.28036
# Poissons Ratio (y) = 0.06230 0.30638
# Poissons Ratio (z) = 0.66946 0.71019
#
# Static dielectric constant tensor:
#      x y z
#    x 3.917100 0.000000 0.000000 
#    y 0.000000 3.579440 0.000000 
#    z 0.000000 0.000000 3.521220 
# 
# 
# High freq. dielectric constant tensor:
#      x y z
#    x 1.771420 0.000000 0.000000 
#    y 0.000000 1.773250 0.000000 
#    z 0.000000 0.000000 1.758630 
# 
# From -- ./inp_files/3876.got.cif
#   From: 2010.03.12/outbox.cif.g09.slc.cpg/sg57_2_cif.got.tgz:3876.got - 2010.04.16 15:48:40.
