data_PCOD8232925
_publ_section_title
;
Structure prediction by ZEFSAII (Michael W. Deem and Ramdas Pophale) SiO2 
 PCOD8232925
Probable space group: P B C M
;
_chemical_formula_sum "Si O2"
_cell_formula_units_Z 36
_cell_length_a 16.041519
_cell_length_b 5.181555
_cell_length_c 20.738530
_cell_angle_alpha 90.000000
_cell_angle_beta 90.000000
_cell_angle_gamma 90.000000
_cell_volume 1723.786883
_symmetry_space_group_name_H-M "P B C M"
_symmetry_group_IT_number 57
_symmetry_cell_setting 'orthorhombic'
loop_
_space_group_symop_operation_xyz
x,y,z
-x,-y,1/2+z
x,1/2-y,-z
-x,1/2+y,1/2-z
-x,-y,-z
x,y,1/2-z
-x,1/2+y,z
x,1/2-y,1/2+z
loop_
_atom_site_type_symbol
_atom_site_label
_atom_site_fract_x
_atom_site_fract_y
_atom_site_fract_z
Si Si1 0.723936 0.500022 0.324247
Si Si2 0.346748 0.750000 0.500000
Si Si3 0.554702 0.467671 0.387478
Si Si4 0.963324 0.996379 0.428182
Si Si5 0.774194 0.015146 0.398484
O O1 0.744538 0.547870 0.250000
O O2 0.625861 0.441431 0.333199
O O3 0.775821 0.252567 0.348501
O O4 0.749684 0.751440 0.363933
O O5 0.404132 0.559175 0.541932
O O6 0.291317 0.934239 0.544658
O O7 0.513355 0.745350 0.378187
O O8 0.864074 0.986472 0.430790
O O9 0.998584 0.248283 0.391223
O O10 0.000000 0.000000 0.500000
#
# Coordination Sequence:
#
# PCOD8232925 Si02
#       5
#     8   4   8   8   8
#     4  11  25  44  64  86 118 168 219 257 299 356
#     4  10  22  38  60  94 130 162 198 250 324 388
#     4  11  23  38  59  88 122 159 200 256 314 367
#     4  10  20  35  59  93 127 154 187 236 299 362
#     4  11  23  40  65  94 125 162 205 253 307 373
#
# _framework density 20.884253000000001
#
# number of rings (size 3 to 8) (size 9 to 14) (size 15 to 20)
#    0.000    1.333    0.000    6.667    0.000   13.333 
#    0.000    0.000    0.000   13.333    0.000    0.000 
#    0.000    0.000    0.000    0.000    0.000    0.000 
#
# Total GULP energy -446423.208535 kJ/mol
# GULP energy per Si atom -12400.644682 kJ/mol
# Density = 2.083672 g / cm^3
# Si number density = 20.884253 Si / 1000 Ang^3
#
#
#
# Elastic Constant Matrix: (Units=GPa)
#
#
# Indices 1 2 3 4 5 6 
#
# 1 123.8038 36.8191 30.8855 0.0000 0.0000 0.0000
# 2 36.8191 128.6265 14.8791 0.0000 0.0000 0.0000
# 3 30.8855 14.8791 75.0837 0.0000 0.0000 0.0000
# 4 0.0000 0.0000 0.0000 16.2880 0.0000 0.0000
# 5 0.0000 0.0000 0.0000 0.0000 15.3865 0.0000
# 6 0.0000 0.0000 0.0000 0.0000 0.0000 25.1879
#
#
#
# Elastic Compliance Matrix: (Units=1/GPa)
#
#
# Indices 1 2 3 4 5 6 
#
# 1 0.009652 -0.002358 -0.003503 0.000000 0.000000 0.000000
# 2 -0.002358 0.008533 -0.000721 0.000000 0.000000 0.000000
# 3 -0.003503 -0.000721 0.014902 0.000000 0.000000 0.000000
# 4 0.000000 0.000000 0.000000 0.061395 0.000000 0.000000
# 5 0.000000 0.000000 0.000000 0.000000 0.064992 0.000000
# 6 0.000000 0.000000 0.000000 0.000000 0.000000 0.039702
#
#
# Mechanical properties :
#
#
# Convention : Reuss Voigt Hill
#
# Bulk Modulus (GPa) = 50.19209 54.74239 52.46724
# Shear Modulus (GPa) = 22.83298 27.70116 25.26707
#
# Velocity S-wave (km/s) = 3.31011 3.64595 3.48208
# Velocity P-wave (km/s) = 6.22051 6.63273 6.42992
#
# Compressibility (1/GPa) = 0.01992346
#
# Stress axis : x y z
#
# Youngs Moduli (GPa) = 103.60052 117.19535 67.10318
#
# Poissons Ratio (x) = 0.27632 0.23508
# Poissons Ratio (y) = 0.24426 0.04838
# Poissons Ratio (z) = 0.36294 0.08450
#
# Static dielectric constant tensor:
#      x y z
#    x 3.899030 0.000000 0.000000 
#    y 0.000000 2.127250 0.000000 
#    z 0.000000 0.000000 3.639260 
# 
# 
# High freq. dielectric constant tensor:
#      x y z
#    x 1.828190 0.000000 0.000000 
#    y 0.000000 1.847170 0.000000 
#    z 0.000000 0.000000 1.781250 
# 
# From -- ./inp_files/25215.got.cif
#   From: 2010.03.12/outbox.cif.g09.slc.cpg/sg57_13_cif.got.tgz:25215.got - 2010.04.16 15:48:40.
