data_PCOD8232864
_publ_section_title
;
Structure prediction by ZEFSAII (Michael W. Deem and Ramdas Pophale) SiO2 
 PCOD8232864
Probable space group: P B C M
;
_chemical_formula_sum "Si O2"
_cell_formula_units_Z 64
_cell_length_a 12.042983
_cell_length_b 18.723837
_cell_length_c 15.009927
_cell_angle_alpha 90.000000
_cell_angle_beta 90.000000
_cell_angle_gamma 90.000000
_cell_volume 3384.601208
_symmetry_space_group_name_H-M "P B C M"
_symmetry_group_IT_number 57
_symmetry_cell_setting 'orthorhombic'
loop_
_space_group_symop_operation_xyz
x,y,z
-x,-y,1/2+z
x,1/2-y,-z
-x,1/2+y,1/2-z
-x,-y,-z
x,y,1/2-z
-x,1/2+y,z
x,1/2-y,1/2+z
loop_
_atom_site_type_symbol
_atom_site_label
_atom_site_fract_x
_atom_site_fract_y
_atom_site_fract_z
Si Si1 0.832719 0.031375 0.941350
Si Si2 0.384845 0.402090 0.350270
Si Si3 0.972479 0.594601 0.468931
Si Si4 0.389684 0.531555 0.460120
Si Si5 0.570929 0.326067 0.033226
Si Si6 0.862779 0.862936 0.350029
Si Si7 0.212490 0.827805 0.148283
Si Si8 0.994693 0.230134 0.150197
O O1 0.828308 0.090340 0.863183
O O2 0.893589 0.958104 0.910647
O O3 0.709227 0.012658 0.972164
O O4 0.903088 0.063165 0.025013
O O5 0.425060 0.393431 0.250000
O O6 0.371104 0.487675 0.368883
O O7 0.476829 0.363314 0.408859
O O8 0.268102 0.364128 0.368708
O O9 0.926192 0.596258 0.570710
O O10 0.979007 0.670115 0.421605
O O11 0.500000 0.500000 0.500000
O O12 0.399745 0.618288 0.452051
O O13 0.681704 0.310157 0.088573
O O14 0.525433 0.250000 0.000000
O O15 0.889006 0.895026 0.250000
O O16 0.898209 0.780531 0.350601
O O17 0.245668 0.815810 0.250000
O O18 0.113360 0.774871 0.119651
O O19 0.976616 0.198610 0.250000
#
# Coordination Sequence:
#
# PCOD8232864 Si02
#       8
#     8   8   8   8   8   8   8   8
#     4  10  21  34  56  86 109 147 200 229 291 347
#     4  10  20  39  61  83 113 152 194 240 292 348
#     4  11  21  35  57  83 117 154 191 246 288 350
#     4   9  19  38  57  82 112 145 189 235 283 348
#     4  10  22  36  61  88 115 149 194 243 290 356
#     4  10  20  35  58  84 114 153 196 239 290 350
#     4  10  21  37  57  82 117 154 193 241 294 352
#     4  10  22  37  55  84 116 155 196 238 294 347
#
# _framework density 18.909171000000001
#
# number of rings (size 3 to 8) (size 9 to 14) (size 15 to 20)
#    0.000    2.000    2.500    0.750    3.500    1.500 
#    0.000    3.750    0.000    0.000    0.000    0.000 
#    0.000    0.000    0.000    0.000    0.000    0.000 
#
# Total GULP energy -793099.175196 kJ/mol
# GULP energy per Si atom -12392.174612 kJ/mol
# Density = 1.886613 g / cm^3
# Si number density = 18.909171 Si / 1000 Ang^3
#
#
#
# Elastic Constant Matrix: (Units=GPa)
#
#
# Indices 1 2 3 4 5 6 
#
# 1 110.9393 46.4631 34.6385 0.0000 0.0000 0.0000
# 2 46.4631 129.6387 49.3892 0.0000 0.0000 0.0000
# 3 34.6385 49.3892 75.6713 0.0000 0.0000 0.0000
# 4 0.0000 0.0000 0.0000 20.0545 0.0000 0.0000
# 5 0.0000 0.0000 0.0000 0.0000 21.9547 0.0000
# 6 0.0000 0.0000 0.0000 0.0000 0.0000 25.0217
#
#
#
# Elastic Compliance Matrix: (Units=1/GPa)
#
#
# Indices 1 2 3 4 5 6 
#
# 1 0.011206 -0.002744 -0.003338 0.000000 0.000000 0.000000
# 2 -0.002744 0.010939 -0.005883 0.000000 0.000000 0.000000
# 3 -0.003338 -0.005883 0.018583 0.000000 0.000000 0.000000
# 4 0.000000 0.000000 0.000000 0.049864 0.000000 0.000000
# 5 0.000000 0.000000 0.000000 0.000000 0.045548 0.000000
# 6 0.000000 0.000000 0.000000 0.000000 0.000000 0.039965
#
#
# Mechanical properties :
#
#
# Convention : Reuss Voigt Hill
#
# Bulk Modulus (GPa) = 59.53899 64.13678 61.83788
# Shear Modulus (GPa) = 24.31491 25.79008 25.05249
#
# Velocity S-wave (km/s) = 3.58981 3.69710 3.64385
# Velocity P-wave (km/s) = 6.98122 7.22611 7.10472
#
# Compressibility (1/GPa) = 0.01679572
#
# Stress axis : x y z
#
# Youngs Moduli (GPa) = 89.24113 91.41824 53.81266
#
# Poissons Ratio (x) = 0.25089 0.17963
# Poissons Ratio (y) = 0.24491 0.31659
# Poissons Ratio (z) = 0.29790 0.53784
#
# Static dielectric constant tensor:
#      x y z
#    x 3.600600 0.000000 0.000000 
#    y 0.000000 3.624490 0.000000 
#    z 0.000000 0.000000 3.469290 
# 
# 
# High freq. dielectric constant tensor:
#      x y z
#    x 1.750960 0.000000 0.000000 
#    y 0.000000 1.733210 0.000000 
#    z 0.000000 0.000000 1.710980 
# 
# From -- ./inp_files/17993.got.cif
#   From: 2010.03.12/outbox.cif.g09.slc.cpg/sg57_9_cif.got.tgz:17993.got - 2010.04.16 15:48:40.
