data_PCOD8232920
_publ_section_title
;
Structure prediction by ZEFSAII (Michael W. Deem and Ramdas Pophale) SiO2 
 PCOD8232920
Probable space group: P B C M
;
_chemical_formula_sum "Si O2"
_cell_formula_units_Z 64
_cell_length_a 23.909932
_cell_length_b 15.134555
_cell_length_c 8.825415
_cell_angle_alpha 90.000000
_cell_angle_beta 90.000000
_cell_angle_gamma 90.000000
_cell_volume 3193.619221
_symmetry_space_group_name_H-M "P B C M"
_symmetry_group_IT_number 57
_symmetry_cell_setting 'orthorhombic'
loop_
_space_group_symop_operation_xyz
x,y,z
-x,-y,1/2+z
x,1/2-y,-z
-x,1/2+y,1/2-z
-x,-y,-z
x,y,1/2-z
-x,1/2+y,z
x,1/2-y,1/2+z
loop_
_atom_site_type_symbol
_atom_site_label
_atom_site_fract_x
_atom_site_fract_y
_atom_site_fract_z
Si Si1 0.495121 0.342132 0.570109
Si Si2 0.998511 0.349285 0.070671
Si Si3 0.608305 0.912723 0.078770
Si Si4 0.380755 0.884962 0.920548
Si Si5 0.079439 0.488114 0.571195
Si Si6 0.270526 0.836731 0.427793
Si Si7 0.284962 0.160701 0.429542
Si Si8 0.206132 0.005126 0.069985
O O1 0.475482 0.250000 0.500000
O O2 0.491159 0.342661 0.750000
O O3 0.452019 0.413268 0.502661
O O4 0.557724 0.363798 0.515046
O O5 0.003862 0.336219 0.250000
O O6 0.947153 0.415881 0.029045
O O7 0.991757 0.250000 0.000000
O O8 0.052332 0.402502 0.009272
O O9 0.602561 0.876764 0.250000
O O10 0.630760 0.011530 0.077685
O O11 0.652221 0.853593 0.988054
O O12 0.373907 0.847590 0.750000
O O13 0.335910 0.840003 0.029430
O O14 0.074808 0.471984 0.750000
O O15 0.142842 0.490052 0.511013
O O16 0.242933 0.750000 0.500000
O O17 0.264733 0.832455 0.250000
O O18 0.235897 0.918184 0.496397
O O19 0.260965 0.250000 0.500000
O O20 0.286578 0.165290 0.250000
O O21 0.242057 0.087219 0.489914
O O22 0.206899 0.002308 0.250000
#
# Coordination Sequence:
#
# PCOD8232920 Si02
#       8
#     8   8   8   8   8   8   8   8
#     4  11  23  38  55  79 109 142 183 232 288 350
#     4  10  20  35  59  90 124 162 200 242 293 345
#     4  11  22  38  59  83 110 142 185 236 291 351
#     4  10  22  39  59  83 110 143 187 237 290 349
#     4   9  19  38  61  86 120 159 202 249 291 341
#     4  11  22  38  60  86 116 153 194 238 291 349
#     4  11  22  39  60  84 113 151 194 238 292 349
#     4   9  20  39  61  85 117 156 197 242 292 341
#
# _framework density 20.039959
#
# number of rings (size 3 to 8) (size 9 to 14) (size 15 to 20)
#    0.000    1.750    1.250    3.000    0.000    4.000 
#    0.000    3.750    0.000    0.000    0.000    0.000 
#    0.000    0.000    0.000    0.000    0.000    0.000 
#
# Total GULP energy -793576.770069 kJ/mol
# GULP energy per Si atom -12399.637032 kJ/mol
# Density = 1.999435 g / cm^3
# Si number density = 20.039959 Si / 1000 Ang^3
#
#
#
# Elastic Constant Matrix: (Units=GPa)
#
#
# Indices 1 2 3 4 5 6 
#
# 1 136.5783 54.8670 36.8366 0.0000 0.0000 0.0000
# 2 54.8670 143.4090 44.6489 0.0000 0.0000 0.0000
# 3 36.8366 44.6489 81.1798 0.0000 0.0000 0.0000
# 4 0.0000 0.0000 0.0000 32.1671 0.0000 0.0000
# 5 0.0000 0.0000 0.0000 0.0000 24.6895 0.0000
# 6 0.0000 0.0000 0.0000 0.0000 0.0000 14.4878
#
#
#
# Elastic Compliance Matrix: (Units=1/GPa)
#
#
# Indices 1 2 3 4 5 6 
#
# 1 0.009109 -0.002652 -0.002674 0.000000 0.000000 0.000000
# 2 -0.002652 0.009186 -0.003849 0.000000 0.000000 0.000000
# 3 -0.002674 -0.003849 0.015649 0.000000 0.000000 0.000000
# 4 0.000000 0.000000 0.000000 0.031088 0.000000 0.000000
# 5 0.000000 0.000000 0.000000 0.000000 0.040503 0.000000
# 6 0.000000 0.000000 0.000000 0.000000 0.000000 0.069023
#
#
# Mechanical properties :
#
#
# Convention : Reuss Voigt Hill
#
# Bulk Modulus (GPa) = 64.13377 70.43024 67.28200
# Shear Modulus (GPa) = 25.23898 29.25651 27.24775
#
# Velocity S-wave (km/s) = 3.55270 3.82502 3.69137
# Velocity P-wave (km/s) = 6.99295 7.39790 7.19827
#
# Compressibility (1/GPa) = 0.01559241
#
# Stress axis : x y z
#
# Youngs Moduli (GPa) = 109.78645 108.86041 63.90276
#
# Poissons Ratio (x) = 0.28872 0.17090
# Poissons Ratio (y) = 0.29118 0.24595
# Poissons Ratio (z) = 0.29362 0.41899
#
# Static dielectric constant tensor:
#      x y z
#    x 3.680520 0.000000 0.000000 
#    y 0.000000 3.837740 0.000000 
#    z 0.000000 0.000000 3.518420 
# 
# 
# High freq. dielectric constant tensor:
#      x y z
#    x 1.777520 0.000000 0.000000 
#    y 0.000000 1.795280 0.000000 
#    z 0.000000 0.000000 1.773830 
# 
# From -- ./inp_files/9387.got.cif
#   From: 2010.03.12/outbox.cif.g09.slc.cpg/sg57_5_cif.got.tgz:9387.got - 2010.04.16 15:48:40.
