data_PCOD8232430
_publ_section_title
;
Structure prediction by ZEFSAII (Michael W. Deem and Ramdas Pophale) SiO2 
 PCOD8232430
Probable space group: P B C M
;
_chemical_formula_sum "Si O2"
_cell_formula_units_Z 64
_cell_length_a 18.098103
_cell_length_b 20.563416
_cell_length_c 8.998206
_cell_angle_alpha 90.000000
_cell_angle_beta 90.000000
_cell_angle_gamma 90.000000
_cell_volume 3348.761734
_symmetry_space_group_name_H-M "P B C M"
_symmetry_group_IT_number 57
_symmetry_cell_setting 'orthorhombic'
loop_
_space_group_symop_operation_xyz
x,y,z
-x,-y,1/2+z
x,1/2-y,-z
-x,1/2+y,1/2-z
-x,-y,-z
x,y,1/2-z
-x,1/2+y,z
x,1/2-y,1/2+z
loop_
_atom_site_type_symbol
_atom_site_label
_atom_site_fract_x
_atom_site_fract_y
_atom_site_fract_z
Si Si1 0.793190 0.436999 0.573581
Si Si2 0.710507 0.935937 0.419501
Si Si3 0.300419 0.816337 0.576160
Si Si4 0.053231 0.184461 0.424158
Si Si5 0.777784 0.815970 0.924436
Si Si6 0.528883 0.317320 0.575039
Si Si7 0.538387 0.940160 0.079438
Si Si8 0.961427 0.060831 0.426133
O O1 0.787736 0.435590 0.750000
O O2 0.756074 0.503155 0.514524
O O3 0.748826 0.374930 0.509993
O O4 0.877317 0.434264 0.517886
O O5 0.734223 0.920901 0.250000
O O6 0.726826 0.874023 0.520145
O O7 0.625043 0.953583 0.429024
O O8 0.274153 0.750000 0.500000
O O9 0.287570 0.807609 0.750000
O O10 0.385555 0.831997 0.539996
O O11 0.023902 0.250000 0.500000
O O12 0.045398 0.194372 0.250000
O O13 0.137581 0.169795 0.470469
O O14 0.003279 0.125286 0.481176
O O15 0.768394 0.808117 0.750000
O O16 0.749422 0.750000 0.000000
O O17 0.504071 0.250000 0.500000
O O18 0.513517 0.313337 0.750000
O O19 0.480041 0.373803 0.504640
O O20 0.511648 0.935657 0.250000
O O21 0.500000 0.000000 0.000000
O O22 0.966141 0.052791 0.250000
O O23 0.000000 0.000000 0.500000
#
# Coordination Sequence:
#
# PCOD8232430 Si02
#       8
#     8   8   8   8   8   8   8   8
#     4   9  18  34  55  76 103 140 175 210 260 315
#     4  10  21  37  56  78 104 137 177 218 262 314
#     4   9  18  34  55  79 107 139 175 214 257 308
#     4   9  19  34  52  77 107 138 174 214 257 307
#     4  10  20  35  55  78 106 139 174 215 261 310
#     4  10  20  36  58  82 110 143 179 220 266 319
#     4  11  23  38  57  81 109 141 179 223 269 320
#     4  10  20  34  53  77 105 137 174 216 260 309
#
# _framework density 19.111542
#
# number of rings (size 3 to 8) (size 9 to 14) (size 15 to 20)
#    0.000    2.250    0.000    2.625    0.000    5.500 
#    0.000    1.250    0.000    0.000    0.000    0.000 
#    0.000    0.000    0.000    0.000    0.000    0.000 
#
# Total GULP energy -793850.737777 kJ/mol
# GULP energy per Si atom -12403.917778 kJ/mol
# Density = 1.906804 g / cm^3
# Si number density = 19.111542 Si / 1000 Ang^3
#
#
#
# Elastic Constant Matrix: (Units=GPa)
#
#
# Indices 1 2 3 4 5 6 
#
# 1 72.0540 47.8009 29.7513 0.0000 0.0000 0.0000
# 2 47.8009 147.8470 47.7515 0.0000 0.0000 0.0000
# 3 29.7513 47.7515 65.5497 0.0000 0.0000 0.0000
# 4 0.0000 0.0000 0.0000 37.9362 0.0000 0.0000
# 5 0.0000 0.0000 0.0000 0.0000 21.6172 0.0000
# 6 0.0000 0.0000 0.0000 0.0000 0.0000 41.7903
#
#
#
# Elastic Compliance Matrix: (Units=1/GPa)
#
#
# Indices 1 2 3 4 5 6 
#
# 1 0.019043 -0.004401 -0.005437 0.000000 0.000000 0.000000
# 2 -0.004401 0.009862 -0.005187 0.000000 0.000000 0.000000
# 3 -0.005437 -0.005187 0.021502 0.000000 0.000000 0.000000
# 4 0.000000 0.000000 0.000000 0.026360 0.000000 0.000000
# 5 0.000000 0.000000 0.000000 0.000000 0.046259 0.000000
# 6 0.000000 0.000000 0.000000 0.000000 0.000000 0.023929
#
#
# Mechanical properties :
#
#
# Convention : Reuss Voigt Hill
#
# Bulk Modulus (GPa) = 49.12274 59.56202 54.34238
# Shear Modulus (GPa) = 27.20493 30.94521 29.07507
#
# Velocity S-wave (km/s) = 3.77700 4.02828 3.90466
# Velocity P-wave (km/s) = 6.69178 7.27112 6.98746
#
# Compressibility (1/GPa) = 0.02035717
#
# Stress axis : x y z
#
# Youngs Moduli (GPa) = 52.51274 101.40177 46.50769
#
# Poissons Ratio (x) = 0.44624 0.25288
# Poissons Ratio (y) = 0.23109 0.24122
# Poissons Ratio (z) = 0.28553 0.52594
#
# Static dielectric constant tensor:
#      x y z
#    x 3.571590 0.000000 0.000000 
#    y 0.000000 3.414170 0.000000 
#    z 0.000000 0.000000 3.382510 
# 
# 
# High freq. dielectric constant tensor:
#      x y z
#    x 1.743040 0.000000 0.000000 
#    y 0.000000 1.758040 0.000000 
#    z 0.000000 0.000000 1.730290 
# 
# From -- ./inp_files/7199.got.cif
#   From: 2010.03.12/outbox.cif.g09.slc.cpg/sg57_4_cif.got.tgz:7199.got - 2010.04.16 15:48:40.
