data_PCOD8232719
_publ_section_title
;
Structure prediction by ZEFSAII (Michael W. Deem and Ramdas Pophale) SiO2 
 PCOD8232719
Probable space group: P B C M
;
_chemical_formula_sum "Si O2"
_cell_formula_units_Z 48
_cell_length_a 30.472812
_cell_length_b 9.016789
_cell_length_c 8.964435
_cell_angle_alpha 90.000000
_cell_angle_beta 90.000000
_cell_angle_gamma 90.000000
_cell_volume 2463.130159
_symmetry_space_group_name_H-M "P B C M"
_symmetry_group_IT_number 57
_symmetry_cell_setting 'orthorhombic'
loop_
_space_group_symop_operation_xyz
x,y,z
-x,-y,1/2+z
x,1/2-y,-z
-x,1/2+y,1/2-z
-x,-y,-z
x,y,1/2-z
-x,1/2+y,z
x,1/2-y,1/2+z
loop_
_atom_site_type_symbol
_atom_site_label
_atom_site_fract_x
_atom_site_fract_y
_atom_site_fract_z
Si Si1 0.714912 0.095328 0.076674
Si Si2 0.365318 0.092924 0.922660
Si Si3 0.124697 0.904564 0.077502
Si Si4 0.962445 0.593193 0.421976
Si Si5 0.463077 0.405849 0.422753
Si Si6 0.199785 0.409383 0.424928
O O1 0.711220 0.130303 0.250000
O O2 0.669278 0.026923 0.014062
O O3 0.752334 0.975251 0.042742
O O4 0.726024 0.250000 0.000000
O O5 0.355699 0.122427 0.750000
O O6 0.414310 0.026421 0.946616
O O7 0.358800 0.250000 0.000000
O O8 0.136727 0.877395 0.250000
O O9 0.083229 0.010027 0.060316
O O10 0.113106 0.750000 0.000000
O O11 0.165465 0.977830 0.995230
O O12 0.957508 0.750000 0.500000
O O13 0.975233 0.616868 0.250000
O O14 0.000000 0.500000 0.500000
O O15 0.463955 0.250000 0.500000
O O16 0.500000 0.500000 0.500000
O O17 0.474682 0.388798 0.250000
O O18 0.195641 0.250000 0.500000
O O19 0.190193 0.392598 0.250000
#
# Coordination Sequence:
#
# PCOD8232719 Si02
#       6
#     8   8   8   8   8   8
#     4  10  22  38  56  82 113 145 184 229 278 332
#     4   9  19  36  56  79 107 141 182 226 274 330
#     4  11  24  41  62  89 121 156 194 238 287 339
#     4  11  24  41  63  90 121 157 197 242 290 342
#     4  10  20  35  55  79 109 144 183 228 278 332
#     4  11  23  39  61  87 116 151 191 235 283 337
#
# _framework density 19.487397999999999
#
# number of rings (size 3 to 8) (size 9 to 14) (size 15 to 20)
#    0.000    1.667    0.000    4.000    0.000   10.000 
#    0.000    1.667    0.000    0.000    0.000    0.000 
#    0.000    0.000    0.000    0.000    0.000    0.000 
#
# Total GULP energy -595324.895301 kJ/mol
# GULP energy per Si atom -12402.601985 kJ/mol
# Density = 1.944304 g / cm^3
# Si number density = 19.487398 Si / 1000 Ang^3
#
#
#
# Elastic Constant Matrix: (Units=GPa)
#
#
# Indices 1 2 3 4 5 6 
#
# 1 106.2524 36.8783 65.3672 0.0000 0.0000 0.0000
# 2 36.8783 111.6481 63.5846 0.0000 0.0000 0.0000
# 3 65.3672 63.5846 129.3813 0.0000 0.0000 0.0000
# 4 0.0000 0.0000 0.0000 40.3124 0.0000 0.0000
# 5 0.0000 0.0000 0.0000 0.0000 30.9125 0.0000
# 6 0.0000 0.0000 0.0000 0.0000 0.0000 39.7711
#
#
#
# Elastic Compliance Matrix: (Units=1/GPa)
#
#
# Indices 1 2 3 4 5 6 
#
# 1 0.013709 -0.000811 -0.006528 0.000000 0.000000 0.000000
# 2 -0.000811 0.012486 -0.005727 0.000000 0.000000 0.000000
# 3 -0.006528 -0.005727 0.013841 0.000000 0.000000 0.000000
# 4 0.000000 0.000000 0.000000 0.024806 0.000000 0.000000
# 5 0.000000 0.000000 0.000000 0.000000 0.032349 0.000000
# 6 0.000000 0.000000 0.000000 0.000000 0.000000 0.025144
#
#
# Mechanical properties :
#
#
# Convention : Reuss Voigt Hill
#
# Bulk Modulus (GPa) = 71.91033 75.43802 73.67418
# Shear Modulus (GPa) = 32.65820 34.29597 33.47709
#
# Velocity S-wave (km/s) = 4.09817 4.19967 4.14923
# Velocity P-wave (km/s) = 7.70548 7.89377 7.80019
#
# Compressibility (1/GPa) = 0.01390621
#
# Stress axis : x y z
#
# Youngs Moduli (GPa) = 72.94588 80.09086 72.24663
#
# Poissons Ratio (x) = 0.06492 0.47161
# Poissons Ratio (y) = 0.05912 0.41373
# Poissons Ratio (z) = 0.47617 0.45865
#
# Static dielectric constant tensor:
#      x y z
#    x 3.277590 0.000000 0.000000 
#    y 0.000000 3.493520 0.000000 
#    z 0.000000 0.000000 3.753390 
# 
# 
# High freq. dielectric constant tensor:
#      x y z
#    x 1.777560 0.000000 0.000000 
#    y 0.000000 1.763270 0.000000 
#    z 0.000000 0.000000 1.769870 
# 
# From -- ./inp_files/9927.got.cif
#   From: 2010.03.12/outbox.cif.g09.slc.cpg/sg57_5_cif.got.tgz:9927.got - 2010.04.16 15:48:40.
