data_PCOD8232974
_publ_section_title
;
Structure prediction by ZEFSAII (Michael W. Deem and Ramdas Pophale) SiO2 
 PCOD8232974
Probable space group: P B C M
;
_chemical_formula_sum "Si O2"
_cell_formula_units_Z 64
_cell_length_a 16.739043
_cell_length_b 21.778257
_cell_length_c 8.718244
_cell_angle_alpha 90.000000
_cell_angle_beta 90.000000
_cell_angle_gamma 90.000000
_cell_volume 3178.211268
_symmetry_space_group_name_H-M "P B C M"
_symmetry_group_IT_number 57
_symmetry_cell_setting 'orthorhombic'
loop_
_space_group_symop_operation_xyz
x,y,z
-x,-y,1/2+z
x,1/2-y,-z
-x,1/2+y,1/2-z
-x,-y,-z
x,y,1/2-z
-x,1/2+y,z
x,1/2-y,1/2+z
loop_
_atom_site_type_symbol
_atom_site_label
_atom_site_fract_x
_atom_site_fract_y
_atom_site_fract_z
Si Si1 0.065636 0.816439 0.432586
Si Si2 0.693072 0.689940 0.930230
Si Si3 0.381717 0.619786 0.926101
Si Si4 0.212388 0.429772 0.429116
Si Si5 0.454883 0.365859 0.569052
Si Si6 0.358171 0.481535 0.924771
Si Si7 0.237550 0.685776 0.431520
Si Si8 0.966367 0.562985 0.567638
O O1 0.036812 0.750000 0.500000
O O2 0.066265 0.810130 0.250000
O O3 0.153826 0.832845 0.492210
O O4 0.010764 0.874086 0.486183
O O5 0.678531 0.694016 0.750000
O O6 0.752315 0.635768 0.975684
O O7 0.735230 0.750000 0.000000
O O8 0.608462 0.684923 0.017254
O O9 0.366812 0.638738 0.750000
O O10 0.397245 0.547566 0.945519
O O11 0.461710 0.651471 0.988580
O O12 0.304810 0.636500 0.026680
O O13 0.207849 0.439597 0.250000
O O14 0.271678 0.481572 0.493762
O O15 0.123708 0.433921 0.497384
O O16 0.468812 0.365326 0.750000
O O17 0.420159 0.431394 0.507913
O O18 0.341250 0.464392 0.750000
O O19 0.267797 0.750000 0.500000
O O20 0.226116 0.690213 0.250000
O O21 0.970477 0.558964 0.750000
O O22 0.000000 0.500000 0.500000
#
# Coordination Sequence:
#
# PCOD8232974 Si02
#       8
#     8   8   8   8   8   8   8   8
#     4  10  21  40  63  87 119 157 199 246 298 358
#     4  10  20  36  58  82 112 150 189 234 286 338
#     4  11  22  36  56  83 114 148 187 233 286 338
#     4   9  20  38  57  82 115 149 188 234 283 339
#     4  10  20  36  55  81 113 147 191 235 280 336
#     4   9  20  36  56  81 113 149 187 231 280 337
#     4  11  23  40  60  83 111 146 190 237 286 343
#     4  10  23  40  60  90 125 158 197 248 300 354
#
# _framework density 20.137114
#
# number of rings (size 3 to 8) (size 9 to 14) (size 15 to 20)
#    0.000    2.000    0.000    3.750    1.750    4.500 
#    0.000    2.500    0.000    0.000    0.000    0.000 
#    0.000    0.000    0.000    0.000    0.000    0.000 
#
# Total GULP energy -793537.088416 kJ/mol
# GULP energy per Si atom -12399.017006 kJ/mol
# Density = 2.009128 g / cm^3
# Si number density = 20.137114 Si / 1000 Ang^3
#
#
#
# Elastic Constant Matrix: (Units=GPa)
#
#
# Indices 1 2 3 4 5 6 
#
# 1 124.8935 35.5953 33.2934 0.0000 0.0000 0.0000
# 2 35.5953 82.0983 31.6996 0.0000 0.0000 0.0000
# 3 33.2934 31.6996 63.0561 0.0000 0.0000 0.0000
# 4 0.0000 0.0000 0.0000 33.7805 0.0000 0.0000
# 5 0.0000 0.0000 0.0000 0.0000 27.8707 0.0000
# 6 0.0000 0.0000 0.0000 0.0000 0.0000 21.7901
#
#
#
# Elastic Compliance Matrix: (Units=1/GPa)
#
#
# Indices 1 2 3 4 5 6 
#
# 1 0.009810 -0.002796 -0.003774 0.000000 0.000000 0.000000
# 2 -0.002796 0.015911 -0.006523 0.000000 0.000000 0.000000
# 3 -0.003774 -0.006523 0.021131 0.000000 0.000000 0.000000
# 4 0.000000 0.000000 0.000000 0.029603 0.000000 0.000000
# 5 0.000000 0.000000 0.000000 0.000000 0.035880 0.000000
# 6 0.000000 0.000000 0.000000 0.000000 0.000000 0.045892
#
#
# Mechanical properties :
#
#
# Convention : Reuss Voigt Hill
#
# Bulk Modulus (GPa) = 48.38756 52.35829 50.37293
# Shear Modulus (GPa) = 26.13684 27.98556 27.06120
#
# Velocity S-wave (km/s) = 3.60661 3.73198 3.66983
# Velocity P-wave (km/s) = 6.43620 6.68039 6.55943
#
# Compressibility (1/GPa) = 0.02066647
#
# Stress axis : x y z
#
# Youngs Moduli (GPa) = 101.93967 62.84841 47.32481
#
# Poissons Ratio (x) = 0.17573 0.17860
# Poissons Ratio (y) = 0.28503 0.30868
# Poissons Ratio (z) = 0.38471 0.40994
#
# Static dielectric constant tensor:
#      x y z
#    x 3.747800 0.000000 0.000000 
#    y 0.000000 3.746250 0.000000 
#    z 0.000000 0.000000 3.614070 
# 
# 
# High freq. dielectric constant tensor:
#      x y z
#    x 1.787210 0.000000 0.000000 
#    y 0.000000 1.788090 0.000000 
#    z 0.000000 0.000000 1.786970 
# 
# From -- ./inp_files/5713.got.cif
#   From: 2010.03.12/outbox.cif.g09.slc.cpg/sg57_3_cif.got.tgz:5713.got - 2010.04.16 15:48:40.
