data_PCOD8232470
_publ_section_title
;
Structure prediction by ZEFSAII (Michael W. Deem and Ramdas Pophale) SiO2 
 PCOD8232470
Probable space group: P B C M
;
_chemical_formula_sum "Si O2"
_cell_formula_units_Z 56
_cell_length_a 21.929083
_cell_length_b 14.069282
_cell_length_c 8.845828
_cell_angle_alpha 90.000000
_cell_angle_beta 90.000000
_cell_angle_gamma 90.000000
_cell_volume 2729.171934
_symmetry_space_group_name_H-M "P B C M"
_symmetry_group_IT_number 57
_symmetry_cell_setting 'orthorhombic'
loop_
_space_group_symop_operation_xyz
x,y,z
-x,-y,1/2+z
x,1/2-y,-z
-x,1/2+y,1/2-z
-x,-y,-z
x,y,1/2-z
-x,1/2+y,z
x,1/2-y,1/2+z
loop_
_atom_site_type_symbol
_atom_site_label
_atom_site_fract_x
_atom_site_fract_y
_atom_site_fract_z
Si Si1 0.666745 0.146942 0.072220
Si Si2 0.013928 0.150352 0.572943
Si Si3 0.087176 0.534074 0.073936
Si Si4 0.296646 0.147217 0.427937
Si Si5 0.584250 0.853374 0.072498
Si Si6 0.225273 0.991322 0.926070
Si Si7 0.547979 0.146456 0.927600
O O1 0.658945 0.155774 0.250000
O O2 0.727048 0.089809 0.027292
O O3 0.673978 0.250000 0.000000
O O4 0.605614 0.093851 0.006395
O O5 0.033363 0.250000 0.500000
O O6 0.010941 0.165969 0.750000
O O7 0.947658 0.116358 0.516481
O O8 0.063699 0.070794 0.526515
O O9 0.074774 0.551212 0.250000
O O10 0.157998 0.544333 0.032186
O O11 0.288021 0.250000 0.500000
O O12 0.301203 0.156477 0.250000
O O13 0.358147 0.095044 0.493222
O O14 0.238785 0.084745 0.475790
O O15 0.597343 0.845366 0.250000
O O16 0.518247 0.903855 0.042218
O O17 0.581667 0.750000 0.000000
O O18 0.230228 0.017982 0.750000
O O19 0.560298 0.155085 0.750000
O O20 0.545417 0.250000 0.000000
#
# Coordination Sequence:
#
# PCOD8232470 Si02
#       7
#     8   8   8   8   8   8   8
#     4  10  20  34  54  77 106 143 182 228 278 331
#     4  10  20  36  61  90 119 149 183 225 270 321
#     4   9  20  39  60  84 116 151 187 228 272 319
#     4  11  22  36  56  80 108 144 185 231 280 334
#     4   9  16  28  48  73 101 135 176 226 281 334
#     4  10  22  40  58  80 113 150 187 228 273 321
#     4   9  16  27  47  73 101 134 176 226 279 334
#
# _framework density 20.519044000000001
#
# number of rings (size 3 to 8) (size 9 to 14) (size 15 to 20)
#    0.000    2.286    0.000    4.714    0.000    5.143 
#    0.000    3.571    0.000    0.000    0.000    0.000 
#    0.000    0.000    0.000    0.000    0.000    0.000 
#
# Total GULP energy -694144.387237 kJ/mol
# GULP energy per Si atom -12395.435486 kJ/mol
# Density = 2.047234 g / cm^3
# Si number density = 20.519044 Si / 1000 Ang^3
#
#
#
# Elastic Constant Matrix: (Units=GPa)
#
#
# Indices 1 2 3 4 5 6 
#
# 1 90.8382 -4.7836 15.7927 0.0000 0.0000 0.0000
# 2 -4.7836 34.0121 7.7265 0.0000 0.0000 0.0000
# 3 15.7927 7.7265 88.8456 0.0000 0.0000 0.0000
# 4 0.0000 0.0000 0.0000 26.7572 0.0000 0.0000
# 5 0.0000 0.0000 0.0000 0.0000 64.7262 0.0000
# 6 0.0000 0.0000 0.0000 0.0000 0.0000 30.3884
#
#
#
# Elastic Compliance Matrix: (Units=1/GPa)
#
#
# Indices 1 2 3 4 5 6 
#
# 1 0.011508 0.002125 -0.002230 0.000000 0.000000 0.000000
# 2 0.002125 0.030386 -0.003020 0.000000 0.000000 0.000000
# 3 -0.002230 -0.003020 0.011915 0.000000 0.000000 0.000000
# 4 0.000000 0.000000 0.000000 0.037373 0.000000 0.000000
# 5 0.000000 0.000000 0.000000 0.000000 0.015450 0.000000
# 6 0.000000 0.000000 0.000000 0.000000 0.000000 0.032907
#
#
# Mechanical properties :
#
#
# Convention : Reuss Voigt Hill
#
# Bulk Modulus (GPa) = 21.02689 27.90746 24.46718
# Shear Modulus (GPa) = 30.93233 37.37172 34.15202
#
# Velocity S-wave (km/s) = 3.88686 4.27232 4.08414
# Velocity P-wave (km/s) = 5.51483 6.16176 5.84725
#
# Compressibility (1/GPa) = 0.04755815
#
# Stress axis : x y z
#
# Youngs Moduli (GPa) = 86.89391 32.90950 83.93048
#
# Poissons Ratio (x) = -0.06994 0.18720
# Poissons Ratio (y) = -0.18467 0.25350
# Poissons Ratio (z) = 0.19381 0.09940
#
# Static dielectric constant tensor:
#      x y z
#    x 4.269880 0.000000 0.000000 
#    y 0.000000 3.449260 0.000000 
#    z 0.000000 0.000000 3.719070 
# 
# 
# High freq. dielectric constant tensor:
#      x y z
#    x 1.810960 0.000000 0.000000 
#    y 0.000000 1.782150 0.000000 
#    z 0.000000 0.000000 1.806930 
# 
# From -- ./inp_files/8162.got.cif
#   From: 2010.03.12/outbox.cif.g09.slc.cpg/sg57_5_cif.got.tgz:8162.got - 2010.04.16 15:48:40.
