data_PCOD8232812
_publ_section_title
;
Structure prediction by ZEFSAII (Michael W. Deem and Ramdas Pophale) SiO2 
 PCOD8232812
Probable space group: P B C M
;
_chemical_formula_sum "Si O2"
_cell_formula_units_Z 56
_cell_length_a 7.804598
_cell_length_b 19.246213
_cell_length_c 19.239673
_cell_angle_alpha 90.000000
_cell_angle_beta 90.000000
_cell_angle_gamma 90.000000
_cell_volume 2889.971185
_symmetry_space_group_name_H-M "P B C M"
_symmetry_group_IT_number 57
_symmetry_cell_setting 'orthorhombic'
loop_
_space_group_symop_operation_xyz
x,y,z
-x,-y,1/2+z
x,1/2-y,-z
-x,1/2+y,1/2-z
-x,-y,-z
x,y,1/2-z
-x,1/2+y,z
x,1/2-y,1/2+z
loop_
_atom_site_type_symbol
_atom_site_label
_atom_site_fract_x
_atom_site_fract_y
_atom_site_fract_z
Si Si1 0.833583 0.283774 0.668546
Si Si2 0.492956 0.566676 0.401562
Si Si3 0.072329 0.059100 0.580418
Si Si4 0.448816 0.293870 0.831200
Si Si5 0.141726 0.190731 0.831985
Si Si6 0.270918 0.971234 0.475608
Si Si7 0.156377 0.561971 0.170077
O O1 0.861335 0.288163 0.750000
O O2 0.637431 0.262591 0.651104
O O3 0.875527 0.360679 0.639315
O O4 0.970360 0.228789 0.639520
O O5 0.585437 0.638105 0.378362
O O6 0.393893 0.575582 0.475752
O O7 0.628527 0.504046 0.409965
O O8 0.357516 0.544373 0.342042
O O9 0.157278 0.120328 0.624673
O O10 0.200572 0.037940 0.518799
O O11 0.038738 0.991883 0.628991
O O12 0.884105 0.077815 0.550646
O O13 0.438219 0.315168 0.750000
O O14 0.307486 0.236736 0.849712
O O15 0.131854 0.173638 0.750000
O O16 0.108789 0.555945 0.250000
#
# Coordination Sequence:
#
# PCOD8232812 Si02
#       7
#     8   8   8   8   8   8   8
#     4   8  16  32  52  79 112 142 175 219 277 339
#     4   9  17  35  58  78 105 140 191 233 274 328
#     4  10  20  36  55  77 114 148 184 231 286 337
#     4   9  18  34  59  84 110 142 180 231 288 337
#     4  10  20  35  56  85 116 146 178 229 299 351
#     4   9  20  36  56  76 107 153 189 229 276 325
#     4   9  17  32  57  84 108 139 183 237 285 334
#
# _framework density 19.377355999999999
#
# number of rings (size 3 to 8) (size 9 to 14) (size 15 to 20)
#    0.000    2.857    0.000    1.714    2.000    0.000 
#    7.714    2.857    3.143    0.000    0.000    0.000 
#    0.000    0.000    0.000    0.000    0.000    0.000 
#
# Total GULP energy -694062.111707 kJ/mol
# GULP energy per Si atom -12393.966280 kJ/mol
# Density = 1.933325 g / cm^3
# Si number density = 19.377356 Si / 1000 Ang^3
#
#
#
# Elastic Constant Matrix: (Units=GPa)
#
#
# Indices 1 2 3 4 5 6 
#
# 1 80.8968 36.3447 18.0918 0.0000 0.0000 0.0000
# 2 36.3447 87.0450 32.7126 0.0000 0.0000 0.0000
# 3 18.0918 32.7126 47.2725 0.0000 0.0000 0.0000
# 4 0.0000 0.0000 0.0000 31.3386 0.0000 0.0000
# 5 0.0000 0.0000 0.0000 0.0000 24.2584 0.0000
# 6 0.0000 0.0000 0.0000 0.0000 0.0000 27.7813
#
#
#
# Elastic Compliance Matrix: (Units=1/GPa)
#
#
# Indices 1 2 3 4 5 6 
#
# 1 0.015347 -0.005677 -0.001945 0.000000 0.000000 0.000000
# 2 -0.005677 0.017626 -0.010025 0.000000 0.000000 0.000000
# 3 -0.001945 -0.010025 0.028835 0.000000 0.000000 0.000000
# 4 0.000000 0.000000 0.000000 0.031910 0.000000 0.000000
# 5 0.000000 0.000000 0.000000 0.000000 0.041223 0.000000
# 6 0.000000 0.000000 0.000000 0.000000 0.000000 0.035995
#
#
# Mechanical properties :
#
#
# Convention : Reuss Voigt Hill
#
# Bulk Modulus (GPa) = 37.71422 43.27915 40.49668
# Shear Modulus (GPa) = 23.24852 25.21335 24.23094
#
# Velocity S-wave (km/s) = 3.46754 3.61110 3.54004
# Velocity P-wave (km/s) = 5.96130 6.30635 6.13625
#
# Compressibility (1/GPa) = 0.02651520
#
# Stress axis : x y z
#
# Youngs Moduli (GPa) = 65.15970 56.73430 34.67972
#
# Poissons Ratio (x) = 0.32208 0.06745
# Poissons Ratio (y) = 0.36991 0.34765
# Poissons Ratio (z) = 0.12673 0.56874
#
# Static dielectric constant tensor:
#      x y z
#    x 3.676450 0.000000 0.000000 
#    y 0.000000 3.394190 0.000000 
#    z 0.000000 0.000000 3.408590 
# 
# 
# High freq. dielectric constant tensor:
#      x y z
#    x 1.760090 0.000000 0.000000 
#    y 0.000000 1.730230 0.000000 
#    z 0.000000 0.000000 1.736270 
# 
# From -- ./inp_files/26918.got.cif
#   From: 2010.03.12/outbox.cif.g09.slc.cpg/sg57_14_cif.got.tgz:26918.got - 2010.04.16 15:48:40.
