data_PCOD8232060
_publ_section_title
;
Structure prediction by ZEFSAII (Michael W. Deem and Ramdas Pophale) SiO2 
 PCOD8232060
Probable space group: P B C M
;
_chemical_formula_sum "Si O2"
_cell_formula_units_Z 56
_cell_length_a 19.448302
_cell_length_b 9.297034
_cell_length_c 15.280630
_cell_angle_alpha 90.000000
_cell_angle_beta 90.000000
_cell_angle_gamma 90.000000
_cell_volume 2762.914012
_symmetry_space_group_name_H-M "P B C M"
_symmetry_group_IT_number 57
_symmetry_cell_setting 'orthorhombic'
loop_
_space_group_symop_operation_xyz
x,y,z
-x,-y,1/2+z
x,1/2-y,-z
-x,1/2+y,1/2-z
-x,-y,-z
x,y,1/2-z
-x,1/2+y,z
x,1/2-y,1/2+z
loop_
_atom_site_type_symbol
_atom_site_label
_atom_site_fract_x
_atom_site_fract_y
_atom_site_fract_z
Si Si1 0.205107 0.879265 0.559113
Si Si2 0.069466 0.900310 0.853373
Si Si3 0.060395 0.273524 0.146464
Si Si4 0.809023 0.626875 0.437360
Si Si5 0.571200 0.581181 0.001114
Si Si6 0.325443 0.119887 0.152316
Si Si7 0.329488 0.459246 0.349432
O O1 0.235401 0.750000 0.500000
O O2 0.142109 0.827740 0.620195
O O3 0.168330 0.994432 0.496615
O O4 0.264298 0.949360 0.618527
O O5 0.064861 0.901285 0.750000
O O6 0.007616 0.803406 0.891596
O O7 0.062580 0.063681 0.888735
O O8 0.061691 0.269653 0.250000
O O9 0.126533 0.186879 0.114598
O O10 0.776378 0.750000 0.500000
O O11 0.749731 0.562962 0.374084
O O12 0.617402 0.552822 0.087496
O O13 0.556352 0.750000 0.000000
O O14 0.500000 0.500000 0.000000
O O15 0.607700 0.515469 0.915390
O O16 0.345169 0.068683 0.250000
O O17 0.315040 0.290556 0.147878
O O18 0.348169 0.507415 0.250000
#
# Coordination Sequence:
#
# PCOD8232060 Si02
#       7
#     8   8   8   8   8   8   8
#     4  12  25  38  59  89 124 158 203 267 322 370
#     4  10  22  41  59  82 116 159 208 257 317 380
#     4  10  22  38  59  84 115 158 207 261 317 376
#     4  12  20  38  61  86 117 155 210 256 310 376
#     4  10  21  39  64  94 128 163 203 250 298 358
#     4  10  19  37  66  94 121 160 212 256 297 360
#     4  10  20  40  67  90 120 167 211 248 304 371
#
# _framework density 20.268454999999999
#
# number of rings (size 3 to 8) (size 9 to 14) (size 15 to 20)
#    0.000    1.429    4.286    1.286    2.000    4.571 
#    0.000    2.143    0.000    0.000    0.000    0.000 
#    0.000    0.000    0.000    0.000    0.000    0.000 
#
# Total GULP energy -694184.896327 kJ/mol
# GULP energy per Si atom -12396.158863 kJ/mol
# Density = 2.022232 g / cm^3
# Si number density = 20.268455 Si / 1000 Ang^3
#
#
#
# Elastic Constant Matrix: (Units=GPa)
#
#
# Indices 1 2 3 4 5 6 
#
# 1 164.0135 29.2237 73.0984 0.0000 0.0000 0.0000
# 2 29.2237 52.1677 37.7783 0.0000 0.0000 0.0000
# 3 73.0984 37.7783 115.9715 0.0000 0.0000 0.0000
# 4 0.0000 0.0000 0.0000 21.5288 0.0000 0.0000
# 5 0.0000 0.0000 0.0000 0.0000 19.8322 0.0000
# 6 0.0000 0.0000 0.0000 0.0000 0.0000 36.8904
#
#
#
# Elastic Compliance Matrix: (Units=1/GPa)
#
#
# Indices 1 2 3 4 5 6 
#
# 1 0.008532 -0.001158 -0.005001 0.000000 0.000000 0.000000
# 2 -0.001158 0.025244 -0.007493 0.000000 0.000000 0.000000
# 3 -0.005001 -0.007493 0.014216 0.000000 0.000000 0.000000
# 4 0.000000 0.000000 0.000000 0.046449 0.000000 0.000000
# 5 0.000000 0.000000 0.000000 0.000000 0.050423 0.000000
# 6 0.000000 0.000000 0.000000 0.000000 0.000000 0.027107
#
#
# Mechanical properties :
#
#
# Convention : Reuss Voigt Hill
#
# Bulk Modulus (GPa) = 48.33800 68.03927 58.18863
# Shear Modulus (GPa) = 24.25154 28.45376 26.35265
#
# Velocity S-wave (km/s) = 3.46282 3.75086 3.60971
# Velocity P-wave (km/s) = 6.31576 7.23882 6.79299
#
# Compressibility (1/GPa) = 0.02068766
#
# Stress axis : x y z
#
# Youngs Moduli (GPa) = 117.20391 39.61291 70.34453
#
# Poissons Ratio (x) = 0.04588 0.35176
# Poissons Ratio (y) = 0.13576 0.52712
# Poissons Ratio (z) = 0.58609 0.29683
#
# Static dielectric constant tensor:
#      x y z
#    x 3.534110 0.000000 0.000000 
#    y 0.000000 3.723130 0.000000 
#    z 0.000000 0.000000 3.977260 
# 
# 
# High freq. dielectric constant tensor:
#      x y z
#    x 1.788790 0.000000 0.000000 
#    y 0.000000 1.772150 0.000000 
#    z 0.000000 0.000000 1.801670 
# 
# From -- ./inp_files/19354.got.cif
#   From: 2010.03.12/outbox.cif.g09.slc.cpg/sg57_10_cif.got.tgz:19354.got - 2010.04.16 15:48:40.
