data_PCOD8232143
_publ_section_title
;
Structure prediction by ZEFSAII (Michael W. Deem and Ramdas Pophale) SiO2 
 PCOD8232143
Probable space group: P B C M
;
_chemical_formula_sum "Si O2"
_cell_formula_units_Z 64
_cell_length_a 14.155489
_cell_length_b 27.701566
_cell_length_c 9.055032
_cell_angle_alpha 90.000000
_cell_angle_beta 90.000000
_cell_angle_gamma 90.000000
_cell_volume 3550.742570
_symmetry_space_group_name_H-M "P B C M"
_symmetry_group_IT_number 57
_symmetry_cell_setting 'orthorhombic'
loop_
_space_group_symop_operation_xyz
x,y,z
-x,-y,1/2+z
x,1/2-y,-z
-x,1/2+y,1/2-z
-x,-y,-z
x,y,1/2-z
-x,1/2+y,z
x,1/2-y,1/2+z
loop_
_atom_site_type_symbol
_atom_site_label
_atom_site_fract_x
_atom_site_fract_y
_atom_site_fract_z
Si Si1 0.695214 0.300716 0.421550
Si Si2 0.363244 0.122677 0.423796
Si Si3 0.518669 0.699641 0.577163
Si Si4 0.008216 0.947452 0.423919
Si Si5 0.442733 0.038028 0.588776
Si Si6 0.207624 0.601725 0.922367
Si Si7 0.830496 0.928297 0.576544
Si Si8 0.750166 0.014013 0.411414
O O1 0.719395 0.250000 0.500000
O O2 0.707365 0.289590 0.250000
O O3 0.588166 0.319594 0.454270
O O4 0.768581 0.343119 0.471655
O O5 0.376615 0.127492 0.250000
O O6 0.394449 0.170959 0.504821
O O7 0.438057 0.084446 0.485774
O O8 0.255591 0.107766 0.463897
O O9 0.526381 0.750000 0.500000
O O10 0.538598 0.703426 0.750000
O O11 0.996605 0.954454 0.250000
O O12 0.924535 0.912865 0.487963
O O13 0.102077 0.916564 0.462048
O O14 0.000000 0.000000 0.500000
O O15 0.487908 0.050643 0.750000
O O16 0.500000 0.000000 0.500000
O O17 0.341491 0.016536 0.618006
O O18 0.230337 0.596279 0.750000
O O19 0.274946 0.565615 0.014908
O O20 0.849465 0.928599 0.750000
O O21 0.813425 0.983784 0.526544
O O22 0.799999 0.020780 0.250000
#
# Coordination Sequence:
#
# PCOD8232143 Si02
#       8
#     8   8   8   8   8   8   8   8
#     4   9  20  38  57  80 107 139 176 219 271 324
#     4  10  21  36  54  77 106 142 180 224 274 325
#     4  10  20  36  59  85 110 141 179 225 274 329
#     4  11  21  33  53  79 109 145 184 226 269 320
#     4  10  21  34  47  70 103 142 182 219 263 319
#     4  10  21  35  53  77 107 142 178 220 274 324
#     4  10  20  35  53  74 107 145 179 222 272 316
#     4  10  20  32  48  73 102 137 181 221 260 313
#
# _framework density 18.0244
#
# number of rings (size 3 to 8) (size 9 to 14) (size 15 to 20)
#    0.000    2.000    1.250    2.250    1.750    4.500 
#    0.000    0.000    0.000    0.750    0.000    3.500 
#    0.000    0.000    0.000    0.000    0.000    0.000 
#
# Total GULP energy -793009.158793 kJ/mol
# GULP energy per Si atom -12390.768106 kJ/mol
# Density = 1.798338 g / cm^3
# Si number density = 18.024400 Si / 1000 Ang^3
#
#
#
# Elastic Constant Matrix: (Units=GPa)
#
#
# Indices 1 2 3 4 5 6 
#
# 1 64.7076 47.6222 46.5334 0.0000 0.0000 0.0000
# 2 47.6222 91.2740 50.6545 0.0000 0.0000 0.0000
# 3 46.5334 50.6545 108.4433 0.0000 0.0000 0.0000
# 4 0.0000 0.0000 0.0000 31.7067 0.0000 0.0000
# 5 0.0000 0.0000 0.0000 0.0000 27.5009 0.0000
# 6 0.0000 0.0000 0.0000 0.0000 0.0000 27.8737
#
#
#
# Elastic Compliance Matrix: (Units=1/GPa)
#
#
# Indices 1 2 3 4 5 6 
#
# 1 0.028712 -0.010992 -0.007186 0.000000 0.000000 0.000000
# 2 -0.010992 0.018999 -0.004157 0.000000 0.000000 0.000000
# 3 -0.007186 -0.004157 0.014247 0.000000 0.000000 0.000000
# 4 0.000000 0.000000 0.000000 0.031539 0.000000 0.000000
# 5 0.000000 0.000000 0.000000 0.000000 0.036362 0.000000
# 6 0.000000 0.000000 0.000000 0.000000 0.000000 0.035876
#
#
# Mechanical properties :
#
#
# Convention : Reuss Voigt Hill
#
# Bulk Modulus (GPa) = 57.85061 61.56055 59.70558
# Shear Modulus (GPa) = 23.13021 25.39058 24.26039
#
# Velocity S-wave (km/s) = 3.58617 3.75731 3.67273
# Velocity P-wave (km/s) = 7.02231 7.28363 7.15416
#
# Compressibility (1/GPa) = 0.01728590
#
# Stress axis : x y z
#
# Youngs Moduli (GPa) = 34.82921 52.63543 70.19151
#
# Poissons Ratio (x) = 0.57859 0.50437
# Poissons Ratio (y) = 0.38286 0.29182
# Poissons Ratio (z) = 0.25027 0.21883
#
# Static dielectric constant tensor:
#      x y z
#    x 3.182810 0.000000 0.000000 
#    y 0.000000 3.172240 0.000000 
#    z 0.000000 0.000000 3.515120 
# 
# 
# High freq. dielectric constant tensor:
#      x y z
#    x 1.692190 0.000000 0.000000 
#    y 0.000000 1.674830 0.000000 
#    z 0.000000 0.000000 1.715510 
# 
# From -- ./inp_files/5556.got.cif
#   From: 2010.03.12/outbox.cif.g09.slc.cpg/sg57_3_cif.got.tgz:5556.got - 2010.04.16 15:48:40.
