data_PCOD8232929
_publ_section_title
;
Structure prediction by ZEFSAII (Michael W. Deem and Ramdas Pophale) SiO2 
 PCOD8232929
Probable space group: P B C M
;
_chemical_formula_sum "Si O2"
_cell_formula_units_Z 48
_cell_length_a 9.067025
_cell_length_b 18.302339
_cell_length_c 15.361172
_cell_angle_alpha 90.000000
_cell_angle_beta 90.000000
_cell_angle_gamma 90.000000
_cell_volume 2549.152165
_symmetry_space_group_name_H-M "P B C M"
_symmetry_group_IT_number 57
_symmetry_cell_setting 'orthorhombic'
loop_
_space_group_symop_operation_xyz
x,y,z
-x,-y,1/2+z
x,1/2-y,-z
-x,1/2+y,1/2-z
-x,-y,-z
x,y,1/2-z
-x,1/2+y,z
x,1/2-y,1/2+z
loop_
_atom_site_type_symbol
_atom_site_label
_atom_site_fract_x
_atom_site_fract_y
_atom_site_fract_z
Si Si1 0.784695 0.147655 0.154417
Si Si2 0.706245 0.563795 0.998425
Si Si3 0.844208 0.204909 0.913889
Si Si4 0.939996 0.915696 0.149886
Si Si5 0.081731 0.431599 0.849729
Si Si6 0.615977 0.399175 0.495108
O O1 0.748010 0.117693 0.250000
O O2 0.801601 0.235361 0.158386
O O3 0.935268 0.110943 0.120322
O O4 0.651024 0.123262 0.093905
O O5 0.792996 0.594366 0.082870
O O6 0.664159 0.481485 0.022414
O O7 0.799351 0.568507 0.910078
O O8 0.559051 0.611160 0.982449
O O9 0.702197 0.153800 0.929261
O O10 0.982546 0.158528 0.880819
O O11 0.889500 0.250000 0.000000
O O12 0.886960 0.908615 0.250000
O O13 0.055237 0.981901 0.140163
O O14 0.125853 0.411787 0.750000
#
# Coordination Sequence:
#
# PCOD8232929 Si02
#       6
#     8   8   8   8   8   8
#     4  10  20  37  58  81 112 149 192 234 280 340
#     4  11  20  36  57  83 118 147 180 242 288 336
#     4  10  20  37  58  82 111 155 193 229 279 341
#     4  11  21  36  60  88 115 146 191 242 288 332
#     4  10  20  35  60  89 113 146 192 241 287 334
#     4  10  21  34  55  82 113 150 188 224 288 343
#
# _framework density 18.829789999999999
#
# number of rings (size 3 to 8) (size 9 to 14) (size 15 to 20)
#    0.000    1.667    3.333    3.000    0.000    0.667 
#    0.000   11.667    0.000    0.000    0.000    0.000 
#    0.000    0.000    0.000    0.000    0.000    0.000 
#
# Total GULP energy -595208.887586 kJ/mol
# GULP energy per Si atom -12400.185158 kJ/mol
# Density = 1.878693 g / cm^3
# Si number density = 18.829790 Si / 1000 Ang^3
#
#
#
# Elastic Constant Matrix: (Units=GPa)
#
#
# Indices 1 2 3 4 5 6 
#
# 1 102.3220 19.8352 53.6931 0.0000 0.0000 0.0000
# 2 19.8352 69.2883 8.6230 0.0000 0.0000 0.0000
# 3 53.6931 8.6230 97.9634 0.0000 0.0000 0.0000
# 4 0.0000 0.0000 0.0000 22.0158 0.0000 0.0000
# 5 0.0000 0.0000 0.0000 0.0000 18.4592 0.0000
# 6 0.0000 0.0000 0.0000 0.0000 0.0000 27.9847
#
#
#
# Elastic Compliance Matrix: (Units=1/GPa)
#
#
# Indices 1 2 3 4 5 6 
#
# 1 0.014376 -0.003169 -0.007600 0.000000 0.000000 0.000000
# 2 -0.003169 0.015291 0.000391 0.000000 0.000000 0.000000
# 3 -0.007600 0.000391 0.014339 0.000000 0.000000 0.000000
# 4 0.000000 0.000000 0.000000 0.045422 0.000000 0.000000
# 5 0.000000 0.000000 0.000000 0.000000 0.054173 0.000000
# 6 0.000000 0.000000 0.000000 0.000000 0.000000 0.035734
#
#
# Mechanical properties :
#
#
# Convention : Reuss Voigt Hill
#
# Bulk Modulus (GPa) = 43.01284 48.20846 45.61065
# Shear Modulus (GPa) = 24.05679 26.18679 25.12179
#
# Velocity S-wave (km/s) = 3.57822 3.73327 3.65657
# Velocity P-wave (km/s) = 6.32172 6.65138 6.48864
#
# Compressibility (1/GPa) = 0.02324887
#
# Stress axis : x y z
#
# Youngs Moduli (GPa) = 69.56206 65.39760 69.73942
#
# Poissons Ratio (x) = 0.20728 0.53003
# Poissons Ratio (y) = 0.22047 -0.02728
# Poissons Ratio (z) = 0.52869 -0.02558
#
# Static dielectric constant tensor:
#      x y z
#    x 3.310260 0.000000 0.000000 
#    y 0.000000 3.579000 0.000000 
#    z 0.000000 0.000000 3.462240 
# 
# 
# High freq. dielectric constant tensor:
#      x y z
#    x 1.710870 0.000000 0.000000 
#    y 0.000000 1.732460 0.000000 
#    z 0.000000 0.000000 1.737600 
# 
# From -- ./inp_files/16297.got.cif
#   From: 2010.03.12/outbox.cif.g09.slc.cpg/sg57_9_cif.got.tgz:16297.got - 2010.04.16 15:48:40.
