data_PCOD8232237
_publ_section_title
;
Structure prediction by ZEFSAII (Michael W. Deem and Ramdas Pophale) SiO2 
 PCOD8232237
Probable space group: P B C M
;
_chemical_formula_sum "Si O2"
_cell_formula_units_Z 40
_cell_length_a 15.643600
_cell_length_b 14.120634
_cell_length_c 8.978177
_cell_angle_alpha 90.000000
_cell_angle_beta 90.000000
_cell_angle_gamma 90.000000
_cell_volume 1983.257303
_symmetry_space_group_name_H-M "P B C M"
_symmetry_group_IT_number 57
_symmetry_cell_setting 'orthorhombic'
loop_
_space_group_symop_operation_xyz
x,y,z
-x,-y,1/2+z
x,1/2-y,-z
-x,1/2+y,1/2-z
-x,-y,-z
x,y,1/2-z
-x,1/2+y,z
x,1/2-y,1/2+z
loop_
_atom_site_type_symbol
_atom_site_label
_atom_site_fract_x
_atom_site_fract_y
_atom_site_fract_z
Si Si1 0.207062 0.460794 0.920875
Si Si2 0.529822 0.349440 0.574545
Si Si3 0.380325 0.457744 0.423970
Si Si4 0.974398 0.596280 0.423846
Si Si5 0.129374 0.663119 0.923351
O O1 0.238416 0.456751 0.750000
O O2 0.127876 0.388166 0.947209
O O3 0.176954 0.566482 0.961730
O O4 0.283781 0.433748 0.029716
O O5 0.558109 0.250000 0.500000
O O6 0.522247 0.333023 0.750000
O O7 0.438912 0.383744 0.512250
O O8 0.597971 0.432631 0.535964
O O9 0.393206 0.438744 0.250000
O O10 0.995916 0.590801 0.250000
O O11 0.000000 0.500000 0.500000
O O12 0.034107 0.672338 0.504512
O O13 0.120482 0.679825 0.750000
O O14 0.181613 0.750000 0.000000
#
# Coordination Sequence:
#
# PCOD8232237 Si02
#       5
#     8   8   8   8   8
#     4   9  19  34  52  75 104 137 173 215 262 313
#     4  10  21  38  59  82 110 143 179 221 270 326
#     4  10  21  36  57  84 111 143 181 222 271 325
#     4   9  17  31  50  71  97 132 170 207 251 301
#     4  10  20  33  50  74 104 139 177 219 266 313
#
# _framework density 20.168838999999998
#
# number of rings (size 3 to 8) (size 9 to 14) (size 15 to 20)
#    0.000    2.400    0.000    3.600    0.000    8.000 
#    0.000    5.000    0.000    4.800    0.000    0.000 
#    0.000    0.000    0.000    0.000    0.000    0.000 
#
# Total GULP energy -495719.567517 kJ/mol
# GULP energy per Si atom -12392.989188 kJ/mol
# Density = 2.012293 g / cm^3
# Si number density = 20.168839 Si / 1000 Ang^3
#
#
#
# Elastic Constant Matrix: (Units=GPa)
#
#
# Indices 1 2 3 4 5 6 
#
# 1 70.3698 -17.0025 18.9870 0.0000 0.0000 0.0000
# 2 -17.0025 38.6861 5.0616 0.0000 0.0000 0.0000
# 3 18.9870 5.0616 78.6717 0.0000 0.0000 0.0000
# 4 0.0000 0.0000 0.0000 34.5699 0.0000 0.0000
# 5 0.0000 0.0000 0.0000 0.0000 34.0343 0.0000
# 6 0.0000 0.0000 0.0000 0.0000 0.0000 8.9103
#
#
#
# Elastic Compliance Matrix: (Units=1/GPa)
#
#
# Indices 1 2 3 4 5 6 
#
# 1 0.017504 0.008316 -0.004760 0.000000 0.000000 0.000000
# 2 0.008316 0.030019 -0.003938 0.000000 0.000000 0.000000
# 3 -0.004760 -0.003938 0.014113 0.000000 0.000000 0.000000
# 4 0.000000 0.000000 0.000000 0.028927 0.000000 0.000000
# 5 0.000000 0.000000 0.000000 0.000000 0.029382 0.000000
# 6 0.000000 0.000000 0.000000 0.000000 0.000000 0.112229
#
#
# Mechanical properties :
#
#
# Convention : Reuss Voigt Hill
#
# Bulk Modulus (GPa) = 16.42789 22.42440 19.42615
# Shear Modulus (GPa) = 19.74495 27.54835 23.64665
#
# Velocity S-wave (km/s) = 3.13226 3.69980 3.42780
# Velocity P-wave (km/s) = 4.60916 5.42161 5.03181
#
# Compressibility (1/GPa) = 0.06087208
#
# Stress axis : x y z
#
# Youngs Moduli (GPa) = 57.12955 33.31214 70.85603
#
# Poissons Ratio (x) = -0.27702 0.33724
# Poissons Ratio (y) = -0.47507 0.27905
# Poissons Ratio (z) = 0.27191 0.13119
#
# Static dielectric constant tensor:
#      x y z
#    x 3.722570 0.000000 0.000000 
#    y 0.000000 3.807910 0.000000 
#    z 0.000000 0.000000 3.128870 
# 
# 
# High freq. dielectric constant tensor:
#      x y z
#    x 1.775460 0.000000 0.000000 
#    y 0.000000 1.778890 0.000000 
#    z 0.000000 0.000000 1.797010 
# 
# From -- ./inp_files/4283.got.cif
#   From: 2010.03.12/outbox.cif.g09.slc.cpg/sg57_3_cif.got.tgz:4283.got - 2010.04.16 15:48:40.
