data_PCOD8232717
_publ_section_title
;
Structure prediction by ZEFSAII (Michael W. Deem and Ramdas Pophale) SiO2 
 PCOD8232717
Probable space group: P B C M
;
_chemical_formula_sum "Si O2"
_cell_formula_units_Z 48
_cell_length_a 30.057013
_cell_length_b 9.473403
_cell_length_c 8.946697
_cell_angle_alpha 90.000000
_cell_angle_beta 90.000000
_cell_angle_gamma 90.000000
_cell_volume 2547.502161
_symmetry_space_group_name_H-M "P B C M"
_symmetry_group_IT_number 57
_symmetry_cell_setting 'orthorhombic'
loop_
_space_group_symop_operation_xyz
x,y,z
-x,-y,1/2+z
x,1/2-y,-z
-x,1/2+y,1/2-z
-x,-y,-z
x,y,1/2-z
-x,1/2+y,z
x,1/2-y,1/2+z
loop_
_atom_site_type_symbol
_atom_site_label
_atom_site_fract_x
_atom_site_fract_y
_atom_site_fract_z
Si Si1 0.204839 0.902060 0.073188
Si Si2 0.712310 0.901019 0.574973
Si Si3 0.534480 0.397757 0.075262
Si Si4 0.966854 0.604248 0.578242
Si Si5 0.864546 0.600187 0.923545
Si Si6 0.635242 0.398123 0.423992
O O1 0.198787 0.883994 0.250000
O O2 0.246503 0.000131 0.032019
O O3 0.212373 0.750000 0.000000
O O4 0.161447 0.974821 0.004383
O O5 0.717839 0.750000 0.500000
O O6 0.709560 0.874159 0.750000
O O7 0.667707 0.979062 0.515856
O O8 0.524767 0.386698 0.250000
O O9 0.584897 0.448083 0.042809
O O10 0.525734 0.250000 0.000000
O O11 0.500000 0.500000 0.000000
O O12 0.975355 0.750000 0.500000
O O13 0.979956 0.617880 0.750000
O O14 0.915892 0.556966 0.558058
O O15 0.000000 0.500000 0.500000
O O16 0.850775 0.611780 0.750000
O O17 0.853692 0.750000 0.000000
O O18 0.646692 0.250000 0.500000
O O19 0.643477 0.372622 0.250000
#
# Coordination Sequence:
#
# PCOD8232717 Si02
#       6
#     8   8   8   8   8   8
#     4  11  23  38  58  83 111 144 182 225 272 323
#     4  10  22  38  56  81 110 141 179 221 268 322
#     4  10  20  35  55  79 109 144 182 225 273 324
#     4  10  21  37  58  83 112 147 185 227 274 324
#     4  10  21  38  59  83 112 146 184 226 273 324
#     4   9  19  36  56  79 107 140 179 222 269 321
#
# _framework density 18.841985999999999
#
# number of rings (size 3 to 8) (size 9 to 14) (size 15 to 20)
#    0.000    2.000    0.000    3.000    0.000    7.333 
#    0.000    1.667    0.000    0.000    0.000    0.000 
#    0.000    0.000    0.000    0.000    0.000    0.000 
#
# Total GULP energy -595295.588067 kJ/mol
# GULP energy per Si atom -12401.991418 kJ/mol
# Density = 1.879910 g / cm^3
# Si number density = 18.841986 Si / 1000 Ang^3
#
#
#
# Elastic Constant Matrix: (Units=GPa)
#
#
# Indices 1 2 3 4 5 6 
#
# 1 125.0214 96.2486 77.0902 0.0000 0.0000 0.0000
# 2 96.2486 147.9034 87.6467 0.0000 0.0000 0.0000
# 3 77.0902 87.6467 120.9849 0.0000 0.0000 0.0000
# 4 0.0000 0.0000 0.0000 41.2915 0.0000 0.0000
# 5 0.0000 0.0000 0.0000 0.0000 29.5129 0.0000
# 6 0.0000 0.0000 0.0000 0.0000 0.0000 40.1308
#
#
#
# Elastic Compliance Matrix: (Units=1/GPa)
#
#
# Indices 1 2 3 4 5 6 
#
# 1 0.017679 -0.008462 -0.005135 0.000000 0.000000 0.000000
# 2 -0.008462 0.015897 -0.006125 0.000000 0.000000 0.000000
# 3 -0.005135 -0.006125 0.015974 0.000000 0.000000 0.000000
# 4 0.000000 0.000000 0.000000 0.024218 0.000000 0.000000
# 5 0.000000 0.000000 0.000000 0.000000 0.033883 0.000000
# 6 0.000000 0.000000 0.000000 0.000000 0.000000 0.024919
#
#
# Mechanical properties :
#
#
# Convention : Reuss Voigt Hill
#
# Bulk Modulus (GPa) = 98.93349 101.76452 100.34901
# Shear Modulus (GPa) = 28.50884 31.04867 29.77875
#
# Velocity S-wave (km/s) = 3.89401 4.06377 3.97980
# Velocity P-wave (km/s) = 8.53456 8.72615 8.63089
#
# Compressibility (1/GPa) = 0.01010780
#
# Stress axis : x y z
#
# Youngs Moduli (GPa) = 56.56281 62.90324 62.59984
#
# Poissons Ratio (x) = 0.53229 0.32144
# Poissons Ratio (y) = 0.47864 0.38341
# Poissons Ratio (z) = 0.29044 0.38527
#
# Static dielectric constant tensor:
#      x y z
#    x 3.940240 0.000000 0.000000 
#    y 0.000000 3.186090 0.000000 
#    z 0.000000 0.000000 3.648530 
# 
# 
# High freq. dielectric constant tensor:
#      x y z
#    x 1.744420 0.000000 0.000000 
#    y 0.000000 1.733850 0.000000 
#    z 0.000000 0.000000 1.743090 
# 
# From -- ./inp_files/9928.got.cif
#   From: 2010.03.12/outbox.cif.g09.slc.cpg/sg57_5_cif.got.tgz:9928.got - 2010.04.16 15:48:40.
