data_PCOD8232219
_publ_section_title
;
Structure prediction by ZEFSAII (Michael W. Deem and Ramdas Pophale) SiO2 
 PCOD8232219
Probable space group: P B C M
;
_chemical_formula_sum "Si O2"
_cell_formula_units_Z 64
_cell_length_a 29.910982
_cell_length_b 13.527439
_cell_length_c 8.919973
_cell_angle_alpha 90.000000
_cell_angle_beta 90.000000
_cell_angle_gamma 90.000000
_cell_volume 3609.190416
_symmetry_space_group_name_H-M "P B C M"
_symmetry_group_IT_number 57
_symmetry_cell_setting 'orthorhombic'
loop_
_space_group_symop_operation_xyz
x,y,z
-x,-y,1/2+z
x,1/2-y,-z
-x,1/2+y,1/2-z
-x,-y,-z
x,y,1/2-z
-x,1/2+y,z
x,1/2-y,1/2+z
loop_
_atom_site_type_symbol
_atom_site_label
_atom_site_fract_x
_atom_site_fract_y
_atom_site_fract_z
Si Si1 0.643027 0.352131 0.924254
Si Si2 0.746945 0.353416 0.575401
Si Si3 0.047627 0.510397 0.074404
Si Si4 0.891575 0.345610 0.416594
Si Si5 0.875459 0.643969 0.926967
Si Si6 0.566409 0.045496 0.925002
Si Si7 0.812234 0.498573 0.081701
Si Si8 0.485364 0.150148 0.425043
O O1 0.631586 0.346196 0.750000
O O2 0.694914 0.373652 0.952781
O O3 0.628298 0.250000 0.000000
O O4 0.615001 0.440151 0.000872
O O5 0.761806 0.250000 0.500000
O O6 0.759083 0.345488 0.750000
O O7 0.771241 0.448253 0.504960
O O8 0.041298 0.520302 0.250000
O O9 0.080457 0.419708 0.032947
O O10 0.067415 0.612090 0.011664
O O11 0.000000 0.500000 0.000000
O O12 0.872779 0.250000 0.500000
O O13 0.908526 0.319531 0.250000
O O14 0.851613 0.421116 0.409609
O O15 0.869010 0.654069 0.750000
O O16 0.882778 0.750000 0.000000
O O17 0.830405 0.594616 0.993786
O O18 0.568430 0.069173 0.750000
O O19 0.551689 0.933271 0.956416
O O20 0.532210 0.121541 0.000426
O O21 0.797186 0.529030 0.250000
O O22 0.466979 0.250000 0.500000
O O23 0.493523 0.166164 0.250000
#
# Coordination Sequence:
#
# PCOD8232219 Si02
#       8
#     8   8   8   8   8   8   8   8
#     4  10  20  33  50  73 103 137 170 207 250 300
#     4  10  20  33  51  77 107 138 170 205 251 306
#     4  10  21  36  53  74 102 134 168 207 248 293
#     4  10  20  33  50  73 100 130 163 198 241 291
#     4  10  21  37  57  79 103 134 172 213 256 301
#     4  10  20  33  50  72  99 132 169 210 255 303
#     4  10  20  34  54  78 104 133 165 206 251 296
#     4  10  20  33  50  72  98 130 168 210 255 302
#
# _framework density 17.732510000000001
#
# number of rings (size 3 to 8) (size 9 to 14) (size 15 to 20)
#    0.000    2.000    0.000    3.750    0.000    7.500 
#    0.000    1.250    0.000    0.750    0.000    1.750 
#    0.000    0.000    0.000    0.000    0.000    0.000 
#
# Total GULP energy -793757.638405 kJ/mol
# GULP energy per Si atom -12402.463100 kJ/mol
# Density = 1.769215 g / cm^3
# Si number density = 17.732510 Si / 1000 Ang^3
#
#
#
# Elastic Constant Matrix: (Units=GPa)
#
#
# Indices 1 2 3 4 5 6 
#
# 1 79.2447 33.6800 55.0392 0.0000 0.0000 0.0000
# 2 33.6800 90.4619 62.0554 0.0000 0.0000 0.0000
# 3 55.0392 62.0554 138.8571 0.0000 0.0000 0.0000
# 4 0.0000 0.0000 0.0000 34.8795 0.0000 0.0000
# 5 0.0000 0.0000 0.0000 0.0000 32.9879 0.0000
# 6 0.0000 0.0000 0.0000 0.0000 0.0000 15.8506
#
#
#
# Elastic Compliance Matrix: (Units=1/GPa)
#
#
# Indices 1 2 3 4 5 6 
#
# 1 0.017821 -0.002580 -0.005911 0.000000 0.000000 0.000000
# 2 -0.002580 0.016315 -0.006268 0.000000 0.000000 0.000000
# 3 -0.005911 -0.006268 0.012346 0.000000 0.000000 0.000000
# 4 0.000000 0.000000 0.000000 0.028670 0.000000 0.000000
# 5 0.000000 0.000000 0.000000 0.000000 0.030314 0.000000
# 6 0.000000 0.000000 0.000000 0.000000 0.000000 0.063089
#
#
# Mechanical properties :
#
#
# Convention : Reuss Voigt Hill
#
# Bulk Modulus (GPa) = 58.95146 67.79033 63.37089
# Shear Modulus (GPa) = 24.54246 27.26288 25.90267
#
# Velocity S-wave (km/s) = 3.72430 3.92529 3.82612
# Velocity P-wave (km/s) = 7.19798 7.67178 7.43865
#
# Compressibility (1/GPa) = 0.01696311
#
# Stress axis : x y z
#
# Youngs Moduli (GPa) = 56.11346 61.29269 80.99904
#
# Poissons Ratio (x) = 0.15816 0.47875
# Poissons Ratio (y) = 0.14480 0.50774
# Poissons Ratio (z) = 0.33166 0.38421
#
# Static dielectric constant tensor:
#      x y z
#    x 3.234070 0.000000 0.000000 
#    y 0.000000 3.359060 0.000000 
#    z 0.000000 0.000000 3.573570 
# 
# 
# High freq. dielectric constant tensor:
#      x y z
#    x 1.674150 0.000000 0.000000 
#    y 0.000000 1.674930 0.000000 
#    z 0.000000 0.000000 1.709440 
# 
# From -- ./inp_files/10271.got.cif
#   From: 2010.03.12/outbox.cif.g09.slc.cpg/sg57_6_cif.got.tgz:10271.got - 2010.04.16 15:48:40.
