data_PCOD8232776
_publ_section_title
;
Structure prediction by ZEFSAII (Michael W. Deem and Ramdas Pophale) SiO2 
 PCOD8232776
Probable space group: P B C M
;
_chemical_formula_sum "Si O2"
_cell_formula_units_Z 40
_cell_length_a 12.471033
_cell_length_b 18.313213
_cell_length_c 9.107787
_cell_angle_alpha 90.000000
_cell_angle_beta 90.000000
_cell_angle_gamma 90.000000
_cell_volume 2080.079053
_symmetry_space_group_name_H-M "P B C M"
_symmetry_group_IT_number 57
_symmetry_cell_setting 'orthorhombic'
loop_
_space_group_symop_operation_xyz
x,y,z
-x,-y,1/2+z
x,1/2-y,-z
-x,1/2+y,1/2-z
-x,-y,-z
x,y,1/2-z
-x,1/2+y,z
x,1/2-y,1/2+z
loop_
_atom_site_type_symbol
_atom_site_label
_atom_site_fract_x
_atom_site_fract_y
_atom_site_fract_z
Si Si1 0.194675 0.422166 0.920481
Si Si2 0.603605 0.178367 0.918656
Si Si3 0.193315 0.910782 0.419902
Si Si4 0.010494 0.674421 0.421690
Si Si5 0.361177 0.324751 0.423396
O O1 0.226583 0.415439 0.750000
O O2 0.177924 0.505787 0.967414
O O3 0.085232 0.380893 0.956761
O O4 0.290268 0.390917 0.018152
O O5 0.602153 0.200257 0.750000
O O6 0.683082 0.111094 0.949913
O O7 0.483603 0.156921 0.968937
O O8 0.646537 0.250000 0.000000
O O9 0.162293 0.899040 0.250000
O O10 0.119611 0.859416 0.517974
O O11 0.983203 0.750000 0.500000
O O12 0.024082 0.689102 0.250000
O O13 0.322886 0.250000 0.500000
O O14 0.345479 0.316354 0.250000
#
# Coordination Sequence:
#
# PCOD8232776 Si02
#       5
#     8   8   8   8   8
#     4  10  22  38  56  81 113 146 179 222 274 324
#     4   9  19  35  55  80 109 142 181 225 270 318
#     4  10  21  38  58  81 112 145 179 223 274 325
#     4  11  23  38  57  81 108 141 183 226 271 323
#     4  10  20  35  56  81 109 143 184 226 268 319
#
# _framework density 19.230038
#
# number of rings (size 3 to 8) (size 9 to 14) (size 15 to 20)
#    0.000    2.000    0.000    3.000    0.000    8.000 
#    0.000    0.000    0.000    0.000    0.000    0.000 
#    0.000    0.000    0.000    0.000    0.000    0.000 
#
# Total GULP energy -496193.534923 kJ/mol
# GULP energy per Si atom -12404.838373 kJ/mol
# Density = 1.918627 g / cm^3
# Si number density = 19.230038 Si / 1000 Ang^3
#
#
#
# Elastic Constant Matrix: (Units=GPa)
#
#
# Indices 1 2 3 4 5 6 
#
# 1 79.7567 29.0234 36.5501 0.0000 0.0000 0.0000
# 2 29.0234 89.4726 36.5074 0.0000 0.0000 0.0000
# 3 36.5501 36.5074 69.7664 0.0000 0.0000 0.0000
# 4 0.0000 0.0000 0.0000 31.7235 0.0000 0.0000
# 5 0.0000 0.0000 0.0000 0.0000 20.5334 0.0000
# 6 0.0000 0.0000 0.0000 0.0000 0.0000 30.2088
#
#
#
# Elastic Compliance Matrix: (Units=1/GPa)
#
#
# Indices 1 2 3 4 5 6 
#
# 1 0.016887 -0.002375 -0.007604 0.000000 0.000000 0.000000
# 2 -0.002375 0.014545 -0.006367 0.000000 0.000000 0.000000
# 3 -0.007604 -0.006367 0.021649 0.000000 0.000000 0.000000
# 4 0.000000 0.000000 0.000000 0.031522 0.000000 0.000000
# 5 0.000000 0.000000 0.000000 0.000000 0.048701 0.000000
# 6 0.000000 0.000000 0.000000 0.000000 0.000000 0.033103
#
#
# Mechanical properties :
#
#
# Convention : Reuss Voigt Hill
#
# Bulk Modulus (GPa) = 49.04650 49.23972 49.14311
# Shear Modulus (GPa) = 24.28413 25.62082 24.95247
#
# Velocity S-wave (km/s) = 3.55748 3.65407 3.60610
# Velocity P-wave (km/s) = 6.51419 6.59274 6.55358
#
# Compressibility (1/GPa) = 0.02038881
#
# Stress axis : x y z
#
# Youngs Moduli (GPa) = 59.21636 68.75273 46.19172
#
# Poissons Ratio (x) = 0.16330 0.35125
# Poissons Ratio (y) = 0.14065 0.29409
# Poissons Ratio (z) = 0.45029 0.43773
#
# Static dielectric constant tensor:
#      x y z
#    x 3.618690 0.000000 0.000000 
#    y 0.000000 3.562120 0.000000 
#    z 0.000000 0.000000 3.554080 
# 
# 
# High freq. dielectric constant tensor:
#      x y z
#    x 1.757740 0.000000 0.000000 
#    y 0.000000 1.749260 0.000000 
#    z 0.000000 0.000000 1.749590 
# 
# From -- ./inp_files/2633.got.cif
#   From: 2010.03.12/outbox.cif.g09.slc.cpg/sg57_2_cif.got.tgz:2633.got - 2010.04.16 15:48:40.
