data_PCOD8232715
_publ_section_title
;
Structure prediction by ZEFSAII (Michael W. Deem and Ramdas Pophale) SiO2 
 PCOD8232715
Probable space group: P B C M
;
_chemical_formula_sum "Si O2"
_cell_formula_units_Z 40
_cell_length_a 25.291811
_cell_length_b 9.695806
_cell_length_c 8.672401
_cell_angle_alpha 90.000000
_cell_angle_beta 90.000000
_cell_angle_gamma 90.000000
_cell_volume 2126.685137
_symmetry_space_group_name_H-M "P B C M"
_symmetry_group_IT_number 57
_symmetry_cell_setting 'orthorhombic'
loop_
_space_group_symop_operation_xyz
x,y,z
-x,-y,1/2+z
x,1/2-y,-z
-x,1/2+y,1/2-z
-x,-y,-z
x,y,1/2-z
-x,1/2+y,z
x,1/2-y,1/2+z
loop_
_atom_site_type_symbol
_atom_site_label
_atom_site_fract_x
_atom_site_fract_y
_atom_site_fract_z
Si Si1 0.958872 0.395384 0.568418
Si Si2 0.543334 0.399148 0.066377
Si Si3 0.839495 0.396541 0.931878
Si Si4 0.250343 0.098513 0.931422
Si Si5 0.344655 0.602119 0.067001
O O1 0.975180 0.250000 0.500000
O O2 0.964290 0.390927 0.750000
O O3 0.899196 0.434826 0.517725
O O4 0.000000 0.500000 0.500000
O O5 0.541896 0.397028 0.250000
O O6 0.529992 0.250000 0.000000
O O7 0.500000 0.500000 0.000000
O O8 0.600699 0.448057 0.008370
O O9 0.834251 0.382385 0.750000
O O10 0.801208 0.517090 0.994594
O O11 0.821744 0.250000 0.000000
O O12 0.246867 0.113854 0.750000
O O13 0.301766 0.011883 0.980219
O O14 0.253036 0.250000 0.000000
O O15 0.351358 0.616087 0.250000
O O16 0.327015 0.750000 0.000000
#
# Coordination Sequence:
#
# PCOD8232715 Si02
#       5
#     8   8   8   8   8
#     4  10  20  35  55  79 109 142 181 224 271 323
#     4  11  22  38  59  84 113 146 184 225 270 321
#     4   9  19  36  56  79 105 139 180 221 264 319
#     4  10  22  37  54  79 110 140 176 220 268 319
#     4  10  20  36  57  81 108 141 181 222 265 320
#
# _framework density 18.808613000000001
#
# number of rings (size 3 to 8) (size 9 to 14) (size 15 to 20)
#    0.000    2.000    0.000    4.800    0.000    4.800 
#    0.000    4.000    0.000    0.000    0.000    0.000 
#    0.000    0.000    0.000    0.000    0.000    0.000 
#
# Total GULP energy -496045.303987 kJ/mol
# GULP energy per Si atom -12401.132600 kJ/mol
# Density = 1.876580 g / cm^3
# Si number density = 18.808613 Si / 1000 Ang^3
#
#
#
# Elastic Constant Matrix: (Units=GPa)
#
#
# Indices 1 2 3 4 5 6 
#
# 1 158.4342 125.0522 57.2965 0.0000 0.0000 0.0000
# 2 125.0522 169.1747 56.4832 0.0000 0.0000 0.0000
# 3 57.2965 56.4832 85.9050 0.0000 0.0000 0.0000
# 4 0.0000 0.0000 0.0000 38.1641 0.0000 0.0000
# 5 0.0000 0.0000 0.0000 0.0000 28.8886 0.0000
# 6 0.0000 0.0000 0.0000 0.0000 0.0000 42.9592
#
#
#
# Elastic Compliance Matrix: (Units=1/GPa)
#
#
# Indices 1 2 3 4 5 6 
#
# 1 0.016027 -0.010607 -0.003716 0.000000 0.000000 0.000000
# 2 -0.010607 0.014593 -0.002521 0.000000 0.000000 0.000000
# 3 -0.003716 -0.002521 0.015777 0.000000 0.000000 0.000000
# 4 0.000000 0.000000 0.000000 0.026203 0.000000 0.000000
# 5 0.000000 0.000000 0.000000 0.000000 0.034616 0.000000
# 6 0.000000 0.000000 0.000000 0.000000 0.000000 0.023278
#
#
# Mechanical properties :
#
#
# Convention : Reuss Voigt Hill
#
# Bulk Modulus (GPa) = 78.67510 99.01976 88.84743
# Shear Modulus (GPa) = 29.68829 33.64784 31.66806
#
# Velocity S-wave (km/s) = 3.97727 4.23420 4.10774
# Velocity P-wave (km/s) = 7.93799 8.75585 8.35693
#
# Compressibility (1/GPa) = 0.01271050
#
# Stress axis : x y z
#
# Youngs Moduli (GPa) = 62.39279 68.52615 63.38534
#
# Poissons Ratio (x) = 0.72684 0.23554
# Poissons Ratio (y) = 0.66178 0.15977
# Poissons Ratio (z) = 0.23185 0.17273
#
# Static dielectric constant tensor:
#      x y z
#    x 3.785520 0.000000 0.000000 
#    y 0.000000 3.665860 0.000000 
#    z 0.000000 0.000000 3.517260 
# 
# 
# High freq. dielectric constant tensor:
#      x y z
#    x 1.744660 0.000000 0.000000 
#    y 0.000000 1.730200 0.000000 
#    z 0.000000 0.000000 1.737720 
# 
# From -- ./inp_files/8915.got.cif
#   From: 2010.03.12/outbox.cif.g09.slc.cpg/sg57_5_cif.got.tgz:8915.got - 2010.04.16 15:48:40.
