data_PCOD8232589
_publ_section_title
;
Structure prediction by ZEFSAII (Michael W. Deem and Ramdas Pophale) SiO2 
 PCOD8232589
Probable space group: P B C M
;
_chemical_formula_sum "Si O2"
_cell_formula_units_Z 60
_cell_length_a 26.638935
_cell_length_b 11.069104
_cell_length_c 8.938761
_cell_angle_alpha 90.000000
_cell_angle_beta 90.000000
_cell_angle_gamma 90.000000
_cell_volume 2635.764786
_symmetry_space_group_name_H-M "P B C M"
_symmetry_group_IT_number 57
_symmetry_cell_setting 'orthorhombic'
loop_
_space_group_symop_operation_xyz
x,y,z
-x,-y,1/2+z
x,1/2-y,-z
-x,1/2+y,1/2-z
-x,-y,-z
x,y,1/2-z
-x,1/2+y,z
x,1/2-y,1/2+z
loop_
_atom_site_type_symbol
_atom_site_label
_atom_site_fract_x
_atom_site_fract_y
_atom_site_fract_z
Si Si1 0.570924 0.897376 0.582832
Si Si2 0.532195 0.352964 0.415133
Si Si3 0.108174 0.750000 0.500000
Si Si4 0.328738 0.371976 0.427530
Si Si5 0.801762 0.399774 0.589385
Si Si6 0.862097 0.871414 0.078890
Si Si7 0.294922 0.872567 0.073671
Si Si8 0.947695 0.484088 0.081147
O O1 0.580376 0.843644 0.750000
O O2 0.515972 0.867543 0.522341
O O3 0.612103 0.855558 0.463888
O O4 0.572394 0.041427 0.593333
O O5 0.564023 0.250000 0.500000
O O6 0.513219 0.317964 0.250000
O O7 0.146041 0.674068 0.395357
O O8 0.072289 0.654360 0.583045
O O9 0.302961 0.250000 0.500000
O O10 0.319239 0.373805 0.250000
O O11 0.311210 0.499466 0.499386
O O12 0.773648 0.384972 0.750000
O O13 0.814693 0.539936 0.564502
O O14 0.765301 0.359950 0.454432
O O15 0.876794 0.846899 0.250000
O O16 0.844246 0.750000 0.000000
O O17 0.910113 0.924621 0.996852
O O18 0.306737 0.876249 0.250000
O O19 0.319352 0.750000 0.000000
O O20 0.954847 0.527013 0.250000
O O21 0.000000 0.500000 0.000000
#
# Coordination Sequence:
#
# PCOD8232589 Si02
#       8
#     8   8   4   8   8   8   8   8
#     4  10  21  38  59  86 123 167 218 271 329 400
#     4  10  20  34  56  86 121 164 215 272 331 392
#     4  10  22  40  68  94 126 164 218 262 320 378
#     4  12  26  46  70  97 134 178 226 278 341 413
#     4  10  21  40  67  97 126 161 210 264 320 382
#     4  10  22  40  62  90 126 164 206 253 307 368
#     4  12  26  45  71 102 136 173 218 274 337 402
#     4  11  24  40  61  89 124 167 211 257 309 367
#
# _framework density 22.763791999999999
#
# number of rings (size 3 to 8) (size 9 to 14) (size 15 to 20)
#    0.000    1.333    0.667    4.800    0.933    6.933 
#    0.000    2.667    0.000    0.000    0.000    0.000 
#    0.000    0.000    0.000    0.000    0.000    0.000 
#
# Total GULP energy -743381.949968 kJ/mol
# GULP energy per Si atom -12389.699166 kJ/mol
# Density = 2.271198 g / cm^3
# Si number density = 22.763792 Si / 1000 Ang^3
#
#
#
# Elastic Constant Matrix: (Units=GPa)
#
#
# Indices 1 2 3 4 5 6 
#
# 1 46.8918 14.9382 17.5259 0.0000 0.0000 0.0000
# 2 14.9382 171.8117 69.1173 0.0000 0.0000 0.0000
# 3 17.5259 69.1173 188.8013 0.0000 0.0000 0.0000
# 4 0.0000 0.0000 0.0000 36.9243 0.0000 0.0000
# 5 0.0000 0.0000 0.0000 0.0000 32.3766 0.0000
# 6 0.0000 0.0000 0.0000 0.0000 0.0000 289.8863
#
#
#
# Elastic Compliance Matrix: (Units=1/GPa)
#
#
# Indices 1 2 3 4 5 6 
#
# 1 0.022337 -0.001299 -0.001598 0.000000 0.000000 0.000000
# 2 -0.001299 0.006901 -0.002406 0.000000 0.000000 0.000000
# 3 -0.001598 -0.002406 0.006326 0.000000 0.000000 0.000000
# 4 0.000000 0.000000 0.000000 0.027082 0.000000 0.000000
# 5 0.000000 0.000000 0.000000 0.000000 0.030887 0.000000
# 6 0.000000 0.000000 0.000000 0.000000 0.000000 0.003450
#
#
# Mechanical properties :
#
#
# Convention : Reuss Voigt Hill
#
# Bulk Modulus (GPa) = 40.06772 67.85196 53.95984
# Shear Modulus (GPa) = 43.13799 92.23233 67.68516
#
# Velocity S-wave (km/s) = 4.35791 6.37221 5.45878
# Velocity P-wave (km/s) = 6.55451 9.16579 7.96785
#
# Compressibility (1/GPa) = 0.02495775
#
# Stress axis : x y z
#
# Youngs Moduli (GPa) = 44.76915 144.90438 158.08743
#
# Poissons Ratio (x) = 0.18827 0.25259
# Poissons Ratio (y) = 0.05817 0.38032
# Poissons Ratio (z) = 0.07153 0.34861
#
# Static dielectric constant tensor:
#      x y z
#    x 2.412840 0.000000 0.000000 
#    y 0.000000 5.094440 0.000000 
#    z 0.000000 0.000000 4.118140 
# 
# 
# High freq. dielectric constant tensor:
#      x y z
#    x 1.874150 0.000000 0.000000 
#    y 0.000000 1.929820 0.000000 
#    z 0.000000 0.000000 1.905180 
# 
# From -- ./inp_files/9765.got.cif
#   From: 2010.03.12/outbox.cif.g09.slc.cpg/sg57_5_cif.got.tgz:9765.got - 2010.04.16 15:48:40.
