data_PCOD8232323
_publ_section_title
;
Structure prediction by ZEFSAII (Michael W. Deem and Ramdas Pophale) SiO2 
 PCOD8232323
Probable space group: P B C M
;
_chemical_formula_sum "Si O2"
_cell_formula_units_Z 64
_cell_length_a 12.650374
_cell_length_b 28.455953
_cell_length_c 9.063018
_cell_angle_alpha 90.000000
_cell_angle_beta 90.000000
_cell_angle_gamma 90.000000
_cell_volume 3262.491154
_symmetry_space_group_name_H-M "P B C M"
_symmetry_group_IT_number 57
_symmetry_cell_setting 'orthorhombic'
loop_
_space_group_symop_operation_xyz
x,y,z
-x,-y,1/2+z
x,1/2-y,-z
-x,1/2+y,1/2-z
-x,-y,-z
x,y,1/2-z
-x,1/2+y,z
x,1/2-y,1/2+z
loop_
_atom_site_type_symbol
_atom_site_label
_atom_site_fract_x
_atom_site_fract_y
_atom_site_fract_z
Si Si1 0.294530 0.395137 0.579120
Si Si2 0.985981 0.299875 0.924646
Si Si3 0.317791 0.893415 0.082602
Si Si4 0.880804 0.549510 0.577422
Si Si5 0.214830 0.799577 0.077055
Si Si6 0.118878 0.544802 0.580926
Si Si7 0.497452 0.949374 0.924661
Si Si8 0.220722 0.297192 0.580927
O O1 0.274427 0.406067 0.750000
O O2 0.192472 0.410937 0.490660
O O3 0.399331 0.420861 0.522576
O O4 0.304792 0.338831 0.552257
O O5 0.967898 0.298892 0.750000
O O6 0.104180 0.316776 0.966709
O O7 0.970138 0.250000 0.000000
O O8 0.887740 0.326247 0.003199
O O9 0.354780 0.904117 0.250000
O O10 0.310651 0.837142 0.055500
O O11 0.200805 0.913613 0.055330
O O12 0.397652 0.918389 0.971512
O O13 0.863055 0.549287 0.750000
O O14 0.844671 0.499164 0.516370
O O15 0.001654 0.561513 0.532494
O O16 0.193398 0.790805 0.250000
O O17 0.246267 0.750000 0.000000
O O18 0.116211 0.527765 0.750000
O O19 0.494963 0.956440 0.750000
O O20 0.500000 0.000000 0.000000
O O21 0.257038 0.250000 0.500000
O O22 0.214898 0.282353 0.750000
#
# Coordination Sequence:
#
# PCOD8232323 Si02
#       8
#     8   8   8   8   8   8   8   8
#     4  10  22  39  57  80 113 150 184 226 286 339
#     4   9  16  28  48  75 107 145 184 223 265 319
#     4  10  22  39  59  82 111 149 191 234 284 337
#     4  10  20  33  54  84 112 143 184 227 275 339
#     4  10  20  34  54  80 114 152 189 231 278 331
#     4   9  19  36  54  77 113 149 178 223 287 341
#     4  11  24  42  64  86 112 146 188 240 289 341
#     4   9  19  35  54  79 112 149 188 227 275 330
#
# _framework density 19.616911000000002
#
# number of rings (size 3 to 8) (size 9 to 14) (size 15 to 20)
#    0.000    2.250    0.000    3.000    1.750    7.000 
#    0.000    0.625    0.000    3.000    0.000    0.000 
#    0.000    0.000    0.000    0.000    0.000    0.000 
#
# Total GULP energy -793229.014411 kJ/mol
# GULP energy per Si atom -12394.203350 kJ/mol
# Density = 1.957226 g / cm^3
# Si number density = 19.616911 Si / 1000 Ang^3
#
#
#
# Elastic Constant Matrix: (Units=GPa)
#
#
# Indices 1 2 3 4 5 6 
#
# 1 81.7698 57.0166 40.1799 0.0000 0.0000 0.0000
# 2 57.0166 114.3797 48.7263 0.0000 0.0000 0.0000
# 3 40.1799 48.7263 78.7643 0.0000 0.0000 0.0000
# 4 0.0000 0.0000 0.0000 28.8598 0.0000 0.0000
# 5 0.0000 0.0000 0.0000 0.0000 27.6455 0.0000
# 6 0.0000 0.0000 0.0000 0.0000 0.0000 32.9556
#
#
#
# Elastic Compliance Matrix: (Units=1/GPa)
#
#
# Indices 1 2 3 4 5 6 
#
# 1 0.020410 -0.007792 -0.005591 0.000000 0.000000 0.000000
# 2 -0.007792 0.014846 -0.005209 0.000000 0.000000 0.000000
# 3 -0.005591 -0.005209 0.018771 0.000000 0.000000 0.000000
# 4 0.000000 0.000000 0.000000 0.034650 0.000000 0.000000
# 5 0.000000 0.000000 0.000000 0.000000 0.036172 0.000000
# 6 0.000000 0.000000 0.000000 0.000000 0.000000 0.030344
#
#
# Mechanical properties :
#
#
# Convention : Reuss Voigt Hill
#
# Bulk Modulus (GPa) = 59.37613 62.97330 61.17471
# Shear Modulus (GPa) = 25.25324 26.49157 25.87240
#
# Velocity S-wave (km/s) = 3.59182 3.67883 3.63558
# Velocity P-wave (km/s) = 6.89457 7.08634 6.99111
#
# Compressibility (1/GPa) = 0.01684178
#
# Stress axis : x y z
#
# Youngs Moduli (GPa) = 48.99472 67.35630 53.27333
#
# Poissons Ratio (x) = 0.52486 0.29787
# Poissons Ratio (y) = 0.38178 0.27752
# Poissons Ratio (z) = 0.27394 0.35089
#
# Static dielectric constant tensor:
#      x y z
#    x 3.725890 0.000000 0.000000 
#    y 0.000000 3.515620 0.000000 
#    z 0.000000 0.000000 3.601590 
# 
# 
# High freq. dielectric constant tensor:
#      x y z
#    x 1.749720 0.000000 0.000000 
#    y 0.000000 1.763970 0.000000 
#    z 0.000000 0.000000 1.766380 
# 
# From -- ./inp_files/3880.got.cif
#   From: 2010.03.12/outbox.cif.g09.slc.cpg/sg57_2_cif.got.tgz:3880.got - 2010.04.16 15:48:40.
