data_PCOD8232498
_publ_section_title
;
Structure prediction by ZEFSAII (Michael W. Deem and Ramdas Pophale) SiO2 
 PCOD8232498
Probable space group: P B C M
;
_chemical_formula_sum "Si O2"
_cell_formula_units_Z 48
_cell_length_a 30.625300
_cell_length_b 9.568928
_cell_length_c 8.733512
_cell_angle_alpha 90.000000
_cell_angle_beta 90.000000
_cell_angle_gamma 90.000000
_cell_volume 2559.366964
_symmetry_space_group_name_H-M "P B C M"
_symmetry_group_IT_number 57
_symmetry_cell_setting 'orthorhombic'
loop_
_space_group_symop_operation_xyz
x,y,z
-x,-y,1/2+z
x,1/2-y,-z
-x,1/2+y,1/2-z
-x,-y,-z
x,y,1/2-z
-x,1/2+y,z
x,1/2-y,1/2+z
loop_
_atom_site_type_symbol
_atom_site_label
_atom_site_fract_x
_atom_site_fract_y
_atom_site_fract_z
Si Si1 0.280352 0.098677 0.072311
Si Si2 0.375995 0.400762 0.927852
Si Si3 0.787973 0.394416 0.569670
Si Si4 0.037420 0.404003 0.068855
Si Si5 0.537540 0.594734 0.931627
Si Si6 0.886396 0.394557 0.929499
O O1 0.268312 0.109517 0.250000
O O2 0.328461 0.026098 0.051373
O O3 0.280470 0.250000 0.000000
O O4 0.243589 0.014273 0.985973
O O5 0.388697 0.388557 0.750000
O O6 0.370847 0.250000 0.000000
O O7 0.416003 0.475508 0.017273
O O8 0.771022 0.250000 0.500000
O O9 0.785894 0.383593 0.750000
O O10 0.837282 0.426616 0.512463
O O11 0.031367 0.394244 0.250000
O O12 0.083379 0.475360 0.022321
O O13 0.035642 0.250000 0.000000
O O14 0.000000 0.500000 0.000000
O O15 0.533781 0.599736 0.750000
O O16 0.533711 0.750000 0.000000
O O17 0.500000 0.500000 0.000000
O O18 0.887431 0.372009 0.750000
O O19 0.904356 0.250000 0.000000
#
# Coordination Sequence:
#
# PCOD8232498 Si02
#       6
#     8   8   8   8   8   8
#     4  10  20  34  54  80 108 139 177 221 265 313
#     4   9  17  31  51  75 103 136 175 216 262 315
#     4  10  20  36  56  79 109 144 180 219 267 320
#     4  11  23  39  58  83 113 145 182 223 270 320
#     4  11  21  35  55  79 107 139 176 218 266 318
#     4   9  20  37  57  80 107 141 180 221 266 318
#
# _framework density 18.754638
#
# number of rings (size 3 to 8) (size 9 to 14) (size 15 to 20)
#    0.000    2.000    0.000    5.000    0.000    6.000 
#    0.000    2.500    0.000    4.000    0.000    0.000 
#    0.000    0.000    0.000    0.000    0.000    0.000 
#
# Total GULP energy -595014.183125 kJ/mol
# GULP energy per Si atom -12396.128815 kJ/mol
# Density = 1.871195 g / cm^3
# Si number density = 18.754638 Si / 1000 Ang^3
#
#
#
# Elastic Constant Matrix: (Units=GPa)
#
#
# Indices 1 2 3 4 5 6 
#
# 1 130.6141 71.2614 54.1882 0.0000 0.0000 0.0000
# 2 71.2614 104.9022 43.3844 0.0000 0.0000 0.0000
# 3 54.1882 43.3844 110.3406 0.0000 0.0000 0.0000
# 4 0.0000 0.0000 0.0000 34.3664 0.0000 0.0000
# 5 0.0000 0.0000 0.0000 0.0000 32.0076 0.0000
# 6 0.0000 0.0000 0.0000 0.0000 0.0000 35.3295
#
#
#
# Elastic Compliance Matrix: (Units=1/GPa)
#
#
# Indices 1 2 3 4 5 6 
#
# 1 0.013229 -0.007523 -0.003539 0.000000 0.000000 0.000000
# 2 -0.007523 0.015662 -0.002464 0.000000 0.000000 0.000000
# 3 -0.003539 -0.002464 0.011769 0.000000 0.000000 0.000000
# 4 0.000000 0.000000 0.000000 0.029098 0.000000 0.000000
# 5 0.000000 0.000000 0.000000 0.000000 0.031243 0.000000
# 6 0.000000 0.000000 0.000000 0.000000 0.000000 0.028305
#
#
# Mechanical properties :
#
#
# Convention : Reuss Voigt Hill
#
# Bulk Modulus (GPa) = 73.47737 75.94720 74.71229
# Shear Modulus (GPa) = 31.07667 32.14225 31.60946
#
# Velocity S-wave (km/s) = 4.07506 4.14433 4.10984
# Velocity P-wave (km/s) = 7.83612 7.96767 7.90217
#
# Compressibility (1/GPa) = 0.01360963
#
# Stress axis : x y z
#
# Youngs Moduli (GPa) = 75.59354 63.84902 84.96661
#
# Poissons Ratio (x) = 0.48033 0.30067
# Poissons Ratio (y) = 0.56868 0.20932
# Poissons Ratio (z) = 0.26750 0.15730
#
# Static dielectric constant tensor:
#      x y z
#    x 4.207160 0.000000 0.000000 
#    y 0.000000 3.173550 0.000000 
#    z 0.000000 0.000000 3.598170 
# 
# 
# High freq. dielectric constant tensor:
#      x y z
#    x 1.749050 0.000000 0.000000 
#    y 0.000000 1.700890 0.000000 
#    z 0.000000 0.000000 1.744650 
# 
# From -- ./inp_files/9916.got.cif
#   From: 2010.03.12/outbox.cif.g09.slc.cpg/sg57_5_cif.got.tgz:9916.got - 2010.04.16 15:48:40.
