data_PCOD8232636
_publ_section_title
;
Structure prediction by ZEFSAII (Michael W. Deem and Ramdas Pophale) SiO2 
 PCOD8232636
Probable space group: P B C M
;
_chemical_formula_sum "Si O2"
_cell_formula_units_Z 48
_cell_length_a 11.895660
_cell_length_b 25.807213
_cell_length_c 8.667393
_cell_angle_alpha 90.000000
_cell_angle_beta 90.000000
_cell_angle_gamma 90.000000
_cell_volume 2660.836185
_symmetry_space_group_name_H-M "P B C M"
_symmetry_group_IT_number 57
_symmetry_cell_setting 'orthorhombic'
loop_
_space_group_symop_operation_xyz
x,y,z
-x,-y,1/2+z
x,1/2-y,-z
-x,1/2+y,1/2-z
-x,-y,-z
x,y,1/2-z
-x,1/2+y,z
x,1/2-y,1/2+z
loop_
_atom_site_type_symbol
_atom_site_label
_atom_site_fract_x
_atom_site_fract_y
_atom_site_fract_z
Si Si1 0.017880 0.122478 0.934180
Si Si2 0.459922 0.054626 0.932172
Si Si3 0.219320 0.072645 0.433985
Si Si4 0.836623 0.194358 0.430630
Si Si5 0.328403 0.882965 0.423642
Si Si6 0.142297 0.535337 0.923478
O O1 0.018992 0.124203 0.750000
O O2 0.951952 0.071775 0.002006
O O3 0.144388 0.120640 0.002428
O O4 0.950967 0.172665 0.992818
O O5 0.449574 0.047342 0.750000
O O6 0.546218 0.101155 0.974291
O O7 0.344220 0.075504 0.001578
O O8 0.500000 0.000000 0.000000
O O9 0.224766 0.073164 0.250000
O O10 0.159461 0.020566 0.502330
O O11 0.810621 0.250000 0.500000
O O12 0.856165 0.198202 0.250000
O O13 0.727341 0.158942 0.463637
O O14 0.324912 0.860029 0.250000
O O15 0.261991 0.936833 0.429584
O O16 0.102582 0.525701 0.750000
#
# Coordination Sequence:
#
# PCOD8232636 Si02
#       6
#     8   8   8   8   8   8
#     4  10  20  35  52  76 108 142 180 223 271 322
#     4  11  21  34  52  76 110 152 191 226 268 318
#     4  11  20  32  49  75 110 149 188 222 264 318
#     4  11  22  38  61  86 107 135 174 224 281 332
#     4   9  18  35  54  77 109 144 183 228 269 315
#     4   8  15  29  48  71 104 142 178 219 261 307
#
# _framework density 18.039442000000001
#
# number of rings (size 3 to 8) (size 9 to 14) (size 15 to 20)
#    0.000    2.000    1.667    4.500    0.000    1.333 
#    0.000    1.667    0.000    1.000    0.000    2.333 
#    0.000    0.000    0.000    0.000    0.000    0.000 
#
# Total GULP energy -594970.172009 kJ/mol
# GULP energy per Si atom -12395.211917 kJ/mol
# Density = 1.799838 g / cm^3
# Si number density = 18.039442 Si / 1000 Ang^3
#
#
#
# Elastic Constant Matrix: (Units=GPa)
#
#
# Indices 1 2 3 4 5 6 
#
# 1 110.0889 38.8627 48.7002 0.0000 0.0000 0.0000
# 2 38.8627 75.2137 36.2279 0.0000 0.0000 0.0000
# 3 48.7002 36.2279 98.8073 0.0000 0.0000 0.0000
# 4 0.0000 0.0000 0.0000 24.8190 0.0000 0.0000
# 5 0.0000 0.0000 0.0000 0.0000 31.6795 0.0000
# 6 0.0000 0.0000 0.0000 0.0000 0.0000 9.2248
#
#
#
# Elastic Compliance Matrix: (Units=1/GPa)
#
#
# Indices 1 2 3 4 5 6 
#
# 1 0.012665 -0.004296 -0.004667 0.000000 0.000000 0.000000
# 2 -0.004296 0.017604 -0.004337 0.000000 0.000000 0.000000
# 3 -0.004667 -0.004337 0.014011 0.000000 0.000000 0.000000
# 4 0.000000 0.000000 0.000000 0.040292 0.000000 0.000000
# 5 0.000000 0.000000 0.000000 0.000000 0.031566 0.000000
# 6 0.000000 0.000000 0.000000 0.000000 0.000000 0.108403
#
#
# Mechanical properties :
#
#
# Convention : Reuss Voigt Hill
#
# Bulk Modulus (GPa) = 56.56183 59.07683 57.81933
# Shear Modulus (GPa) = 19.45265 23.83262 21.64263
#
# Velocity S-wave (km/s) = 3.28737 3.63869 3.46748
# Velocity P-wave (km/s) = 6.76991 7.10445 6.93920
#
# Compressibility (1/GPa) = 0.01767977
#
# Stress axis : x y z
#
# Youngs Moduli (GPa) = 78.96013 56.80461 71.37100
#
# Poissons Ratio (x) = 0.24402 0.33309
# Poissons Ratio (y) = 0.33920 0.30956
# Poissons Ratio (z) = 0.36851 0.24638
#
# Static dielectric constant tensor:
#      x y z
#    x 3.484400 0.000000 0.000000 
#    y 0.000000 3.187430 0.000000 
#    z 0.000000 0.000000 3.248650 
# 
# 
# High freq. dielectric constant tensor:
#      x y z
#    x 1.703490 0.000000 0.000000 
#    y 0.000000 1.666800 0.000000 
#    z 0.000000 0.000000 1.696300 
# 
# From -- ./inp_files/3167.got.cif
#   From: 2010.03.12/outbox.cif.g09.slc.cpg/sg57_2_cif.got.tgz:3167.got - 2010.04.16 15:48:40.
