data_PCOD8232682
_publ_section_title
;
Structure prediction by ZEFSAII (Michael W. Deem and Ramdas Pophale) SiO2 
 PCOD8232682
Probable space group: P B C M
;
_chemical_formula_sum "Si O2"
_cell_formula_units_Z 56
_cell_length_a 20.420308
_cell_length_b 9.771453
_cell_length_c 13.869050
_cell_angle_alpha 90.000000
_cell_angle_beta 90.000000
_cell_angle_gamma 90.000000
_cell_volume 2767.375868
_symmetry_space_group_name_H-M "P B C M"
_symmetry_group_IT_number 57
_symmetry_cell_setting 'orthorhombic'
loop_
_space_group_symop_operation_xyz
x,y,z
-x,-y,1/2+z
x,1/2-y,-z
-x,1/2+y,1/2-z
-x,-y,-z
x,y,1/2-z
-x,1/2+y,z
x,1/2-y,1/2+z
loop_
_atom_site_type_symbol
_atom_site_label
_atom_site_fract_x
_atom_site_fract_y
_atom_site_fract_z
Si Si1 0.927421 0.467341 0.862398
Si Si2 0.957620 0.161401 0.637714
Si Si3 0.701427 0.538993 0.451855
Si Si4 0.475482 0.284000 0.640577
Si Si5 0.423655 0.931606 0.133716
Si Si6 0.333974 0.179058 0.640070
Si Si7 0.834722 0.095545 0.981785
O O1 0.910710 0.476518 0.750000
O O2 0.961155 0.321597 0.890065
O O3 0.858627 0.477600 0.919124
O O4 0.975745 0.587899 0.896537
O O5 0.948588 0.138956 0.750000
O O6 0.895563 0.088125 0.590666
O O7 0.648755 0.428987 0.412258
O O8 0.696943 0.675861 0.388761
O O9 0.690493 0.563195 0.566321
O O10 0.774037 0.483179 0.435577
O O11 0.494155 0.310746 0.750000
O O12 0.536619 0.201010 0.594764
O O13 0.461253 0.432012 0.593751
O O14 0.412204 0.187499 0.630235
O O15 0.418336 0.936444 0.250000
O O16 0.313773 0.141878 0.750000
O O17 0.811627 0.250000 0.000000
#
# Coordination Sequence:
#
# PCOD8232682 Si02
#       7
#     8   8   8   8   8   8   8
#     4   9  18  35  57  83 111 143 182 225 269 317
#     4   9  18  34  57  83 110 142 183 225 270 318
#     4  10  20  35  54  79 108 146 187 216 273 334
#     4   8  15  30  52  76 103 136 174 224 282 322
#     4   9  17  32  55  82 110 139 182 234 278 332
#     4   9  19  37  56  74 106 143 180 229 275 324
#     4  10  21  37  54  77 114 152 179 220 269 325
#
# _framework density 20.235776000000001
#
# number of rings (size 3 to 8) (size 9 to 14) (size 15 to 20)
#    0.000    2.857    0.000    1.714    0.000    2.286 
#    7.714    0.000    0.000    0.000    0.000    0.000 
#    0.000    0.000    0.000    0.000    0.000    0.000 
#
# Total GULP energy -694194.238316 kJ/mol
# GULP energy per Si atom -12396.325684 kJ/mol
# Density = 2.018972 g / cm^3
# Si number density = 20.235776 Si / 1000 Ang^3
#
#
#
# Elastic Constant Matrix: (Units=GPa)
#
#
# Indices 1 2 3 4 5 6 
#
# 1 119.6354 46.5402 26.6637 0.0000 0.0000 0.0000
# 2 46.5402 43.5547 18.2988 0.0000 0.0000 0.0000
# 3 26.6637 18.2988 61.3519 0.0000 0.0000 0.0000
# 4 0.0000 0.0000 0.0000 21.1172 0.0000 0.0000
# 5 0.0000 0.0000 0.0000 0.0000 27.2631 0.0000
# 6 0.0000 0.0000 0.0000 0.0000 0.0000 31.4113
#
#
#
# Elastic Compliance Matrix: (Units=1/GPa)
#
#
# Indices 1 2 3 4 5 6 
#
# 1 0.014501 -0.014687 -0.001921 0.000000 0.000000 0.000000
# 2 -0.014687 0.041125 -0.005883 0.000000 0.000000 0.000000
# 3 -0.001921 -0.005883 0.018889 0.000000 0.000000 0.000000
# 4 0.000000 0.000000 0.000000 0.047355 0.000000 0.000000
# 5 0.000000 0.000000 0.000000 0.000000 0.036680 0.000000
# 6 0.000000 0.000000 0.000000 0.000000 0.000000 0.031836
#
#
# Mechanical properties :
#
#
# Convention : Reuss Voigt Hill
#
# Bulk Modulus (GPa) = 33.86174 45.28304 39.57239
# Shear Modulus (GPa) = 20.39051 24.82760 22.60905
#
# Velocity S-wave (km/s) = 3.17779 3.50654 3.34620
# Velocity P-wave (km/s) = 5.49858 6.23063 5.87601
#
# Compressibility (1/GPa) = 0.02953186
#
# Stress axis : x y z
#
# Youngs Moduli (GPa) = 68.96282 24.31589 52.94060
#
# Poissons Ratio (x) = 0.35714 0.10172
# Poissons Ratio (y) = 1.01288 0.31145
# Poissons Ratio (z) = 0.13250 0.14305
#
# Static dielectric constant tensor:
#      x y z
#    x 3.504940 0.000000 0.000000 
#    y 0.000000 3.637280 0.000000 
#    z 0.000000 0.000000 3.767850 
# 
# 
# High freq. dielectric constant tensor:
#      x y z
#    x 1.772170 0.000000 0.000000 
#    y 0.000000 1.774300 0.000000 
#    z 0.000000 0.000000 1.798150 
# 
# From -- ./inp_files/19347.got.cif
#   From: 2010.03.12/outbox.cif.g09.slc.cpg/sg57_10_cif.got.tgz:19347.got - 2010.04.16 15:48:40.
