data_PCOD8232023
_publ_section_title
;
Structure prediction by ZEFSAII (Michael W. Deem and Ramdas Pophale) SiO2 
 PCOD8232023
Probable space group: P B C M
;
_chemical_formula_sum "Si O2"
_cell_formula_units_Z 64
_cell_length_a 9.999915
_cell_length_b 21.017151
_cell_length_c 17.003953
_cell_angle_alpha 90.000000
_cell_angle_beta 90.000000
_cell_angle_gamma 90.000000
_cell_volume 3573.716101
_symmetry_space_group_name_H-M "P B C M"
_symmetry_group_IT_number 57
_symmetry_cell_setting 'orthorhombic'
loop_
_space_group_symop_operation_xyz
x,y,z
-x,-y,1/2+z
x,1/2-y,-z
-x,1/2+y,1/2-z
-x,-y,-z
x,y,1/2-z
-x,1/2+y,z
x,1/2-y,1/2+z
loop_
_atom_site_type_symbol
_atom_site_label
_atom_site_fract_x
_atom_site_fract_y
_atom_site_fract_z
Si Si1 0.683702 0.526329 0.659290
Si Si2 0.170502 0.249587 0.408223
Si Si3 0.085213 0.047000 0.946930
Si Si4 0.665349 0.366247 0.341398
Si Si5 0.035338 0.846309 0.158984
Si Si6 0.734582 0.879840 0.937475
Si Si7 0.599522 0.843062 0.412719
Si Si8 0.607370 0.508362 0.159032
O O1 0.726431 0.518512 0.750000
O O2 0.805365 0.505427 0.602148
O O3 0.649250 0.599333 0.641868
O O4 0.551026 0.485128 0.640467
O O5 0.136739 0.250000 0.500000
O O6 0.199739 0.176092 0.383836
O O7 0.308432 0.284505 0.387713
O O8 0.046508 0.282786 0.364077
O O9 0.000570 0.088923 0.886161
O O10 0.151247 0.098330 0.003215
O O11 0.000000 0.000000 0.000000
O O12 0.624947 0.362713 0.250000
O O13 0.807954 0.333491 0.357390
O O14 0.555030 0.328087 0.392433
O O15 0.664361 0.440190 0.368787
O O16 0.009685 0.860978 0.250000
O O17 0.687320 0.937270 0.884665
O O18 0.612931 0.855538 0.993280
O O19 0.635891 0.518199 0.250000
#
# Coordination Sequence:
#
# PCOD8232023 Si02
#       8
#     8   8   8   8   8   8   8   8
#     4   9  17  32  54  79 108 141 185 231 272 327
#     4  10  19  37  55  77 110 143 186 236 275 325
#     4  11  21  32  53  84 112 148 184 229 285 338
#     4   9  19  33  52  82 113 135 178 236 279 323
#     4  11  21  35  57  83 111 150 194 234 277 337
#     4  10  20  34  54  77 112 142 186 229 269 350
#     4   9  17  31  55  79 100 140 181 231 275 313
#     4   9  18  33  52  76 109 144 178 231 289 330
#
# _framework density 17.908529000000001
#
# number of rings (size 3 to 8) (size 9 to 14) (size 15 to 20)
#    0.000    2.250    3.750    2.250    0.000    6.500 
#    0.000    2.500    2.750    0.000    0.000    0.000 
#    0.000    0.000    0.000    0.000    0.000    0.000 
#
# Total GULP energy -793254.261806 kJ/mol
# GULP energy per Si atom -12394.597841 kJ/mol
# Density = 1.786777 g / cm^3
# Si number density = 17.908529 Si / 1000 Ang^3
#
#
#
# Elastic Constant Matrix: (Units=GPa)
#
#
# Indices 1 2 3 4 5 6 
#
# 1 125.4243 50.3317 60.4986 0.0000 0.0000 0.0000
# 2 50.3317 70.8916 37.6089 0.0000 0.0000 0.0000
# 3 60.4986 37.6089 72.1850 0.0000 0.0000 0.0000
# 4 0.0000 0.0000 0.0000 25.3731 0.0000 0.0000
# 5 0.0000 0.0000 0.0000 0.0000 33.8999 0.0000
# 6 0.0000 0.0000 0.0000 0.0000 0.0000 22.7474
#
#
#
# Elastic Compliance Matrix: (Units=1/GPa)
#
#
# Indices 1 2 3 4 5 6 
#
# 1 0.014745 -0.005407 -0.009540 0.000000 0.000000 0.000000
# 2 -0.005407 0.021477 -0.006658 0.000000 0.000000 0.000000
# 3 -0.009540 -0.006658 0.025318 0.000000 0.000000 0.000000
# 4 0.000000 0.000000 0.000000 0.039412 0.000000 0.000000
# 5 0.000000 0.000000 0.000000 0.000000 0.029499 0.000000
# 6 0.000000 0.000000 0.000000 0.000000 0.000000 0.043961
#
#
# Mechanical properties :
#
#
# Convention : Reuss Voigt Hill
#
# Bulk Modulus (GPa) = 54.55915 62.81994 58.68955
# Shear Modulus (GPa) = 22.34819 24.40820 23.37820
#
# Velocity S-wave (km/s) = 3.53641 3.69580 3.61698
# Velocity P-wave (km/s) = 6.87070 7.30523 7.09129
#
# Compressibility (1/GPa) = 0.01832873
#
# Stress axis : x y z
#
# Youngs Moduli (GPa) = 67.82165 46.56113 39.49756
#
# Poissons Ratio (x) = 0.25176 0.37682
# Poissons Ratio (y) = 0.36672 0.26298
# Poissons Ratio (z) = 0.64704 0.31001
#
# Static dielectric constant tensor:
#      x y z
#    x 3.632430 0.000000 0.000000 
#    y 0.000000 3.593000 0.000000 
#    z 0.000000 0.000000 3.576290 
# 
# 
# High freq. dielectric constant tensor:
#      x y z
#    x 1.696210 0.000000 0.000000 
#    y 0.000000 1.666820 0.000000 
#    z 0.000000 0.000000 1.689600 
# 
# From -- ./inp_files/21483.got.cif
#   From: 2010.03.12/outbox.cif.g09.slc.cpg/sg57_11_cif.got.tgz:21483.got - 2010.04.16 15:48:40.
