data_PCOD8232012
_publ_section_title
;
Structure prediction by ZEFSAII (Michael W. Deem and Ramdas Pophale) SiO2 
 PCOD8232012
Probable space group: P B C M
;
_chemical_formula_sum "Si O2"
_cell_formula_units_Z 64
_cell_length_a 11.929995
_cell_length_b 14.552781
_cell_length_c 17.449727
_cell_angle_alpha 90.000000
_cell_angle_beta 90.000000
_cell_angle_gamma 90.000000
_cell_volume 3029.527453
_symmetry_space_group_name_H-M "P B C M"
_symmetry_group_IT_number 57
_symmetry_cell_setting 'orthorhombic'
loop_
_space_group_symop_operation_xyz
x,y,z
-x,-y,1/2+z
x,1/2-y,-z
-x,1/2+y,1/2-z
-x,-y,-z
x,y,1/2-z
-x,1/2+y,z
x,1/2-y,1/2+z
loop_
_atom_site_type_symbol
_atom_site_label
_atom_site_fract_x
_atom_site_fract_y
_atom_site_fract_z
Si Si1 0.699365 0.529808 0.907981
Si Si2 0.409205 0.304731 0.836870
Si Si3 0.057945 0.706399 0.661082
Si Si4 0.331905 0.022013 0.414194
Si Si5 0.900353 0.003735 0.841375
Si Si6 0.872787 0.399193 0.658985
Si Si7 0.485679 0.884329 0.160200
Si Si8 0.807933 0.692855 0.663960
O O1 0.761452 0.438701 0.879649
O O2 0.590666 0.549581 0.856629
O O3 0.784842 0.614233 0.898144
O O4 0.663868 0.518634 0.995131
O O5 0.442528 0.330087 0.750000
O O6 0.417356 0.396299 0.888199
O O7 0.487580 0.220662 0.867076
O O8 0.279964 0.274668 0.841470
O O9 0.082255 0.696605 0.750000
O O10 0.090693 0.608098 0.625418
O O11 0.126347 0.793555 0.629025
O O12 0.929013 0.733571 0.645901
O O13 0.207558 0.040951 0.382012
O O14 0.376745 0.924124 0.382532
O O15 0.884187 0.998527 0.750000
O O16 0.013511 0.951379 0.866615
O O17 0.861866 0.405268 0.750000
O O18 0.461590 0.884534 0.250000
O O19 0.804935 0.648773 0.750000
#
# Coordination Sequence:
#
# PCOD8232012 Si02
#       8
#     8   8   8   8   8   8   8   8
#     4  11  22  37  60  87 124 160 200 250 314 374
#     4   9  19  37  64  90 111 152 206 248 295 355
#     4   9  17  31  56  87 116 156 209 254 295 344
#     4  12  24  39  60  91 131 158 194 250 320 381
#     4  10  20  36  60  87 122 163 203 255 301 348
#     4  10  19  36  62  90 122 165 214 255 296 361
#     4  10  22  42  66  88 114 154 207 261 301 358
#     4   9  16  33  59  87 118 157 211 260 286 336
#
# _framework density 21.125406999999999
#
# number of rings (size 3 to 8) (size 9 to 14) (size 15 to 20)
#    0.000    2.000    1.250    4.125    0.000    4.500 
#    2.250    0.625    0.000    0.000    0.000    0.000 
#    0.000    0.000    0.000    0.000    0.000    0.000 
#
# Total GULP energy -793405.522166 kJ/mol
# GULP energy per Si atom -12396.961284 kJ/mol
# Density = 2.107732 g / cm^3
# Si number density = 21.125407 Si / 1000 Ang^3
#
#
#
# Elastic Constant Matrix: (Units=GPa)
#
#
# Indices 1 2 3 4 5 6 
#
# 1 41.3408 15.7634 17.6020 0.0000 0.0000 0.0000
# 2 15.7634 115.3259 40.8795 0.0000 0.0000 0.0000
# 3 17.6020 40.8795 68.0805 0.0000 0.0000 0.0000
# 4 0.0000 0.0000 0.0000 14.9174 0.0000 0.0000
# 5 0.0000 0.0000 0.0000 0.0000 21.0382 0.0000
# 6 0.0000 0.0000 0.0000 0.0000 0.0000 32.4511
#
#
#
# Elastic Compliance Matrix: (Units=1/GPa)
#
#
# Indices 1 2 3 4 5 6 
#
# 1 0.027403 -0.001568 -0.006143 0.000000 0.000000 0.000000
# 2 -0.001568 0.011105 -0.006263 0.000000 0.000000 0.000000
# 3 -0.006143 -0.006263 0.020038 0.000000 0.000000 0.000000
# 4 0.000000 0.000000 0.000000 0.067036 0.000000 0.000000
# 5 0.000000 0.000000 0.000000 0.000000 0.047533 0.000000
# 6 0.000000 0.000000 0.000000 0.000000 0.000000 0.030816
#
#
# Mechanical properties :
#
#
# Convention : Reuss Voigt Hill
#
# Bulk Modulus (GPa) = 32.68288 41.47078 37.07683
# Shear Modulus (GPa) = 20.65456 23.71482 22.18469
#
# Velocity S-wave (km/s) = 3.13023 3.35412 3.24411
# Velocity P-wave (km/s) = 5.34499 5.88842 5.62328
#
# Compressibility (1/GPa) = 0.03059706
#
# Stress axis : x y z
#
# Youngs Moduli (GPa) = 36.49266 90.04613 49.90635
#
# Poissons Ratio (x) = 0.14118 0.30660
# Poissons Ratio (y) = 0.05722 0.31256
# Poissons Ratio (z) = 0.22419 0.56396
#
# Static dielectric constant tensor:
#      x y z
#    x 3.757260 0.000000 0.000000 
#    y 0.000000 4.045300 0.000000 
#    z 0.000000 0.000000 3.442050 
# 
# 
# High freq. dielectric constant tensor:
#      x y z
#    x 1.821420 0.000000 0.000000 
#    y 0.000000 1.835920 0.000000 
#    z 0.000000 0.000000 1.789940 
# 
# From -- ./inp_files/22001.got.cif
#   From: 2010.03.12/outbox.cif.g09.slc.cpg/sg57_12_cif.got.tgz:22001.got - 2010.04.16 15:48:40.
