data_PCOD8232607
_publ_section_title
;
Structure prediction by ZEFSAII (Michael W. Deem and Ramdas Pophale) SiO2 
 PCOD8232607
Probable space group: P B C M
;
_chemical_formula_sum "Si O2"
_cell_formula_units_Z 48
_cell_length_a 18.207388
_cell_length_b 8.603499
_cell_length_c 14.990390
_cell_angle_alpha 90.000000
_cell_angle_beta 90.000000
_cell_angle_gamma 90.000000
_cell_volume 2348.203287
_symmetry_space_group_name_H-M "P B C M"
_symmetry_group_IT_number 57
_symmetry_cell_setting 'orthorhombic'
loop_
_space_group_symop_operation_xyz
x,y,z
-x,-y,1/2+z
x,1/2-y,-z
-x,1/2+y,1/2-z
-x,-y,-z
x,y,1/2-z
-x,1/2+y,z
x,1/2-y,1/2+z
loop_
_atom_site_type_symbol
_atom_site_label
_atom_site_fract_x
_atom_site_fract_y
_atom_site_fract_z
Si Si1 0.963841 0.660283 0.909063
Si Si2 0.152940 0.925962 0.979616
Si Si3 0.387531 0.736435 0.250000
Si Si4 0.688860 0.373548 0.923963
Si Si5 0.488089 0.444205 0.250000
Si Si6 0.440222 0.096889 0.554545
Si Si7 0.899317 0.535666 0.152547
O O1 0.909806 0.514345 0.924722
O O2 0.036262 0.588022 0.866471
O O3 0.927632 0.786653 0.843894
O O4 0.983178 0.750000 0.000000
O O5 0.227283 0.932922 0.921705
O O6 0.129001 0.750000 0.000000
O O7 0.162609 0.012631 0.076031
O O8 0.334629 0.709197 0.332974
O O9 0.459939 0.622511 0.250000
O O10 0.423222 0.910681 0.250000
O O11 0.638446 0.517910 0.945939
O O12 0.677858 0.250000 0.000000
O O13 0.460825 0.365922 0.342569
O O14 0.428804 0.250000 0.500000
O O15 0.500000 0.000000 0.500000
O O16 0.865706 0.498766 0.250000
#
# Coordination Sequence:
#
# PCOD8232607 Si02
#       7
#     8   8   4   8   4   8   8
#     4  10  20  36  61  85 119 159 200 255 314 363
#     4  10  21  40  59  80 120 165 200 246 310 366
#     4  10  20  38  60  90 118 154 192 248 300 356
#     4  10  22  40  59  84 120 158 200 243 297 367
#     4  10  20  34  58  86 118 138 194 244 286 352
#     4  11  21  35  60  87 115 156 193 244 303 352
#     4  11  21  36  59  91 118 153 206 262 304 365
#
# _framework density 20.441161000000001
#
# number of rings (size 3 to 8) (size 9 to 14) (size 15 to 20)
#    0.000    1.667    0.000    7.500    0.000    2.000 
#    9.000    0.000    3.667    0.000    0.000    0.000 
#    0.000    0.000    0.000    0.000    0.000    0.000 
#
# Total GULP energy -594851.546675 kJ/mol
# GULP energy per Si atom -12392.740556 kJ/mol
# Density = 2.039464 g / cm^3
# Si number density = 20.441161 Si / 1000 Ang^3
#
#
#
# Elastic Constant Matrix: (Units=GPa)
#
#
# Indices 1 2 3 4 5 6 
#
# 1 88.0884 14.8803 20.7721 0.0000 0.0000 0.0000
# 2 14.8803 68.7956 1.0951 0.0000 0.0000 0.0000
# 3 20.7721 1.0951 102.8841 0.0000 0.0000 0.0000
# 4 0.0000 0.0000 0.0000 13.0955 0.0000 0.0000
# 5 0.0000 0.0000 0.0000 0.0000 24.6984 0.0000
# 6 0.0000 0.0000 0.0000 0.0000 0.0000 29.1358
#
#
#
# Elastic Compliance Matrix: (Units=1/GPa)
#
#
# Indices 1 2 3 4 5 6 
#
# 1 0.012381 -0.002639 -0.002472 0.000000 0.000000 0.000000
# 2 -0.002639 0.015101 0.000372 0.000000 0.000000 0.000000
# 3 -0.002472 0.000372 0.010215 0.000000 0.000000 0.000000
# 4 0.000000 0.000000 0.000000 0.076362 0.000000 0.000000
# 5 0.000000 0.000000 0.000000 0.000000 0.040488 0.000000
# 6 0.000000 0.000000 0.000000 0.000000 0.000000 0.034322
#
#
# Mechanical properties :
#
#
# Convention : Reuss Voigt Hill
#
# Bulk Modulus (GPa) = 35.43614 37.02924 36.23269
# Shear Modulus (GPa) = 24.06721 28.25398 26.16060
#
# Velocity S-wave (km/s) = 3.43503 3.72184 3.58131
# Velocity P-wave (km/s) = 5.75377 6.05176 5.90465
#
# Compressibility (1/GPa) = 0.02821978
#
# Stress axis : x y z
#
# Youngs Moduli (GPa) = 80.77041 66.22250 97.89792
#
# Poissons Ratio (x) = 0.17473 0.24196
# Poissons Ratio (y) = 0.21312 -0.03642
# Poissons Ratio (z) = 0.19963 -0.02463
#
# Static dielectric constant tensor:
#      x y z
#    x 3.062820 0.000000 0.000000 
#    y 0.000000 1.466240 0.000000 
#    z 0.000000 0.000000 3.975120 
# 
# 
# High freq. dielectric constant tensor:
#      x y z
#    x 1.780360 0.000000 0.000000 
#    y 0.000000 1.805720 0.000000 
#    z 0.000000 0.000000 1.808730 
# 
# From -- ./inp_files/19018.got.cif
#   From: 2010.03.12/outbox.cif.g09.slc.cpg/sg57_10_cif.got.tgz:19018.got - 2010.04.16 15:48:40.
