data_PCOD8232168
_publ_section_title
;
Structure prediction by ZEFSAII (Michael W. Deem and Ramdas Pophale) SiO2 
 PCOD8232168
Probable space group: P B C M
;
_chemical_formula_sum "Si O2"
_cell_formula_units_Z 44
_cell_length_a 8.260441
_cell_length_b 9.110153
_cell_length_c 27.775551
_cell_angle_alpha 90.000000
_cell_angle_beta 90.000000
_cell_angle_gamma 90.000000
_cell_volume 2090.218020
_symmetry_space_group_name_H-M "P B C M"
_symmetry_group_IT_number 57
_symmetry_cell_setting 'orthorhombic'
loop_
_space_group_symop_operation_xyz
x,y,z
-x,-y,1/2+z
x,1/2-y,-z
-x,1/2+y,1/2-z
-x,-y,-z
x,y,1/2-z
-x,1/2+y,z
x,1/2-y,1/2+z
loop_
_atom_site_type_symbol
_atom_site_label
_atom_site_fract_x
_atom_site_fract_y
_atom_site_fract_z
Si Si1 0.921363 0.541328 0.950346
Si Si2 0.281060 0.808026 0.804371
Si Si3 0.669915 0.833117 0.598912
Si Si4 0.519274 0.572985 0.656107
Si Si5 0.319942 0.250000 0.000000
Si Si6 0.043722 0.784226 0.890540
O O1 0.778224 0.650415 0.962436
O O2 0.852053 0.397736 0.923322
O O3 0.049722 0.624199 0.915213
O O4 0.000000 0.500000 0.000000
O O5 0.215706 0.806837 0.750000
O O6 0.410231 0.676301 0.809731
O O7 0.124199 0.780235 0.837961
O O8 0.361490 0.967386 0.813769
O O9 0.622460 0.678268 0.622135
O O10 0.597318 0.844461 0.542756
O O11 0.862170 0.848827 0.607127
O O12 0.595340 0.973499 0.623916
#
# Coordination Sequence:
#
# PCOD8232168 Si02
#       6
#     8   8   8   8   4   8
#     4  11  18  34  56  91 121 159 191 244 305 364
#     4  11  23  42  65  91 119 160 208 255 311 364
#     4  10  21  40  59  88 122 161 200 252 299 368
#     4  10  23  42  62  83 126 166 197 247 320 367
#     4  10  20  32  60  84 126 154 212 236 306 362
#     4  11  22  37  63  92 119 155 209 260 291 353
#
# _framework density 21.050436000000001
#
# number of rings (size 3 to 8) (size 9 to 14) (size 15 to 20)
#    0.000    1.455    3.636    3.818    0.000    0.727 
#    0.000   11.818    0.000    0.000    0.000    0.000 
#    0.000    0.000    0.000    0.000    0.000    0.000 
#
# Total GULP energy -545078.788055 kJ/mol
# GULP energy per Si atom -12388.154274 kJ/mol
# Density = 2.100252 g / cm^3
# Si number density = 21.050436 Si / 1000 Ang^3
#
#
#
# Elastic Constant Matrix: (Units=GPa)
#
#
# Indices 1 2 3 4 5 6 
#
# 1 42.4317 12.8035 29.2751 0.0000 0.0000 0.0000
# 2 12.8035 116.7885 44.0009 0.0000 0.0000 0.0000
# 3 29.2751 44.0009 178.5530 0.0000 0.0000 0.0000
# 4 0.0000 0.0000 0.0000 21.1879 0.0000 0.0000
# 5 0.0000 0.0000 0.0000 0.0000 28.2325 0.0000
# 6 0.0000 0.0000 0.0000 0.0000 0.0000 17.2673
#
#
#
# Elastic Compliance Matrix: (Units=1/GPa)
#
#
# Indices 1 2 3 4 5 6 
#
# 1 0.026783 -0.001413 -0.004043 0.000000 0.000000 0.000000
# 2 -0.001413 0.009513 -0.002113 0.000000 0.000000 0.000000
# 3 -0.004043 -0.002113 0.006784 0.000000 0.000000 0.000000
# 4 0.000000 0.000000 0.000000 0.047197 0.000000 0.000000
# 5 0.000000 0.000000 0.000000 0.000000 0.035420 0.000000
# 6 0.000000 0.000000 0.000000 0.000000 0.000000 0.057913
#
#
# Mechanical properties :
#
#
# Convention : Reuss Voigt Hill
#
# Bulk Modulus (GPa) = 35.78705 56.65913 46.22309
# Shear Modulus (GPa) = 24.03126 30.11713 27.07419
#
# Velocity S-wave (km/s) = 3.38243 3.78658 3.59020
# Velocity P-wave (km/s) = 5.68260 6.78910 6.26035
#
# Compressibility (1/GPa) = 0.02794307
#
# Stress axis : x y z
#
# Youngs Moduli (GPa) = 37.33692 105.11522 147.40315
#
# Poissons Ratio (x) = 0.14852 0.59597
# Poissons Ratio (y) = 0.05276 0.31142
# Poissons Ratio (z) = 0.15096 0.22208
#
# Static dielectric constant tensor:
#      x y z
#    x 3.899790 0.000000 0.000000 
#    y 0.000000 4.044630 0.000000 
#    z 0.000000 0.000000 4.140220 
# 
# 
# High freq. dielectric constant tensor:
#      x y z
#    x 1.796350 0.000000 0.000000 
#    y 0.000000 1.852530 0.000000 
#    z 0.000000 0.000000 1.828660 
# 
# From -- ./inp_files/29415.got.cif
#   From: 2010.03.12/outbox.cif.g09.slc.cpg/sg57_15_cif.got.tgz:29415.got - 2010.04.16 15:48:40.
