data_PCOD8232381
_publ_section_title
;
Structure prediction by ZEFSAII (Michael W. Deem and Ramdas Pophale) SiO2 
 PCOD8232381
Probable space group: P B C M
;
_chemical_formula_sum "Si O2"
_cell_formula_units_Z 48
_cell_length_a 19.164654
_cell_length_b 14.312392
_cell_length_c 8.903403
_cell_angle_alpha 90.000000
_cell_angle_beta 90.000000
_cell_angle_gamma 90.000000
_cell_volume 2442.132577
_symmetry_space_group_name_H-M "P B C M"
_symmetry_group_IT_number 57
_symmetry_cell_setting 'orthorhombic'
loop_
_space_group_symop_operation_xyz
x,y,z
-x,-y,1/2+z
x,1/2-y,-z
-x,1/2+y,1/2-z
-x,-y,-z
x,y,1/2-z
-x,1/2+y,z
x,1/2-y,1/2+z
loop_
_atom_site_type_symbol
_atom_site_label
_atom_site_fract_x
_atom_site_fract_y
_atom_site_fract_z
Si Si1 0.747624 0.013178 0.922350
Si Si2 0.491763 0.349710 0.426825
Si Si3 0.131687 0.650507 0.573196
Si Si4 0.154142 0.152518 0.077752
Si Si5 0.021355 0.351290 0.072993
Si Si6 0.398291 0.523791 0.425671
O O1 0.727086 0.035133 0.750000
O O2 0.807887 0.082038 0.982105
O O3 0.776382 0.908682 0.937871
O O4 0.681991 0.025138 0.029221
O O5 0.474129 0.250000 0.500000
O O6 0.498449 0.335492 0.250000
O O7 0.430801 0.423179 0.469684
O O8 0.564154 0.391284 0.488545
O O9 0.144614 0.750000 0.500000
O O10 0.134645 0.664729 0.750000
O O11 0.055011 0.607771 0.530075
O O12 0.134569 0.169560 0.250000
O O13 0.172110 0.250000 0.000000
O O14 0.088056 0.096826 0.001754
O O15 0.032025 0.346958 0.250000
O O16 0.026836 0.250000 0.000000
O O17 0.406356 0.542776 0.250000
#
# Coordination Sequence:
#
# PCOD8232381 Si02
#       6
#     8   8   8   8   8   8
#     4  10  22  38  54  76 111 149 180 218 271 326
#     4  10  21  39  64  90 115 145 181 220 265 319
#     4   9  19  35  53  75 103 138 180 224 273 325
#     4  10  20  34  52  74 103 141 183 227 276 326
#     4   9  16  29  50  73  99 132 176 229 276 321
#     4  10  22  39  59  86 117 146 181 224 267 318
#
# _framework density 19.654952999999999
#
# number of rings (size 3 to 8) (size 9 to 14) (size 15 to 20)
#    0.000    2.333    0.000    3.000    0.000    6.667 
#    0.000    5.000    0.000    0.000    0.000    0.000 
#    0.000    0.000    0.000    0.000    0.000    0.000 
#
# Total GULP energy -594994.313644 kJ/mol
# GULP energy per Si atom -12395.714868 kJ/mol
# Density = 1.961022 g / cm^3
# Si number density = 19.654953 Si / 1000 Ang^3
#
#
#
# Elastic Constant Matrix: (Units=GPa)
#
#
# Indices 1 2 3 4 5 6 
#
# 1 75.9754 -12.9214 13.3161 0.0000 0.0000 0.0000
# 2 -12.9214 37.0930 6.5303 0.0000 0.0000 0.0000
# 3 13.3161 6.5303 70.7547 0.0000 0.0000 0.0000
# 4 0.0000 0.0000 0.0000 24.9653 0.0000 0.0000
# 5 0.0000 0.0000 0.0000 0.0000 51.6571 0.0000
# 6 0.0000 0.0000 0.0000 0.0000 0.0000 17.9134
#
#
#
# Elastic Compliance Matrix: (Units=1/GPa)
#
#
# Indices 1 2 3 4 5 6 
#
# 1 0.014710 0.005704 -0.003295 0.000000 0.000000 0.000000
# 2 0.005704 0.029617 -0.003807 0.000000 0.000000 0.000000
# 3 -0.003295 -0.003807 0.015105 0.000000 0.000000 0.000000
# 4 0.000000 0.000000 0.000000 0.040056 0.000000 0.000000
# 5 0.000000 0.000000 0.000000 0.000000 0.019358 0.000000
# 6 0.000000 0.000000 0.000000 0.000000 0.000000 0.055824
#
#
# Mechanical properties :
#
#
# Convention : Reuss Voigt Hill
#
# Bulk Modulus (GPa) = 17.65664 21.96369 19.81016
# Shear Modulus (GPa) = 25.46559 30.70036 28.08298
#
# Velocity S-wave (km/s) = 3.60339 3.95646 3.78405
# Velocity P-wave (km/s) = 5.12985 5.66307 5.40304
#
# Compressibility (1/GPa) = 0.05663592
#
# Stress axis : x y z
#
# Youngs Moduli (GPa) = 67.98192 33.76484 66.20412
#
# Poissons Ratio (x) = -0.19260 0.21813
# Poissons Ratio (y) = -0.38779 0.25204
# Poissons Ratio (z) = 0.22399 0.12854
#
# Static dielectric constant tensor:
#      x y z
#    x 3.830790 0.000000 0.000000 
#    y 0.000000 3.625900 0.000000 
#    z 0.000000 0.000000 3.619570 
# 
# 
# High freq. dielectric constant tensor:
#      x y z
#    x 1.770530 0.000000 0.000000 
#    y 0.000000 1.755320 0.000000 
#    z 0.000000 0.000000 1.771230 
# 
# From -- ./inp_files/6544.got.cif
#   From: 2010.03.12/outbox.cif.g09.slc.cpg/sg57_4_cif.got.tgz:6544.got - 2010.04.16 15:48:40.
