data_PCOD8232906
_publ_section_title
;
Structure prediction by ZEFSAII (Michael W. Deem and Ramdas Pophale) SiO2 
 PCOD8232906
Probable space group: P B C M
;
_chemical_formula_sum "Si O2"
_cell_formula_units_Z 56
_cell_length_a 16.882367
_cell_length_b 8.668408
_cell_length_c 18.710866
_cell_angle_alpha 90.000000
_cell_angle_beta 90.000000
_cell_angle_gamma 90.000000
_cell_volume 2738.208850
_symmetry_space_group_name_H-M "P B C M"
_symmetry_group_IT_number 57
_symmetry_cell_setting 'orthorhombic'
loop_
_space_group_symop_operation_xyz
x,y,z
-x,-y,1/2+z
x,1/2-y,-z
-x,1/2+y,1/2-z
-x,-y,-z
x,y,1/2-z
-x,1/2+y,z
x,1/2-y,1/2+z
loop_
_atom_site_type_symbol
_atom_site_label
_atom_site_fract_x
_atom_site_fract_y
_atom_site_fract_z
Si Si1 0.597859 0.363832 0.832847
Si Si2 0.036443 0.701776 0.581428
Si Si3 0.685956 0.841844 0.571560
Si Si4 0.107361 0.007602 0.617653
Si Si5 0.734709 0.921492 0.170669
Si Si6 0.435112 0.520472 0.665528
Si Si7 0.814817 0.076561 0.976286
O O1 0.608517 0.333117 0.750000
O O2 0.678296 0.443546 0.863055
O O3 0.582270 0.192888 0.864636
O O4 0.527146 0.483338 0.848179
O O5 0.016018 0.750000 0.500000
O O6 0.062878 0.846750 0.628113
O O7 0.110787 0.582680 0.579071
O O8 0.959595 0.637930 0.620938
O O9 0.659387 0.750000 0.500000
O O10 0.735259 0.728172 0.621566
O O11 0.610852 0.898255 0.616595
O O12 0.740099 0.990993 0.557119
O O13 0.155779 0.021106 0.543774
O O14 0.173995 0.024464 0.678397
O O15 0.702994 0.881261 0.250000
O O16 0.414239 0.499526 0.750000
O O17 0.790831 0.250000 0.000000
#
# Coordination Sequence:
#
# PCOD8232906 Si02
#       7
#     8   8   8   8   8   8   8
#     4   9  20  41  67  90 119 165 208 246 290 364
#     4   9  19  32  59  88 116 151 201 253 296 363
#     4  12  24  36  63  92 126 159 200 250 310 359
#     4  10  20  35  59  85 118 157 203 245 306 347
#     4  11  24  41  61  87 125 163 205 248 302 363
#     4  10  21  40  67  91 119 159 208 250 295 357
#     4   9  20  37  58  90 122 156 202 253 302 367
#
# _framework density 20.451324
#
# number of rings (size 3 to 8) (size 9 to 14) (size 15 to 20)
#    0.000    2.286    1.429    3.000    8.000    2.286 
#    0.000    3.571    0.000    0.000    0.000    0.000 
#    0.000    0.000    0.000    0.000    0.000    0.000 
#
# Total GULP energy -694096.226713 kJ/mol
# GULP energy per Si atom -12394.575477 kJ/mol
# Density = 2.040478 g / cm^3
# Si number density = 20.451324 Si / 1000 Ang^3
#
#
#
# Elastic Constant Matrix: (Units=GPa)
#
#
# Indices 1 2 3 4 5 6 
#
# 1 131.7207 59.9627 30.6406 0.0000 0.0000 0.0000
# 2 59.9627 114.3688 34.7006 0.0000 0.0000 0.0000
# 3 30.6406 34.7006 56.0060 0.0000 0.0000 0.0000
# 4 0.0000 0.0000 0.0000 22.5177 0.0000 0.0000
# 5 0.0000 0.0000 0.0000 0.0000 28.3570 0.0000
# 6 0.0000 0.0000 0.0000 0.0000 0.0000 41.6607
#
#
#
# Elastic Compliance Matrix: (Units=1/GPa)
#
#
# Indices 1 2 3 4 5 6 
#
# 1 0.010322 -0.004555 -0.002825 0.000000 0.000000 0.000000
# 2 -0.004555 0.012778 -0.005425 0.000000 0.000000 0.000000
# 3 -0.002825 -0.005425 0.022762 0.000000 0.000000 0.000000
# 4 0.000000 0.000000 0.000000 0.044410 0.000000 0.000000
# 5 0.000000 0.000000 0.000000 0.000000 0.035265 0.000000
# 6 0.000000 0.000000 0.000000 0.000000 0.000000 0.024003
#
#
# Mechanical properties :
#
#
# Convention : Reuss Voigt Hill
#
# Bulk Modulus (GPa) = 49.37731 61.41147 55.39439
# Shear Modulus (GPa) = 27.48750 30.29318 28.89034
#
# Velocity S-wave (km/s) = 3.67010 3.85285 3.76259
# Velocity P-wave (km/s) = 6.49274 7.06300 6.78387
#
# Compressibility (1/GPa) = 0.02025222
#
# Stress axis : x y z
#
# Youngs Moduli (GPa) = 96.87586 78.26154 43.93255
#
# Poissons Ratio (x) = 0.35646 0.12412
# Poissons Ratio (y) = 0.44125 0.23833
# Poissons Ratio (z) = 0.27370 0.42457
#
# Static dielectric constant tensor:
#      x y z
#    x 3.772410 0.000000 0.000000 
#    y 0.000000 3.841840 0.000000 
#    z 0.000000 0.000000 3.385060 
# 
# 
# High freq. dielectric constant tensor:
#      x y z
#    x 1.807160 0.000000 0.000000 
#    y 0.000000 1.807070 0.000000 
#    z 0.000000 0.000000 1.756970 
# 
# From -- ./inp_files/25411.got.cif
#   From: 2010.03.12/outbox.cif.g09.slc.cpg/sg57_13_cif.got.tgz:25411.got - 2010.04.16 15:48:40.
