data_PCOD8232575
_publ_section_title
;
Structure prediction by ZEFSAII (Michael W. Deem and Ramdas Pophale) SiO2 
 PCOD8232575
Probable space group: P B C M
;
_chemical_formula_sum "Si O2"
_cell_formula_units_Z 48
_cell_length_a 15.012895
_cell_length_b 9.418603
_cell_length_c 18.144718
_cell_angle_alpha 90.000000
_cell_angle_beta 90.000000
_cell_angle_gamma 90.000000
_cell_volume 2565.672159
_symmetry_space_group_name_H-M "P B C M"
_symmetry_group_IT_number 57
_symmetry_cell_setting 'orthorhombic'
loop_
_space_group_symop_operation_xyz
x,y,z
-x,-y,1/2+z
x,1/2-y,-z
-x,1/2+y,1/2-z
-x,-y,-z
x,y,1/2-z
-x,1/2+y,z
x,1/2-y,1/2+z
loop_
_atom_site_type_symbol
_atom_site_label
_atom_site_fract_x
_atom_site_fract_y
_atom_site_fract_z
Si Si1 0.088605 0.627019 0.943630
Si Si2 0.761888 0.282914 0.164202
Si Si3 0.747260 0.954290 0.164052
Si Si4 0.109542 0.389228 0.452304
Si Si5 0.591521 0.043758 0.662115
Si Si6 0.575256 0.777851 0.162685
O O1 0.145663 0.676222 0.874066
O O2 0.989380 0.577396 0.919527
O O3 0.070480 0.750000 0.000000
O O4 0.140673 0.507334 0.989108
O O5 0.778489 0.305985 0.250000
O O6 0.734741 0.120953 0.146910
O O7 0.683820 0.386085 0.135023
O O8 0.767383 0.928705 0.250000
O O9 0.827794 0.886571 0.118723
O O10 0.659146 0.871932 0.138395
O O11 0.117648 0.250000 0.500000
O O12 0.588019 0.041601 0.750000
O O13 0.582761 0.882858 0.630905
O O14 0.511895 0.142460 0.631068
O O15 0.568714 0.768982 0.250000
#
# Coordination Sequence:
#
# PCOD8232575 Si02
#       6
#     8   8   8   8   8   8
#     4  10  20  39  58  77 106 145 186 220 268 329
#     4  10  20  34  56  83 110 142 182 229 274 315
#     4  10  20  35  55  82 112 142 180 228 275 317
#     4  10  22  37  58  80 106 147 186 222 269 331
#     4   9  17  30  50  78 109 143 179 218 267 322
#     4   9  17  30  50  77 110 143 178 220 267 322
#
# _framework density 18.708548
#
# number of rings (size 3 to 8) (size 9 to 14) (size 15 to 20)
#    0.000    2.333    1.667    1.000    2.333    4.667 
#    0.000    0.000    0.000    2.000    0.000    0.000 
#    0.000    0.000    0.000    0.000    0.000    0.000 
#
# Total GULP energy -595037.331765 kJ/mol
# GULP energy per Si atom -12396.611078 kJ/mol
# Density = 1.866597 g / cm^3
# Si number density = 18.708548 Si / 1000 Ang^3
#
#
#
# Elastic Constant Matrix: (Units=GPa)
#
#
# Indices 1 2 3 4 5 6 
#
# 1 130.0446 50.8161 48.0403 0.0000 0.0000 0.0000
# 2 50.8161 126.5453 29.9971 0.0000 0.0000 0.0000
# 3 48.0403 29.9971 45.1635 0.0000 0.0000 0.0000
# 4 0.0000 0.0000 0.0000 20.6863 0.0000 0.0000
# 5 0.0000 0.0000 0.0000 0.0000 11.9790 0.0000
# 6 0.0000 0.0000 0.0000 0.0000 0.0000 35.7998
#
#
#
# Elastic Compliance Matrix: (Units=1/GPa)
#
#
# Indices 1 2 3 4 5 6 
#
# 1 0.013229 -0.002346 -0.012514 0.000000 0.000000 0.000000
# 2 -0.002346 0.009795 -0.004010 0.000000 0.000000 0.000000
# 3 -0.012514 -0.004010 0.038116 0.000000 0.000000 0.000000
# 4 0.000000 0.000000 0.000000 0.048341 0.000000 0.000000
# 5 0.000000 0.000000 0.000000 0.000000 0.083480 0.000000
# 6 0.000000 0.000000 0.000000 0.000000 0.000000 0.027933
#
#
# Mechanical properties :
#
#
# Convention : Reuss Voigt Hill
#
# Bulk Modulus (GPa) = 42.73434 62.16227 52.44830
# Shear Modulus (GPa) = 18.76641 25.21969 21.99305
#
# Velocity S-wave (km/s) = 3.17060 3.67554 3.43237
# Velocity P-wave (km/s) = 6.02456 7.16321 6.61842
#
# Compressibility (1/GPa) = 0.02340039
#
# Stress axis : x y z
#
# Youngs Moduli (GPa) = 75.59109 102.09282 26.23578
#
# Poissons Ratio (x) = 0.23952 0.32830
# Poissons Ratio (y) = 0.17734 0.10521
# Poissons Ratio (z) = 0.94591 0.40942
#
# Static dielectric constant tensor:
#      x y z
#    x 3.537600 0.000000 0.000000 
#    y 0.000000 3.686160 0.000000 
#    z 0.000000 0.000000 2.973700 
# 
# 
# High freq. dielectric constant tensor:
#      x y z
#    x 1.732060 0.000000 0.000000 
#    y 0.000000 1.746430 0.000000 
#    z 0.000000 0.000000 1.680920 
# 
# From -- ./inp_files/22438.got.cif
#   From: 2010.03.12/outbox.cif.g09.slc.cpg/sg57_12_cif.got.tgz:22438.got - 2010.04.16 15:48:40.
