data_PCOD8232804
_publ_section_title
;
Structure prediction by ZEFSAII (Michael W. Deem and Ramdas Pophale) SiO2 
 PCOD8232804
Probable space group: P B C M
;
_chemical_formula_sum "Si O2"
_cell_formula_units_Z 48
_cell_length_a 30.955525
_cell_length_b 9.403343
_cell_length_c 8.524265
_cell_angle_alpha 90.000000
_cell_angle_beta 90.000000
_cell_angle_gamma 90.000000
_cell_volume 2481.289252
_symmetry_space_group_name_H-M "P B C M"
_symmetry_group_IT_number 57
_symmetry_cell_setting 'orthorhombic'
loop_
_space_group_symop_operation_xyz
x,y,z
-x,-y,1/2+z
x,1/2-y,-z
-x,1/2+y,1/2-z
-x,-y,-z
x,y,1/2-z
-x,1/2+y,z
x,1/2-y,1/2+z
loop_
_atom_site_type_symbol
_atom_site_label
_atom_site_fract_x
_atom_site_fract_y
_atom_site_fract_z
Si Si1 0.701422 0.907160 0.567694
Si Si2 0.039262 0.908853 0.435102
Si Si3 0.796321 0.904246 0.931292
Si Si4 0.372291 0.595799 0.433326
Si Si5 0.116417 0.089870 0.565736
Si Si6 0.538298 0.406857 0.065292
O O1 0.700224 0.750000 0.500000
O O2 0.688145 0.904901 0.750000
O O3 0.749398 0.978559 0.548185
O O4 0.668325 0.997909 0.467628
O O5 0.037347 0.750000 0.500000
O O6 0.035757 0.901489 0.250000
O O7 0.083305 0.984505 0.483950
O O8 0.000000 0.000000 0.500000
O O9 0.810073 0.895451 0.750000
O O10 0.789470 0.750000 0.000000
O O11 0.835951 0.975303 0.026668
O O12 0.361723 0.750000 0.500000
O O13 0.380617 0.607784 0.250000
O O14 0.415452 0.530127 0.511581
O O15 0.111788 0.250000 0.500000
O O16 0.107875 0.091460 0.750000
O O17 0.535893 0.404584 0.250000
O O18 0.532779 0.250000 0.000000
O O19 0.500000 0.500000 0.000000
#
# Coordination Sequence:
#
# PCOD8232804 Si02
#       6
#     8   8   8   8   8   8
#     4  10  20  35  56  84 115 148 189 235 280 328
#     4  12  25  43  63  87 117 150 189 233 282 334
#     4   9  17  31  53  81 113 148 187 232 280 330
#     4  11  22  38  58  81 111 148 186 227 279 335
#     4  11  21  36  59  87 117 152 191 232 280 333
#     4  11  22  39  60  84 112 144 183 227 277 332
#
# _framework density 19.344781999999999
#
# number of rings (size 3 to 8) (size 9 to 14) (size 15 to 20)
#    0.000    1.333    0.000    9.500    0.000    2.667 
#    0.000    4.167    0.000    4.000    0.000    0.000 
#    0.000    0.000    0.000    0.000    0.000    0.000 
#
# Total GULP energy -595112.068251 kJ/mol
# GULP energy per Si atom -12398.168089 kJ/mol
# Density = 1.930075 g / cm^3
# Si number density = 19.344782 Si / 1000 Ang^3
#
#
#
# Elastic Constant Matrix: (Units=GPa)
#
#
# Indices 1 2 3 4 5 6 
#
# 1 158.0029 68.1380 52.8794 0.0000 0.0000 0.0000
# 2 68.1380 84.3442 42.9002 0.0000 0.0000 0.0000
# 3 52.8794 42.9002 171.9428 0.0000 0.0000 0.0000
# 4 0.0000 0.0000 0.0000 32.4885 0.0000 0.0000
# 5 0.0000 0.0000 0.0000 0.0000 37.2354 0.0000
# 6 0.0000 0.0000 0.0000 0.0000 0.0000 90.2580
#
#
#
# Elastic Compliance Matrix: (Units=1/GPa)
#
#
# Indices 1 2 3 4 5 6 
#
# 1 0.009926 -0.007406 -0.001205 0.000000 0.000000 0.000000
# 2 -0.007406 0.019105 -0.002489 0.000000 0.000000 0.000000
# 3 -0.001205 -0.002489 0.006807 0.000000 0.000000 0.000000
# 4 0.000000 0.000000 0.000000 0.030780 0.000000 0.000000
# 5 0.000000 0.000000 0.000000 0.000000 0.026856 0.000000
# 6 0.000000 0.000000 0.000000 0.000000 0.000000 0.011079
#
#
# Mechanical properties :
#
#
# Convention : Reuss Voigt Hill
#
# Bulk Modulus (GPa) = 73.32050 82.45833 77.88941
# Shear Modulus (GPa) = 38.08057 48.68787 43.38422
#
# Velocity S-wave (km/s) = 4.44161 5.02226 4.74084
# Velocity P-wave (km/s) = 8.01799 8.73779 8.38562
#
# Compressibility (1/GPa) = 0.01363875
#
# Stress axis : x y z
#
# Youngs Moduli (GPa) = 100.74533 52.34170 146.89730
#
# Poissons Ratio (x) = 0.38764 0.17699
# Poissons Ratio (y) = 0.74612 0.36565
# Poissons Ratio (z) = 0.12138 0.13029
#
# Static dielectric constant tensor:
#      x y z
#    x -0.414440 0.000000 0.000000 
#    y 0.000000 3.295760 0.000000 
#    z 0.000000 0.000000 3.363760 
# 
# 
# High freq. dielectric constant tensor:
#      x y z
#    x 1.778380 0.000000 0.000000 
#    y 0.000000 1.723060 0.000000 
#    z 0.000000 0.000000 1.778850 
# 
# From -- ./inp_files/10030.got.cif
#   From: 2010.03.12/outbox.cif.g09.slc.cpg/sg57_6_cif.got.tgz:10030.got - 2010.04.16 15:48:40.
