data_PCOD8232832
_publ_section_title
;
Structure prediction by ZEFSAII (Michael W. Deem and Ramdas Pophale) SiO2 
 PCOD8232832
Probable space group: P B C M
;
_chemical_formula_sum "Si O2"
_cell_formula_units_Z 56
_cell_length_a 19.371520
_cell_length_b 15.972358
_cell_length_c 8.720809
_cell_angle_alpha 90.000000
_cell_angle_beta 90.000000
_cell_angle_gamma 90.000000
_cell_volume 2698.295505
_symmetry_space_group_name_H-M "P B C M"
_symmetry_group_IT_number 57
_symmetry_cell_setting 'orthorhombic'
loop_
_space_group_symop_operation_xyz
x,y,z
-x,-y,1/2+z
x,1/2-y,-z
-x,1/2+y,1/2-z
-x,-y,-z
x,y,1/2-z
-x,1/2+y,z
x,1/2-y,1/2+z
loop_
_atom_site_type_symbol
_atom_site_label
_atom_site_fract_x
_atom_site_fract_y
_atom_site_fract_z
Si Si1 0.840906 0.835834 0.431959
Si Si2 0.290428 0.575772 0.073582
Si Si3 0.567321 0.160012 0.069767
Si Si4 0.573061 0.841688 0.431854
Si Si5 0.708859 0.906676 0.929169
Si Si6 0.154451 0.663285 0.426355
Si Si7 0.924453 0.500558 0.932177
O O1 0.873458 0.750000 0.500000
O O2 0.837988 0.830435 0.250000
O O3 0.763543 0.842797 0.498497
O O4 0.885746 0.915200 0.488586
O O5 0.285382 0.545194 0.250000
O O6 0.367445 0.602858 0.030495
O O7 0.236574 0.651323 0.046465
O O8 0.266673 0.500952 0.963203
O O9 0.555166 0.169039 0.250000
O O10 0.582471 0.250000 0.000000
O O11 0.499200 0.119736 0.992688
O O12 0.583444 0.750000 0.500000
O O13 0.571995 0.838215 0.250000
O O14 0.635063 0.898987 0.488897
O O15 0.702294 0.888588 0.750000
O O16 0.129386 0.750000 0.500000
O O17 0.135691 0.671068 0.250000
O O18 0.114629 0.582358 0.494633
O O19 0.927157 0.500073 0.750000
O O20 0.000000 0.500000 0.000000
#
# Coordination Sequence:
#
# PCOD8232832 Si02
#       7
#     8   8   8   8   8   8   8
#     4  11  23  43  67  94 129 168 210 258 313 371
#     4  10  21  39  60  84 121 161 202 254 314 367
#     4  10  20  35  57  83 115 155 201 255 310 370
#     4  11  22  38  58  80 115 157 201 255 311 371
#     4  12  24  38  60  89 119 156 207 260 311 372
#     4  10  21  40  64  93 127 167 208 253 308 366
#     4  10  23  43  67  93 132 169 205 254 307 367
#
# _framework density 20.753841999999999
#
# number of rings (size 3 to 8) (size 9 to 14) (size 15 to 20)
#    0.000    1.429    1.429    5.143    0.000    4.571 
#    0.000    2.857    0.000    0.000    0.000    0.000 
#    0.000    0.000    0.000    0.000    0.000    0.000 
#
# Total GULP energy -694521.026759 kJ/mol
# GULP energy per Si atom -12402.161192 kJ/mol
# Density = 2.070661 g / cm^3
# Si number density = 20.753842 Si / 1000 Ang^3
#
#
#
# Elastic Constant Matrix: (Units=GPa)
#
#
# Indices 1 2 3 4 5 6 
#
# 1 126.7593 57.5585 44.4322 0.0000 0.0000 0.0000
# 2 57.5585 143.2859 43.9209 0.0000 0.0000 0.0000
# 3 44.4322 43.9209 98.7024 0.0000 0.0000 0.0000
# 4 0.0000 0.0000 0.0000 37.6539 0.0000 0.0000
# 5 0.0000 0.0000 0.0000 0.0000 31.9071 0.0000
# 6 0.0000 0.0000 0.0000 0.0000 0.0000 27.7738
#
#
#
# Elastic Compliance Matrix: (Units=1/GPa)
#
#
# Indices 1 2 3 4 5 6 
#
# 1 0.010502 -0.003207 -0.003301 0.000000 0.000000 0.000000
# 2 -0.003207 0.009061 -0.002588 0.000000 0.000000 0.000000
# 3 -0.003301 -0.002588 0.012769 0.000000 0.000000 0.000000
# 4 0.000000 0.000000 0.000000 0.026558 0.000000 0.000000
# 5 0.000000 0.000000 0.000000 0.000000 0.031341 0.000000
# 6 0.000000 0.000000 0.000000 0.000000 0.000000 0.036005
#
#
# Mechanical properties :
#
#
# Convention : Reuss Voigt Hill
#
# Bulk Modulus (GPa) = 70.72038 73.39674 72.05856
# Shear Modulus (GPa) = 33.52541 34.32269 33.92405
#
# Velocity S-wave (km/s) = 4.02354 4.07110 4.04739
# Velocity P-wave (km/s) = 7.46559 7.58556 7.52581
#
# Compressibility (1/GPa) = 0.01414020
#
# Stress axis : x y z
#
# Youngs Moduli (GPa) = 95.21861 110.36709 78.31486
#
# Poissons Ratio (x) = 0.35395 0.25849
# Poissons Ratio (y) = 0.30537 0.20269
# Poissons Ratio (z) = 0.31428 0.28565
#
# Static dielectric constant tensor:
#      x y z
#    x 4.074750 0.000000 0.000000 
#    y 0.000000 3.799020 0.000000 
#    z 0.000000 0.000000 3.663610 
# 
# 
# High freq. dielectric constant tensor:
#      x y z
#    x 1.816390 0.000000 0.000000 
#    y 0.000000 1.814570 0.000000 
#    z 0.000000 0.000000 1.809200 
# 
# From -- ./inp_files/7995.got.cif
#   From: 2010.03.12/outbox.cif.g09.slc.cpg/sg57_4_cif.got.tgz:7995.got - 2010.04.16 15:48:40.
