data_PCOD8232271
_publ_section_title
;
Structure prediction by ZEFSAII (Michael W. Deem and Ramdas Pophale) SiO2 
 PCOD8232271
Probable space group: P B C M
;
_chemical_formula_sum "Si O2"
_cell_formula_units_Z 64
_cell_length_a 15.082234
_cell_length_b 24.261911
_cell_length_c 9.000292
_cell_angle_alpha 90.000000
_cell_angle_beta 90.000000
_cell_angle_gamma 90.000000
_cell_volume 3293.421221
_symmetry_space_group_name_H-M "P B C M"
_symmetry_group_IT_number 57
_symmetry_cell_setting 'orthorhombic'
loop_
_space_group_symop_operation_xyz
x,y,z
-x,-y,1/2+z
x,1/2-y,-z
-x,1/2+y,1/2-z
-x,-y,-z
x,y,1/2-z
-x,1/2+y,z
x,1/2-y,1/2+z
loop_
_atom_site_type_symbol
_atom_site_label
_atom_site_fract_x
_atom_site_fract_y
_atom_site_fract_z
Si Si1 0.213385 0.006809 0.922602
Si Si2 0.162277 0.372025 0.078962
Si Si3 0.408263 0.986740 0.579335
Si Si4 0.314873 0.309765 0.574261
Si Si5 0.639403 0.384842 0.085836
Si Si6 0.980355 0.190059 0.575876
Si Si7 0.517738 0.806208 0.418327
Si Si8 0.836735 0.103950 0.580162
O O1 0.217187 0.991359 0.750000
O O2 0.316472 0.016244 0.977516
O O3 0.156700 0.062229 0.951783
O O4 0.163853 0.955943 0.002066
O O5 0.190382 0.361580 0.250000
O O6 0.071237 0.341602 0.041424
O O7 0.232967 0.347778 0.965986
O O8 0.424268 0.000197 0.750000
O O9 0.390582 0.922884 0.549375
O O10 0.500000 0.000000 0.500000
O O11 0.302667 0.250000 0.500000
O O12 0.322010 0.303838 0.750000
O O13 0.403951 0.338526 0.506634
O O14 0.627819 0.413084 0.250000
O O15 0.578241 0.332276 0.075332
O O16 0.741021 0.367152 0.064930
O O17 0.977537 0.250000 0.500000
O O18 0.966732 0.200259 0.750000
O O19 0.905041 0.148579 0.511479
O O20 0.503555 0.750000 0.500000
O O21 0.550461 0.797982 0.250000
O O22 0.863771 0.092448 0.750000
#
# Coordination Sequence:
#
# PCOD8232271 Si02
#       8
#     8   8   8   8   8   8   8   8
#     4   9  20  37  56  81 113 151 190 229 283 340
#     4  10  21  38  58  82 115 150 186 232 283 339
#     4  10  20  33  51  77 108 144 186 230 274 325
#     4  11  22  36  54  78 108 145 187 232 284 338
#     4   9  19  35  54  75 105 144 180 222 274 326
#     4  10  22  39  61  87 114 147 187 233 286 340
#     4  10  20  34  52  75 105 142 183 225 276 333
#     4   9  19  38  59  82 114 147 185 233 282 334
#
# _framework density 19.432680000000001
#
# number of rings (size 3 to 8) (size 9 to 14) (size 15 to 20)
#    0.000    2.250    0.000    3.000    1.750    5.000 
#    0.000    0.000    0.000    0.000    0.000    0.000 
#    0.000    0.000    0.000    0.000    0.000    0.000 
#
# Total GULP energy -793051.302778 kJ/mol
# GULP energy per Si atom -12391.426606 kJ/mol
# Density = 1.938845 g / cm^3
# Si number density = 19.432680 Si / 1000 Ang^3
#
#
#
# Elastic Constant Matrix: (Units=GPa)
#
#
# Indices 1 2 3 4 5 6 
#
# 1 111.8153 73.9311 45.5743 0.0000 0.0000 0.0000
# 2 73.9311 112.8908 47.8567 0.0000 0.0000 0.0000
# 3 45.5743 47.8567 86.8578 0.0000 0.0000 0.0000
# 4 0.0000 0.0000 0.0000 32.4400 0.0000 0.0000
# 5 0.0000 0.0000 0.0000 0.0000 22.0015 0.0000
# 6 0.0000 0.0000 0.0000 0.0000 0.0000 37.4516
#
#
#
# Elastic Compliance Matrix: (Units=1/GPa)
#
#
# Indices 1 2 3 4 5 6 
#
# 1 0.016569 -0.009349 -0.003543 0.000000 0.000000 0.000000
# 2 -0.009349 0.016833 -0.004369 0.000000 0.000000 0.000000
# 3 -0.003543 -0.004369 0.015779 0.000000 0.000000 0.000000
# 4 0.000000 0.000000 0.000000 0.030826 0.000000 0.000000
# 5 0.000000 0.000000 0.000000 0.000000 0.045452 0.000000
# 6 0.000000 0.000000 0.000000 0.000000 0.000000 0.026701
#
#
# Mechanical properties :
#
#
# Convention : Reuss Voigt Hill
#
# Bulk Modulus (GPa) = 68.21542 71.80980 70.01261
# Shear Modulus (GPa) = 26.10059 27.99208 27.04633
#
# Velocity S-wave (km/s) = 3.66885 3.79946 3.73473
# Velocity P-wave (km/s) = 7.28882 7.50208 7.39622
#
# Compressibility (1/GPa) = 0.01465944
#
# Stress axis : x y z
#
# Youngs Moduli (GPa) = 60.35530 59.40809 63.37489
#
# Poissons Ratio (x) = 0.55540 0.22451
# Poissons Ratio (y) = 0.56425 0.27689
# Poissons Ratio (z) = 0.21381 0.25956
#
# Static dielectric constant tensor:
#      x y z
#    x 4.032620 0.000000 0.000000 
#    y 0.000000 3.414710 0.000000 
#    z 0.000000 0.000000 3.536630 
# 
# 
# High freq. dielectric constant tensor:
#      x y z
#    x 1.767090 0.000000 0.000000 
#    y 0.000000 1.745190 0.000000 
#    z 0.000000 0.000000 1.753530 
# 
# From -- ./inp_files/5691.got.cif
#   From: 2010.03.12/outbox.cif.g09.slc.cpg/sg57_3_cif.got.tgz:5691.got - 2010.04.16 15:48:40.
