data_PCOD8232321
_publ_section_title
;
Structure prediction by ZEFSAII (Michael W. Deem and Ramdas Pophale) SiO2 
 PCOD8232321
Probable space group: P B C M
;
_chemical_formula_sum "Si O2"
_cell_formula_units_Z 56
_cell_length_a 21.282385
_cell_length_b 14.191196
_cell_length_c 9.206657
_cell_angle_alpha 90.000000
_cell_angle_beta 90.000000
_cell_angle_gamma 90.000000
_cell_volume 2780.617535
_symmetry_space_group_name_H-M "P B C M"
_symmetry_group_IT_number 57
_symmetry_cell_setting 'orthorhombic'
loop_
_space_group_symop_operation_xyz
x,y,z
-x,-y,1/2+z
x,1/2-y,-z
-x,1/2+y,1/2-z
-x,-y,-z
x,y,1/2-z
-x,1/2+y,z
x,1/2-y,1/2+z
loop_
_atom_site_type_symbol
_atom_site_label
_atom_site_fract_x
_atom_site_fract_y
_atom_site_fract_z
Si Si1 0.978857 0.152196 0.079282
Si Si2 0.565404 0.500739 0.917468
Si Si3 0.223038 0.476163 0.415793
Si Si4 0.918472 0.542618 0.914407
Si Si5 0.334456 0.345463 0.084530
Si Si6 0.620461 0.335605 0.411029
Si Si7 0.766840 0.164677 0.590359
O O1 0.984432 0.173127 0.250000
O O2 0.928447 0.068636 0.045640
O O3 0.959725 0.250000 0.000000
O O4 0.045572 0.113394 0.021266
O O5 0.555213 0.472005 0.750000
O O6 0.599074 0.601358 0.930460
O O7 0.500000 0.500000 0.000000
O O8 0.612133 0.428824 0.994937
O O9 0.240038 0.504207 0.250000
O O10 0.154549 0.429201 0.426133
O O11 0.275979 0.405793 0.478364
O O12 0.220786 0.567984 0.511827
O O13 0.943067 0.558645 0.750000
O O14 0.319407 0.320745 0.250000
O O15 0.341564 0.250000 0.000000
O O16 0.588161 0.250000 0.500000
O O17 0.589286 0.344555 0.250000
O O18 0.693399 0.315466 0.392337
O O19 0.798248 0.250000 0.500000
O O20 0.798163 0.161980 0.750000
#
# Coordination Sequence:
#
# PCOD8232321 Si02
#       7
#     8   8   8   8   8   8   8
#     4  10  20  36  58  83 115 155 196 243 291 343
#     4  11  23  40  61  86 115 151 193 242 295 348
#     4  10  20  38  60  85 119 153 191 240 294 348
#     4   9  20  37  58  85 116 153 196 242 291 345
#     4  10  23  41  62  85 115 153 192 237 288 343
#     4  10  20  35  57  84 112 145 184 230 282 343
#     4  10  20  33  54  83 114 149 187 230 284 345
#
# _framework density 20.139410000000002
#
# number of rings (size 3 to 8) (size 9 to 14) (size 15 to 20)
#    0.000    2.000    1.429    1.714    0.000    5.714 
#    0.000    4.286    0.000    0.000    0.000    0.000 
#    0.000    0.000    0.000    0.000    0.000    0.000 
#
# Total GULP energy -694365.741841 kJ/mol
# GULP energy per Si atom -12399.388247 kJ/mol
# Density = 2.009357 g / cm^3
# Si number density = 20.139410 Si / 1000 Ang^3
#
#
#
# Elastic Constant Matrix: (Units=GPa)
#
#
# Indices 1 2 3 4 5 6 
#
# 1 72.3220 10.5535 23.6843 0.0000 0.0000 0.0000
# 2 10.5535 95.5990 50.3541 0.0000 0.0000 0.0000
# 3 23.6843 50.3541 127.4096 0.0000 0.0000 0.0000
# 4 0.0000 0.0000 0.0000 43.4429 0.0000 0.0000
# 5 0.0000 0.0000 0.0000 0.0000 28.2297 0.0000
# 6 0.0000 0.0000 0.0000 0.0000 0.0000 12.5695
#
#
#
# Elastic Compliance Matrix: (Units=1/GPa)
#
#
# Indices 1 2 3 4 5 6 
#
# 1 0.014727 -0.000232 -0.002646 0.000000 0.000000 0.000000
# 2 -0.000232 0.013214 -0.005179 0.000000 0.000000 0.000000
# 3 -0.002646 -0.005179 0.010387 0.000000 0.000000 0.000000
# 4 0.000000 0.000000 0.000000 0.023019 0.000000 0.000000
# 5 0.000000 0.000000 0.000000 0.000000 0.035424 0.000000
# 6 0.000000 0.000000 0.000000 0.000000 0.000000 0.079558
#
#
# Mechanical properties :
#
#
# Convention : Reuss Voigt Hill
#
# Bulk Modulus (GPa) = 45.01609 51.61273 48.31441
# Shear Modulus (GPa) = 25.01894 30.89764 27.95829
#
# Velocity S-wave (km/s) = 3.52843 3.92112 3.72995
# Velocity P-wave (km/s) = 6.24504 6.79585 6.52626
#
# Compressibility (1/GPa) = 0.02221428
#
# Stress axis : x y z
#
# Youngs Moduli (GPa) = 67.90053 75.67739 96.26990
#
# Poissons Ratio (x) = 0.01757 0.25473
# Poissons Ratio (y) = 0.01576 0.49860
# Poissons Ratio (z) = 0.17966 0.39195
#
# Static dielectric constant tensor:
#      x y z
#    x 3.579900 0.000000 0.000000 
#    y 0.000000 3.618690 0.000000 
#    z 0.000000 0.000000 3.906080 
# 
# 
# High freq. dielectric constant tensor:
#      x y z
#    x 1.772570 0.000000 0.000000 
#    y 0.000000 1.781100 0.000000 
#    z 0.000000 0.000000 1.796790 
# 
# From -- ./inp_files/8179.got.cif
#   From: 2010.03.12/outbox.cif.g09.slc.cpg/sg57_5_cif.got.tgz:8179.got - 2010.04.16 15:48:40.
