data_PCOD8232178
_publ_section_title
;
Structure prediction by ZEFSAII (Michael W. Deem and Ramdas Pophale) SiO2 
 PCOD8232178
Probable space group: P B C M
;
_chemical_formula_sum "Si O2"
_cell_formula_units_Z 64
_cell_length_a 14.085120
_cell_length_b 28.083915
_cell_length_c 9.049526
_cell_angle_alpha 90.000000
_cell_angle_beta 90.000000
_cell_angle_gamma 90.000000
_cell_volume 3579.678583
_symmetry_space_group_name_H-M "P B C M"
_symmetry_group_IT_number 57
_symmetry_cell_setting 'orthorhombic'
loop_
_space_group_symop_operation_xyz
x,y,z
-x,-y,1/2+z
x,1/2-y,-z
-x,1/2+y,1/2-z
-x,-y,-z
x,y,1/2-z
-x,1/2+y,z
x,1/2-y,1/2+z
loop_
_atom_site_type_symbol
_atom_site_label
_atom_site_fract_x
_atom_site_fract_y
_atom_site_fract_z
Si Si1 0.428954 0.106613 0.577950
Si Si2 0.184302 0.612413 0.424645
Si Si3 0.902404 0.485732 0.574738
Si Si4 0.930694 0.300083 0.921854
Si Si5 0.140366 0.199604 0.078007
Si Si6 0.381723 0.926405 0.924177
Si Si7 0.321037 0.199413 0.576770
Si Si8 0.705448 0.975851 0.425017
O O1 0.442965 0.096575 0.750000
O O2 0.525441 0.094160 0.498212
O O3 0.405514 0.161979 0.547708
O O4 0.343409 0.072765 0.518422
O O5 0.174180 0.613881 0.250000
O O6 0.123845 0.567298 0.480535
O O7 0.141940 0.661424 0.490640
O O8 0.294239 0.607837 0.470217
O O9 0.915480 0.488170 0.750000
O O10 0.815306 0.520124 0.521339
O O11 0.000000 0.500000 0.500000
O O12 0.912630 0.290592 0.750000
O O13 0.036210 0.322883 0.945465
O O14 0.915227 0.250000 0.000000
O O15 0.165799 0.204420 0.250000
O O16 0.227177 0.326328 0.006326
O O17 0.137042 0.250000 0.000000
O O18 0.397683 0.926232 0.750000
O O19 0.357789 0.979549 0.982309
O O20 0.345470 0.250000 0.500000
O O21 0.304859 0.207930 0.750000
O O22 0.708202 0.979292 0.250000
#
# Coordination Sequence:
#
# PCOD8232178 Si02
#       8
#     8   8   8   8   8   8   8   8
#     4  10  20  33  50  72  96 121 153 198 245 280
#     4   8  16  32  50  67  94 130 158 185 232 286
#     4   9  17  31  50  71  98 130 159 187 226 280
#     4   9  17  30  48  70  95 124 159 196 232 273
#     4   9  16  27  45  66  89 118 151 189 229 268
#     4   9  17  32  54  73  91 123 161 193 231 282
#     4  10  20  33  48  66  93 127 156 188 234 282
#     4   8  16  32  51  71  97 127 156 188 233 285
#
# _framework density 17.878701
#
# number of rings (size 3 to 8) (size 9 to 14) (size 15 to 20)
#    0.000    3.000    0.000    3.375    0.000    2.500 
#    0.000    5.000    0.000    3.000    0.000    0.000 
#    0.000    0.000    0.000    0.000    0.000    0.000 
#
# Total GULP energy -792961.546164 kJ/mol
# GULP energy per Si atom -12390.024159 kJ/mol
# Density = 1.783801 g / cm^3
# Si number density = 17.878701 Si / 1000 Ang^3
#
#
#
# Elastic Constant Matrix: (Units=GPa)
#
#
# Indices 1 2 3 4 5 6 
#
# 1 152.6513 78.1803 47.3817 0.0000 0.0000 0.0000
# 2 78.1803 103.1775 37.8385 0.0000 0.0000 0.0000
# 3 47.3817 37.8385 57.0195 0.0000 0.0000 0.0000
# 4 0.0000 0.0000 0.0000 19.1504 0.0000 0.0000
# 5 0.0000 0.0000 0.0000 0.0000 29.6078 0.0000
# 6 0.0000 0.0000 0.0000 0.0000 0.0000 30.0201
#
#
#
# Elastic Compliance Matrix: (Units=1/GPa)
#
#
# Indices 1 2 3 4 5 6 
#
# 1 0.011724 -0.007019 -0.005084 0.000000 0.000000 0.000000
# 2 -0.007019 0.017011 -0.005456 0.000000 0.000000 0.000000
# 3 -0.005084 -0.005456 0.025384 0.000000 0.000000 0.000000
# 4 0.000000 0.000000 0.000000 0.052218 0.000000 0.000000
# 5 0.000000 0.000000 0.000000 0.000000 0.033775 0.000000
# 6 0.000000 0.000000 0.000000 0.000000 0.000000 0.033311
#
#
# Mechanical properties :
#
#
# Convention : Reuss Voigt Hill
#
# Bulk Modulus (GPa) = 52.63255 71.07215 61.85235
# Shear Modulus (GPa) = 23.26930 25.71885 24.49408
#
# Velocity S-wave (km/s) = 3.61156 3.79690 3.70539
# Velocity P-wave (km/s) = 6.84790 7.68509 7.27854
#
# Compressibility (1/GPa) = 0.01899965
#
# Stress axis : x y z
#
# Youngs Moduli (GPa) = 85.29762 58.78418 39.39524
#
# Poissons Ratio (x) = 0.41259 0.20030
# Poissons Ratio (y) = 0.59868 0.21496
# Poissons Ratio (z) = 0.43368 0.32076
#
# Static dielectric constant tensor:
#      x y z
#    x 3.756450 0.000000 0.000000 
#    y 0.000000 3.408890 0.000000 
#    z 0.000000 0.000000 3.080920 
# 
# 
# High freq. dielectric constant tensor:
#      x y z
#    x 1.697930 0.000000 0.000000 
#    y 0.000000 1.681260 0.000000 
#    z 0.000000 0.000000 1.667470 
# 
# From -- ./inp_files/13345.got.cif
#   From: 2010.03.12/outbox.cif.g09.slc.cpg/sg57_7_cif.got.tgz:13345.got - 2010.04.16 15:48:40.
