data_PCOD8232574
_publ_section_title
;
Structure prediction by ZEFSAII (Michael W. Deem and Ramdas Pophale) SiO2 
 PCOD8232574
Probable space group: P B C M
;
_chemical_formula_sum "Si O2"
_cell_formula_units_Z 48
_cell_length_a 27.563795
_cell_length_b 5.046462
_cell_length_c 17.467654
_cell_angle_alpha 90.000000
_cell_angle_beta 90.000000
_cell_angle_gamma 90.000000
_cell_volume 2429.744454
_symmetry_space_group_name_H-M "P B C M"
_symmetry_group_IT_number 57
_symmetry_cell_setting 'orthorhombic'
loop_
_space_group_symop_operation_xyz
x,y,z
-x,-y,1/2+z
x,1/2-y,-z
-x,1/2+y,1/2-z
-x,-y,-z
x,y,1/2-z
-x,1/2+y,z
x,1/2-y,1/2+z
loop_
_atom_site_type_symbol
_atom_site_label
_atom_site_fract_x
_atom_site_fract_y
_atom_site_fract_z
Si Si1 0.369211 0.709125 0.660260
Si Si2 0.322305 0.203799 0.590391
Si Si3 0.969305 0.979954 0.159943
Si Si4 0.530522 0.245745 0.588771
Si Si5 0.880838 0.006508 0.447793
Si Si6 0.225822 0.998218 0.949029
O O1 0.362286 0.747835 0.750000
O O2 0.332402 0.479329 0.633241
O O3 0.424644 0.644893 0.639788
O O4 0.360220 0.985978 0.617673
O O5 0.327212 0.250000 0.500000
O O6 0.268438 0.085165 0.610087
O O7 0.960663 0.980021 0.250000
O O8 0.916357 0.976798 0.123406
O O9 0.000035 0.229825 0.132071
O O10 0.546000 0.250000 0.500000
O O11 0.512654 0.540902 0.608432
O O12 0.897453 0.250000 0.500000
O O13 0.882941 0.750000 0.500000
O O14 0.826798 0.065326 0.411960
O O15 0.215043 0.250000 0.000000
O O16 0.244491 0.750000 0.000000
#
# Coordination Sequence:
#
# PCOD8232574 Si02
#       6
#     8   8   8   8   8   8
#     4  12  25  39  58  90 125 150 184 239 294 334
#     4  11  21  39  64  84 111 156 199 230 275 345
#     4  10  21  36  52  74 109 149 185 222 272 336
#     4  10  21  38  60  84 111 148 194 234 272 334
#     4  10  20  34  56  83 109 137 181 237 283 325
#     4   9  18  34  57  85 110 139 184 236 281 326
#
# _framework density 19.755161999999999
#
# number of rings (size 3 to 8) (size 9 to 14) (size 15 to 20)
#    0.000    1.667    0.000    6.000    0.000    4.000 
#    0.000    1.667    0.000    2.000    0.000    0.000 
#    0.000    0.000    0.000    0.000    0.000    0.000 
#
# Total GULP energy -595070.504365 kJ/mol
# GULP energy per Si atom -12397.302174 kJ/mol
# Density = 1.971020 g / cm^3
# Si number density = 19.755162 Si / 1000 Ang^3
#
#
#
# Elastic Constant Matrix: (Units=GPa)
#
#
# Indices 1 2 3 4 5 6 
#
# 1 119.6536 27.2478 53.2864 0.0000 0.0000 0.0000
# 2 27.2478 130.9407 36.7041 0.0000 0.0000 0.0000
# 3 53.2864 36.7041 72.4615 0.0000 0.0000 0.0000
# 4 0.0000 0.0000 0.0000 359.0110 0.0000 0.0000
# 5 0.0000 0.0000 0.0000 0.0000 12.9674 0.0000
# 6 0.0000 0.0000 0.0000 0.0000 0.0000 30.8418
#
#
#
# Elastic Compliance Matrix: (Units=1/GPa)
#
#
# Indices 1 2 3 4 5 6 
#
# 1 0.012427 -0.000028 -0.009124 0.000000 0.000000 0.000000
# 2 -0.000028 0.008901 -0.004488 0.000000 0.000000 0.000000
# 3 -0.009124 -0.004488 0.022784 0.000000 0.000000 0.000000
# 4 0.000000 0.000000 0.000000 0.002785 0.000000 0.000000
# 5 0.000000 0.000000 0.000000 0.000000 0.077117 0.000000
# 6 0.000000 0.000000 0.000000 0.000000 0.000000 0.032424
#
#
# Mechanical properties :
#
#
# Convention : Reuss Voigt Hill
#
# Bulk Modulus (GPa) = 59.41513 61.94805 60.68159
# Shear Modulus (GPa) = 26.40909 94.28520 60.34715
#
# Velocity S-wave (km/s) = 3.66022 6.91596 5.53298
# Velocity P-wave (km/s) = 6.92849 9.75705 8.46179
#
# Compressibility (1/GPa) = 0.01683073
#
# Stress axis : x y z
#
# Youngs Moduli (GPa) = 80.46738 112.34812 43.89138
#
# Poissons Ratio (x) = 0.00319 0.40048
# Poissons Ratio (y) = 0.00228 0.19697
# Poissons Ratio (z) = 0.73422 0.50419
#
# Static dielectric constant tensor:
#      x y z
#    x 3.926380 0.000000 0.000000 
#    y 0.000000 3.793870 0.000000 
#    z 0.000000 0.000000 3.222820 
# 
# 
# High freq. dielectric constant tensor:
#      x y z
#    x 1.783700 0.000000 0.000000 
#    y 0.000000 1.795840 0.000000 
#    z 0.000000 0.000000 1.729130 
# 
# From -- ./inp_files/19569.got.cif
#   From: 2010.03.12/outbox.cif.g09.slc.cpg/sg57_10_cif.got.tgz:19569.got - 2010.04.16 15:48:40.
