data_PCOD8232285
_publ_section_title
;
Structure prediction by ZEFSAII (Michael W. Deem and Ramdas Pophale) SiO2 
 PCOD8232285
Probable space group: P B C M
;
_chemical_formula_sum "Si O2"
_cell_formula_units_Z 64
_cell_length_a 16.538845
_cell_length_b 21.666247
_cell_length_c 9.299169
_cell_angle_alpha 90.000000
_cell_angle_beta 90.000000
_cell_angle_gamma 90.000000
_cell_volume 3332.214942
_symmetry_space_group_name_H-M "P B C M"
_symmetry_group_IT_number 57
_symmetry_cell_setting 'orthorhombic'
loop_
_space_group_symop_operation_xyz
x,y,z
-x,-y,1/2+z
x,1/2-y,-z
-x,1/2+y,1/2-z
-x,-y,-z
x,y,1/2-z
-x,1/2+y,z
x,1/2-y,1/2+z
loop_
_atom_site_type_symbol
_atom_site_label
_atom_site_fract_x
_atom_site_fract_y
_atom_site_fract_z
Si Si1 0.057985 0.813511 0.580493
Si Si2 0.694628 0.694293 0.083612
Si Si3 0.396790 0.616597 0.084616
Si Si4 0.216701 0.432183 0.586165
Si Si5 0.449848 0.358666 0.419245
Si Si6 0.357488 0.481171 0.085527
Si Si7 0.241765 0.690771 0.415296
Si Si8 0.967557 0.560662 0.420539
O O1 0.030090 0.750000 0.500000
O O2 0.045399 0.802234 0.750000
O O3 0.151109 0.828688 0.539773
O O4 0.009239 0.874720 0.529755
O O5 0.679272 0.709698 0.250000
O O6 0.753081 0.636990 0.063069
O O7 0.739221 0.750000 0.000000
O O8 0.608915 0.687158 0.003350
O O9 0.419431 0.631121 0.250000
O O10 0.403009 0.544320 0.050714
O O11 0.304912 0.636489 0.050082
O O12 0.460088 0.650933 0.981053
O O13 0.222998 0.452997 0.750000
O O14 0.273355 0.478769 0.499712
O O15 0.125362 0.434956 0.531854
O O16 0.449086 0.344277 0.250000
O O17 0.419785 0.427583 0.456486
O O18 0.331337 0.476561 0.250000
O O19 0.272327 0.750000 0.500000
O O20 0.242999 0.709325 0.250000
O O21 0.979136 0.552137 0.250000
O O22 0.000000 0.500000 0.500000
#
# Coordination Sequence:
#
# PCOD8232285 Si02
#       8
#     8   8   8   8   8   8   8   8
#     4   9  19  37  59  81 110 148 188 230 278 334
#     4  10  20  36  57  78 107 144 181 224 273 324
#     4  10  20  33  52  76 103 139 181 223 272 322
#     4   9  20  37  54  79 112 142 175 221 272 324
#     4  10  20  34  51  77 108 138 179 224 271 325
#     4   9  19  34  54  77 104 140 181 220 265 328
#     4   9  19  35  53  74 101 135 176 219 264 317
#     4  10  22  38  58  87 120 151 187 233 286 341
#
# _framework density 19.206444999999999
#
# number of rings (size 3 to 8) (size 9 to 14) (size 15 to 20)
#    0.000    2.500    0.000    1.125    1.750    4.000 
#    0.000    1.250    0.000    0.000    0.000    0.000 
#    0.000    0.000    0.000    0.000    0.000    0.000 
#
# Total GULP energy -793481.883679 kJ/mol
# GULP energy per Si atom -12398.154432 kJ/mol
# Density = 1.916273 g / cm^3
# Si number density = 19.206445 Si / 1000 Ang^3
#
#
#
# Elastic Constant Matrix: (Units=GPa)
#
#
# Indices 1 2 3 4 5 6 
#
# 1 109.1184 27.7098 45.6146 0.0000 0.0000 0.0000
# 2 27.7098 76.5470 38.2348 0.0000 0.0000 0.0000
# 3 45.6146 38.2348 73.8666 0.0000 0.0000 0.0000
# 4 0.0000 0.0000 0.0000 33.9604 0.0000 0.0000
# 5 0.0000 0.0000 0.0000 0.0000 28.0709 0.0000
# 6 0.0000 0.0000 0.0000 0.0000 0.0000 16.6061
#
#
#
# Elastic Compliance Matrix: (Units=1/GPa)
#
#
# Indices 1 2 3 4 5 6 
#
# 1 0.012399 -0.000895 -0.007193 0.000000 0.000000 0.000000
# 2 -0.000895 0.017684 -0.008601 0.000000 0.000000 0.000000
# 3 -0.007193 -0.008601 0.022432 0.000000 0.000000 0.000000
# 4 0.000000 0.000000 0.000000 0.029446 0.000000 0.000000
# 5 0.000000 0.000000 0.000000 0.000000 0.035624 0.000000
# 6 0.000000 0.000000 0.000000 0.000000 0.000000 0.060219
#
#
# Mechanical properties :
#
#
# Convention : Reuss Voigt Hill
#
# Bulk Modulus (GPa) = 52.25709 53.62781 52.94245
# Shear Modulus (GPa) = 22.98217 25.59234 24.28726
#
# Velocity S-wave (km/s) = 3.46292 3.65429 3.55989
# Velocity P-wave (km/s) = 6.57695 6.76664 6.67247
#
# Compressibility (1/GPa) = 0.01913616
#
# Stress axis : x y z
#
# Youngs Moduli (GPa) = 80.65422 56.54835 44.57982
#
# Poissons Ratio (x) = 0.05063 0.32066
# Poissons Ratio (y) = 0.07222 0.38342
# Poissons Ratio (z) = 0.58015 0.48635
#
# Static dielectric constant tensor:
#      x y z
#    x 3.512490 0.000000 0.000000 
#    y 0.000000 3.664620 0.000000 
#    z 0.000000 0.000000 3.509210 
# 
# 
# High freq. dielectric constant tensor:
#      x y z
#    x 1.746040 0.000000 0.000000 
#    y 0.000000 1.747960 0.000000 
#    z 0.000000 0.000000 1.743770 
# 
# From -- ./inp_files/5710.got.cif
#   From: 2010.03.12/outbox.cif.g09.slc.cpg/sg57_3_cif.got.tgz:5710.got - 2010.04.16 15:48:40.
