data_PCOD8232405
_publ_section_title
;
Structure prediction by ZEFSAII (Michael W. Deem and Ramdas Pophale) SiO2 
 PCOD8232405
Probable space group: P B C M
;
_chemical_formula_sum "Si O2"
_cell_formula_units_Z 64
_cell_length_a 20.336008
_cell_length_b 20.321386
_cell_length_c 9.125279
_cell_angle_alpha 90.000000
_cell_angle_beta 90.000000
_cell_angle_gamma 90.000000
_cell_volume 3771.075096
_symmetry_space_group_name_H-M "P B C M"
_symmetry_group_IT_number 57
_symmetry_cell_setting 'orthorhombic'
loop_
_space_group_symop_operation_xyz
x,y,z
-x,-y,1/2+z
x,1/2-y,-z
-x,1/2+y,1/2-z
-x,-y,-z
x,y,1/2-z
-x,1/2+y,z
x,1/2-y,1/2+z
loop_
_atom_site_type_symbol
_atom_site_label
_atom_site_fract_x
_atom_site_fract_y
_atom_site_fract_z
Si Si1 0.841726 0.345976 0.418007
Si Si2 0.279509 0.847058 0.915209
Si Si3 0.440964 0.538055 0.424697
Si Si4 0.951231 0.949715 0.422805
Si Si5 0.169738 0.000997 0.083817
Si Si6 0.422312 0.811744 0.587081
Si Si7 0.687544 0.475910 0.420218
Si Si8 0.987745 0.186647 0.578645
O O1 0.826334 0.327403 0.250000
O O2 0.786776 0.312196 0.524175
O O3 0.842587 0.424135 0.440785
O O4 0.912014 0.319995 0.470263
O O5 0.267874 0.874722 0.750000
O O6 0.343372 0.800559 0.912943
O O7 0.293567 0.902777 0.033977
O O8 0.500000 0.500000 0.500000
O O9 0.444219 0.531877 0.250000
O O10 0.441141 0.615319 0.474086
O O11 0.374512 0.501822 0.481391
O O12 0.957610 0.960080 0.250000
O O13 0.876025 0.959058 0.472678
O O14 0.971546 0.876771 0.471256
O O15 0.000000 0.000000 0.500000
O O16 0.150906 0.020005 0.250000
O O17 0.246642 0.019704 0.053369
O O18 0.454073 0.750000 0.500000
O O19 0.450928 0.806588 0.750000
O O20 0.667001 0.476838 0.250000
O O21 0.018884 0.250000 0.500000
O O22 0.993389 0.197028 0.750000
#
# Coordination Sequence:
#
# PCOD8232405 Si02
#       8
#     8   8   8   8   8   8   8   8
#     4   9  17  31  46  63  93 127 161 202 244 289
#     4   9  17  28  42  65  94 125 167 206 236 282
#     4  10  20  34  52  77 106 136 172 208 246 298
#     4  11  21  34  52  73  97 125 164 210 255 302
#     4   9  17  31  50  73  99 125 161 207 251 294
#     4   9  19  32  46  67  97 130 168 208 239 283
#     4   9  17  30  48  71 101 132 161 201 249 292
#     4  10  22  37  48  65  94 126 163 207 254 308
#
# _framework density 16.971287
#
# number of rings (size 3 to 8) (size 9 to 14) (size 15 to 20)
#    0.000    2.500    1.250    3.000    0.000    7.500 
#    0.000    2.500    0.000    0.000    0.000    0.875 
#    0.000    6.000    0.000    0.000    0.000    0.000 
#
# Total GULP energy -793102.770336 kJ/mol
# GULP energy per Si atom -12392.230787 kJ/mol
# Density = 1.693266 g / cm^3
# Si number density = 16.971287 Si / 1000 Ang^3
#
#
#
# Elastic Constant Matrix: (Units=GPa)
#
#
# Indices 1 2 3 4 5 6 
#
# 1 90.7138 47.7203 47.3926 0.0000 0.0000 0.0000
# 2 47.7203 81.4770 46.3426 0.0000 0.0000 0.0000
# 3 47.3926 46.3426 77.7822 0.0000 0.0000 0.0000
# 4 0.0000 0.0000 0.0000 23.6693 0.0000 0.0000
# 5 0.0000 0.0000 0.0000 0.0000 31.9269 0.0000
# 6 0.0000 0.0000 0.0000 0.0000 0.0000 11.6979
#
#
#
# Elastic Compliance Matrix: (Units=1/GPa)
#
#
# Indices 1 2 3 4 5 6 
#
# 1 0.018252 -0.006602 -0.007187 0.000000 0.000000 0.000000
# 2 -0.006602 0.020952 -0.008461 0.000000 0.000000 0.000000
# 3 -0.007187 -0.008461 0.022277 0.000000 0.000000 0.000000
# 4 0.000000 0.000000 0.000000 0.042249 0.000000 0.000000
# 5 0.000000 0.000000 0.000000 0.000000 0.031322 0.000000
# 6 0.000000 0.000000 0.000000 0.000000 0.000000 0.085485
#
#
# Mechanical properties :
#
#
# Convention : Reuss Voigt Hill
#
# Bulk Modulus (GPa) = 58.89104 59.20935 59.05020
# Shear Modulus (GPa) = 18.47085 20.69331 19.58208
#
# Velocity S-wave (km/s) = 3.30261 3.49565 3.40050
# Velocity P-wave (km/s) = 7.02273 7.15936 7.09137
#
# Compressibility (1/GPa) = 0.01698051
#
# Stress axis : x y z
#
# Youngs Moduli (GPa) = 54.79001 47.72713 44.88984
#
# Poissons Ratio (x) = 0.31508 0.32264
# Poissons Ratio (y) = 0.36171 0.37982
# Poissons Ratio (z) = 0.39379 0.40382
#
# Static dielectric constant tensor:
#      x y z
#    x 3.446020 0.000000 0.000000 
#    y 0.000000 2.900520 0.000000 
#    z 0.000000 0.000000 3.265340 
# 
# 
# High freq. dielectric constant tensor:
#      x y z
#    x 1.641720 0.000000 0.000000 
#    y 0.000000 1.617790 0.000000 
#    z 0.000000 0.000000 1.663750 
# 
# From -- ./inp_files/8735.got.cif
#   From: 2010.03.12/outbox.cif.g09.slc.cpg/sg57_5_cif.got.tgz:8735.got - 2010.04.16 15:48:40.
