data_PCOD8232723
_publ_section_title
;
Structure prediction by ZEFSAII (Michael W. Deem and Ramdas Pophale) SiO2 
 PCOD8232723
Probable space group: P B C M
;
_chemical_formula_sum "Si O2"
_cell_formula_units_Z 48
_cell_length_a 30.789085
_cell_length_b 9.088830
_cell_length_c 8.622686
_cell_angle_alpha 90.000000
_cell_angle_beta 90.000000
_cell_angle_gamma 90.000000
_cell_volume 2412.944508
_symmetry_space_group_name_H-M "P B C M"
_symmetry_group_IT_number 57
_symmetry_cell_setting 'orthorhombic'
loop_
_space_group_symop_operation_xyz
x,y,z
-x,-y,1/2+z
x,1/2-y,-z
-x,1/2+y,1/2-z
-x,-y,-z
x,y,1/2-z
-x,1/2+y,z
x,1/2-y,1/2+z
loop_
_atom_site_type_symbol
_atom_site_label
_atom_site_fract_x
_atom_site_fract_y
_atom_site_fract_z
Si Si1 0.961406 0.591646 0.568615
Si Si2 0.214990 0.591949 0.430873
Si Si3 0.540501 0.912540 0.434384
Si Si4 0.379008 0.587114 0.565827
Si Si5 0.699980 0.587178 0.932817
Si Si6 0.865188 0.589687 0.567386
O O1 0.966813 0.750000 0.500000
O O2 0.967281 0.598796 0.750000
O O3 0.913446 0.530390 0.523622
O O4 0.000000 0.500000 0.500000
O O5 0.225899 0.750000 0.500000
O O6 0.210529 0.616315 0.250000
O O7 0.252516 0.475551 0.470405
O O8 0.170010 0.525720 0.499637
O O9 0.538643 0.750000 0.500000
O O10 0.538568 0.909240 0.250000
O O11 0.500000 0.000000 0.500000
O O12 0.584533 0.986841 0.489605
O O13 0.383301 0.750000 0.500000
O O14 0.384564 0.590023 0.750000
O O15 0.332878 0.520259 0.520076
O O16 0.689873 0.588826 0.750000
O O17 0.695884 0.750000 0.000000
O O18 0.856225 0.750000 0.500000
O O19 0.859705 0.605322 0.750000
#
# Coordination Sequence:
#
# PCOD8232723 Si02
#       6
#     8   8   8   8   8   8
#     4  10  20  35  55  79 110 145 186 232 284 340
#     4  10  22  38  57  83 115 148 188 234 286 342
#     4  12  25  44  67  95 128 165 207 252 302 356
#     4  12  25  43  65  92 125 162 202 248 298 351
#     4  11  23  40  62  89 119 155 196 241 291 348
#     4   9  19  36  56  80 108 143 185 231 280 339
#
# _framework density 19.892709
#
# number of rings (size 3 to 8) (size 9 to 14) (size 15 to 20)
#    0.000    1.333    0.000    6.000    0.000    4.667 
#    0.000    1.667    0.000    0.000    0.000    0.000 
#    0.000    0.000    0.000    0.000    0.000    0.000 
#
# Total GULP energy -595275.948944 kJ/mol
# GULP energy per Si atom -12401.582270 kJ/mol
# Density = 1.984743 g / cm^3
# Si number density = 19.892709 Si / 1000 Ang^3
#
#
#
# Elastic Constant Matrix: (Units=GPa)
#
#
# Indices 1 2 3 4 5 6 
#
# 1 130.9029 57.9605 58.0246 0.0000 0.0000 0.0000
# 2 57.9605 127.5819 61.3992 0.0000 0.0000 0.0000
# 3 58.0246 61.3992 114.6516 0.0000 0.0000 0.0000
# 4 0.0000 0.0000 0.0000 40.1542 0.0000 0.0000
# 5 0.0000 0.0000 0.0000 0.0000 32.0239 0.0000
# 6 0.0000 0.0000 0.0000 0.0000 0.0000 26.7673
#
#
#
# Elastic Compliance Matrix: (Units=1/GPa)
#
#
# Indices 1 2 3 4 5 6 
#
# 1 0.010649 -0.003023 -0.003770 0.000000 0.000000 0.000000
# 2 -0.003023 0.011418 -0.004584 0.000000 0.000000 0.000000
# 3 -0.003770 -0.004584 0.013085 0.000000 0.000000 0.000000
# 4 0.000000 0.000000 0.000000 0.024904 0.000000 0.000000
# 5 0.000000 0.000000 0.000000 0.000000 0.031227 0.000000
# 6 0.000000 0.000000 0.000000 0.000000 0.000000 0.037359
#
#
# Mechanical properties :
#
#
# Convention : Reuss Voigt Hill
#
# Bulk Modulus (GPa) = 80.67166 80.87834 80.77500
# Shear Modulus (GPa) = 32.14794 32.83920 32.49357
#
# Velocity S-wave (km/s) = 4.02439 4.06743 4.04597
# Velocity P-wave (km/s) = 7.88896 7.92491 7.90696
#
# Compressibility (1/GPa) = 0.01239593
#
# Stress axis : x y z
#
# Youngs Moduli (GPa) = 93.90341 87.58139 76.42122
#
# Poissons Ratio (x) = 0.26480 0.28814
# Poissons Ratio (y) = 0.28391 0.35035
# Poissons Ratio (z) = 0.35405 0.40152
#
# Static dielectric constant tensor:
#      x y z
#    x 4.176290 0.000000 0.000000 
#    y 0.000000 3.305830 0.000000 
#    z 0.000000 0.000000 3.745840 
# 
# 
# High freq. dielectric constant tensor:
#      x y z
#    x 1.798740 0.000000 0.000000 
#    y 0.000000 1.783700 0.000000 
#    z 0.000000 0.000000 1.785690 
# 
# From -- ./inp_files/10013.got.cif
#   From: 2010.03.12/outbox.cif.g09.slc.cpg/sg57_6_cif.got.tgz:10013.got - 2010.04.16 15:48:40.
