data_PCOD8232650
_publ_section_title
;
Structure prediction by ZEFSAII (Michael W. Deem and Ramdas Pophale) SiO2 
 PCOD8232650
Probable space group: P B C M
;
_chemical_formula_sum "Si O2"
_cell_formula_units_Z 64
_cell_length_a 24.103013
_cell_length_b 15.054442
_cell_length_c 8.945060
_cell_angle_alpha 90.000000
_cell_angle_beta 90.000000
_cell_angle_gamma 90.000000
_cell_volume 3245.781315
_symmetry_space_group_name_H-M "P B C M"
_symmetry_group_IT_number 57
_symmetry_cell_setting 'orthorhombic'
loop_
_space_group_symop_operation_xyz
x,y,z
-x,-y,1/2+z
x,1/2-y,-z
-x,1/2+y,1/2-z
-x,-y,-z
x,y,1/2-z
-x,1/2+y,z
x,1/2-y,1/2+z
loop_
_atom_site_type_symbol
_atom_site_label
_atom_site_fract_x
_atom_site_fract_y
_atom_site_fract_z
Si Si1 0.630329 0.480463 0.574399
Si Si2 0.424743 0.338204 0.423733
Si Si3 0.254286 0.984530 0.074890
Si Si4 0.158621 0.845610 0.425712
Si Si5 0.449131 0.840729 0.073243
Si Si6 0.811780 0.654794 0.074091
Si Si7 0.050804 0.653203 0.073076
Si Si8 0.932545 0.656730 0.423457
O O1 0.625065 0.462085 0.750000
O O2 0.615397 0.581453 0.532532
O O3 0.691983 0.459855 0.520067
O O4 0.587209 0.420282 0.487563
O O5 0.400693 0.250000 0.500000
O O6 0.424751 0.319307 0.250000
O O7 0.487484 0.358730 0.477129
O O8 0.268752 0.986202 0.250000
O O9 0.209944 0.908825 0.038024
O O10 0.231998 0.080855 0.021037
O O11 0.169957 0.750000 0.500000
O O12 0.149934 0.833312 0.250000
O O13 0.103501 0.894247 0.494692
O O14 0.442442 0.834232 0.250000
O O15 0.427203 0.750000 0.000000
O O16 0.807488 0.669590 0.250000
O O17 0.873166 0.613974 0.031492
O O18 0.799297 0.750000 0.000000
O O19 0.061301 0.659104 0.250000
O O20 0.990727 0.605191 0.037005
O O21 0.049844 0.750000 0.000000
O O22 0.935293 0.750000 0.500000
O O23 0.932951 0.676780 0.250000
#
# Coordination Sequence:
#
# PCOD8232650 Si02
#       8
#     8   8   8   8   8   8   8   8
#     4  11  23  38  57  83 114 147 186 230 272 316
#     4   9  20  37  59  88 118 149 183 221 267 320
#     4  10  23  40  55  74 104 144 186 224 267 320
#     4  10  20  35  54  74  99 134 175 218 266 318
#     4  10  20  37  61  88 118 149 182 220 267 322
#     4   9  18  35  56  76 102 137 176 219 268 321
#     4   9  15  25  45  73 101 128 162 207 263 323
#     4   8  14  25  45  72  99 128 163 207 260 320
#
# _framework density 19.717904000000001
#
# number of rings (size 3 to 8) (size 9 to 14) (size 15 to 20)
#    0.000    2.500    0.000    2.625    0.000    4.500 
#    0.000    4.375    0.000    0.000    0.000    0.000 
#    0.000    0.000    0.000    0.000    0.000    0.000 
#
# Total GULP energy -793021.293664 kJ/mol
# GULP energy per Si atom -12390.957713 kJ/mol
# Density = 1.967302 g / cm^3
# Si number density = 19.717904 Si / 1000 Ang^3
#
#
#
# Elastic Constant Matrix: (Units=GPa)
#
#
# Indices 1 2 3 4 5 6 
#
# 1 52.1307 -5.0228 15.7560 0.0000 0.0000 0.0000
# 2 -5.0228 39.3824 15.7488 0.0000 0.0000 0.0000
# 3 15.7560 15.7488 57.2200 0.0000 0.0000 0.0000
# 4 0.0000 0.0000 0.0000 26.9911 0.0000 0.0000
# 5 0.0000 0.0000 0.0000 0.0000 25.4375 0.0000
# 6 0.0000 0.0000 0.0000 0.0000 0.0000 -12.6571
#
#
#
# Elastic Compliance Matrix: (Units=1/GPa)
#
#
# Indices 1 2 3 4 5 6 
#
# 1 0.022079 0.005896 -0.007702 0.000000 0.000000 0.000000
# 2 0.005896 0.030107 -0.009910 0.000000 0.000000 0.000000
# 3 -0.007702 -0.009910 0.022325 0.000000 0.000000 0.000000
# 4 0.000000 0.000000 0.000000 0.037049 0.000000 0.000000
# 5 0.000000 0.000000 0.000000 0.000000 0.039312 0.000000
# 6 0.000000 0.000000 0.000000 0.000000 0.000000 -0.079007
#
#
# Mechanical properties :
#
#
# Convention : Reuss Voigt Hill
#
# Bulk Modulus (GPa) = 19.57794 22.41080 20.99437
# Shear Modulus (GPa) = 44.51451 16.10438 30.30945
#
# Velocity S-wave (km/s) = 4.75654 2.86096 3.92491
# Velocity P-wave (km/s) = 6.33378 4.72270 5.58662
#
# Compressibility (1/GPa) = 0.05107789
#
# Stress axis : x y z
#
# Youngs Moduli (GPa) = 45.29281 33.21493 44.79321
#
# Poissons Ratio (x) = -0.19583 0.34501
# Poissons Ratio (y) = -0.26705 0.44390
# Poissons Ratio (z) = 0.34886 0.32916
#
# Static dielectric constant tensor:
#      x y z
#    x 4.085160 0.000000 0.000000 
#    y 0.000000 3.420100 0.000000 
#    z 0.000000 0.000000 3.492950 
# 
# 
# High freq. dielectric constant tensor:
#      x y z
#    x 1.781240 0.000000 0.000000 
#    y 0.000000 1.747430 0.000000 
#    z 0.000000 0.000000 1.769950 
# 
# From -- ./inp_files/9424.got.cif
#   From: 2010.03.12/outbox.cif.g09.slc.cpg/sg57_5_cif.got.tgz:9424.got - 2010.04.16 15:48:40.
