data_PCOD8232557
_publ_section_title
;
Structure prediction by ZEFSAII (Michael W. Deem and Ramdas Pophale) SiO2 
 PCOD8232557
Probable space group: P B C M
;
_chemical_formula_sum "Si O2"
_cell_formula_units_Z 48
_cell_length_a 28.702114
_cell_length_b 9.164951
_cell_length_c 9.045572
_cell_angle_alpha 90.000000
_cell_angle_beta 90.000000
_cell_angle_gamma 90.000000
_cell_volume 2379.469088
_symmetry_space_group_name_H-M "P B C M"
_symmetry_group_IT_number 57
_symmetry_cell_setting 'orthorhombic'
loop_
_space_group_symop_operation_xyz
x,y,z
-x,-y,1/2+z
x,1/2-y,-z
-x,1/2+y,1/2-z
-x,-y,-z
x,y,1/2-z
-x,1/2+y,z
x,1/2-y,1/2+z
loop_
_atom_site_type_symbol
_atom_site_label
_atom_site_fract_x
_atom_site_fract_y
_atom_site_fract_z
Si Si1 0.806610 0.399030 0.415496
Si Si2 0.891956 0.586987 0.472462
Si Si3 0.031755 0.336387 0.750000
Si Si4 0.730156 0.590083 0.927545
Si Si5 0.058992 0.489381 0.250000
Si Si6 0.461930 0.096092 0.078678
Si Si7 0.359647 0.095874 0.422049
O O1 0.817991 0.250000 0.500000
O O2 0.786425 0.369450 0.250000
O O3 0.853189 0.493612 0.389612
O O4 0.771640 0.488667 0.518313
O O5 0.871609 0.750000 0.500000
O O6 0.941082 0.600727 0.389705
O O7 0.904903 0.497176 0.617107
O O8 0.030999 0.162069 0.750000
O O9 0.977946 0.380586 0.750000
O O10 0.730226 0.600400 0.750000
O O11 0.735468 0.750000 0.000000
O O12 0.682044 0.515055 0.988687
O O13 0.474938 0.117018 0.250000
O O14 0.410554 0.019950 0.063693
O O15 0.462097 0.250000 0.000000
O O16 0.500000 0.000000 0.000000
O O17 0.364856 0.250000 0.500000
O O18 0.345562 0.113876 0.250000
#
# Coordination Sequence:
#
# PCOD8232557 Si02
#       7
#     8   8   4   8   4   8   8
#     4  12  26  43  62  87 121 154 196 246 301 360
#     4  10  22  40  63  87 118 157 197 240 287 344
#     4  10  20  40  56  92 116 158 192 240 285 340
#     4  11  22  38  64  92 119 154 196 242 296 352
#     4  10  22  34  64  86 124 150 196 234 287 344
#     4  10  20  34  55  83 118 158 201 250 299 354
#     4   9  17  32  55  84 116 152 198 247 296 349
#
# _framework density 20.172567999999998
#
# number of rings (size 3 to 8) (size 9 to 14) (size 15 to 20)
#    0.000    1.667    0.833    5.000    2.333    3.333 
#    0.000    0.833    0.000    4.000    0.000    0.000 
#    0.000    0.000    0.000    0.000    0.000    0.000 
#
# Total GULP energy -594863.205720 kJ/mol
# GULP energy per Si atom -12392.983452 kJ/mol
# Density = 2.012665 g / cm^3
# Si number density = 20.172568 Si / 1000 Ang^3
#
#
#
# Elastic Constant Matrix: (Units=GPa)
#
#
# Indices 1 2 3 4 5 6 
#
# 1 101.9332 37.2062 38.6944 0.0000 0.0000 0.0000
# 2 37.2062 65.5629 28.8328 0.0000 0.0000 0.0000
# 3 38.6944 28.8328 163.7337 0.0000 0.0000 0.0000
# 4 0.0000 0.0000 0.0000 27.9693 0.0000 0.0000
# 5 0.0000 0.0000 0.0000 0.0000 43.2428 0.0000
# 6 0.0000 0.0000 0.0000 0.0000 0.0000 31.0473
#
#
#
# Elastic Compliance Matrix: (Units=1/GPa)
#
#
# Indices 1 2 3 4 5 6 
#
# 1 0.012900 -0.006482 -0.001907 0.000000 0.000000 0.000000
# 2 -0.006482 0.019790 -0.001953 0.000000 0.000000 0.000000
# 3 -0.001907 -0.001953 0.006902 0.000000 0.000000 0.000000
# 4 0.000000 0.000000 0.000000 0.035754 0.000000 0.000000
# 5 0.000000 0.000000 0.000000 0.000000 0.023125 0.000000
# 6 0.000000 0.000000 0.000000 0.000000 0.000000 0.032209
#
#
# Mechanical properties :
#
#
# Convention : Reuss Voigt Hill
#
# Bulk Modulus (GPa) = 52.88836 60.07741 56.48289
# Shear Modulus (GPa) = 31.71235 35.55163 33.63199
#
# Velocity S-wave (km/s) = 3.96921 4.20262 4.08758
# Velocity P-wave (km/s) = 6.87612 7.30724 7.09496
#
# Compressibility (1/GPa) = 0.01890775
#
# Stress axis : x y z
#
# Youngs Moduli (GPa) = 77.51742 50.53073 144.88289
#
# Poissons Ratio (x) = 0.32754 0.27632
# Poissons Ratio (y) = 0.50247 0.28296
# Poissons Ratio (z) = 0.14784 0.09869
#
# Static dielectric constant tensor:
#      x y z
#    x 4.107290 0.000000 0.000000 
#    y 0.000000 3.302740 0.000000 
#    z 0.000000 0.000000 3.997640 
# 
# 
# High freq. dielectric constant tensor:
#      x y z
#    x 1.798010 0.000000 0.000000 
#    y 0.000000 1.750570 0.000000 
#    z 0.000000 0.000000 1.812880 
# 
# From -- ./inp_files/10151.got.cif
#   From: 2010.03.12/outbox.cif.g09.slc.cpg/sg57_6_cif.got.tgz:10151.got - 2010.04.16 15:48:40.
