data_PCOD8232275
_publ_section_title
;
Structure prediction by ZEFSAII (Michael W. Deem and Ramdas Pophale) SiO2 
 PCOD8232275
Probable space group: P B C M
;
_chemical_formula_sum "Si O2"
_cell_formula_units_Z 64
_cell_length_a 19.848852
_cell_length_b 20.240120
_cell_length_c 8.844344
_cell_angle_alpha 90.000000
_cell_angle_beta 90.000000
_cell_angle_gamma 90.000000
_cell_volume 3553.154586
_symmetry_space_group_name_H-M "P B C M"
_symmetry_group_IT_number 57
_symmetry_cell_setting 'orthorhombic'
loop_
_space_group_symop_operation_xyz
x,y,z
-x,-y,1/2+z
x,1/2-y,-z
-x,1/2+y,1/2-z
-x,-y,-z
x,y,1/2-z
-x,1/2+y,z
x,1/2-y,1/2+z
loop_
_atom_site_type_symbol
_atom_site_label
_atom_site_fract_x
_atom_site_fract_y
_atom_site_fract_z
Si Si1 0.944928 0.681996 0.928320
Si Si2 0.673988 0.457213 0.574980
Si Si3 0.189988 0.938162 0.071288
Si Si4 0.435249 0.319655 0.429867
Si Si5 0.690614 0.896017 0.072258
Si Si6 0.476581 0.568107 0.427130
Si Si7 0.162826 0.422748 0.428997
Si Si8 0.901862 0.318038 0.428147
O O1 0.937970 0.688937 0.750000
O O2 0.899141 0.621470 0.987716
O O3 0.021361 0.667642 0.979431
O O4 0.918384 0.750000 0.000000
O O5 0.695633 0.457272 0.750000
O O6 0.733994 0.422443 0.482426
O O7 0.666526 0.532231 0.514678
O O8 0.603390 0.420806 0.549054
O O9 0.188194 0.943997 0.250000
O O10 0.143563 0.878217 0.012903
O O11 0.159782 0.005512 0.003878
O O12 0.454469 0.250000 0.500000
O O13 0.438623 0.315534 0.250000
O O14 0.360821 0.340958 0.491749
O O15 0.489438 0.371896 0.486677
O O16 0.683176 0.893866 0.250000
O O17 0.768108 0.884619 0.022954
O O18 0.500000 0.500000 0.500000
O O19 0.494946 0.567654 0.250000
O O20 0.160575 0.433311 0.250000
O O21 0.875307 0.250000 0.500000
O O22 0.896923 0.310294 0.250000
#
# Coordination Sequence:
#
# PCOD8232275 Si02
#       8
#     8   8   8   8   8   8   8   8
#     4   9  18  33  52  73 101 139 179 219 262 314
#     4   9  18  35  56  78 104 135 173 213 260 318
#     4  10  20  33  51  79 109 134 171 224 267 309
#     4  11  22  37  53  77 111 145 181 225 269 315
#     4   8  15  31  51  71 100 136 171 209 253 306
#     4  11  21  36  59  84 107 139 179 221 267 322
#     4   9  18  33  52  75 106 142 175 211 262 317
#     4   9  19  35  53  75 103 135 176 222 268 317
#
# _framework density 18.012163000000001
#
# number of rings (size 3 to 8) (size 9 to 14) (size 15 to 20)
#    0.000    2.500    1.250    1.875    0.000    3.500 
#    0.000    1.250    0.000    1.500    0.000    0.000 
#    0.000    0.000    0.000    0.000    0.000    0.000 
#
# Total GULP energy -793447.795833 kJ/mol
# GULP energy per Si atom -12397.621810 kJ/mol
# Density = 1.797117 g / cm^3
# Si number density = 18.012163 Si / 1000 Ang^3
#
#
#
# Elastic Constant Matrix: (Units=GPa)
#
#
# Indices 1 2 3 4 5 6 
#
# 1 113.3124 84.8764 37.8468 0.0000 0.0000 0.0000
# 2 84.8764 138.5626 46.8810 0.0000 0.0000 0.0000
# 3 37.8468 46.8810 54.8994 0.0000 0.0000 0.0000
# 4 0.0000 0.0000 0.0000 30.7495 0.0000 0.0000
# 5 0.0000 0.0000 0.0000 0.0000 25.3627 0.0000
# 6 0.0000 0.0000 0.0000 0.0000 0.0000 23.1738
#
#
#
# Elastic Compliance Matrix: (Units=1/GPa)
#
#
# Indices 1 2 3 4 5 6 
#
# 1 0.016896 -0.009013 -0.003951 0.000000 0.000000 0.000000
# 2 -0.009013 0.014957 -0.006559 0.000000 0.000000 0.000000
# 3 -0.003951 -0.006559 0.026540 0.000000 0.000000 0.000000
# 4 0.000000 0.000000 0.000000 0.032521 0.000000 0.000000
# 5 0.000000 0.000000 0.000000 0.000000 0.039428 0.000000
# 6 0.000000 0.000000 0.000000 0.000000 0.000000 0.043152
#
#
# Mechanical properties :
#
#
# Convention : Reuss Voigt Hill
#
# Bulk Modulus (GPa) = 51.68872 71.77587 61.73229
# Shear Modulus (GPa) = 22.83216 25.00188 23.91702
#
# Velocity S-wave (km/s) = 3.56420 3.72970 3.64789
# Velocity P-wave (km/s) = 6.75994 7.64739 7.21732
#
# Compressibility (1/GPa) = 0.01934658
#
# Stress axis : x y z
#
# Youngs Moduli (GPa) = 59.18612 66.85911 37.67847
#
# Poissons Ratio (x) = 0.60257 0.14889
# Poissons Ratio (y) = 0.53342 0.24714
# Poissons Ratio (z) = 0.23387 0.43854
#
# Static dielectric constant tensor:
#      x y z
#    x 3.620080 0.000000 0.000000 
#    y 0.000000 3.313920 0.000000 
#    z 0.000000 0.000000 3.200010 
# 
# 
# High freq. dielectric constant tensor:
#      x y z
#    x 1.705280 0.000000 0.000000 
#    y 0.000000 1.686460 0.000000 
#    z 0.000000 0.000000 1.687190 
# 
# From -- ./inp_files/7253.got.cif
#   From: 2010.03.12/outbox.cif.g09.slc.cpg/sg57_4_cif.got.tgz:7253.got - 2010.04.16 15:48:40.
