data_PCOD8232537
_publ_section_title
;
Structure prediction by ZEFSAII (Michael W. Deem and Ramdas Pophale) SiO2 
 PCOD8232537
Probable space group: P B C M
;
_chemical_formula_sum "Si O2"
_cell_formula_units_Z 56
_cell_length_a 11.905380
_cell_length_b 11.161663
_cell_length_c 22.965751
_cell_angle_alpha 90.000000
_cell_angle_beta 90.000000
_cell_angle_gamma 90.000000
_cell_volume 3051.777169
_symmetry_space_group_name_H-M "P B C M"
_symmetry_group_IT_number 57
_symmetry_cell_setting 'orthorhombic'
loop_
_space_group_symop_operation_xyz
x,y,z
-x,-y,1/2+z
x,1/2-y,-z
-x,1/2+y,1/2-z
-x,-y,-z
x,y,1/2-z
-x,1/2+y,z
x,1/2-y,1/2+z
loop_
_atom_site_type_symbol
_atom_site_label
_atom_site_fract_x
_atom_site_fract_y
_atom_site_fract_z
Si Si1 0.912012 0.422376 0.318473
Si Si2 0.706069 0.276224 0.184475
Si Si3 0.412786 0.975384 0.370806
Si Si4 0.588804 0.390965 0.493242
Si Si5 0.836430 0.898946 0.181283
Si Si6 0.754373 0.634847 0.182193
Si Si7 0.338935 0.553906 0.386500
O O1 0.922368 0.414036 0.250000
O O2 0.830426 0.313836 0.338754
O O3 0.858230 0.549602 0.336319
O O4 0.037002 0.408058 0.343574
O O5 0.712985 0.227418 0.250000
O O6 0.624991 0.392443 0.183142
O O7 0.647400 0.179951 0.144456
O O8 0.360616 0.912546 0.429106
O O9 0.546694 0.981253 0.374623
O O10 0.354685 0.104213 0.357857
O O11 0.545903 0.250000 0.500000
O O12 0.500000 0.500000 0.500000
O O13 0.678594 0.418600 0.544682
O O14 0.826923 0.931973 0.250000
O O15 0.790118 0.768385 0.168123
O O16 0.766667 0.988675 0.141408
O O17 0.724094 0.618515 0.250000
#
# Coordination Sequence:
#
# PCOD8232537 Si02
#       7
#     8   8   8   8   8   8   8
#     4   8  17  34  54  78 108 149 191 225 273 344
#     4  10  20  34  55  81 112 147 180 221 284 345
#     4  10  21  37  56  79 112 149 188 227 287 341
#     4  10  21  39  61  82 111 154 200 245 282 338
#     4  10  21  34  54  85 118 148 187 239 288 342
#     4   9  19  35  55  80 113 152 184 226 292 350
#     4  11  23  34  55  86 111 143 193 233 286 333
#
# _framework density 18.349962999999999
#
# number of rings (size 3 to 8) (size 9 to 14) (size 15 to 20)
#    0.000    2.286    1.429    1.714    4.000    3.429 
#    0.000    0.000    0.000    3.429    7.429    0.000 
#    0.000    0.000    0.000    0.000    0.000    0.000 
#
# Total GULP energy -693769.876900 kJ/mol
# GULP energy per Si atom -12388.747802 kJ/mol
# Density = 1.830820 g / cm^3
# Si number density = 18.349963 Si / 1000 Ang^3
#
#
#
# Elastic Constant Matrix: (Units=GPa)
#
#
# Indices 1 2 3 4 5 6 
#
# 1 83.2317 10.1294 25.2139 0.0000 0.0000 0.0000
# 2 10.1294 70.6611 22.7660 0.0000 0.0000 0.0000
# 3 25.2139 22.7660 63.7860 0.0000 0.0000 0.0000
# 4 0.0000 0.0000 0.0000 26.5512 0.0000 0.0000
# 5 0.0000 0.0000 0.0000 0.0000 12.9999 0.0000
# 6 0.0000 0.0000 0.0000 0.0000 0.0000 24.7093
#
#
#
# Elastic Compliance Matrix: (Units=1/GPa)
#
#
# Indices 1 2 3 4 5 6 
#
# 1 0.013653 -0.000247 -0.005309 0.000000 0.000000 0.000000
# 2 -0.000247 0.015995 -0.005611 0.000000 0.000000 0.000000
# 3 -0.005309 -0.005611 0.019779 0.000000 0.000000 0.000000
# 4 0.000000 0.000000 0.000000 0.037663 0.000000 0.000000
# 5 0.000000 0.000000 0.000000 0.000000 0.076924 0.000000
# 6 0.000000 0.000000 0.000000 0.000000 0.000000 0.040471
#
#
# Mechanical properties :
#
#
# Convention : Reuss Voigt Hill
#
# Bulk Modulus (GPa) = 36.90978 37.09972 37.00475
# Shear Modulus (GPa) = 21.19999 23.49005 22.34502
#
# Velocity S-wave (km/s) = 3.40268 3.58175 3.49336
# Velocity P-wave (km/s) = 5.96621 6.11286 6.03998
#
# Compressibility (1/GPa) = 0.02709309
#
# Stress axis : x y z
#
# Youngs Moduli (GPa) = 73.24454 62.51819 50.55947
#
# Poissons Ratio (x) = 0.01543 0.26841
# Poissons Ratio (y) = 0.01807 0.28371
# Poissons Ratio (z) = 0.38884 0.35081
#
# Static dielectric constant tensor:
#      x y z
#    x 3.424050 0.000000 0.000000 
#    y 0.000000 3.550470 0.000000 
#    z 0.000000 0.000000 3.593070 
# 
# 
# High freq. dielectric constant tensor:
#      x y z
#    x 1.693170 0.000000 0.000000 
#    y 0.000000 1.724930 0.000000 
#    z 0.000000 0.000000 1.693500 
# 
# From -- ./inp_files/27218.got.cif
#   From: 2010.03.12/outbox.cif.g09.slc.cpg/sg57_14_cif.got.tgz:27218.got - 2010.04.16 15:48:40.
