data_PCOD8232352
_publ_section_title
;
Structure prediction by ZEFSAII (Michael W. Deem and Ramdas Pophale) SiO2 
 PCOD8232352
Probable space group: P B C M
;
_chemical_formula_sum "Si O2"
_cell_formula_units_Z 40
_cell_length_a 10.883308
_cell_length_b 20.959825
_cell_length_c 10.052126
_cell_angle_alpha 90.000000
_cell_angle_beta 90.000000
_cell_angle_gamma 90.000000
_cell_volume 2293.012889
_symmetry_space_group_name_H-M "P B C M"
_symmetry_group_IT_number 57
_symmetry_cell_setting 'orthorhombic'
loop_
_space_group_symop_operation_xyz
x,y,z
-x,-y,1/2+z
x,1/2-y,-z
-x,1/2+y,1/2-z
-x,-y,-z
x,y,1/2-z
-x,1/2+y,z
x,1/2-y,1/2+z
loop_
_atom_site_type_symbol
_atom_site_label
_atom_site_fract_x
_atom_site_fract_y
_atom_site_fract_z
Si Si1 0.597579 0.307182 0.596720
Si Si2 0.885157 0.196520 0.402112
Si Si3 0.044728 0.420990 0.895276
Si Si4 0.176998 0.486025 0.393632
Si Si5 0.429292 0.548754 0.095781
O O1 0.548487 0.250000 0.500000
O O2 0.566365 0.289163 0.750000
O O3 0.742013 0.316303 0.577076
O O4 0.540570 0.376930 0.559756
O O5 0.934333 0.250000 0.500000
O O6 0.912469 0.215471 0.250000
O O7 0.961927 0.135994 0.449071
O O8 0.100731 0.405794 0.750000
O O9 0.954999 0.481012 0.884061
O O10 0.161844 0.432660 0.991787
O O11 0.205588 0.453717 0.250000
O O12 0.284308 0.536296 0.427150
O O13 0.465207 0.536007 0.250000
O O14 0.500000 0.500000 0.000000
#
# Coordination Sequence:
#
# PCOD8232352 Si02
#       5
#     8   8   8   8   8
#     4   9  17  31  49  70  98 128 158 198 247 294
#     4   9  16  27  44  67  96 126 154 189 236 286
#     4   9  16  28  46  67  94 124 152 186 229 281
#     4   9  17  30  46  66  94 125 153 187 235 280
#     4  10  20  34  51  72 101 132 164 206 250 292
#
# _framework density 17.444298
#
# number of rings (size 3 to 8) (size 9 to 14) (size 15 to 20)
#    0.000    2.800    2.000    0.000    0.000    2.400 
#    0.000    0.000    0.000    1.200    0.000    0.000 
#    0.000    0.000    0.000    0.000    0.000    0.000 
#
# Total GULP energy -495535.056307 kJ/mol
# GULP energy per Si atom -12388.376408 kJ/mol
# Density = 1.740459 g / cm^3
# Si number density = 17.444298 Si / 1000 Ang^3
#
#
#
# Elastic Constant Matrix: (Units=GPa)
#
#
# Indices 1 2 3 4 5 6 
#
# 1 25.9978 17.9271 28.2960 0.0000 0.0000 0.0000
# 2 17.9271 106.6013 71.0153 0.0000 0.0000 0.0000
# 3 28.2960 71.0153 99.8569 0.0000 0.0000 0.0000
# 4 0.0000 0.0000 0.0000 34.5702 0.0000 0.0000
# 5 0.0000 0.0000 0.0000 0.0000 23.7681 0.0000
# 6 0.0000 0.0000 0.0000 0.0000 0.0000 27.6551
#
#
#
# Elastic Compliance Matrix: (Units=1/GPa)
#
#
# Indices 1 2 3 4 5 6 
#
# 1 0.055885 0.002188 -0.017392 0.000000 0.000000 0.000000
# 2 0.002188 0.017912 -0.013358 0.000000 0.000000 0.000000
# 3 -0.017392 -0.013358 0.024443 0.000000 0.000000 0.000000
# 4 0.000000 0.000000 0.000000 0.028927 0.000000 0.000000
# 5 0.000000 0.000000 0.000000 0.000000 0.042073 0.000000
# 6 0.000000 0.000000 0.000000 0.000000 0.000000 0.036160
#
#
# Mechanical properties :
#
#
# Convention : Reuss Voigt Hill
#
# Bulk Modulus (GPa) = 24.32197 51.88144 38.10171
# Shear Modulus (GPa) = 18.10090 24.87986 21.49038
#
# Velocity S-wave (km/s) = 3.22474 3.78066 3.51371
# Velocity P-wave (km/s) = 5.27619 6.99026 6.19281
#
# Compressibility (1/GPa) = 0.04111510
#
# Stress axis : x y z
#
# Youngs Moduli (GPa) = 17.89373 55.82912 40.91211
#
# Poissons Ratio (x) = -0.12215 0.71154
# Poissons Ratio (y) = -0.03915 0.54652
# Poissons Ratio (z) = 0.31121 0.74578
#
# Static dielectric constant tensor:
#      x y z
#    x 2.860130 0.000000 0.000000 
#    y 0.000000 3.284840 0.000000 
#    z 0.000000 0.000000 3.788310 
# 
# 
# High freq. dielectric constant tensor:
#      x y z
#    x 1.631880 0.000000 0.000000 
#    y 0.000000 1.660510 0.000000 
#    z 0.000000 0.000000 1.682980 
# 
# From -- ./inp_files/2885.got.cif
#   From: 2010.03.12/outbox.cif.g09.slc.cpg/sg57_2_cif.got.tgz:2885.got - 2010.04.16 15:48:40.
