data_PCOD8232353
_publ_section_title
;
Structure prediction by ZEFSAII (Michael W. Deem and Ramdas Pophale) SiO2 
 PCOD8232353
Probable space group: P B C M
;
_chemical_formula_sum "Si O2"
_cell_formula_units_Z 64
_cell_length_a 16.084743
_cell_length_b 24.139979
_cell_length_c 8.863392
_cell_angle_alpha 90.000000
_cell_angle_beta 90.000000
_cell_angle_gamma 90.000000
_cell_volume 3441.525338
_symmetry_space_group_name_H-M "P B C M"
_symmetry_group_IT_number 57
_symmetry_cell_setting 'orthorhombic'
loop_
_space_group_symop_operation_xyz
x,y,z
-x,-y,1/2+z
x,1/2-y,-z
-x,1/2+y,1/2-z
-x,-y,-z
x,y,1/2-z
-x,1/2+y,z
x,1/2-y,1/2+z
loop_
_atom_site_type_symbol
_atom_site_label
_atom_site_fract_x
_atom_site_fract_y
_atom_site_fract_z
Si Si1 0.120703 0.380839 0.571449
Si Si2 0.380330 0.099443 0.581426
Si Si3 0.257019 0.306404 0.420559
Si Si4 0.776077 0.529299 0.926302
Si Si5 0.796040 0.193268 0.926444
Si Si6 0.988079 0.307627 0.427840
Si Si7 0.712338 0.411322 0.926440
Si Si8 0.529375 0.056577 0.426770
O O1 0.111463 0.382039 0.750000
O O2 0.189304 0.337142 0.520595
O O3 0.146877 0.442344 0.514457
O O4 0.034122 0.360863 0.498647
O O5 0.407676 0.081444 0.750000
O O6 0.342890 0.160535 0.582148
O O7 0.311537 0.055777 0.520601
O O8 0.460507 0.101810 0.473462
O O9 0.279486 0.250000 0.500000
O O10 0.222747 0.298380 0.250000
O O11 0.788374 0.542789 0.750000
O O12 0.772936 0.463741 0.959471
O O13 0.783057 0.198746 0.750000
O O14 0.891976 0.184057 0.969749
O O15 0.762569 0.250000 0.000000
O O16 0.743940 0.141545 0.984541
O O17 0.021418 0.250000 0.500000
O O18 0.003870 0.305077 0.250000
O O19 0.711930 0.397431 0.750000
O O20 0.619806 0.425039 0.985581
O O21 0.533041 0.048599 0.250000
O O22 0.500000 0.000000 0.500000
#
# Coordination Sequence:
#
# PCOD8232353 Si02
#       8
#     8   8   8   8   8   8   8   8
#     4  11  21  32  51  81 112 143 185 227 270 322
#     4   9  18  34  52  75 107 142 180 222 270 317
#     4  10  20  34  51  72 106 146 183 222 270 324
#     4   9  18  35  54  76 112 150 181 219 273 325
#     4  10  22  40  63  87 110 141 183 229 277 329
#     4  10  20  36  57  81 109 142 183 230 278 325
#     4  10  21  38  59  83 113 147 182 224 278 330
#     4  11  21  34  55  83 111 141 180 224 269 321
#
# _framework density 18.596404
#
# number of rings (size 3 to 8) (size 9 to 14) (size 15 to 20)
#    0.000    2.000    1.250    3.750    0.000    5.500 
#    0.000    1.250    0.000    1.500    0.000    0.000 
#    0.000    0.000    0.000    0.000    0.000    0.000 
#
# Total GULP energy -793630.790308 kJ/mol
# GULP energy per Si atom -12400.481099 kJ/mol
# Density = 1.855408 g / cm^3
# Si number density = 18.596404 Si / 1000 Ang^3
#
#
#
# Elastic Constant Matrix: (Units=GPa)
#
#
# Indices 1 2 3 4 5 6 
#
# 1 88.4661 54.2488 45.2123 0.0000 0.0000 0.0000
# 2 54.2488 121.1872 46.8933 0.0000 0.0000 0.0000
# 3 45.2123 46.8933 90.1700 0.0000 0.0000 0.0000
# 4 0.0000 0.0000 0.0000 34.8302 0.0000 0.0000
# 5 0.0000 0.0000 0.0000 0.0000 30.4133 0.0000
# 6 0.0000 0.0000 0.0000 0.0000 0.0000 22.7309
#
#
#
# Elastic Compliance Matrix: (Units=1/GPa)
#
#
# Indices 1 2 3 4 5 6 
#
# 1 0.017845 -0.005666 -0.006001 0.000000 0.000000 0.000000
# 2 -0.005666 0.012130 -0.003467 0.000000 0.000000 0.000000
# 3 -0.006001 -0.003467 0.015902 0.000000 0.000000 0.000000
# 4 0.000000 0.000000 0.000000 0.028711 0.000000 0.000000
# 5 0.000000 0.000000 0.000000 0.000000 0.032880 0.000000
# 6 0.000000 0.000000 0.000000 0.000000 0.000000 0.043993
#
#
# Mechanical properties :
#
#
# Convention : Reuss Voigt Hill
#
# Bulk Modulus (GPa) = 64.06731 65.83691 64.95211
# Shear Modulus (GPa) = 26.74756 27.82614 27.28685
#
# Velocity S-wave (km/s) = 3.79663 3.87242 3.83471
# Velocity P-wave (km/s) = 7.33113 7.44809 7.38984
#
# Compressibility (1/GPa) = 0.01560858
#
# Stress axis : x y z
#
# Youngs Moduli (GPa) = 56.03689 82.44214 62.88432
#
# Poissons Ratio (x) = 0.46714 0.37738
# Poissons Ratio (y) = 0.31752 0.21802
# Poissons Ratio (z) = 0.33628 0.28583
#
# Static dielectric constant tensor:
#      x y z
#    x 3.530390 0.000000 0.000000 
#    y 0.000000 3.459150 0.000000 
#    z 0.000000 0.000000 3.512310 
# 
# 
# High freq. dielectric constant tensor:
#      x y z
#    x 1.709830 0.000000 0.000000 
#    y 0.000000 1.716850 0.000000 
#    z 0.000000 0.000000 1.726330 
# 
# From -- ./inp_files/5591.got.cif
#   From: 2010.03.12/outbox.cif.g09.slc.cpg/sg57_3_cif.got.tgz:5591.got - 2010.04.16 15:48:40.
