data_PCOD8232743
_publ_section_title
;
Structure prediction by ZEFSAII (Michael W. Deem and Ramdas Pophale) SiO2 
 PCOD8232743
Probable space group: P B C M
;
_chemical_formula_sum "Si O2"
_cell_formula_units_Z 64
_cell_length_a 16.667288
_cell_length_b 21.974150
_cell_length_c 8.667249
_cell_angle_alpha 90.000000
_cell_angle_beta 90.000000
_cell_angle_gamma 90.000000
_cell_volume 3174.375497
_symmetry_space_group_name_H-M "P B C M"
_symmetry_group_IT_number 57
_symmetry_cell_setting 'orthorhombic'
loop_
_space_group_symop_operation_xyz
x,y,z
-x,-y,1/2+z
x,1/2-y,-z
-x,1/2+y,1/2-z
-x,-y,-z
x,y,1/2-z
-x,1/2+y,z
x,1/2-y,1/2+z
loop_
_atom_site_type_symbol
_atom_site_label
_atom_site_fract_x
_atom_site_fract_y
_atom_site_fract_z
Si Si1 0.054747 0.816423 0.433207
Si Si2 0.705110 0.685644 0.933335
Si Si3 0.370792 0.622089 0.925824
Si Si4 0.205763 0.422840 0.568994
Si Si5 0.456189 0.375675 0.430982
Si Si6 0.368324 0.480456 0.923276
Si Si7 0.227005 0.686808 0.430956
Si Si8 0.963609 0.561380 0.569178
O O1 0.027115 0.750000 0.500000
O O2 0.051525 0.810668 0.250000
O O3 0.144919 0.832294 0.485961
O O4 0.001262 0.874004 0.492019
O O5 0.715437 0.681471 0.750000
O O6 0.614415 0.669205 0.986074
O O7 0.726918 0.750000 0.000000
O O8 0.769730 0.644337 0.018309
O O9 0.351503 0.642754 0.750000
O O10 0.456332 0.648237 0.989788
O O11 0.385738 0.550767 0.935183
O O12 0.297454 0.638923 0.036330
O O13 0.185574 0.425839 0.750000
O O14 0.277550 0.467978 0.518659
O O15 0.129216 0.441932 0.471561
O O16 0.463578 0.377827 0.250000
O O17 0.434940 0.444249 0.480849
O O18 0.374396 0.455392 0.750000
O O19 0.258678 0.750000 0.500000
O O20 0.210698 0.692115 0.250000
O O21 0.977781 0.558691 0.750000
O O22 0.000000 0.500000 0.500000
#
# Coordination Sequence:
#
# PCOD8232743 Si02
#       8
#     8   8   8   8   8   8   8   8
#     4  10  22  42  66  89 118 156 198 244 299 359
#     4  10  20  36  57  82 112 151 195 241 293 347
#     4  10  20  35  55  81 114 151 191 238 289 342
#     4  10  21  38  58  85 117 152 191 236 290 350
#     4   9  19  34  53  79 113 150 191 241 292 341
#     4   9  19  34  55  80 112 151 190 234 287 343
#     4  11  23  39  59  84 112 148 191 237 288 344
#     4  11  25  42  63  93 127 161 199 249 303 358
#
# _framework density 20.161445000000001
#
# number of rings (size 3 to 8) (size 9 to 14) (size 15 to 20)
#    0.000    2.000    0.000    3.750    1.750    5.000 
#    0.000    2.500    0.000    0.000    0.000    0.000 
#    0.000    0.000    0.000    0.000    0.000    0.000 
#
# Total GULP energy -793361.394601 kJ/mol
# GULP energy per Si atom -12396.271791 kJ/mol
# Density = 2.011556 g / cm^3
# Si number density = 20.161445 Si / 1000 Ang^3
#
#
#
# Elastic Constant Matrix: (Units=GPa)
#
#
# Indices 1 2 3 4 5 6 
#
# 1 96.4346 27.8763 21.2820 0.0000 0.0000 0.0000
# 2 27.8763 75.5247 21.6696 0.0000 0.0000 0.0000
# 3 21.2820 21.6696 49.4791 0.0000 0.0000 0.0000
# 4 0.0000 0.0000 0.0000 32.1378 0.0000 0.0000
# 5 0.0000 0.0000 0.0000 0.0000 22.9001 0.0000
# 6 0.0000 0.0000 0.0000 0.0000 0.0000 20.9354
#
#
#
# Elastic Compliance Matrix: (Units=1/GPa)
#
#
# Indices 1 2 3 4 5 6 
#
# 1 0.012185 -0.003424 -0.003742 0.000000 0.000000 0.000000
# 2 -0.003424 0.016106 -0.005581 0.000000 0.000000 0.000000
# 3 -0.003742 -0.005581 0.024264 0.000000 0.000000 0.000000
# 4 0.000000 0.000000 0.000000 0.031116 0.000000 0.000000
# 5 0.000000 0.000000 0.000000 0.000000 0.043668 0.000000
# 6 0.000000 0.000000 0.000000 0.000000 0.000000 0.047766
#
#
# Mechanical properties :
#
#
# Convention : Reuss Voigt Hill
#
# Bulk Modulus (GPa) = 36.95199 40.34379 38.64789
# Shear Modulus (GPa) = 23.85285 25.23536 24.54411
#
# Velocity S-wave (km/s) = 3.44334 3.54173 3.49288
# Velocity P-wave (km/s) = 5.84608 6.06456 5.95632
#
# Compressibility (1/GPa) = 0.02706215
#
# Stress axis : x y z
#
# Youngs Moduli (GPa) = 82.06653 62.08948 41.21330
#
# Poissons Ratio (x) = 0.21260 0.15420
# Poissons Ratio (y) = 0.28100 0.23000
# Poissons Ratio (z) = 0.30706 0.34651
#
# Static dielectric constant tensor:
#      x y z
#    x 4.144260 0.000000 0.000000 
#    y 0.000000 3.697990 0.000000 
#    z 0.000000 0.000000 3.734670 
# 
# 
# High freq. dielectric constant tensor:
#      x y z
#    x 1.797220 0.000000 0.000000 
#    y 0.000000 1.783960 0.000000 
#    z 0.000000 0.000000 1.784710 
# 
# From -- ./inp_files/5714.got.cif
#   From: 2010.03.12/outbox.cif.g09.slc.cpg/sg57_3_cif.got.tgz:5714.got - 2010.04.16 15:48:40.
