data_PCOD8232026
_publ_section_title
;
Structure prediction by ZEFSAII (Michael W. Deem and Ramdas Pophale) SiO2 
 PCOD8232026
Probable space group: P B C M
;
_chemical_formula_sum "Si O2"
_cell_formula_units_Z 40
_cell_length_a 8.948782
_cell_length_b 22.483044
_cell_length_c 9.819167
_cell_angle_alpha 90.000000
_cell_angle_beta 90.000000
_cell_angle_gamma 90.000000
_cell_volume 1975.575744
_symmetry_space_group_name_H-M "P B C M"
_symmetry_group_IT_number 57
_symmetry_cell_setting 'orthorhombic'
loop_
_space_group_symop_operation_xyz
x,y,z
-x,-y,1/2+z
x,1/2-y,-z
-x,1/2+y,1/2-z
-x,-y,-z
x,y,1/2-z
-x,1/2+y,z
x,1/2-y,1/2+z
loop_
_atom_site_type_symbol
_atom_site_label
_atom_site_fract_x
_atom_site_fract_y
_atom_site_fract_z
Si Si1 0.909196 0.697850 0.904783
Si Si2 0.744190 0.004523 0.993202
Si Si3 0.999141 0.924399 0.101414
Si Si4 0.445478 0.194657 0.908363
Si Si5 0.492860 0.085184 0.099195
O O1 0.962847 0.710696 0.750000
O O2 0.974821 0.637802 0.978171
O O3 0.731437 0.693567 0.910175
O O4 0.970660 0.750000 0.000000
O O5 0.830159 0.052549 0.899843
O O6 0.658571 0.953664 0.909966
O O7 0.631175 0.039677 0.090624
O O8 0.879863 0.975903 0.075566
O O9 0.960108 0.901244 0.250000
O O10 0.502826 0.197829 0.750000
O O11 0.505010 0.250000 0.000000
O O12 0.503705 0.134154 0.980307
O O13 0.494077 0.114768 0.250000
#
# Coordination Sequence:
#
# PCOD8232026 Si02
#       5
#     8   8   8   8   8
#     4   9  18  34  56  82 111 145 185 234 282 336
#     4  10  22  36  56  84 117 156 195 237 287 346
#     4  10  19  37  58  82 114 152 193 238 289 343
#     4  10  20  36  59  85 115 150 192 240 288 343
#     4  11  22  37  58  87 119 154 195 241 290 347
#
# _framework density 20.247263
#
# number of rings (size 3 to 8) (size 9 to 14) (size 15 to 20)
#    0.000    2.000    2.000    1.800    0.000    4.800 
#    0.000    3.000    0.000    2.400    0.000    0.000 
#    0.000    0.000    0.000    0.000    0.000    0.000 
#
# Total GULP energy -495535.568449 kJ/mol
# GULP energy per Si atom -12388.389211 kJ/mol
# Density = 2.020118 g / cm^3
# Si number density = 20.247263 Si / 1000 Ang^3
#
#
#
# Elastic Constant Matrix: (Units=GPa)
#
#
# Indices 1 2 3 4 5 6 
#
# 1 75.3238 30.1723 19.9481 0.0000 0.0000 0.0000
# 2 30.1723 134.6118 54.6662 0.0000 0.0000 0.0000
# 3 19.9481 54.6662 127.0914 0.0000 0.0000 0.0000
# 4 0.0000 0.0000 0.0000 31.8993 0.0000 0.0000
# 5 0.0000 0.0000 0.0000 0.0000 7.7710 0.0000
# 6 0.0000 0.0000 0.0000 0.0000 0.0000 18.1045
#
#
#
# Elastic Compliance Matrix: (Units=1/GPa)
#
#
# Indices 1 2 3 4 5 6 
#
# 1 0.014707 -0.002858 -0.001079 0.000000 0.000000 0.000000
# 2 -0.002858 0.009557 -0.003662 0.000000 0.000000 0.000000
# 3 -0.001079 -0.003662 0.009613 0.000000 0.000000 0.000000
# 4 0.000000 0.000000 0.000000 0.031349 0.000000 0.000000
# 5 0.000000 0.000000 0.000000 0.000000 0.128684 0.000000
# 6 0.000000 0.000000 0.000000 0.000000 0.000000 0.055235
#
#
# Mechanical properties :
#
#
# Convention : Reuss Voigt Hill
#
# Bulk Modulus (GPa) = 53.53949 60.73337 57.13643
# Shear Modulus (GPa) = 18.47969 27.03766 22.75868
#
# Velocity S-wave (km/s) = 3.02437 3.65824 3.35630
# Velocity P-wave (km/s) = 6.22061 6.92131 6.58030
#
# Compressibility (1/GPa) = 0.01867780
#
# Stress axis : x y z
#
# Youngs Moduli (GPa) = 67.99636 104.64012 104.02764
#
# Poissons Ratio (x) = 0.29909 0.11224
# Poissons Ratio (y) = 0.19435 0.38095
# Poissons Ratio (z) = 0.07336 0.38319
#
# Static dielectric constant tensor:
#      x y z
#    x 3.490600 0.000000 0.000000 
#    y 0.000000 3.881970 0.000000 
#    z 0.000000 0.000000 3.685270 
# 
# 
# High freq. dielectric constant tensor:
#      x y z
#    x 1.768580 0.000000 0.000000 
#    y 0.000000 1.804530 0.000000 
#    z 0.000000 0.000000 1.779880 
# 
# From -- ./inp_files/1543.got.cif
#   From: 2010.03.12/outbox.cif.g09.slc.cpg/sg57_1_cif.got.tgz:1543.got - 2010.04.16 15:48:40.
