data_PCOD8232438
_publ_section_title
;
Structure prediction by ZEFSAII (Michael W. Deem and Ramdas Pophale) SiO2 
 PCOD8232438
Probable space group: P B C M
;
_chemical_formula_sum "Si O2"
_cell_formula_units_Z 48
_cell_length_a 18.079557
_cell_length_b 15.160598
_cell_length_c 9.302512
_cell_angle_alpha 90.000000
_cell_angle_beta 90.000000
_cell_angle_gamma 90.000000
_cell_volume 2549.789661
_symmetry_space_group_name_H-M "P B C M"
_symmetry_group_IT_number 57
_symmetry_cell_setting 'orthorhombic'
loop_
_space_group_symop_operation_xyz
x,y,z
-x,-y,1/2+z
x,1/2-y,-z
-x,1/2+y,1/2-z
-x,-y,-z
x,y,1/2-z
-x,1/2+y,z
x,1/2-y,1/2+z
loop_
_atom_site_type_symbol
_atom_site_label
_atom_site_fract_x
_atom_site_fract_y
_atom_site_fract_z
Si Si1 0.063088 0.663718 0.083559
Si Si2 0.108316 0.161707 0.418914
Si Si3 0.333532 0.979475 0.915632
Si Si4 0.460329 0.922957 0.085107
Si Si5 0.835172 0.003349 0.416481
Si Si6 0.605861 0.666476 0.912620
O O1 0.077219 0.682562 0.250000
O O2 0.109587 0.579679 0.030735
O O3 0.977786 0.643411 0.050272
O O4 0.090672 0.750000 0.000000
O O5 0.134142 0.250000 0.500000
O O6 0.124849 0.171157 0.250000
O O7 0.154346 0.081313 0.483926
O O8 0.357491 0.969349 0.750000
O O9 0.247435 0.960159 0.938053
O O10 0.353695 0.078217 0.969872
O O11 0.380547 0.907992 0.008801
O O12 0.447301 0.950170 0.250000
O O13 0.516095 0.839954 0.074968
O O14 0.500000 0.000000 0.000000
O O15 0.849823 0.977826 0.250000
O O16 0.630565 0.682665 0.750000
O O17 0.635150 0.750000 0.000000
#
# Coordination Sequence:
#
# PCOD8232438 Si02
#       6
#     8   8   8   8   8   8
#     4   9  19  35  55  77 102 136 178 224 271 317
#     4  10  20  34  53  78 106 138 178 221 265 316
#     4   9  19  34  50  71 101 133 164 202 251 304
#     4   9  17  31  50  70  92 121 160 199 237 286
#     4  10  20  35  54  77 107 141 175 216 268 320
#     4   9  18  31  48  71  95 123 160 200 242 291
#
# _framework density 18.825081999999998
#
# number of rings (size 3 to 8) (size 9 to 14) (size 15 to 20)
#    0.000    2.667    0.000    2.500    0.000    6.000 
#    0.000    2.500    0.000    4.000    0.000    0.000 
#    0.000    0.000    0.000    0.000    0.000    0.000 
#
# Total GULP energy -595104.036211 kJ/mol
# GULP energy per Si atom -12398.000754 kJ/mol
# Density = 1.878224 g / cm^3
# Si number density = 18.825082 Si / 1000 Ang^3
#
#
#
# Elastic Constant Matrix: (Units=GPa)
#
#
# Indices 1 2 3 4 5 6 
#
# 1 51.7829 4.0826 20.7262 0.0000 0.0000 0.0000
# 2 4.0826 43.1671 21.7162 0.0000 0.0000 0.0000
# 3 20.7262 21.7162 74.5631 0.0000 0.0000 0.0000
# 4 0.0000 0.0000 0.0000 32.6356 0.0000 0.0000
# 5 0.0000 0.0000 0.0000 0.0000 26.9529 0.0000
# 6 0.0000 0.0000 0.0000 0.0000 0.0000 15.4420
#
#
#
# Elastic Compliance Matrix: (Units=1/GPa)
#
#
# Indices 1 2 3 4 5 6 
#
# 1 0.021778 0.001155 -0.006390 0.000000 0.000000 0.000000
# 2 0.001155 0.027204 -0.008244 0.000000 0.000000 0.000000
# 3 -0.006390 -0.008244 0.017589 0.000000 0.000000 0.000000
# 4 0.000000 0.000000 0.000000 0.030641 0.000000 0.000000
# 5 0.000000 0.000000 0.000000 0.000000 0.037102 0.000000
# 6 0.000000 0.000000 0.000000 0.000000 0.000000 0.064759
#
#
# Mechanical properties :
#
#
# Convention : Reuss Voigt Hill
#
# Bulk Modulus (GPa) = 25.24459 29.17366 27.20913
# Shear Modulus (GPa) = 20.89997 23.20530 22.05264
#
# Velocity S-wave (km/s) = 3.33561 3.51476 3.42636
# Velocity P-wave (km/s) = 5.31735 5.65706 5.48983
#
# Compressibility (1/GPa) = 0.03961245
#
# Stress axis : x y z
#
# Youngs Moduli (GPa) = 45.91801 36.75933 56.85456
#
# Poissons Ratio (x) = -0.04246 0.36330
# Poissons Ratio (y) = -0.05303 0.46872
# Poissons Ratio (z) = 0.29341 0.30305
#
# Static dielectric constant tensor:
#      x y z
#    x 3.671730 0.000000 0.000000 
#    y 0.000000 3.249710 0.000000 
#    z 0.000000 0.000000 3.531440 
# 
# 
# High freq. dielectric constant tensor:
#      x y z
#    x 1.728670 0.000000 0.000000 
#    y 0.000000 1.707160 0.000000 
#    z 0.000000 0.000000 1.732780 
# 
# From -- ./inp_files/6511.got.cif
#   From: 2010.03.12/outbox.cif.g09.slc.cpg/sg57_4_cif.got.tgz:6511.got - 2010.04.16 15:48:40.
