data_PCOD8232459
_publ_section_title
;
Structure prediction by ZEFSAII (Michael W. Deem and Ramdas Pophale) SiO2 
 PCOD8232459
Probable space group: P B C M
;
_chemical_formula_sum "Si O2"
_cell_formula_units_Z 56
_cell_length_a 18.805089
_cell_length_b 18.158543
_cell_length_c 9.124866
_cell_angle_alpha 90.000000
_cell_angle_beta 90.000000
_cell_angle_gamma 90.000000
_cell_volume 3115.895525
_symmetry_space_group_name_H-M "P B C M"
_symmetry_group_IT_number 57
_symmetry_cell_setting 'orthorhombic'
loop_
_space_group_symop_operation_xyz
x,y,z
-x,-y,1/2+z
x,1/2-y,-z
-x,1/2+y,1/2-z
-x,-y,-z
x,y,1/2-z
-x,1/2+y,z
x,1/2-y,1/2+z
loop_
_atom_site_type_symbol
_atom_site_label
_atom_site_fract_x
_atom_site_fract_y
_atom_site_fract_z
Si Si1 0.355298 0.572299 0.581612
Si Si2 0.733726 0.619477 0.916971
Si Si3 0.793779 0.482104 0.419368
Si Si4 0.459589 0.673344 0.421048
Si Si5 0.073023 0.480257 0.424152
Si Si6 0.396138 0.407247 0.580330
Si Si7 0.879203 0.819121 0.086541
O O1 0.375360 0.587750 0.750000
O O2 0.269462 0.577534 0.559483
O O3 0.388341 0.635548 0.481142
O O4 0.386868 0.492692 0.534898
O O5 0.726596 0.589707 0.750000
O O6 0.792863 0.683717 0.920561
O O7 0.760222 0.557884 0.028102
O O8 0.656860 0.643411 0.980661
O O9 0.816187 0.488215 0.250000
O O10 0.864761 0.465504 0.514633
O O11 0.474297 0.750000 0.500000
O O12 0.450127 0.688556 0.250000
O O13 0.524356 0.618102 0.454647
O O14 0.068571 0.489470 0.250000
O O15 0.091760 0.396944 0.473088
O O16 0.000000 0.500000 0.500000
O O17 0.376447 0.395183 0.750000
O O18 0.907170 0.809201 0.250000
O O19 0.911309 0.750000 0.000000
#
# Coordination Sequence:
#
# PCOD8232459 Si02
#       7
#     8   8   8   8   8   8   8
#     4   9  18  34  55  76  98 126 167 214 257 304
#     4   9  17  29  46  71 100 129 163 203 243 293
#     4   9  17  31  52  77 102 128 159 200 247 296
#     4  11  23  36  50  70  99 134 172 215 266 315
#     4  10  20  34  53  80 109 137 171 209 250 298
#     4   9  19  34  51  73  99 131 170 211 257 308
#     4   9  19  32  47  71 102 135 171 204 241 294
#
# _framework density 17.972359999999998
#
# number of rings (size 3 to 8) (size 9 to 14) (size 15 to 20)
#    0.000    2.571    0.000    3.857    0.000    8.000 
#    0.000    2.857    0.000    0.857    0.000    4.000 
#    0.000    0.000    0.000    0.000    0.000    0.000 
#
# Total GULP energy -694046.659259 kJ/mol
# GULP energy per Si atom -12393.690344 kJ/mol
# Density = 1.793145 g / cm^3
# Si number density = 17.972360 Si / 1000 Ang^3
#
#
#
# Elastic Constant Matrix: (Units=GPa)
#
#
# Indices 1 2 3 4 5 6 
#
# 1 113.5212 29.3748 56.1171 0.0000 0.0000 0.0000
# 2 29.3748 50.9849 32.8345 0.0000 0.0000 0.0000
# 3 56.1171 32.8345 92.0581 0.0000 0.0000 0.0000
# 4 0.0000 0.0000 0.0000 26.9188 0.0000 0.0000
# 5 0.0000 0.0000 0.0000 0.0000 34.2187 0.0000
# 6 0.0000 0.0000 0.0000 0.0000 0.0000 13.1817
#
#
#
# Elastic Compliance Matrix: (Units=1/GPa)
#
#
# Indices 1 2 3 4 5 6 
#
# 1 0.012973 -0.003092 -0.006805 0.000000 0.000000 0.000000
# 2 -0.003092 0.026199 -0.007460 0.000000 0.000000 0.000000
# 3 -0.006805 -0.007460 0.017672 0.000000 0.000000 0.000000
# 4 0.000000 0.000000 0.000000 0.037149 0.000000 0.000000
# 5 0.000000 0.000000 0.000000 0.000000 0.029224 0.000000
# 6 0.000000 0.000000 0.000000 0.000000 0.000000 0.075863
#
#
# Mechanical properties :
#
#
# Convention : Reuss Voigt Hill
#
# Bulk Modulus (GPa) = 45.18722 54.80187 49.99455
# Shear Modulus (GPa) = 20.73226 24.07969 22.40597
#
# Velocity S-wave (km/s) = 3.40010 3.66432 3.53468
# Velocity P-wave (km/s) = 6.37271 6.96143 6.67357
#
# Compressibility (1/GPa) = 0.02213015
#
# Stress axis : x y z
#
# Youngs Moduli (GPa) = 77.08268 38.16929 56.58700
#
# Poissons Ratio (x) = 0.11801 0.38510
# Poissons Ratio (y) = 0.23831 0.42213
# Poissons Ratio (z) = 0.52458 0.28474
#
# Static dielectric constant tensor:
#      x y z
#    x 3.575680 0.000000 0.000000 
#    y 0.000000 2.998540 0.000000 
#    z 0.000000 0.000000 3.434890 
# 
# 
# High freq. dielectric constant tensor:
#      x y z
#    x 1.694480 0.000000 0.000000 
#    y 0.000000 1.653430 0.000000 
#    z 0.000000 0.000000 1.707400 
# 
# From -- ./inp_files/7034.got.cif
#   From: 2010.03.12/outbox.cif.g09.slc.cpg/sg57_4_cif.got.tgz:7034.got - 2010.04.16 15:48:40.
