data_PCOD8232821
_publ_section_title
;
Structure prediction by ZEFSAII (Michael W. Deem and Ramdas Pophale) SiO2 
 PCOD8232821
Probable space group: P B C M
;
_chemical_formula_sum "Si O2"
_cell_formula_units_Z 64
_cell_length_a 12.384085
_cell_length_b 28.695903
_cell_length_c 8.672055
_cell_angle_alpha 90.000000
_cell_angle_beta 90.000000
_cell_angle_gamma 90.000000
_cell_volume 3081.809882
_symmetry_space_group_name_H-M "P B C M"
_symmetry_group_IT_number 57
_symmetry_cell_setting 'orthorhombic'
loop_
_space_group_symop_operation_xyz
x,y,z
-x,-y,1/2+z
x,1/2-y,-z
-x,1/2+y,1/2-z
-x,-y,-z
x,y,1/2-z
-x,1/2+y,z
x,1/2-y,1/2+z
loop_
_atom_site_type_symbol
_atom_site_label
_atom_site_fract_x
_atom_site_fract_y
_atom_site_fract_z
Si Si1 0.653098 0.369757 0.432533
Si Si2 0.015950 0.923038 0.925410
Si Si3 0.224471 0.444791 0.927418
Si Si4 0.037658 0.330367 0.428575
Si Si5 0.178222 0.704499 0.568546
Si Si6 0.249695 0.959975 0.569745
Si Si7 0.478497 0.300875 0.932617
Si Si8 0.271061 0.153665 0.934162
O O1 0.637288 0.372480 0.250000
O O2 0.758947 0.341307 0.484965
O O3 0.669748 0.421339 0.499234
O O4 0.551536 0.342719 0.502818
O O5 0.023150 0.903914 0.750000
O O6 0.123006 0.951865 0.967180
O O7 0.904994 0.952030 0.946293
O O8 0.009272 0.881671 0.046691
O O9 0.256983 0.438310 0.750000
O O10 0.281704 0.490756 0.994542
O O11 0.272796 0.400613 0.019173
O O12 0.047978 0.321078 0.250000
O O13 0.157323 0.324715 0.498166
O O14 0.945125 0.296523 0.497340
O O15 0.236579 0.750000 0.500000
O O16 0.181663 0.708057 0.750000
O O17 0.271864 0.962106 0.750000
O O18 0.489542 0.298139 0.750000
O O19 0.509439 0.250000 0.000000
O O20 0.357933 0.314584 0.981035
O O21 0.284492 0.157348 0.750000
#
# Coordination Sequence:
#
# PCOD8232821 Si02
#       8
#     8   8   8   8   8   8   8   8
#     4  11  23  41  63  88 120 158 204 254 307 363
#     4   9  18  31  51  81 119 162 206 247 291 348
#     4  10  20  35  56  87 125 167 210 252 301 357
#     4   9  18  34  55  83 118 156 195 240 297 358
#     4  10  21  35  54  82 116 153 191 238 298 362
#     4  11  21  34  55  87 124 165 209 252 302 360
#     4  12  26  46  70  94 120 154 203 256 308 366
#     4  10  21  40  65  91 123 159 203 255 307 361
#
# _framework density 20.767019999999999
#
# number of rings (size 3 to 8) (size 9 to 14) (size 15 to 20)
#    0.000    1.750    1.250    3.375    0.000    4.500 
#    0.000    1.875    0.000    0.000    0.000    0.000 
#    0.000    0.000    0.000    0.000    0.000    0.000 
#
# Total GULP energy -793227.340990 kJ/mol
# GULP energy per Si atom -12394.177203 kJ/mol
# Density = 2.071975 g / cm^3
# Si number density = 20.767020 Si / 1000 Ang^3
#
#
#
# Elastic Constant Matrix: (Units=GPa)
#
#
# Indices 1 2 3 4 5 6 
#
# 1 64.3585 9.0193 18.1122 0.0000 0.0000 0.0000
# 2 9.0193 62.5414 13.5385 0.0000 0.0000 0.0000
# 3 18.1122 13.5385 58.9227 0.0000 0.0000 0.0000
# 4 0.0000 0.0000 0.0000 36.8677 0.0000 0.0000
# 5 0.0000 0.0000 0.0000 0.0000 26.4382 0.0000
# 6 0.0000 0.0000 0.0000 0.0000 0.0000 31.0257
#
#
#
# Elastic Compliance Matrix: (Units=1/GPa)
#
#
# Indices 1 2 3 4 5 6 
#
# 1 0.017125 -0.001400 -0.004942 0.000000 0.000000 0.000000
# 2 -0.001400 0.016941 -0.003462 0.000000 0.000000 0.000000
# 3 -0.004942 -0.003462 0.019286 0.000000 0.000000 0.000000
# 4 0.000000 0.000000 0.000000 0.027124 0.000000 0.000000
# 5 0.000000 0.000000 0.000000 0.000000 0.037824 0.000000
# 6 0.000000 0.000000 0.000000 0.000000 0.000000 0.032231
#
#
# Mechanical properties :
#
#
# Convention : Reuss Voigt Hill
#
# Bulk Modulus (GPa) = 29.63557 29.68473 29.66015
# Shear Modulus (GPa) = 27.56527 28.54318 28.05422
#
# Velocity S-wave (km/s) = 3.64724 3.71138 3.67945
# Velocity P-wave (km/s) = 5.66021 5.71760 5.68898
#
# Compressibility (1/GPa) = 0.03374323
#
# Stress axis : x y z
#
# Youngs Moduli (GPa) = 58.39400 59.02931 51.85077
#
# Poissons Ratio (x) = 0.08263 0.25627
# Poissons Ratio (y) = 0.08174 0.17952
# Poissons Ratio (z) = 0.28861 0.20437
#
# Static dielectric constant tensor:
#      x y z
#    x 3.914920 0.000000 0.000000 
#    y 0.000000 3.709340 0.000000 
#    z 0.000000 0.000000 3.670410 
# 
# 
# High freq. dielectric constant tensor:
#      x y z
#    x 1.805860 0.000000 0.000000 
#    y 0.000000 1.810620 0.000000 
#    z 0.000000 0.000000 1.812380 
# 
# From -- ./inp_files/3858.got.cif
#   From: 2010.03.12/outbox.cif.g09.slc.cpg/sg57_2_cif.got.tgz:3858.got - 2010.04.16 15:48:40.
