data_PCOD8232465
_publ_section_title
;
Structure prediction by ZEFSAII (Michael W. Deem and Ramdas Pophale) SiO2 
 PCOD8232465
Probable space group: P B C M
;
_chemical_formula_sum "Si O2"
_cell_formula_units_Z 56
_cell_length_a 12.865947
_cell_length_b 20.712846
_cell_length_c 10.681673
_cell_angle_alpha 90.000000
_cell_angle_beta 90.000000
_cell_angle_gamma 90.000000
_cell_volume 2846.563085
_symmetry_space_group_name_H-M "P B C M"
_symmetry_group_IT_number 57
_symmetry_cell_setting 'orthorhombic'
loop_
_space_group_symop_operation_xyz
x,y,z
-x,-y,1/2+z
x,1/2-y,-z
-x,1/2+y,1/2-z
-x,-y,-z
x,y,1/2-z
-x,1/2+y,z
x,1/2-y,1/2+z
loop_
_atom_site_type_symbol
_atom_site_label
_atom_site_fract_x
_atom_site_fract_y
_atom_site_fract_z
Si Si1 0.632065 0.955243 0.107999
Si Si2 0.078741 0.934327 0.111168
Si Si3 0.489917 0.584174 0.109312
Si Si4 0.346670 0.704349 0.382381
Si Si5 0.898692 0.803909 0.889713
Si Si6 0.872588 0.180226 0.440058
Si Si7 0.144685 0.064464 0.992604
O O1 0.604363 0.931511 0.250000
O O2 0.755513 0.950445 0.091764
O O3 0.594175 0.028133 0.087833
O O4 0.577657 0.913767 0.998336
O O5 0.108744 0.915984 0.250000
O O6 0.954404 0.930174 0.097732
O O7 0.135812 0.879472 0.033612
O O8 0.123734 0.005275 0.085671
O O9 0.539020 0.578161 0.250000
O O10 0.430441 0.650197 0.092754
O O11 0.351620 0.750000 0.500000
O O12 0.373647 0.739805 0.250000
O O13 0.231974 0.673899 0.359676
O O14 0.858792 0.780970 0.750000
O O15 0.018900 0.823635 0.866531
O O16 0.883790 0.750000 0.000000
O O17 0.838156 0.868722 0.931060
O O18 0.869819 0.250000 0.500000
#
# Coordination Sequence:
#
# PCOD8232465 Si02
#       7
#     8   8   8   8   8   8   8
#     4  10  20  37  60  81 105 141 181 221 271 329
#     4  10  20  34  53  81 116 150 184 224 270 324
#     4   9  20  37  56  81 109 137 175 225 275 321
#     4  10  20  35  55  80 111 144 178 220 271 323
#     4  10  21  36  55  80 112 149 187 227 270 322
#     4   9  19  32  51  79 111 147 184 219 261 318
#     4  10  21  35  55  83 112 144 184 229 275 323
#
# _framework density 19.672847000000001
#
# number of rings (size 3 to 8) (size 9 to 14) (size 15 to 20)
#    0.000    2.286    0.000    2.143    0.000    9.714 
#    0.000    7.857    0.000    0.000    0.000    0.000 
#    0.000    0.000    0.000    0.000    0.000    0.000 
#
# Total GULP energy -693732.754252 kJ/mol
# GULP energy per Si atom -12388.084897 kJ/mol
# Density = 1.962807 g / cm^3
# Si number density = 19.672847 Si / 1000 Ang^3
#
#
#
# Elastic Constant Matrix: (Units=GPa)
#
#
# Indices 1 2 3 4 5 6 
#
# 1 73.7473 20.8632 41.6375 0.0000 0.0000 0.0000
# 2 20.8632 103.0034 62.5857 0.0000 0.0000 0.0000
# 3 41.6375 62.5857 164.1736 0.0000 0.0000 0.0000
# 4 0.0000 0.0000 0.0000 20.3348 0.0000 0.0000
# 5 0.0000 0.0000 0.0000 0.0000 10.5441 0.0000
# 6 0.0000 0.0000 0.0000 0.0000 0.0000 21.3720
#
#
#
# Elastic Compliance Matrix: (Units=1/GPa)
#
#
# Indices 1 2 3 4 5 6 
#
# 1 0.015905 -0.001003 -0.003652 0.000000 0.000000 0.000000
# 2 -0.001003 0.012698 -0.004586 0.000000 0.000000 0.000000
# 3 -0.003652 -0.004586 0.008766 0.000000 0.000000 0.000000
# 4 0.000000 0.000000 0.000000 0.049177 0.000000 0.000000
# 5 0.000000 0.000000 0.000000 0.000000 0.094840 0.000000
# 6 0.000000 0.000000 0.000000 0.000000 0.000000 0.046790
#
#
# Mechanical properties :
#
#
# Convention : Reuss Voigt Hill
#
# Bulk Modulus (GPa) = 52.94532 65.67746 59.31139
# Shear Modulus (GPa) = 19.76648 24.83937 22.30293
#
# Velocity S-wave (km/s) = 3.17323 3.55719 3.37069
# Velocity P-wave (km/s) = 6.35588 7.09428 6.73521
#
# Compressibility (1/GPa) = 0.01888741
#
# Stress axis : x y z
#
# Youngs Moduli (GPa) = 62.87259 78.75053 114.08165
#
# Poissons Ratio (x) = 0.07898 0.41657
# Poissons Ratio (y) = 0.06305 0.52323
# Poissons Ratio (z) = 0.22958 0.36119
#
# Static dielectric constant tensor:
#      x y z
#    x 3.690330 0.000000 0.000000 
#    y 0.000000 3.505130 0.000000 
#    z 0.000000 0.000000 3.654660 
# 
# 
# High freq. dielectric constant tensor:
#      x y z
#    x 1.749280 0.000000 0.000000 
#    y 0.000000 1.759540 0.000000 
#    z 0.000000 0.000000 1.777110 
# 
# From -- ./inp_files/13107.got.cif
#   From: 2010.03.12/outbox.cif.g09.slc.cpg/sg57_7_cif.got.tgz:13107.got - 2010.04.16 15:48:40.
