data_PCOD8232570
_publ_section_title
;
Structure prediction by ZEFSAII (Michael W. Deem and Ramdas Pophale) SiO2 
 PCOD8232570
Probable space group: P B C M
;
_chemical_formula_sum "Si O2"
_cell_formula_units_Z 60
_cell_length_a 13.509154
_cell_length_b 16.000526
_cell_length_c 12.916102
_cell_angle_alpha 90.000000
_cell_angle_beta 90.000000
_cell_angle_gamma 90.000000
_cell_volume 2791.861555
_symmetry_space_group_name_H-M "P B C M"
_symmetry_group_IT_number 57
_symmetry_cell_setting 'orthorhombic'
loop_
_space_group_symop_operation_xyz
x,y,z
-x,-y,1/2+z
x,1/2-y,-z
-x,1/2+y,1/2-z
-x,-y,-z
x,y,1/2-z
-x,1/2+y,z
x,1/2-y,1/2+z
loop_
_atom_site_type_symbol
_atom_site_label
_atom_site_fract_x
_atom_site_fract_y
_atom_site_fract_z
Si Si1 0.960683 0.437406 0.626988
Si Si2 0.534230 0.806755 0.132632
Si Si3 0.321795 0.342732 0.867058
Si Si4 0.740490 0.386419 0.871899
Si Si5 0.901535 0.705900 0.130515
Si Si6 0.683231 0.939165 0.436255
Si Si7 0.901147 0.887858 0.372767
Si Si8 0.634846 0.250000 0.500000
O O1 0.972628 0.442097 0.750000
O O2 0.854379 0.400122 0.597046
O O3 0.968811 0.534177 0.585225
O O4 0.044761 0.375590 0.578514
O O5 0.501622 0.794117 0.250000
O O6 0.598666 0.726105 0.097190
O O7 0.596290 0.891591 0.123723
O O8 0.434370 0.812185 0.066044
O O9 0.339351 0.373541 0.750000
O O10 0.215223 0.300849 0.880124
O O11 0.329392 0.423208 0.940813
O O12 0.726315 0.378315 0.750000
O O13 0.673610 0.462771 0.913672
O O14 0.704809 0.301855 0.924322
O O15 0.935197 0.707152 0.250000
O O16 0.930850 0.796497 0.078954
O O17 0.787099 0.905333 0.395218
O O18 0.912733 0.881271 0.250000
#
# Coordination Sequence:
#
# PCOD8232570 Si02
#       8
#     8   8   8   8   8   8   8   4
#     4   8  16  33  55  83 117 158 206 249 294 355
#     4  11  21  37  61  91 123 154 192 243 304 363
#     4  10  20  34  55  89 130 159 190 246 310 358
#     4  10  23  43  65  86 118 161 206 252 297 358
#     4   9  16  29  53  83 120 163 202 248 305 355
#     4  11  19  37  61  90 118 159 199 247 301 363
#     4   9  16  28  53  85 118 157 202 248 297 358
#     4  12  24  42  62  86 118 152 200 250 310 360
#
# _framework density 21.491036000000001
#
# number of rings (size 3 to 8) (size 9 to 14) (size 15 to 20)
#    0.000    2.133    2.667    2.400    0.000    0.533 
#    0.000    6.667    0.000    3.200    0.000    0.000 
#    0.000    0.000    0.000    0.000    0.000    0.000 
#
# Total GULP energy -743890.481895 kJ/mol
# GULP energy per Si atom -12398.174698 kJ/mol
# Density = 2.144212 g / cm^3
# Si number density = 21.491036 Si / 1000 Ang^3
#
#
#
# Elastic Constant Matrix: (Units=GPa)
#
#
# Indices 1 2 3 4 5 6 
#
# 1 45.1318 32.7756 10.8754 0.0000 0.0000 0.0000
# 2 32.7756 128.0667 43.0665 0.0000 0.0000 0.0000
# 3 10.8754 43.0665 55.0868 0.0000 0.0000 0.0000
# 4 0.0000 0.0000 0.0000 41.9993 0.0000 0.0000
# 5 0.0000 0.0000 0.0000 0.0000 7.6050 0.0000
# 6 0.0000 0.0000 0.0000 0.0000 0.0000 29.3197
#
#
#
# Elastic Compliance Matrix: (Units=1/GPa)
#
#
# Indices 1 2 3 4 5 6 
#
# 1 0.027216 -0.006998 0.000098 0.000000 0.000000 0.000000
# 2 -0.006998 0.012393 -0.008307 0.000000 0.000000 0.000000
# 3 0.000098 -0.008307 0.024628 0.000000 0.000000 0.000000
# 4 0.000000 0.000000 0.000000 0.023810 0.000000 0.000000
# 5 0.000000 0.000000 0.000000 0.000000 0.131493 0.000000
# 6 0.000000 0.000000 0.000000 0.000000 0.000000 0.034107
#
#
# Mechanical properties :
#
#
# Convention : Reuss Voigt Hill
#
# Bulk Modulus (GPa) = 29.56595 44.63560 37.10078
# Shear Modulus (GPa) = 16.92989 25.22263 21.07626
#
# Velocity S-wave (km/s) = 2.80976 3.42955 3.13501
# Velocity P-wave (km/s) = 4.93088 6.04127 5.51409
#
# Compressibility (1/GPa) = 0.03382269
#
# Stress axis : x y z
#
# Youngs Moduli (GPa) = 36.74311 80.69051 40.60373
#
# Poissons Ratio (x) = 0.56470 -0.00399
# Poissons Ratio (y) = 0.25714 0.33730
# Poissons Ratio (z) = -0.00361 0.67031
#
# Static dielectric constant tensor:
#      x y z
#    x 3.611520 0.000000 0.000000 
#    y 0.000000 4.181170 0.000000 
#    z 0.000000 0.000000 4.055980 
# 
# 
# High freq. dielectric constant tensor:
#      x y z
#    x 1.813820 0.000000 0.000000 
#    y 0.000000 1.840220 0.000000 
#    z 0.000000 0.000000 1.868000 
# 
# From -- ./inp_files/18655.got.cif
#   From: 2010.03.12/outbox.cif.g09.slc.cpg/sg57_10_cif.got.tgz:18655.got - 2010.04.16 15:48:40.
