data_PCOD8232595
_publ_section_title
;
Structure prediction by ZEFSAII (Michael W. Deem and Ramdas Pophale) SiO2 
 PCOD8232595
Probable space group: P B C M
;
_chemical_formula_sum "Si O2"
_cell_formula_units_Z 48
_cell_length_a 18.930199
_cell_length_b 8.580013
_cell_length_c 15.447316
_cell_angle_alpha 90.000000
_cell_angle_beta 90.000000
_cell_angle_gamma 90.000000
_cell_volume 2508.973973
_symmetry_space_group_name_H-M "P B C M"
_symmetry_group_IT_number 57
_symmetry_cell_setting 'orthorhombic'
loop_
_space_group_symop_operation_xyz
x,y,z
-x,-y,1/2+z
x,1/2-y,-z
-x,1/2+y,1/2-z
-x,-y,-z
x,y,1/2-z
-x,1/2+y,z
x,1/2-y,1/2+z
loop_
_atom_site_type_symbol
_atom_site_label
_atom_site_fract_x
_atom_site_fract_y
_atom_site_fract_z
Si Si1 0.821313 0.949409 0.349639
Si Si2 0.689126 0.359618 0.917508
Si Si3 0.922539 0.932915 0.500554
Si Si4 0.577726 0.566074 0.492228
Si Si5 0.669518 0.450425 0.154463
Si Si6 0.817702 0.916375 0.849754
O O1 0.840740 0.990181 0.250000
O O2 0.885576 0.995225 0.412883
O O3 0.804603 0.767281 0.360247
O O4 0.754879 0.047283 0.380740
O O5 0.662881 0.237613 0.845045
O O6 0.707581 0.250000 0.000000
O O7 0.627567 0.483796 0.936756
O O8 0.928966 0.750000 0.500000
O O9 0.879446 0.980881 0.587402
O O10 0.000000 0.000000 0.500000
O O11 0.577685 0.750000 0.500000
O O12 0.500000 0.500000 0.500000
O O13 0.606302 0.527182 0.397681
O O14 0.661522 0.517663 0.250000
O O15 0.746244 0.500684 0.117617
O O16 0.836573 0.959662 0.750000
#
# Coordination Sequence:
#
# PCOD8232595 Si02
#       6
#     8   8   8   8   8   8
#     4  10  20  36  56  80 108 144 186 228 274 330
#     4  10  20  34  57  84 112 143 180 224 274 329
#     4  10  21  35  52  76 108 144 182 226 276 330
#     4  11  22  39  59  80 111 151 188 224 272 327
#     4  10  20  36  58  86 113 140 180 231 277 324
#     4   9  19  36  58  80 107 144 188 231 274 324
#
# _framework density 19.131326999999999
#
# number of rings (size 3 to 8) (size 9 to 14) (size 15 to 20)
#    0.000    2.000    0.000    5.000    0.000    4.000 
#    0.000    5.000    0.000    0.000    0.000    0.000 
#    0.000    0.000    0.000    0.000    0.000    0.000 
#
# Total GULP energy -595064.143357 kJ/mol
# GULP energy per Si atom -12397.169653 kJ/mol
# Density = 1.908778 g / cm^3
# Si number density = 19.131327 Si / 1000 Ang^3
#
#
#
# Elastic Constant Matrix: (Units=GPa)
#
#
# Indices 1 2 3 4 5 6 
#
# 1 167.4294 69.2028 90.6857 0.0000 0.0000 0.0000
# 2 69.2028 97.7296 41.1812 0.0000 0.0000 0.0000
# 3 90.6857 41.1812 123.2443 0.0000 0.0000 0.0000
# 4 0.0000 0.0000 0.0000 17.8696 0.0000 0.0000
# 5 0.0000 0.0000 0.0000 0.0000 21.2669 0.0000
# 6 0.0000 0.0000 0.0000 0.0000 0.0000 39.5760
#
#
#
# Elastic Compliance Matrix: (Units=1/GPa)
#
#
# Indices 1 2 3 4 5 6 
#
# 1 0.012095 -0.005603 -0.007027 0.000000 0.000000 0.000000
# 2 -0.005603 0.014505 -0.000724 0.000000 0.000000 0.000000
# 3 -0.007027 -0.000724 0.013527 0.000000 0.000000 0.000000
# 4 0.000000 0.000000 0.000000 0.055961 0.000000 0.000000
# 5 0.000000 0.000000 0.000000 0.000000 0.047022 0.000000
# 6 0.000000 0.000000 0.000000 0.000000 0.000000 0.025268
#
#
# Mechanical properties :
#
#
# Convention : Reuss Voigt Hill
#
# Bulk Modulus (GPa) = 74.52786 87.83809 81.18297
# Shear Modulus (GPa) = 25.05533 28.23140 26.64336
#
# Velocity S-wave (km/s) = 3.62283 3.84560 3.73588
# Velocity P-wave (km/s) = 7.51933 8.10747 7.81894
#
# Compressibility (1/GPa) = 0.01341780
#
# Stress axis : x y z
#
# Youngs Moduli (GPa) = 82.67917 68.94178 73.92779
#
# Poissons Ratio (x) = 0.38630 0.51952
# Poissons Ratio (y) = 0.46328 0.05350
# Poissons Ratio (z) = 0.58102 0.04989
#
# Static dielectric constant tensor:
#      x y z
#    x 3.245950 0.000000 0.000000 
#    y 0.000000 3.843530 0.000000 
#    z 0.000000 0.000000 3.730970 
# 
# 
# High freq. dielectric constant tensor:
#      x y z
#    x 1.735670 0.000000 0.000000 
#    y 0.000000 1.751270 0.000000 
#    z 0.000000 0.000000 1.751990 
# 
# From -- ./inp_files/18964.got.cif
#   From: 2010.03.12/outbox.cif.g09.slc.cpg/sg57_10_cif.got.tgz:18964.got - 2010.04.16 15:48:40.
