data_PCOD8232363
_publ_section_title
;
Structure prediction by ZEFSAII (Michael W. Deem and Ramdas Pophale) SiO2 
 PCOD8232363
Probable space group: P B C M
;
_chemical_formula_sum "Si O2"
_cell_formula_units_Z 32
_cell_length_a 9.860249
_cell_length_b 20.771105
_cell_length_c 8.786999
_cell_angle_alpha 90.000000
_cell_angle_beta 90.000000
_cell_angle_gamma 90.000000
_cell_volume 1799.650040
_symmetry_space_group_name_H-M "P B C M"
_symmetry_group_IT_number 57
_symmetry_cell_setting 'orthorhombic'
loop_
_space_group_symop_operation_xyz
x,y,z
-x,-y,1/2+z
x,1/2-y,-z
-x,1/2+y,1/2-z
-x,-y,-z
x,y,1/2-z
-x,1/2+y,z
x,1/2-y,1/2+z
loop_
_atom_site_type_symbol
_atom_site_label
_atom_site_fract_x
_atom_site_fract_y
_atom_site_fract_z
Si Si1 0.086626 0.686355 0.920282
Si Si2 0.592268 0.188922 0.915867
Si Si3 0.899482 0.448013 0.568516
Si Si4 0.393197 0.548799 0.567097
O O1 0.025803 0.679314 0.750000
O O2 0.246744 0.695414 0.908861
O O3 0.023337 0.750000 0.000000
O O4 0.051283 0.622917 0.017372
O O5 0.527145 0.191371 0.750000
O O6 0.557326 0.119660 0.989264
O O7 0.526642 0.250000 0.000000
O O8 0.897423 0.451341 0.750000
O O9 0.752736 0.466072 0.502846
O O10 0.000000 0.500000 0.500000
O O11 0.500000 0.500000 0.500000
O O12 0.383499 0.545580 0.750000
#
# Coordination Sequence:
#
# PCOD8232363 Si02
#       4
#     8   8   8   8
#     4   9  16  28  46  71  99 128 164 207 250 296
#     4   8  15  26  43  67  95 123 158 200 241 285
#     4  11  21  34  52  75 103 136 170 210 256 304
#     4  10  20  34  51  75 103 133 168 207 251 303
#
# _framework density 17.781234999999999
#
# number of rings (size 3 to 8) (size 9 to 14) (size 15 to 20)
#    0.000    2.500    0.000    5.250    0.000    7.000 
#    0.000    0.000    0.000    1.500    0.000    7.000 
#    0.000    0.000    0.000    0.000    0.000    0.000 
#
# Total GULP energy -396568.116334 kJ/mol
# GULP energy per Si atom -12392.753635 kJ/mol
# Density = 1.774076 g / cm^3
# Si number density = 17.781235 Si / 1000 Ang^3
#
#
#
# Elastic Constant Matrix: (Units=GPa)
#
#
# Indices 1 2 3 4 5 6 
#
# 1 54.6996 68.8299 42.3417 0.0000 0.0000 0.0000
# 2 68.8299 181.8253 77.5778 0.0000 0.0000 0.0000
# 3 42.3417 77.5778 139.1622 0.0000 0.0000 0.0000
# 4 0.0000 0.0000 0.0000 36.0707 0.0000 0.0000
# 5 0.0000 0.0000 0.0000 0.0000 21.4956 0.0000
# 6 0.0000 0.0000 0.0000 0.0000 0.0000 24.0388
#
#
#
# Elastic Compliance Matrix: (Units=1/GPa)
#
#
# Indices 1 2 3 4 5 6 
#
# 1 0.036959 -0.012062 -0.004521 0.000000 0.000000 0.000000
# 2 -0.012062 0.011153 -0.002547 0.000000 0.000000 0.000000
# 3 -0.004521 -0.002547 0.009981 0.000000 0.000000 0.000000
# 4 0.000000 0.000000 0.000000 0.027723 0.000000 0.000000
# 5 0.000000 0.000000 0.000000 0.000000 0.046521 0.000000
# 6 0.000000 0.000000 0.000000 0.000000 0.000000 0.041599
#
#
# Mechanical properties :
#
#
# Convention : Reuss Voigt Hill
#
# Bulk Modulus (GPa) = 50.42177 83.68731 67.05454
# Shear Modulus (GPa) = 22.85102 28.78353 25.81728
#
# Velocity S-wave (km/s) = 3.58875 4.02775 3.81457
# Velocity P-wave (km/s) = 6.75207 8.29442 7.56267
#
# Compressibility (1/GPa) = 0.01983270
#
# Stress axis : x y z
#
# Youngs Moduli (GPa) = 27.05685 89.66534 100.18574
#
# Poissons Ratio (x) = 1.08153 0.45296
# Poissons Ratio (y) = 0.32636 0.25519
# Poissons Ratio (z) = 0.12233 0.22839
#
# Static dielectric constant tensor:
#      x y z
#    x 2.756110 0.000000 0.000000 
#    y 0.000000 3.720480 0.000000 
#    z 0.000000 0.000000 3.610880 
# 
# 
# High freq. dielectric constant tensor:
#      x y z
#    x 1.622510 0.000000 0.000000 
#    y 0.000000 1.710630 0.000000 
#    z 0.000000 0.000000 1.702960 
# 
# From -- ./inp_files/1222.got.cif
#   From: 2010.03.12/outbox.cif.g09.slc.cpg/sg57_1_cif.got.tgz:1222.got - 2010.04.16 15:48:40.
