data_PCOD8232552
_publ_section_title
;
Structure prediction by ZEFSAII (Michael W. Deem and Ramdas Pophale) SiO2 
 PCOD8232552
Probable space group: P B C M
;
_chemical_formula_sum "Si O2"
_cell_formula_units_Z 64
_cell_length_a 21.159497
_cell_length_b 18.424573
_cell_length_c 8.967839
_cell_angle_alpha 90.000000
_cell_angle_beta 90.000000
_cell_angle_gamma 90.000000
_cell_volume 3496.154157
_symmetry_space_group_name_H-M "P B C M"
_symmetry_group_IT_number 57
_symmetry_cell_setting 'orthorhombic'
loop_
_space_group_symop_operation_xyz
x,y,z
-x,-y,1/2+z
x,1/2-y,-z
-x,1/2+y,1/2-z
-x,-y,-z
x,y,1/2-z
-x,1/2+y,z
x,1/2-y,1/2+z
loop_
_atom_site_type_symbol
_atom_site_label
_atom_site_fract_x
_atom_site_fract_y
_atom_site_fract_z
Si Si1 0.124215 0.823110 0.576099
Si Si2 0.392400 0.177705 0.923435
Si Si3 0.495847 0.576690 0.574723
Si Si4 0.064097 0.525818 0.425872
Si Si5 0.756807 0.111818 0.577336
Si Si6 0.750969 0.674711 0.573272
Si Si7 0.621584 0.172047 0.926055
Si Si8 0.815352 0.960580 0.575464
O O1 0.097647 0.750000 0.500000
O O2 0.130180 0.808718 0.750000
O O3 0.075901 0.888818 0.541219
O O4 0.194010 0.840925 0.516498
O O5 0.396033 0.192743 0.750000
O O6 0.438876 0.114220 0.973073
O O7 0.321361 0.158259 0.972601
O O8 0.417317 0.250000 0.000000
O O9 0.500000 0.500000 0.500000
O O10 0.489887 0.566418 0.750000
O O11 0.435959 0.622390 0.515142
O O12 0.063373 0.510301 0.250000
O O13 0.118027 0.478987 0.502911
O O14 0.000000 0.500000 0.500000
O O15 0.768637 0.130130 0.750000
O O16 0.686537 0.132847 0.525968
O O17 0.766218 0.026186 0.546908
O O18 0.773472 0.750000 0.500000
O O19 0.760495 0.678916 0.750000
O O20 0.792050 0.610937 0.505789
O O21 0.617676 0.182696 0.750000
O O22 0.616553 0.250000 0.000000
O O23 0.824367 0.945301 0.750000
#
# Coordination Sequence:
#
# PCOD8232552 Si02
#       8
#     8   8   8   8   8   8   8   8
#     4  10  20  34  55  83 113 145 182 223 266 316
#     4   9  19  35  54  76 101 135 178 225 275 329
#     4  10  22  37  52  74 104 137 178 225 272 326
#     4  10  21  38  59  84 114 149 188 227 270 319
#     4   9  19  34  53  79 110 143 179 221 269 322
#     4  10  20  35  55  80 109 140 181 231 280 332
#     4  10  21  36  53  76 106 139 177 221 269 323
#     4  10  20  35  57  83 112 146 182 222 272 324
#
# _framework density 18.305828999999999
#
# number of rings (size 3 to 8) (size 9 to 14) (size 15 to 20)
#    0.000    2.250    0.000    2.250    1.750    5.000 
#    0.000    0.625    0.000    1.500    0.000    0.000 
#    0.000    0.000    0.000    0.000    0.000    0.000 
#
# Total GULP energy -793727.793335 kJ/mol
# GULP energy per Si atom -12401.996771 kJ/mol
# Density = 1.826416 g / cm^3
# Si number density = 18.305829 Si / 1000 Ang^3
#
#
#
# Elastic Constant Matrix: (Units=GPa)
#
#
# Indices 1 2 3 4 5 6 
#
# 1 115.6224 86.4110 52.5083 0.0000 0.0000 0.0000
# 2 86.4110 166.1090 69.2452 0.0000 0.0000 0.0000
# 3 52.5083 69.2452 78.5772 0.0000 0.0000 0.0000
# 4 0.0000 0.0000 0.0000 37.9121 0.0000 0.0000
# 5 0.0000 0.0000 0.0000 0.0000 26.5194 0.0000
# 6 0.0000 0.0000 0.0000 0.0000 0.0000 37.5377
#
#
#
# Elastic Compliance Matrix: (Units=1/GPa)
#
#
# Indices 1 2 3 4 5 6 
#
# 1 0.015337 -0.005858 -0.005086 0.000000 0.000000 0.000000
# 2 -0.005858 0.011753 -0.006443 0.000000 0.000000 0.000000
# 3 -0.005086 -0.006443 0.021803 0.000000 0.000000 0.000000
# 4 0.000000 0.000000 0.000000 0.026377 0.000000 0.000000
# 5 0.000000 0.000000 0.000000 0.000000 0.037708 0.000000
# 6 0.000000 0.000000 0.000000 0.000000 0.000000 0.026640
#
#
# Mechanical properties :
#
#
# Convention : Reuss Voigt Hill
#
# Bulk Modulus (GPa) = 70.82882 86.29307 78.56094
# Shear Modulus (GPa) = 27.91756 30.53677 29.22716
#
# Velocity S-wave (km/s) = 3.90944 4.08872 4.00009
# Velocity P-wave (km/s) = 7.69118 8.33860 8.02142
#
# Compressibility (1/GPa) = 0.01411855
#
# Stress axis : x y z
#
# Youngs Moduli (GPa) = 65.20317 85.08214 45.86510
#
# Poissons Ratio (x) = 0.49840 0.23329
# Poissons Ratio (y) = 0.38195 0.29551
# Poissons Ratio (z) = 0.33165 0.54819
#
# Static dielectric constant tensor:
#      x y z
#    x 3.559550 0.000000 0.000000 
#    y 0.000000 3.420860 0.000000 
#    z 0.000000 0.000000 3.395760 
# 
# 
# High freq. dielectric constant tensor:
#      x y z
#    x 1.705640 0.000000 0.000000 
#    y 0.000000 1.717260 0.000000 
#    z 0.000000 0.000000 1.715090 
# 
# From -- ./inp_files/8379.got.cif
#   From: 2010.03.12/outbox.cif.g09.slc.cpg/sg57_5_cif.got.tgz:8379.got - 2010.04.16 15:48:40.
