data_PCOD8232885
_publ_section_title
;
Structure prediction by ZEFSAII (Michael W. Deem and Ramdas Pophale) SiO2 
 PCOD8232885
Probable space group: P B C M
;
_chemical_formula_sum "Si O2"
_cell_formula_units_Z 48
_cell_length_a 19.078232
_cell_length_b 15.007494
_cell_length_c 8.733438
_cell_angle_alpha 90.000000
_cell_angle_beta 90.000000
_cell_angle_gamma 90.000000
_cell_volume 2500.526984
_symmetry_space_group_name_H-M "P B C M"
_symmetry_group_IT_number 57
_symmetry_cell_setting 'orthorhombic'
loop_
_space_group_symop_operation_xyz
x,y,z
-x,-y,1/2+z
x,1/2-y,-z
-x,1/2+y,1/2-z
-x,-y,-z
x,y,1/2-z
-x,1/2+y,z
x,1/2-y,1/2+z
loop_
_atom_site_type_symbol
_atom_site_label
_atom_site_fract_x
_atom_site_fract_y
_atom_site_fract_z
Si Si1 0.001864 0.902955 0.568532
Si Si2 0.601317 0.504893 0.069031
Si Si3 0.143655 0.660442 0.931755
Si Si4 0.504466 0.649911 0.930932
Si Si5 0.850360 0.840551 0.569401
Si Si6 0.240524 0.502093 0.568083
O O1 0.008952 0.908101 0.750000
O O2 0.065928 0.849236 0.498095
O O3 0.930207 0.855568 0.516833
O O4 0.000000 0.000000 0.500000
O O5 0.597508 0.519857 0.250000
O O6 0.561662 0.413026 0.023105
O O7 0.680250 0.493825 0.006819
O O8 0.571470 0.594961 0.991876
O O9 0.138868 0.662377 0.750000
O O10 0.195942 0.585136 0.993028
O O11 0.176444 0.750000 0.000000
O O12 0.510539 0.661377 0.750000
O O13 0.498245 0.750000 0.000000
O O14 0.821339 0.750000 0.500000
O O15 0.845295 0.838213 0.750000
O O16 0.798984 0.915807 0.502843
O O17 0.240739 0.502354 0.750000
#
# Coordination Sequence:
#
# PCOD8232885 Si02
#       6
#     8   8   8   8   8   8
#     4  11  21  36  58  81 107 144 188 237 287 334
#     4   9  19  37  60  83 111 149 187 228 274 324
#     4  11  22  38  57  81 112 147 188 235 282 337
#     4  10  20  35  58  87 115 146 183 226 273 326
#     4  10  21  37  55  78 106 142 182 227 277 327
#     4   9  19  38  58  78 112 149 182 225 280 330
#
# _framework density 19.195952999999999
#
# number of rings (size 3 to 8) (size 9 to 14) (size 15 to 20)
#    0.000    2.000    1.667    2.000    0.000    4.667 
#    0.000    4.167    0.000    0.000    0.000    0.000 
#    0.000    0.000    0.000    0.000    0.000    0.000 
#
# Total GULP energy -595114.194308 kJ/mol
# GULP energy per Si atom -12398.212381 kJ/mol
# Density = 1.915226 g / cm^3
# Si number density = 19.195953 Si / 1000 Ang^3
#
#
#
# Elastic Constant Matrix: (Units=GPa)
#
#
# Indices 1 2 3 4 5 6 
#
# 1 159.9607 79.4376 31.7532 0.0000 0.0000 0.0000
# 2 79.4376 187.2076 37.3012 0.0000 0.0000 0.0000
# 3 31.7532 37.3012 49.8267 0.0000 0.0000 0.0000
# 4 0.0000 0.0000 0.0000 35.7234 0.0000 0.0000
# 5 0.0000 0.0000 0.0000 0.0000 22.5395 0.0000
# 6 0.0000 0.0000 0.0000 0.0000 0.0000 8.7767
#
#
#
# Elastic Compliance Matrix: (Units=1/GPa)
#
#
# Indices 1 2 3 4 5 6 
#
# 1 0.008315 -0.002906 -0.003123 0.000000 0.000000 0.000000
# 2 -0.002906 0.007294 -0.003608 0.000000 0.000000 0.000000
# 3 -0.003123 -0.003608 0.024761 0.000000 0.000000 0.000000
# 4 0.000000 0.000000 0.000000 0.027993 0.000000 0.000000
# 5 0.000000 0.000000 0.000000 0.000000 0.044367 0.000000
# 6 0.000000 0.000000 0.000000 0.000000 0.000000 0.113938
#
#
# Mechanical properties :
#
#
# Convention : Reuss Voigt Hill
#
# Bulk Modulus (GPa) = 47.40571 77.10878 62.25724
# Shear Modulus (GPa) = 19.76495 29.97480 24.86988
#
# Velocity S-wave (km/s) = 3.21228 3.95589 3.60332
# Velocity P-wave (km/s) = 6.20545 7.81805 7.05796
#
# Compressibility (1/GPa) = 0.02109451
#
# Stress axis : x y z
#
# Youngs Moduli (GPa) = 120.27082 137.10562 40.38565
#
# Poissons Ratio (x) = 0.39840 0.12614
# Poissons Ratio (y) = 0.34948 0.14573
# Poissons Ratio (z) = 0.37564 0.49473
#
# Static dielectric constant tensor:
#      x y z
#    x 3.956660 0.000000 0.000000 
#    y 0.000000 3.822410 0.000000 
#    z 0.000000 0.000000 3.242820 
# 
# 
# High freq. dielectric constant tensor:
#      x y z
#    x 1.746610 0.000000 0.000000 
#    y 0.000000 1.761910 0.000000 
#    z 0.000000 0.000000 1.732990 
# 
# From -- ./inp_files/6468.got.cif
#   From: 2010.03.12/outbox.cif.g09.slc.cpg/sg57_4_cif.got.tgz:6468.got - 2010.04.16 15:48:40.
