data_PCOD8232500
_publ_section_title
;
Structure prediction by ZEFSAII (Michael W. Deem and Ramdas Pophale) SiO2 
 PCOD8232500
Probable space group: P B C M
;
_chemical_formula_sum "Si O2"
_cell_formula_units_Z 32
_cell_length_a 10.732529
_cell_length_b 9.275903
_cell_length_c 13.445023
_cell_angle_alpha 90.000000
_cell_angle_beta 90.000000
_cell_angle_gamma 90.000000
_cell_volume 1338.504448
_symmetry_space_group_name_H-M "P B C M"
_symmetry_group_IT_number 57
_symmetry_cell_setting 'orthorhombic'
loop_
_space_group_symop_operation_xyz
x,y,z
-x,-y,1/2+z
x,1/2-y,-z
-x,1/2+y,1/2-z
-x,-y,-z
x,y,1/2-z
-x,1/2+y,z
x,1/2-y,1/2+z
loop_
_atom_site_type_symbol
_atom_site_label
_atom_site_fract_x
_atom_site_fract_y
_atom_site_fract_z
Si Si1 0.835472 0.148421 0.129786
Si Si2 0.640989 0.973886 0.471364
Si Si3 0.265183 0.291483 0.861052
Si Si4 0.017499 0.378062 0.362762
O O1 0.822794 0.138948 0.250000
O O2 0.890898 0.303557 0.093477
O O3 0.701460 0.117019 0.079225
O O4 0.931134 0.024458 0.087781
O O5 0.647027 0.841247 0.394071
O O6 0.716342 0.931678 0.570928
O O7 0.500000 0.000000 0.500000
O O8 0.302603 0.335388 0.750000
O O9 0.121595 0.246461 0.869135
O O10 0.986377 0.417847 0.250000
#
# Coordination Sequence:
#
# PCOD8232500 Si02
#       4
#     8   8   8   8
#     4   9  17  32  55  84 118 150 187 241 293 344
#     4  10  20  34  54  80 109 148 195 231 275 344
#     4   9  19  36  55  76 108 146 182 232 292 342
#     4   8  15  30  53  80 109 144 184 227 287 347
#
# _framework density 23.90728
#
# number of rings (size 3 to 8) (size 9 to 14) (size 15 to 20)
#    0.000    3.000    0.000    2.250    0.000    3.000 
#    0.000    5.000    0.000    3.000    0.000    0.000 
#    0.000    0.000    0.000    0.000    0.000    0.000 
#
# Total GULP energy -396540.832879 kJ/mol
# GULP energy per Si atom -12391.901027 kJ/mol
# Density = 2.385287 g / cm^3
# Si number density = 23.907280 Si / 1000 Ang^3
#
#
#
# Elastic Constant Matrix: (Units=GPa)
#
#
# Indices 1 2 3 4 5 6 
#
# 1 104.5352 43.5133 10.9240 0.0000 0.0000 0.0000
# 2 43.5133 59.5002 19.4485 0.0000 0.0000 0.0000
# 3 10.9240 19.4485 79.5109 0.0000 0.0000 0.0000
# 4 0.0000 0.0000 0.0000 14.3478 0.0000 0.0000
# 5 0.0000 0.0000 0.0000 0.0000 31.0366 0.0000
# 6 0.0000 0.0000 0.0000 0.0000 0.0000 36.6288
#
#
#
# Elastic Compliance Matrix: (Units=1/GPa)
#
#
# Indices 1 2 3 4 5 6 
#
# 1 0.013781 -0.010281 0.000621 0.000000 0.000000 0.000000
# 2 -0.010281 0.025938 -0.004932 0.000000 0.000000 0.000000
# 3 0.000621 -0.004932 0.013698 0.000000 0.000000 0.000000
# 4 0.000000 0.000000 0.000000 0.069697 0.000000 0.000000
# 5 0.000000 0.000000 0.000000 0.000000 0.032220 0.000000
# 6 0.000000 0.000000 0.000000 0.000000 0.000000 0.027301
#
#
# Mechanical properties :
#
#
# Convention : Reuss Voigt Hill
#
# Bulk Modulus (GPa) = 41.26606 43.47977 42.37292
# Shear Modulus (GPa) = 22.73812 27.71335 25.22573
#
# Velocity S-wave (km/s) = 3.08733 3.40840 3.25183
# Velocity P-wave (km/s) = 5.47788 5.80654 5.64460
#
# Compressibility (1/GPa) = 0.02423299
#
# Stress axis : x y z
#
# Youngs Moduli (GPa) = 72.56454 38.55415 73.00423
#
# Poissons Ratio (x) = 0.39639 -0.04537
# Poissons Ratio (y) = 0.74605 0.36004
# Poissons Ratio (z) = -0.04510 0.19014
#
# Static dielectric constant tensor:
#      x y z
#    x 4.077790 0.000000 0.000000 
#    y 0.000000 4.213140 0.000000 
#    z 0.000000 0.000000 4.468180 
# 
# 
# High freq. dielectric constant tensor:
#      x y z
#    x 1.916490 0.000000 0.000000 
#    y 0.000000 1.938390 0.000000 
#    z 0.000000 0.000000 1.957430 
# 
# From -- ./inp_files/15514.got.cif
#   From: 2010.03.12/outbox.cif.g09.slc.cpg/sg57_8_cif.got.tgz:15514.got - 2010.04.16 15:48:40.
