data_PCOD8232695
_publ_section_title
;
Structure prediction by ZEFSAII (Michael W. Deem and Ramdas Pophale) SiO2 
 PCOD8232695
Probable space group: P B C M
;
_chemical_formula_sum "Si O2"
_cell_formula_units_Z 64
_cell_length_a 11.371638
_cell_length_b 16.373276
_cell_length_c 17.428600
_cell_angle_alpha 90.000000
_cell_angle_beta 90.000000
_cell_angle_gamma 90.000000
_cell_volume 3245.047897
_symmetry_space_group_name_H-M "P B C M"
_symmetry_group_IT_number 57
_symmetry_cell_setting 'orthorhombic'
loop_
_space_group_symop_operation_xyz
x,y,z
-x,-y,1/2+z
x,1/2-y,-z
-x,1/2+y,1/2-z
-x,-y,-z
x,y,1/2-z
-x,1/2+y,z
x,1/2-y,1/2+z
loop_
_atom_site_type_symbol
_atom_site_label
_atom_site_fract_x
_atom_site_fract_y
_atom_site_fract_z
Si Si1 0.273365 0.837747 0.163028
Si Si2 0.636336 0.042836 0.417035
Si Si3 0.933257 0.054794 0.840931
Si Si4 0.604851 0.032491 0.582418
Si Si5 0.184540 0.092030 0.595176
Si Si6 0.702639 0.754885 0.658726
Si Si7 0.440806 0.796750 0.840380
Si Si8 0.198807 0.408268 0.582685
O O1 0.249493 0.814400 0.250000
O O2 0.150929 0.871355 0.127416
O O3 0.365159 0.912607 0.155892
O O4 0.337270 0.760329 0.122852
O O5 0.651443 0.076849 0.503953
O O6 0.598725 0.111753 0.357773
O O7 0.534175 0.975312 0.420606
O O8 0.751158 0.994514 0.389240
O O9 0.917627 0.043671 0.750000
O O10 0.062625 0.083557 0.860932
O O11 0.898126 0.968767 0.880140
O O12 0.670182 0.945521 0.589448
O O13 0.259353 0.166022 0.629936
O O14 0.163014 0.107097 0.505238
O O15 0.708106 0.758612 0.750000
O O16 0.570183 0.773627 0.627479
O O17 0.795061 0.821591 0.626067
O O18 0.445149 0.783599 0.750000
#
# Coordination Sequence:
#
# PCOD8232695 Si02
#       8
#     8   8   8   8   8   8   8   8
#     4   9  19  36  57  81 110 150 192 234 286 343
#     4  10  20  35  54  85 119 149 188 240 296 357
#     4  10  21  40  63  84 116 160 206 248 293 354
#     4   9  18  34  57  84 111 150 189 231 296 354
#     4  11  23  38  60  89 121 157 201 251 302 351
#     4  11  22  38  60  89 120 151 198 246 300 367
#     4  10  21  36  56  86 119 152 191 241 299 359
#     4  10  20  39  63  87 116 154 200 247 299 359
#
# _framework density 19.722359000000001
#
# number of rings (size 3 to 8) (size 9 to 14) (size 15 to 20)
#    0.000    2.000    1.250    2.250    0.000    2.500 
#    4.500    0.000    5.500    0.000    0.000    0.000 
#    0.000    0.000    0.000    0.000    0.000    0.000 
#
# Total GULP energy -793212.446558 kJ/mol
# GULP energy per Si atom -12393.944477 kJ/mol
# Density = 1.967747 g / cm^3
# Si number density = 19.722359 Si / 1000 Ang^3
#
#
#
# Elastic Constant Matrix: (Units=GPa)
#
#
# Indices 1 2 3 4 5 6 
#
# 1 112.0755 54.9158 26.7348 0.0000 0.0000 0.0000
# 2 54.9158 97.1279 22.1781 0.0000 0.0000 0.0000
# 3 26.7348 22.1781 49.5994 0.0000 0.0000 0.0000
# 4 0.0000 0.0000 0.0000 28.3849 0.0000 0.0000
# 5 0.0000 0.0000 0.0000 0.0000 24.6271 0.0000
# 6 0.0000 0.0000 0.0000 0.0000 0.0000 28.5054
#
#
#
# Elastic Compliance Matrix: (Units=1/GPa)
#
#
# Indices 1 2 3 4 5 6 
#
# 1 0.013072 -0.006439 -0.004167 0.000000 0.000000 0.000000
# 2 -0.006439 0.014639 -0.003075 0.000000 0.000000 0.000000
# 3 -0.004167 -0.003075 0.023782 0.000000 0.000000 0.000000
# 4 0.000000 0.000000 0.000000 0.035230 0.000000 0.000000
# 5 0.000000 0.000000 0.000000 0.000000 0.040606 0.000000
# 6 0.000000 0.000000 0.000000 0.000000 0.000000 0.035081
#
#
# Mechanical properties :
#
#
# Convention : Reuss Voigt Hill
#
# Bulk Modulus (GPa) = 41.43977 51.82890 46.63434
# Shear Modulus (GPa) = 25.27630 26.63509 25.95569
#
# Velocity S-wave (km/s) = 3.58384 3.67890 3.63168
# Velocity P-wave (km/s) = 6.17919 6.66199 6.42512
#
# Compressibility (1/GPa) = 0.02413141
#
# Stress axis : x y z
#
# Youngs Moduli (GPa) = 76.50163 68.31297 42.04830
#
# Poissons Ratio (x) = 0.43989 0.17519
# Poissons Ratio (y) = 0.49261 0.12928
# Poissons Ratio (z) = 0.31874 0.21004
#
# Static dielectric constant tensor:
#      x y z
#    x 3.611890 0.000000 0.000000 
#    y 0.000000 3.529860 0.000000 
#    z 0.000000 0.000000 3.571410 
# 
# 
# High freq. dielectric constant tensor:
#      x y z
#    x 1.764870 0.000000 0.000000 
#    y 0.000000 1.763200 0.000000 
#    z 0.000000 0.000000 1.764000 
# 
# From -- ./inp_files/22031.got.cif
#   From: 2010.03.12/outbox.cif.g09.slc.cpg/sg57_12_cif.got.tgz:22031.got - 2010.04.16 15:48:40.
