data_PCOD8232399
_publ_section_title
;
Structure prediction by ZEFSAII (Michael W. Deem and Ramdas Pophale) SiO2 
 PCOD8232399
Probable space group: P B C M
;
_chemical_formula_sum "Si O2"
_cell_formula_units_Z 64
_cell_length_a 22.350311
_cell_length_b 17.481959
_cell_length_c 9.128794
_cell_angle_alpha 90.000000
_cell_angle_beta 90.000000
_cell_angle_gamma 90.000000
_cell_volume 3566.868306
_symmetry_space_group_name_H-M "P B C M"
_symmetry_group_IT_number 57
_symmetry_cell_setting 'orthorhombic'
loop_
_space_group_symop_operation_xyz
x,y,z
-x,-y,1/2+z
x,1/2-y,-z
-x,1/2+y,1/2-z
-x,-y,-z
x,y,1/2-z
-x,1/2+y,z
x,1/2-y,1/2+z
loop_
_atom_site_type_symbol
_atom_site_label
_atom_site_fract_x
_atom_site_fract_y
_atom_site_fract_z
Si Si1 0.765007 0.521553 0.080118
Si Si2 0.876631 0.035055 0.419484
Si Si3 0.958492 0.324945 0.577753
Si Si4 0.074084 0.371976 0.415398
Si Si5 0.792110 0.674143 0.920443
Si Si6 0.541190 0.560496 0.579566
Si Si7 0.366959 0.975608 0.418879
Si Si8 0.559164 0.328996 0.080872
O O1 0.777503 0.539413 0.250000
O O2 0.704031 0.474440 0.057853
O O3 0.817290 0.467955 0.017303
O O4 0.760807 0.601166 0.993467
O O5 0.856942 0.039735 0.250000
O O6 0.915392 0.106760 0.471029
O O7 0.918114 0.961683 0.446048
O O8 0.932400 0.250000 0.500000
O O9 0.958770 0.313181 0.750000
O O10 0.026412 0.339043 0.528218
O O11 0.051169 0.357757 0.250000
O O12 0.136691 0.329873 0.442059
O O13 0.774552 0.676031 0.750000
O O14 0.767753 0.750000 0.000000
O O15 0.500000 0.500000 0.500000
O O16 0.545619 0.541185 0.750000
O O17 0.606519 0.549402 0.506839
O O18 0.509922 0.643428 0.555455
O O19 0.384718 0.987208 0.250000
O O20 0.394882 0.895066 0.475299
O O21 0.571472 0.313061 0.250000
O O22 0.571706 0.250000 0.000000
#
# Coordination Sequence:
#
# PCOD8232399 Si02
#       8
#     8   8   8   8   8   8   8   8
#     4  10  20  35  56  77 100 135 174 214 258 300
#     4   9  20  37  53  72  99 131 169 212 254 305
#     4  11  22  34  50  73 101 131 165 208 258 311
#     4   9  18  33  53  75  98 125 160 205 256 311
#     4  10  20  34  52  76 105 133 166 209 256 309
#     4   9  17  30  50  75 102 132 164 200 244 292
#     4   9  19  35  53  76 104 133 172 214 249 297
#     4   9  18  32  50  76 107 134 165 206 248 291
#
# _framework density 17.942910999999999
#
# number of rings (size 3 to 8) (size 9 to 14) (size 15 to 20)
#    0.000    2.500    0.000    3.750    0.000    8.000 
#    0.000    1.250    0.000    4.500    0.000    0.000 
#    0.000    0.000    0.000    0.000    0.000    0.000 
#
# Total GULP energy -793484.091698 kJ/mol
# GULP energy per Si atom -12398.188933 kJ/mol
# Density = 1.790207 g / cm^3
# Si number density = 17.942911 Si / 1000 Ang^3
#
#
#
# Elastic Constant Matrix: (Units=GPa)
#
#
# Indices 1 2 3 4 5 6 
#
# 1 65.3038 32.0348 35.0103 0.0000 0.0000 0.0000
# 2 32.0348 100.5436 42.7871 0.0000 0.0000 0.0000
# 3 35.0103 42.7871 87.4666 0.0000 0.0000 0.0000
# 4 0.0000 0.0000 0.0000 32.7497 0.0000 0.0000
# 5 0.0000 0.0000 0.0000 0.0000 27.7434 0.0000
# 6 0.0000 0.0000 0.0000 0.0000 0.0000 18.1590
#
#
#
# Elastic Compliance Matrix: (Units=1/GPa)
#
#
# Indices 1 2 3 4 5 6 
#
# 1 0.020619 -0.003861 -0.006364 0.000000 0.000000 0.000000
# 2 -0.003861 0.013284 -0.004953 0.000000 0.000000 0.000000
# 3 -0.006364 -0.004953 0.016403 0.000000 0.000000 0.000000
# 4 0.000000 0.000000 0.000000 0.030535 0.000000 0.000000
# 5 0.000000 0.000000 0.000000 0.000000 0.036045 0.000000
# 6 0.000000 0.000000 0.000000 0.000000 0.000000 0.055069
#
#
# Mechanical properties :
#
#
# Convention : Reuss Voigt Hill
#
# Bulk Modulus (GPa) = 50.12628 52.55316 51.33972
# Shear Modulus (GPa) = 23.92788 25.29585 24.61187
#
# Velocity S-wave (km/s) = 3.65575 3.75880 3.70763
# Velocity P-wave (km/s) = 6.76879 6.94196 6.85592
#
# Compressibility (1/GPa) = 0.01994961
#
# Stress axis : x y z
#
# Youngs Moduli (GPa) = 48.49847 75.27950 60.96363
#
# Poissons Ratio (x) = 0.29067 0.38800
# Poissons Ratio (y) = 0.18726 0.30194
# Poissons Ratio (z) = 0.30867 0.37284
#
# Static dielectric constant tensor:
#      x y z
#    x 3.070360 0.000000 0.000000 
#    y 0.000000 3.397260 0.000000 
#    z 0.000000 0.000000 3.458280 
# 
# 
# High freq. dielectric constant tensor:
#      x y z
#    x 1.678520 0.000000 0.000000 
#    y 0.000000 1.687650 0.000000 
#    z 0.000000 0.000000 1.703000 
# 
# From -- ./inp_files/8579.got.cif
#   From: 2010.03.12/outbox.cif.g09.slc.cpg/sg57_5_cif.got.tgz:8579.got - 2010.04.16 15:48:40.
