data_PCOD8232772
_publ_section_title
;
Structure prediction by ZEFSAII (Michael W. Deem and Ramdas Pophale) SiO2 
 PCOD8232772
Probable space group: P B C M
;
_chemical_formula_sum "Si O2"
_cell_formula_units_Z 64
_cell_length_a 19.811711
_cell_length_b 18.314649
_cell_length_c 9.606408
_cell_angle_alpha 90.000000
_cell_angle_beta 90.000000
_cell_angle_gamma 90.000000
_cell_volume 3485.632625
_symmetry_space_group_name_H-M "P B C M"
_symmetry_group_IT_number 57
_symmetry_cell_setting 'orthorhombic'
loop_
_space_group_symop_operation_xyz
x,y,z
-x,-y,1/2+z
x,1/2-y,-z
-x,1/2+y,1/2-z
-x,-y,-z
x,y,1/2-z
-x,1/2+y,z
x,1/2-y,1/2+z
loop_
_atom_site_type_symbol
_atom_site_label
_atom_site_fract_x
_atom_site_fract_y
_atom_site_fract_z
Si Si1 0.778602 0.820405 0.089931
Si Si2 0.609921 0.322035 0.410596
Si Si3 0.030801 0.822044 0.089711
Si Si4 0.339733 0.422640 0.409185
Si Si5 0.867177 0.447314 0.410487
Si Si6 0.712856 0.446910 0.410738
Si Si7 0.492176 0.071753 0.909719
Si Si8 0.094385 0.419818 0.088752
O O1 0.778938 0.795950 0.250000
O O2 0.707197 0.855160 0.044603
O O3 0.835120 0.880386 0.059439
O O4 0.794290 0.750000 0.000000
O O5 0.617042 0.250000 0.500000
O O6 0.602081 0.299593 0.250000
O O7 0.677127 0.369446 0.435203
O O8 0.544219 0.366849 0.461607
O O9 0.021561 0.799154 0.250000
O O10 0.098280 0.869087 0.067401
O O11 0.966107 0.867905 0.038821
O O12 0.037747 0.750000 0.000000
O O13 0.323035 0.444249 0.250000
O O14 0.326822 0.492973 0.502325
O O15 0.416757 0.396613 0.426338
O O16 0.871542 0.471664 0.250000
O O17 0.789991 0.440427 0.461075
O O18 0.907627 0.506405 0.500254
O O19 0.708439 0.470256 0.250000
O O20 0.508263 0.050823 0.750000
O O21 0.500000 0.000000 0.000000
O O22 0.085377 0.440848 0.250000
#
# Coordination Sequence:
#
# PCOD8232772 Si02
#       8
#     8   8   8   8   8   8   8   8
#     4  10  21  35  52  79 111 142 178 219 266 322
#     4  10  22  38  55  81 114 146 184 228 275 326
#     4  10  22  38  55  80 113 147 184 227 275 329
#     4  10  20  35  56  81 109 141 181 225 270 325
#     4  10  21  36  57  84 111 141 184 231 275 328
#     4  10  20  36  57  81 110 144 183 228 275 326
#     4  10  20  35  57  82 109 142 182 227 272 325
#     4  10  20  36  57  81 110 144 183 227 272 325
#
# _framework density 18.361087000000001
#
# number of rings (size 3 to 8) (size 9 to 14) (size 15 to 20)
#    0.000    2.000    2.500    0.750    0.000    4.000 
#    0.000    0.000    0.000    0.000    0.000    0.000 
#    0.000    0.000    0.000    0.000    0.000    0.000 
#
# Total GULP energy -793860.982869 kJ/mol
# GULP energy per Si atom -12404.077857 kJ/mol
# Density = 1.831930 g / cm^3
# Si number density = 18.361087 Si / 1000 Ang^3
#
#
#
# Elastic Constant Matrix: (Units=GPa)
#
#
# Indices 1 2 3 4 5 6 
#
# 1 84.8561 26.7122 20.9502 0.0000 0.0000 0.0000
# 2 26.7122 103.3110 56.1605 0.0000 0.0000 0.0000
# 3 20.9502 56.1605 62.1125 0.0000 0.0000 0.0000
# 4 0.0000 0.0000 0.0000 40.2918 0.0000 0.0000
# 5 0.0000 0.0000 0.0000 0.0000 22.7855 0.0000
# 6 0.0000 0.0000 0.0000 0.0000 0.0000 23.0734
#
#
#
# Elastic Compliance Matrix: (Units=1/GPa)
#
#
# Indices 1 2 3 4 5 6 
#
# 1 0.013048 -0.001930 -0.002656 0.000000 0.000000 0.000000
# 2 -0.001930 0.019321 -0.016819 0.000000 0.000000 0.000000
# 3 -0.002656 -0.016819 0.032203 0.000000 0.000000 0.000000
# 4 0.000000 0.000000 0.000000 0.024819 0.000000 0.000000
# 5 0.000000 0.000000 0.000000 0.000000 0.043887 0.000000
# 6 0.000000 0.000000 0.000000 0.000000 0.000000 0.043340
#
#
# Mechanical properties :
#
#
# Convention : Reuss Voigt Hill
#
# Bulk Modulus (GPa) = 45.95060 50.88060 48.41560
# Shear Modulus (GPa) = 22.05728 26.99394 24.52561
#
# Velocity S-wave (km/s) = 3.46975 3.83844 3.65874
# Velocity P-wave (km/s) = 6.41347 6.88593 6.65390
#
# Compressibility (1/GPa) = 0.02176250
#
# Stress axis : x y z
#
# Youngs Moduli (GPa) = 76.64063 51.75620 31.05307
#
# Poissons Ratio (x) = 0.09988 0.08248
# Poissons Ratio (y) = 0.14790 0.52228
# Poissons Ratio (z) = 0.20357 0.87048
#
# Static dielectric constant tensor:
#      x y z
#    x 3.764710 0.000000 0.000000 
#    y 0.000000 3.141730 0.000000 
#    z 0.000000 0.000000 3.355880 
# 
# 
# High freq. dielectric constant tensor:
#      x y z
#    x 1.731880 0.000000 0.000000 
#    y 0.000000 1.700260 0.000000 
#    z 0.000000 0.000000 1.708290 
# 
# From -- ./inp_files/8523.got.cif
#   From: 2010.03.12/outbox.cif.g09.slc.cpg/sg57_5_cif.got.tgz:8523.got - 2010.04.16 15:48:40.
