data_PCOD8232596
_publ_section_title
;
Structure prediction by ZEFSAII (Michael W. Deem and Ramdas Pophale) SiO2 
 PCOD8232596
Probable space group: P B C M
;
_chemical_formula_sum "Si O2"
_cell_formula_units_Z 64
_cell_length_a 23.715408
_cell_length_b 14.714585
_cell_length_c 9.131051
_cell_angle_alpha 90.000000
_cell_angle_beta 90.000000
_cell_angle_gamma 90.000000
_cell_volume 3186.393351
_symmetry_space_group_name_H-M "P B C M"
_symmetry_group_IT_number 57
_symmetry_cell_setting 'orthorhombic'
loop_
_space_group_symop_operation_xyz
x,y,z
-x,-y,1/2+z
x,1/2-y,-z
-x,1/2+y,1/2-z
-x,-y,-z
x,y,1/2-z
-x,1/2+y,z
x,1/2-y,1/2+z
loop_
_atom_site_type_symbol
_atom_site_label
_atom_site_fract_x
_atom_site_fract_y
_atom_site_fract_z
Si Si1 0.542208 0.341392 0.420948
Si Si2 0.413499 0.342419 0.421655
Si Si3 0.244263 0.980121 0.082340
Si Si4 0.897804 0.833673 0.412175
Si Si5 0.370512 0.509729 0.582296
Si Si6 0.232442 0.166174 0.588873
Si Si7 0.148092 0.845525 0.419950
Si Si8 0.940372 0.497889 0.078554
O O1 0.560931 0.250000 0.500000
O O2 0.550347 0.324948 0.250000
O O3 0.478121 0.367977 0.460276
O O4 0.583242 0.420193 0.478577
O O5 0.395798 0.250000 0.500000
O O6 0.404270 0.331078 0.250000
O O7 0.372675 0.420151 0.482819
O O8 0.227430 0.001900 0.250000
O O9 0.308625 0.945003 0.069884
O O10 0.201975 0.902967 0.020586
O O11 0.239623 0.071911 0.992731
O O12 0.927055 0.750000 0.500000
O O13 0.926157 0.844178 0.250000
O O14 0.832836 0.811191 0.390164
O O15 0.902298 0.924479 0.507191
O O16 0.383970 0.482793 0.750000
O O17 0.260872 0.250000 0.500000
O O18 0.260996 0.160449 0.750000
O O19 0.143599 0.750000 0.500000
O O20 0.156491 0.824590 0.250000
O O21 0.090727 0.901961 0.448474
O O22 0.947823 0.517637 0.250000
O O23 0.000000 0.500000 0.000000
#
# Coordination Sequence:
#
# PCOD8232596 Si02
#       8
#     8   8   8   8   8   8   8   8
#     4   9  19  35  55  81 111 147 189 237 291 344
#     4  10  20  35  56  81 113 150 191 236 288 349
#     4  10  21  39  59  82 115 153 192 237 288 342
#     4  10  20  35  58  87 116 148 185 229 283 340
#     4  10  21  36  56  82 114 149 189 238 290 342
#     4  10  20  34  57  85 112 145 185 230 280 341
#     4  10  23  42  64  87 116 155 196 237 286 338
#     4  11  23  40  62  89 122 156 194 242 290 343
#
# _framework density 20.085404
#
# number of rings (size 3 to 8) (size 9 to 14) (size 15 to 20)
#    0.000    2.000    1.250    1.875    0.000    5.500 
#    0.000    1.250    0.000    0.000    0.000    0.000 
#    0.000    0.000    0.000    0.000    0.000    0.000 
#
# Total GULP energy -793659.936220 kJ/mol
# GULP energy per Si atom -12400.936503 kJ/mol
# Density = 2.003969 g / cm^3
# Si number density = 20.085404 Si / 1000 Ang^3
#
#
#
# Elastic Constant Matrix: (Units=GPa)
#
#
# Indices 1 2 3 4 5 6 
#
# 1 82.6591 35.9312 29.5061 0.0000 0.0000 0.0000
# 2 35.9312 133.7956 62.4990 0.0000 0.0000 0.0000
# 3 29.5061 62.4990 107.7877 0.0000 0.0000 0.0000
# 4 0.0000 0.0000 0.0000 41.5132 0.0000 0.0000
# 5 0.0000 0.0000 0.0000 0.0000 23.1876 0.0000
# 6 0.0000 0.0000 0.0000 0.0000 0.0000 12.0327
#
#
#
# Elastic Compliance Matrix: (Units=1/GPa)
#
#
# Indices 1 2 3 4 5 6 
#
# 1 0.014094 -0.002719 -0.002281 0.000000 0.000000 0.000000
# 2 -0.002719 0.010775 -0.005503 0.000000 0.000000 0.000000
# 3 -0.002281 -0.005503 0.013093 0.000000 0.000000 0.000000
# 4 0.000000 0.000000 0.000000 0.024089 0.000000 0.000000
# 5 0.000000 0.000000 0.000000 0.000000 0.043126 0.000000
# 6 0.000000 0.000000 0.000000 0.000000 0.000000 0.083107
#
#
# Mechanical properties :
#
#
# Convention : Reuss Voigt Hill
#
# Bulk Modulus (GPa) = 58.98253 64.45721 61.71987
# Shear Modulus (GPa) = 23.26183 28.43378 25.84780
#
# Velocity S-wave (km/s) = 3.40685 3.76659 3.59122
# Velocity P-wave (km/s) = 6.70113 7.14685 6.92757
#
# Compressibility (1/GPa) = 0.01695417
#
# Stress axis : x y z
#
# Youngs Moduli (GPa) = 70.95044 92.80626 76.37628
#
# Poissons Ratio (x) = 0.25237 0.17425
# Poissons Ratio (y) = 0.19294 0.42033
# Poissons Ratio (z) = 0.16187 0.51075
#
# Static dielectric constant tensor:
#      x y z
#    x 3.715480 0.000000 0.000000 
#    y 0.000000 3.621450 0.000000 
#    z 0.000000 0.000000 3.936070 
# 
# 
# High freq. dielectric constant tensor:
#      x y z
#    x 1.780970 0.000000 0.000000 
#    y 0.000000 1.779750 0.000000 
#    z 0.000000 0.000000 1.788960 
# 
# From -- ./inp_files/9253.got.cif
#   From: 2010.03.12/outbox.cif.g09.slc.cpg/sg57_5_cif.got.tgz:9253.got - 2010.04.16 15:48:40.
