data_PCOD8232714
_publ_section_title
;
Structure prediction by ZEFSAII (Michael W. Deem and Ramdas Pophale) SiO2 
 PCOD8232714
Probable space group: P B C M
;
_chemical_formula_sum "Si O2"
_cell_formula_units_Z 48
_cell_length_a 30.370692
_cell_length_b 9.474084
_cell_length_c 8.848352
_cell_angle_alpha 90.000000
_cell_angle_beta 90.000000
_cell_angle_gamma 90.000000
_cell_volume 2545.976025
_symmetry_space_group_name_H-M "P B C M"
_symmetry_group_IT_number 57
_symmetry_cell_setting 'orthorhombic'
loop_
_space_group_symop_operation_xyz
x,y,z
-x,-y,1/2+z
x,1/2-y,-z
-x,1/2+y,1/2-z
-x,-y,-z
x,y,1/2-z
-x,1/2+y,z
x,1/2-y,1/2+z
loop_
_atom_site_type_symbol
_atom_site_label
_atom_site_fract_x
_atom_site_fract_y
_atom_site_fract_z
Si Si1 0.963000 0.596340 0.573307
Si Si2 0.882288 0.396530 0.573137
Si Si3 0.464939 0.899225 0.426802
Si Si4 0.289047 0.098221 0.072190
Si Si5 0.790166 0.102185 0.571045
Si Si6 0.365792 0.899311 0.073506
O O1 0.962434 0.750000 0.500000
O O2 0.972978 0.612300 0.750000
O O3 0.916508 0.521402 0.542758
O O4 0.000000 0.500000 0.500000
O O5 0.899411 0.250000 0.500000
O O6 0.874920 0.369558 0.750000
O O7 0.836852 0.445353 0.496984
O O8 0.473288 0.750000 0.500000
O O9 0.473517 0.888815 0.250000
O O10 0.415333 0.951468 0.463081
O O11 0.500000 0.000000 0.500000
O O12 0.292173 0.116354 0.250000
O O13 0.245315 0.014567 0.024482
O O14 0.331952 0.015584 0.010003
O O15 0.287272 0.250000 0.000000
O O16 0.774866 0.250000 0.500000
O O17 0.794236 0.119464 0.750000
O O18 0.358629 0.877161 0.250000
O O19 0.355122 0.750000 0.000000
#
# Coordination Sequence:
#
# PCOD8232714 Si02
#       6
#     8   8   8   8   8   8
#     4  11  24  40  60  85 114 149 187 229 276 326
#     4  10  21  37  58  84 112 144 182 223 269 321
#     4  10  20  35  55  79 108 141 178 221 269 322
#     4  10  22  37  53  78 109 140 177 220 267 317
#     4  10  20  35  57  82 108 141 180 221 265 318
#     4   9  19  36  56  78 104 137 178 220 264 318
#
# _framework density 18.853280999999999
#
# number of rings (size 3 to 8) (size 9 to 14) (size 15 to 20)
#    0.000    2.000    0.000    4.000    0.000    8.000 
#    0.000    5.000    0.000    0.000    0.000    0.000 
#    0.000    0.000    0.000    0.000    0.000    0.000 
#
# Total GULP energy -595282.659921 kJ/mol
# GULP energy per Si atom -12401.722082 kJ/mol
# Density = 1.881037 g / cm^3
# Si number density = 18.853281 Si / 1000 Ang^3
#
#
#
# Elastic Constant Matrix: (Units=GPa)
#
#
# Indices 1 2 3 4 5 6 
#
# 1 146.4803 110.9685 75.9338 0.0000 0.0000 0.0000
# 2 110.9685 163.5182 78.2084 0.0000 0.0000 0.0000
# 3 75.9338 78.2084 99.5786 0.0000 0.0000 0.0000
# 4 0.0000 0.0000 0.0000 38.9505 0.0000 0.0000
# 5 0.0000 0.0000 0.0000 0.0000 28.8768 0.0000
# 6 0.0000 0.0000 0.0000 0.0000 0.0000 32.8126
#
#
#
# Elastic Compliance Matrix: (Units=1/GPa)
#
#
# Indices 1 2 3 4 5 6 
#
# 1 0.015931 -0.008010 -0.005858 0.000000 0.000000 0.000000
# 2 -0.008010 0.013822 -0.004748 0.000000 0.000000 0.000000
# 3 -0.005858 -0.004748 0.018238 0.000000 0.000000 0.000000
# 4 0.000000 0.000000 0.000000 0.025674 0.000000 0.000000
# 5 0.000000 0.000000 0.000000 0.000000 0.034630 0.000000
# 6 0.000000 0.000000 0.000000 0.000000 0.000000 0.030476
#
#
# Mechanical properties :
#
#
# Convention : Reuss Voigt Hill
#
# Bulk Modulus (GPa) = 92.92984 104.42204 98.67594
# Shear Modulus (GPa) = 27.84140 29.75907 28.80024
#
# Velocity S-wave (km/s) = 3.84701 3.97729 3.91269
# Velocity P-wave (km/s) = 8.31449 8.75207 8.53608
#
# Compressibility (1/GPa) = 0.01076081
#
# Stress axis : x y z
#
# Youngs Moduli (GPa) = 62.76899 72.34762 54.83093
#
# Poissons Ratio (x) = 0.57950 0.32117
# Poissons Ratio (y) = 0.50278 0.26033
# Poissons Ratio (z) = 0.36767 0.34349
#
# Static dielectric constant tensor:
#      x y z
#    x 3.693550 0.000000 0.000000 
#    y 0.000000 2.840270 0.000000 
#    z 0.000000 0.000000 3.573250 
# 
# 
# High freq. dielectric constant tensor:
#      x y z
#    x 1.747890 0.000000 0.000000 
#    y 0.000000 1.731420 0.000000 
#    z 0.000000 0.000000 1.742260 
# 
# From -- ./inp_files/10078.got.cif
#   From: 2010.03.12/outbox.cif.g09.slc.cpg/sg57_6_cif.got.tgz:10078.got - 2010.04.16 15:48:40.
