data_PCOD8232820
_publ_section_title
;
Structure prediction by ZEFSAII (Michael W. Deem and Ramdas Pophale) SiO2 
 PCOD8232820
Probable space group: P B C M
;
_chemical_formula_sum "Si O2"
_cell_formula_units_Z 48
_cell_length_a 13.447126
_cell_length_b 19.158279
_cell_length_c 8.595328
_cell_angle_alpha 90.000000
_cell_angle_beta 90.000000
_cell_angle_gamma 90.000000
_cell_volume 2214.360990
_symmetry_space_group_name_H-M "P B C M"
_symmetry_group_IT_number 57
_symmetry_cell_setting 'orthorhombic'
loop_
_space_group_symop_operation_xyz
x,y,z
-x,-y,1/2+z
x,1/2-y,-z
-x,1/2+y,1/2-z
-x,-y,-z
x,y,1/2-z
-x,1/2+y,z
x,1/2-y,1/2+z
loop_
_atom_site_type_symbol
_atom_site_label
_atom_site_fract_x
_atom_site_fract_y
_atom_site_fract_z
Si Si1 0.609395 0.413874 0.067495
Si Si2 0.003764 0.324273 0.572178
Si Si3 0.225954 0.674809 0.428873
Si Si4 0.310725 0.451145 0.065048
Si Si5 0.427586 0.328148 0.934200
Si Si6 0.088218 0.455142 0.430282
O O1 0.587012 0.415594 0.250000
O O2 0.717047 0.381869 0.030923
O O3 0.610063 0.493012 0.002177
O O4 0.529533 0.365195 0.983862
O O5 0.023435 0.250000 0.500000
O O6 0.039161 0.325851 0.750000
O O7 0.888911 0.345979 0.558847
O O8 0.070550 0.374967 0.470297
O O9 0.247679 0.750000 0.500000
O O10 0.262055 0.673543 0.250000
O O11 0.319754 0.449219 0.250000
O O12 0.199474 0.473305 0.010547
O O13 0.336481 0.374507 0.999093
O O14 0.421587 0.323914 0.750000
O O15 0.421624 0.250000 0.000000
O O16 0.083640 0.469042 0.250000
O O17 0.000000 0.500000 0.500000
#
# Coordination Sequence:
#
# PCOD8232820 Si02
#       6
#     8   8   8   8   8   8
#     4  12  24  40  64  94 127 165 206 255 311 371
#     4  10  21  37  59  86 121 162 208 259 313 372
#     4  10  20  35  56  87 124 164 209 261 315 371
#     4  11  25  45  66  93 127 165 208 257 310 368
#     4  12  26  46  70  96 127 165 207 255 307 368
#     4  11  24  41  64  92 126 165 209 259 311 368
#
# _framework density 21.676684000000002
#
# number of rings (size 3 to 8) (size 9 to 14) (size 15 to 20)
#    0.000    1.000    0.000    7.000    0.000    9.333 
#    0.000    0.000    0.000    0.000    0.000    0.000 
#    0.000    0.000    0.000    0.000    0.000    0.000 
#
# Total GULP energy -595348.885965 kJ/mol
# GULP energy per Si atom -12403.101791 kJ/mol
# Density = 2.162735 g / cm^3
# Si number density = 21.676684 Si / 1000 Ang^3
#
#
#
# Elastic Constant Matrix: (Units=GPa)
#
#
# Indices 1 2 3 4 5 6 
#
# 1 98.3564 61.2972 46.1625 0.0000 0.0000 0.0000
# 2 61.2972 113.1803 48.8417 0.0000 0.0000 0.0000
# 3 46.1625 48.8417 90.2230 0.0000 0.0000 0.0000
# 4 0.0000 0.0000 0.0000 43.9390 0.0000 0.0000
# 5 0.0000 0.0000 0.0000 0.0000 32.1127 0.0000
# 6 0.0000 0.0000 0.0000 0.0000 0.0000 32.0596
#
#
#
# Elastic Compliance Matrix: (Units=1/GPa)
#
#
# Indices 1 2 3 4 5 6 
#
# 1 0.016795 -0.007030 -0.004788 0.000000 0.000000 0.000000
# 2 -0.007030 0.014471 -0.004237 0.000000 0.000000 0.000000
# 3 -0.004788 -0.004237 0.015827 0.000000 0.000000 0.000000
# 4 0.000000 0.000000 0.000000 0.022759 0.000000 0.000000
# 5 0.000000 0.000000 0.000000 0.000000 0.031140 0.000000
# 6 0.000000 0.000000 0.000000 0.000000 0.000000 0.031192
#
#
# Mechanical properties :
#
#
# Convention : Reuss Voigt Hill
#
# Bulk Modulus (GPa) = 66.73742 68.26250 67.49996
# Shear Modulus (GPa) = 29.53528 31.31949 30.42739
#
# Velocity S-wave (km/s) = 3.69526 3.80524 3.75065
# Velocity P-wave (km/s) = 7.00436 7.13204 7.06849
#
# Compressibility (1/GPa) = 0.01498410
#
# Stress axis : x y z
#
# Youngs Moduli (GPa) = 59.53992 69.10200 63.18360
#
# Poissons Ratio (x) = 0.48580 0.30250
# Poissons Ratio (y) = 0.41858 0.26771
# Poissons Ratio (z) = 0.28505 0.29278
#
# Static dielectric constant tensor:
#      x y z
#    x 4.321190 0.000000 0.000000 
#    y 0.000000 4.197980 0.000000 
#    z 0.000000 0.000000 3.903970 
# 
# 
# High freq. dielectric constant tensor:
#      x y z
#    x 1.855150 0.000000 0.000000 
#    y 0.000000 1.866880 0.000000 
#    z 0.000000 0.000000 1.861620 
# 
# From -- ./inp_files/4723.got.cif
#   From: 2010.03.12/outbox.cif.g09.slc.cpg/sg57_3_cif.got.tgz:4723.got - 2010.04.16 15:48:40.
