data_PCOD8232638
_publ_section_title
;
Structure prediction by ZEFSAII (Michael W. Deem and Ramdas Pophale) SiO2 
 PCOD8232638
Probable space group: P B C M
;
_chemical_formula_sum "Si O2"
_cell_formula_units_Z 48
_cell_length_a 30.546404
_cell_length_b 9.378555
_cell_length_c 9.066921
_cell_angle_alpha 90.000000
_cell_angle_beta 90.000000
_cell_angle_gamma 90.000000
_cell_volume 2597.501773
_symmetry_space_group_name_H-M "P B C M"
_symmetry_group_IT_number 57
_symmetry_cell_setting 'orthorhombic'
loop_
_space_group_symop_operation_xyz
x,y,z
-x,-y,1/2+z
x,1/2-y,-z
-x,1/2+y,1/2-z
-x,-y,-z
x,y,1/2-z
-x,1/2+y,z
x,1/2-y,1/2+z
loop_
_atom_site_type_symbol
_atom_site_label
_atom_site_fract_x
_atom_site_fract_y
_atom_site_fract_z
Si Si1 0.804105 0.898352 0.577231
Si Si2 0.880253 0.100159 0.578871
Si Si3 0.368306 0.896965 0.419366
Si Si4 0.963211 0.904726 0.924398
Si Si5 0.705379 0.895677 0.922684
Si Si6 0.534189 0.099880 0.578825
O O1 0.816449 0.750000 0.500000
O O2 0.810805 0.871870 0.750000
O O3 0.754612 0.946648 0.538829
O O4 0.835503 0.025825 0.521870
O O5 0.888879 0.250000 0.500000
O O6 0.877369 0.136882 0.750000
O O7 0.918148 0.986762 0.545813
O O8 0.365115 0.750000 0.500000
O O9 0.358244 0.866968 0.250000
O O10 0.416788 0.964663 0.439592
O O11 0.330478 0.995962 0.486905
O O12 0.972663 0.886699 0.750000
O O13 0.961392 0.750000 0.000000
O O14 0.000000 0.000000 0.000000
O O15 0.699396 0.873191 0.750000
O O16 0.694324 0.750000 0.000000
O O17 0.531530 0.250000 0.500000
O O18 0.521798 0.117551 0.750000
O O19 0.500000 0.000000 0.500000
#
# Coordination Sequence:
#
# PCOD8232638 Si02
#       6
#     8   8   8   8   8   8
#     4   9  18  34  54  76 103 135 171 211 255 303
#     4  10  22  37  54  79 109 140 175 216 260 308
#     4   9  19  34  51  73 101 132 166 206 251 301
#     4  11  23  39  59  83 111 143 180 221 266 314
#     4   9  18  33  52  75 103 133 168 209 252 301
#     4  10  20  35  53  74 101 133 170 211 257 307
#
# _framework density 18.479295
#
# number of rings (size 3 to 8) (size 9 to 14) (size 15 to 20)
#    0.000    2.333    0.000    2.000    0.000    6.000 
#    0.000    1.667    0.000    0.000    0.000    0.000 
#    0.000    0.000    0.000    0.000    0.000    0.000 
#
# Total GULP energy -595108.304879 kJ/mol
# GULP energy per Si atom -12398.089685 kJ/mol
# Density = 1.843723 g / cm^3
# Si number density = 18.479295 Si / 1000 Ang^3
#
#
#
# Elastic Constant Matrix: (Units=GPa)
#
#
# Indices 1 2 3 4 5 6 
#
# 1 135.0378 81.7732 58.5933 0.0000 0.0000 0.0000
# 2 81.7732 123.3696 59.0740 0.0000 0.0000 0.0000
# 3 58.5933 59.0740 78.0604 0.0000 0.0000 0.0000
# 4 0.0000 0.0000 0.0000 36.6774 0.0000 0.0000
# 5 0.0000 0.0000 0.0000 0.0000 26.4917 0.0000
# 6 0.0000 0.0000 0.0000 0.0000 0.0000 44.2741
#
#
#
# Elastic Compliance Matrix: (Units=1/GPa)
#
#
# Indices 1 2 3 4 5 6 
#
# 1 0.013653 -0.006496 -0.005332 0.000000 0.000000 0.000000
# 2 -0.006496 0.015804 -0.007083 0.000000 0.000000 0.000000
# 3 -0.005332 -0.007083 0.022173 0.000000 0.000000 0.000000
# 4 0.000000 0.000000 0.000000 0.027265 0.000000 0.000000
# 5 0.000000 0.000000 0.000000 0.000000 0.037748 0.000000
# 6 0.000000 0.000000 0.000000 0.000000 0.000000 0.022587
#
#
# Mechanical properties :
#
#
# Convention : Reuss Voigt Hill
#
# Bulk Modulus (GPa) = 72.42960 81.70541 77.06750
# Shear Modulus (GPa) = 27.52495 30.62378 29.07436
#
# Velocity S-wave (km/s) = 3.86359 4.07528 3.97085
# Velocity P-wave (km/s) = 7.69306 8.15196 7.92583
#
# Compressibility (1/GPa) = 0.01380651
#
# Stress axis : x y z
#
# Youngs Moduli (GPa) = 73.24553 63.27684 45.09978
#
# Poissons Ratio (x) = 0.41108 0.24045
# Poissons Ratio (y) = 0.47584 0.31946
# Poissons Ratio (z) = 0.39051 0.44821
#
# Static dielectric constant tensor:
#      x y z
#    x 3.850060 0.000000 0.000000 
#    y 0.000000 3.393550 0.000000 
#    z 0.000000 0.000000 3.450550 
# 
# 
# High freq. dielectric constant tensor:
#      x y z
#    x 1.734420 0.000000 0.000000 
#    y 0.000000 1.712580 0.000000 
#    z 0.000000 0.000000 1.718200 
# 
# From -- ./inp_files/9942.got.cif
#   From: 2010.03.12/outbox.cif.g09.slc.cpg/sg57_5_cif.got.tgz:9942.got - 2010.04.16 15:48:40.
