data_PCOD8232490
_publ_section_title
;
Structure prediction by ZEFSAII (Michael W. Deem and Ramdas Pophale) SiO2 
 PCOD8232490
Probable space group: P B C M
;
_chemical_formula_sum "Si O2"
_cell_formula_units_Z 48
_cell_length_a 31.201648
_cell_length_b 9.096754
_cell_length_c 8.707206
_cell_angle_alpha 90.000000
_cell_angle_beta 90.000000
_cell_angle_gamma 90.000000
_cell_volume 2471.398637
_symmetry_space_group_name_H-M "P B C M"
_symmetry_group_IT_number 57
_symmetry_cell_setting 'orthorhombic'
loop_
_space_group_symop_operation_xyz
x,y,z
-x,-y,1/2+z
x,1/2-y,-z
-x,1/2+y,1/2-z
-x,-y,-z
x,y,1/2-z
-x,1/2+y,z
x,1/2-y,1/2+z
loop_
_atom_site_type_symbol
_atom_site_label
_atom_site_fract_x
_atom_site_fract_y
_atom_site_fract_z
Si Si1 0.539422 0.088339 0.067690
Si Si2 0.868970 0.590698 0.929005
Si Si3 0.377420 0.410398 0.069394
Si Si4 0.037557 0.408445 0.427623
Si Si5 0.294519 0.589617 0.067525
Si Si6 0.783529 0.586558 0.431842
O O1 0.535460 0.096376 0.250000
O O2 0.582572 0.007196 0.013464
O O3 0.539814 0.250000 0.000000
O O4 0.500000 0.000000 0.000000
O O5 0.857156 0.601768 0.750000
O O6 0.915569 0.513636 0.953522
O O7 0.873765 0.750000 0.000000
O O8 0.829327 0.514174 0.017821
O O9 0.377865 0.392932 0.250000
O O10 0.334158 0.489339 0.013715
O O11 0.380535 0.250000 0.000000
O O12 0.037173 0.250000 0.500000
O O13 0.027872 0.390317 0.250000
O O14 0.000000 0.500000 0.500000
O O15 0.290695 0.598656 0.250000
O O16 0.301968 0.750000 0.000000
O O17 0.251994 0.520509 0.997942
O O18 0.778246 0.750000 0.500000
O O19 0.779804 0.594488 0.250000
#
# Coordination Sequence:
#
# PCOD8232490 Si02
#       6
#     8   8   8   8   8   8
#     4  11  23  40  61  89 121 157 197 240 288 340
#     4   9  17  31  52  78 106 140 181 226 273 327
#     4  10  23  40  61  87 116 150 192 237 283 334
#     4  10  20  34  54  79 109 143 182 226 275 328
#     4  11  23  40  59  83 114 149 186 229 280 336
#     4  11  21  35  57  84 111 143 182 228 275 327
#
# _framework density 19.4222
#
# number of rings (size 3 to 8) (size 9 to 14) (size 15 to 20)
#    0.000    1.667    0.000    6.000    0.000    7.333 
#    0.000    0.833    0.000    4.000    0.000    0.000 
#    0.000    0.000    0.000    0.000    0.000    0.000 
#
# Total GULP energy -595085.925932 kJ/mol
# GULP energy per Si atom -12397.623457 kJ/mol
# Density = 1.937799 g / cm^3
# Si number density = 19.422200 Si / 1000 Ang^3
#
#
#
# Elastic Constant Matrix: (Units=GPa)
#
#
# Indices 1 2 3 4 5 6 
#
# 1 184.2138 78.3434 67.2995 0.0000 0.0000 0.0000
# 2 78.3434 126.1562 49.9562 0.0000 0.0000 0.0000
# 3 67.2995 49.9562 113.9668 0.0000 0.0000 0.0000
# 4 0.0000 0.0000 0.0000 36.1823 0.0000 0.0000
# 5 0.0000 0.0000 0.0000 0.0000 32.5252 0.0000
# 6 0.0000 0.0000 0.0000 0.0000 0.0000 35.1001
#
#
#
# Elastic Compliance Matrix: (Units=1/GPa)
#
#
# Indices 1 2 3 4 5 6 
#
# 1 0.008224 -0.003853 -0.003168 0.000000 0.000000 0.000000
# 2 -0.003853 0.011397 -0.002720 0.000000 0.000000 0.000000
# 3 -0.003168 -0.002720 0.011838 0.000000 0.000000 0.000000
# 4 0.000000 0.000000 0.000000 0.027638 0.000000 0.000000
# 5 0.000000 0.000000 0.000000 0.000000 0.030745 0.000000
# 6 0.000000 0.000000 0.000000 0.000000 0.000000 0.028490
#
#
# Mechanical properties :
#
#
# Convention : Reuss Voigt Hill
#
# Bulk Modulus (GPa) = 83.49744 90.61500 87.05622
# Shear Modulus (GPa) = 35.25948 36.01071 35.63510
#
# Velocity S-wave (km/s) = 4.26540 4.31060 4.28806
# Velocity P-wave (km/s) = 8.20623 8.45764 8.33288
#
# Compressibility (1/GPa) = 0.01197642
#
# Stress axis : x y z
#
# Youngs Moduli (GPa) = 121.58984 87.74539 84.47723
#
# Poissons Ratio (x) = 0.33808 0.26760
# Poissons Ratio (y) = 0.46848 0.22981
# Poissons Ratio (z) = 0.38516 0.23870
#
# Static dielectric constant tensor:
#      x y z
#    x 4.516610 0.000000 0.000000 
#    y 0.000000 3.321640 0.000000 
#    z 0.000000 0.000000 3.700850 
# 
# 
# High freq. dielectric constant tensor:
#      x y z
#    x 1.785430 0.000000 0.000000 
#    y 0.000000 1.734780 0.000000 
#    z 0.000000 0.000000 1.771240 
# 
# From -- ./inp_files/9964.got.cif
#   From: 2010.03.12/outbox.cif.g09.slc.cpg/sg57_5_cif.got.tgz:9964.got - 2010.04.16 15:48:40.
