data_PCOD8232082
_publ_section_title
;
Structure prediction by ZEFSAII (Michael W. Deem and Ramdas Pophale) SiO2 
 PCOD8232082
Probable space group: P B C M
;
_chemical_formula_sum "Si O2"
_cell_formula_units_Z 56
_cell_length_a 5.346668
_cell_length_b 15.942474
_cell_length_c 27.933315
_cell_angle_alpha 90.000000
_cell_angle_beta 90.000000
_cell_angle_gamma 90.000000
_cell_volume 2381.011066
_symmetry_space_group_name_H-M "P B C M"
_symmetry_group_IT_number 57
_symmetry_cell_setting 'orthorhombic'
loop_
_space_group_symop_operation_xyz
x,y,z
-x,-y,1/2+z
x,1/2-y,-z
-x,1/2+y,1/2-z
-x,-y,-z
x,y,1/2-z
-x,1/2+y,z
x,1/2-y,1/2+z
loop_
_atom_site_type_symbol
_atom_site_label
_atom_site_fract_x
_atom_site_fract_y
_atom_site_fract_z
Si Si1 0.923136 0.422826 0.388112
Si Si2 0.664643 0.178617 0.430024
Si Si3 0.253410 0.947401 0.489209
Si Si4 0.763561 0.439835 0.646112
Si Si5 0.618520 0.030406 0.696457
Si Si6 0.849105 0.846074 0.803279
Si Si7 0.185893 0.243014 0.605718
O O1 0.743700 0.417526 0.434158
O O2 0.771064 0.407569 0.338392
O O3 0.020566 0.518610 0.386782
O O4 0.150114 0.356794 0.391439
O O5 0.724601 0.139583 0.481631
O O6 0.583634 0.105225 0.392326
O O7 0.420765 0.239367 0.430054
O O8 0.921910 0.220924 0.412812
O O9 0.500000 0.000000 0.500000
O O10 0.000000 0.000000 0.500000
O O11 0.659556 0.520280 0.675455
O O12 0.865998 0.370309 0.683204
O O13 0.625808 0.067889 0.750000
O O14 0.698335 0.932890 0.694973
O O15 0.839741 0.806565 0.750000
O O16 0.745689 0.778751 0.841444
#
# Coordination Sequence:
#
# PCOD8232082 Si02
#       7
#     8   8   8   8   8   8   8
#     4  11  26  41  67 102 143 185 232 307 356 425
#     4  11  23  44  68  97 133 185 231 285 346 437
#     4  12  25  43  74 104 132 180 243 302 353 421
#     4  10  19  38  68  95 134 177 244 287 348 410
#     4  10  20  38  66  99 134 182 238 292 345 418
#     4   9  19  36  61  93 130 179 231 279 341 419
#     4  11  25  43  66  98 145 179 227 286 366 418
#
# _framework density 23.519421000000001
#
# number of rings (size 3 to 8) (size 9 to 14) (size 15 to 20)
#    0.000    1.429    2.857    2.143    4.000    1.714 
#    0.000    1.429    0.000    0.000    0.000    0.000 
#    0.000    0.000    0.000    0.000    0.000    0.000 
#
# Total GULP energy -693935.818262 kJ/mol
# GULP energy per Si atom -12391.711040 kJ/mol
# Density = 2.346589 g / cm^3
# Si number density = 23.519421 Si / 1000 Ang^3
#
#
#
# Elastic Constant Matrix: (Units=GPa)
#
#
# Indices 1 2 3 4 5 6 
#
# 1 107.8469 10.4628 31.7483 0.0000 0.0000 0.0000
# 2 10.4628 44.2479 27.6378 0.0000 0.0000 0.0000
# 3 31.7483 27.6378 153.6792 0.0000 0.0000 0.0000
# 4 0.0000 0.0000 0.0000 23.0258 0.0000 0.0000
# 5 0.0000 0.0000 0.0000 0.0000 30.6607 0.0000
# 6 0.0000 0.0000 0.0000 0.0000 0.0000 38.8365
#
#
#
# Elastic Compliance Matrix: (Units=1/GPa)
#
#
# Indices 1 2 3 4 5 6 
#
# 1 0.009929 -0.001202 -0.001835 0.000000 0.000000 0.000000
# 2 -0.001202 0.025605 -0.004357 0.000000 0.000000 0.000000
# 3 -0.001835 -0.004357 0.007670 0.000000 0.000000 0.000000
# 4 0.000000 0.000000 0.000000 0.043430 0.000000 0.000000
# 5 0.000000 0.000000 0.000000 0.000000 0.032615 0.000000
# 6 0.000000 0.000000 0.000000 0.000000 0.000000 0.025749
#
#
# Mechanical properties :
#
#
# Convention : Reuss Voigt Hill
#
# Bulk Modulus (GPa) = 35.18970 49.49688 42.34329
# Shear Modulus (GPa) = 29.54085 34.23292 31.88688
#
# Velocity S-wave (km/s) = 3.54788 3.81926 3.68607
# Velocity P-wave (km/s) = 5.63717 6.36709 6.01322
#
# Compressibility (1/GPa) = 0.02841740
#
# Stress axis : x y z
#
# Youngs Moduli (GPa) = 100.71285 39.05440 130.38332
#
# Poissons Ratio (x) = 0.04693 0.23928
# Poissons Ratio (y) = 0.12102 0.56803
# Poissons Ratio (z) = 0.18482 0.17015
#
# Static dielectric constant tensor:
#      x y z
#    x 4.223400 0.000000 0.000000 
#    y 0.000000 3.996940 0.000000 
#    z 0.000000 0.000000 4.474200 
# 
# 
# High freq. dielectric constant tensor:
#      x y z
#    x 1.930760 0.000000 0.000000 
#    y 0.000000 1.906930 0.000000 
#    z 0.000000 0.000000 1.938520 
# 
# From -- ./inp_files/29184.got.cif
#   From: 2010.03.12/outbox.cif.g09.slc.cpg/sg57_15_cif.got.tgz:29184.got - 2010.04.16 15:48:40.
