data_PCOD8232653
_publ_section_title
;
Structure prediction by ZEFSAII (Michael W. Deem and Ramdas Pophale) SiO2 
 PCOD8232653
Probable space group: P B C M
;
_chemical_formula_sum "Si O2"
_cell_formula_units_Z 48
_cell_length_a 31.099194
_cell_length_b 9.564899
_cell_length_c 8.576550
_cell_angle_alpha 90.000000
_cell_angle_beta 90.000000
_cell_angle_gamma 90.000000
_cell_volume 2551.186134
_symmetry_space_group_name_H-M "P B C M"
_symmetry_group_IT_number 57
_symmetry_cell_setting 'orthorhombic'
loop_
_space_group_symop_operation_xyz
x,y,z
-x,-y,1/2+z
x,1/2-y,-z
-x,1/2+y,1/2-z
-x,-y,-z
x,y,1/2-z
-x,1/2+y,z
x,1/2-y,1/2+z
loop_
_atom_site_type_symbol
_atom_site_label
_atom_site_fract_x
_atom_site_fract_y
_atom_site_fract_z
Si Si1 0.631463 0.599665 0.434229
Si Si2 0.705008 0.097387 0.567857
Si Si3 0.886123 0.407598 0.565923
Si Si4 0.535602 0.900253 0.566693
Si Si5 0.798708 0.097438 0.567404
Si Si6 0.961434 0.592632 0.064840
O O1 0.642314 0.750000 0.500000
O O2 0.635207 0.606997 0.250000
O O3 0.667134 0.495971 0.506304
O O4 0.583535 0.550621 0.484711
O O5 0.701075 0.250000 0.500000
O O6 0.697883 0.112416 0.750000
O O7 0.752122 0.025590 0.535978
O O8 0.892059 0.250000 0.500000
O O9 0.893829 0.404447 0.750000
O O10 0.838793 0.470449 0.524891
O O11 0.918049 0.516394 0.486591
O O12 0.525234 0.750000 0.500000
O O13 0.531666 0.894920 0.750000
O O14 0.500000 0.000000 0.500000
O O15 0.792894 0.250000 0.500000
O O16 0.810237 0.102199 0.750000
O O17 0.964357 0.599922 0.250000
O O18 0.963634 0.750000 0.000000
O O19 0.000000 0.500000 0.000000
#
# Coordination Sequence:
#
# PCOD8232653 Si02
#       6
#     8   8   8   8   8   8
#     4   9  19  35  52  73 101 135 171 211 258 314
#     4   9  18  32  51  76 105 135 174 219 263 309
#     4  11  21  36  58  85 114 148 186 226 271 321
#     4  10  20  35  54  75 102 134 172 215 264 317
#     4   9  16  29  50  76 106 140 176 220 266 313
#     4  12  25  43  63  87 116 148 185 227 273 322
#
# _framework density 18.814776999999999
#
# number of rings (size 3 to 8) (size 9 to 14) (size 15 to 20)
#    0.000    2.000    0.000    5.500    0.000    2.667 
#    0.000    2.500    0.000    2.000    0.000    0.000 
#    0.000    0.000    0.000    0.000    0.000    0.000 
#
# Total GULP energy -594875.100822 kJ/mol
# GULP energy per Si atom -12393.231267 kJ/mol
# Density = 1.877195 g / cm^3
# Si number density = 18.814777 Si / 1000 Ang^3
#
#
#
# Elastic Constant Matrix: (Units=GPa)
#
#
# Indices 1 2 3 4 5 6 
#
# 1 181.5605 96.4663 50.4069 0.0000 0.0000 0.0000
# 2 96.4663 108.4248 46.8038 0.0000 0.0000 0.0000
# 3 50.4069 46.8038 94.3494 0.0000 0.0000 0.0000
# 4 0.0000 0.0000 0.0000 30.1971 0.0000 0.0000
# 5 0.0000 0.0000 0.0000 0.0000 26.1274 0.0000
# 6 0.0000 0.0000 0.0000 0.0000 0.0000 32.8177
#
#
#
# Elastic Compliance Matrix: (Units=1/GPa)
#
#
# Indices 1 2 3 4 5 6 
#
# 1 0.010560 -0.008856 -0.001248 0.000000 0.000000 0.000000
# 2 -0.008856 0.019164 -0.004775 0.000000 0.000000 0.000000
# 3 -0.001248 -0.004775 0.013635 0.000000 0.000000 0.000000
# 4 0.000000 0.000000 0.000000 0.033116 0.000000 0.000000
# 5 0.000000 0.000000 0.000000 0.000000 0.038274 0.000000
# 6 0.000000 0.000000 0.000000 0.000000 0.000000 0.030471
#
#
# Mechanical properties :
#
#
# Convention : Reuss Voigt Hill
#
# Bulk Modulus (GPa) = 73.53549 85.74318 79.63933
# Shear Modulus (GPa) = 27.85332 30.53894 29.19613
#
# Velocity S-wave (km/s) = 3.85177 4.03319 3.94352
# Velocity P-wave (km/s) = 7.67790 8.20731 7.94702
#
# Compressibility (1/GPa) = 0.01359888
#
# Stress axis : x y z
#
# Youngs Moduli (GPa) = 94.69760 52.18180 73.34299
#
# Poissons Ratio (x) = 0.46214 0.09156
# Poissons Ratio (y) = 0.83868 0.35021
# Poissons Ratio (z) = 0.11822 0.24917
#
# Static dielectric constant tensor:
#      x y z
#    x 4.228710 0.000000 0.000000 
#    y 0.000000 3.314570 0.000000 
#    z 0.000000 0.000000 3.558000 
# 
# 
# High freq. dielectric constant tensor:
#      x y z
#    x 1.757390 0.000000 0.000000 
#    y 0.000000 1.703160 0.000000 
#    z 0.000000 0.000000 1.740820 
# 
# From -- ./inp_files/10071.got.cif
#   From: 2010.03.12/outbox.cif.g09.slc.cpg/sg57_6_cif.got.tgz:10071.got - 2010.04.16 15:48:40.
