data_PCOD8232113
_publ_section_title
;
Structure prediction by ZEFSAII (Michael W. Deem and Ramdas Pophale) SiO2 
 PCOD8232113
Probable space group: P B C M
;
_chemical_formula_sum "Si O2"
_cell_formula_units_Z 36
_cell_length_a 9.750950
_cell_length_b 19.505927
_cell_length_c 9.087351
_cell_angle_alpha 90.000000
_cell_angle_beta 90.000000
_cell_angle_gamma 90.000000
_cell_volume 1728.426145
_symmetry_space_group_name_H-M "P B C M"
_symmetry_group_IT_number 57
_symmetry_cell_setting 'orthorhombic'
loop_
_space_group_symop_operation_xyz
x,y,z
-x,-y,1/2+z
x,1/2-y,-z
-x,1/2+y,1/2-z
-x,-y,-z
x,y,1/2-z
-x,1/2+y,z
x,1/2-y,1/2+z
loop_
_atom_site_type_symbol
_atom_site_label
_atom_site_fract_x
_atom_site_fract_y
_atom_site_fract_z
Si Si1 0.292173 0.385794 0.501713
Si Si2 0.189383 0.839623 0.250000
Si Si3 0.500776 0.892767 0.250000
Si Si4 0.266146 0.276335 0.750000
Si Si5 0.108817 0.368639 0.250000
Si Si6 0.419475 0.456873 0.750000
Si Si7 0.442198 0.689218 0.250000
Si Si8 0.731575 0.250000 0.000000
O O1 0.422800 0.365819 0.397230
O O2 0.245384 0.321561 0.602225
O O3 0.166468 0.405635 0.395593
O O4 0.326115 0.452016 0.602679
O O5 0.339378 0.874284 0.250000
O O6 0.171573 0.795367 0.397248
O O7 0.053054 0.885255 0.250000
O O8 0.510568 0.975565 0.250000
O O9 0.164355 0.211105 0.750000
O O10 0.429071 0.257305 0.750000
O O11 0.513397 0.389331 0.750000
O O12 0.358295 0.701157 0.397416
#
# Coordination Sequence:
#
# PCOD8232113 Si02
#       8
#     8   4   4   4   4   4   4   4
#     4   9  21  36  57  89 108 147 201 235 290 342
#     4  11  24  38  55  82 120 158 191 225 312 339
#     4  11  21  40  61  87 120 151 193 254 284 351
#     4  10  20  31  58  81 117 144 186 240 287 343
#     4  11  23  35  56  80 120 156 194 232 286 354
#     4  10  20  37  62  89 117 148 202 244 294 336
#     4   9  20  33  58  89 110 147 182 241 297 345
#     4  10  22  36  54  84 126 142 184 242 300 366
#
# _framework density 20.828196999999999
#
# number of rings (size 3 to 8) (size 9 to 14) (size 15 to 20)
#    0.000    2.222    0.000    4.000   15.556    0.000 
#    0.000    1.111    0.000    0.000    0.000    0.000 
#    0.000    0.000    0.000    0.000    0.000    0.000 
#
# Total GULP energy -445973.379816 kJ/mol
# GULP energy per Si atom -12388.149439 kJ/mol
# Density = 2.078079 g / cm^3
# Si number density = 20.828197 Si / 1000 Ang^3
#
#
#
# Elastic Constant Matrix: (Units=GPa)
#
#
# Indices 1 2 3 4 5 6 
#
# 1 129.1939 2.9687 45.1975 0.0000 0.0000 0.0000
# 2 2.9687 50.8852 13.9200 0.0000 0.0000 0.0000
# 3 45.1975 13.9200 158.6817 0.0000 0.0000 0.0000
# 4 0.0000 0.0000 0.0000 17.6467 0.0000 0.0000
# 5 0.0000 0.0000 0.0000 0.0000 108.7133 0.0000
# 6 0.0000 0.0000 0.0000 0.0000 0.0000 16.0382
#
#
#
# Elastic Compliance Matrix: (Units=1/GPa)
#
#
# Indices 1 2 3 4 5 6 
#
# 1 0.008598 0.000172 -0.002464 0.000000 0.000000 0.000000
# 2 0.000172 0.020139 -0.001816 0.000000 0.000000 0.000000
# 3 -0.002464 -0.001816 0.007163 0.000000 0.000000 0.000000
# 4 0.000000 0.000000 0.000000 0.056668 0.000000 0.000000
# 5 0.000000 0.000000 0.000000 0.000000 0.009199 0.000000
# 6 0.000000 0.000000 0.000000 0.000000 0.000000 0.062351
#
#
# Mechanical properties :
#
#
# Convention : Reuss Voigt Hill
#
# Bulk Modulus (GPa) = 36.12037 51.43705 43.77871
# Shear Modulus (GPa) = 27.53895 46.92463 37.23179
#
# Velocity S-wave (km/s) = 3.64015 4.75166 4.23255
# Velocity P-wave (km/s) = 5.92007 7.40634 6.70452
#
# Compressibility (1/GPa) = 0.02768521
#
# Stress axis : x y z
#
# Youngs Moduli (GPa) = 116.30026 49.65560 139.60444
#
# Poissons Ratio (x) = -0.00856 0.34402
# Poissons Ratio (y) = -0.02006 0.25349
# Poissons Ratio (z) = 0.28659 0.09016
#
# Static dielectric constant tensor:
#      x y z
#    x 3.486640 0.000000 0.000000 
#    y 0.000000 3.440310 0.000000 
#    z 0.000000 0.000000 4.319820 
# 
# 
# High freq. dielectric constant tensor:
#      x y z
#    x 1.785870 0.000000 0.000000 
#    y 0.000000 1.779710 0.000000 
#    z 0.000000 0.000000 1.853460 
# 
# From -- ./inp_files/1701.got.cif
#   From: 2010.03.12/outbox.cif.g09.slc.cpg/sg57_1_cif.got.tgz:1701.got - 2010.04.16 15:48:40.
