data_PCOD8232039
_publ_section_title
;
Structure prediction by ZEFSAII (Michael W. Deem and Ramdas Pophale) SiO2 
 PCOD8232039
Probable space group: P B C M
;
_chemical_formula_sum "Si O2"
_cell_formula_units_Z 32
_cell_length_a 10.217047
_cell_length_b 8.914218
_cell_length_c 17.123716
_cell_angle_alpha 90.000000
_cell_angle_beta 90.000000
_cell_angle_gamma 90.000000
_cell_volume 1559.576413
_symmetry_space_group_name_H-M "P B C M"
_symmetry_group_IT_number 57
_symmetry_cell_setting 'orthorhombic'
loop_
_space_group_symop_operation_xyz
x,y,z
-x,-y,1/2+z
x,1/2-y,-z
-x,1/2+y,1/2-z
-x,-y,-z
x,y,1/2-z
-x,1/2+y,z
x,1/2-y,1/2+z
loop_
_atom_site_type_symbol
_atom_site_label
_atom_site_fract_x
_atom_site_fract_y
_atom_site_fract_z
Si Si1 0.142292 0.753575 0.591845
Si Si2 0.098890 0.074007 0.157336
Si Si3 0.611974 0.413944 0.842880
Si Si4 0.350586 0.248803 0.157622
O O1 0.124609 0.750000 0.500000
O O2 0.119523 0.591376 0.626645
O O3 0.286275 0.806268 0.614735
O O4 0.039803 0.869278 0.627866
O O5 0.098992 0.070197 0.250000
O O6 0.214901 0.181022 0.125056
O O7 0.631524 0.402194 0.750000
O O8 0.468754 0.358391 0.869068
O O9 0.629834 0.583078 0.874574
O O10 0.346105 0.255938 0.250000
#
# Coordination Sequence:
#
# PCOD8232039 Si02
#       4
#     8   8   8   8
#     4  12  25  40  58  88 124 158 195 246 303 358
#     4  11  22  40  63  87 115 157 205 249 295 354
#     4  10  19  37  61  87 117 154 198 247 298 356
#     4   9  19  35  62  92 116 147 200 256 296 342
#
# _framework density 20.518393
#
# number of rings (size 3 to 8) (size 9 to 14) (size 15 to 20)
#    0.000    1.500    0.000    6.000    0.000    6.000 
#    0.000    6.250    0.000    0.000    0.000    0.000 
#    0.000    0.000    0.000    0.000    0.000    0.000 
#
# Total GULP energy -396947.278076 kJ/mol
# GULP energy per Si atom -12404.602440 kJ/mol
# Density = 2.047169 g / cm^3
# Si number density = 20.518393 Si / 1000 Ang^3
#
#
#
# Elastic Constant Matrix: (Units=GPa)
#
#
# Indices 1 2 3 4 5 6 
#
# 1 78.1309 -1.6542 19.0691 0.0000 0.0000 0.0000
# 2 -1.6542 107.5214 22.6189 0.0000 0.0000 0.0000
# 3 19.0691 22.6189 75.3129 0.0000 0.0000 0.0000
# 4 0.0000 0.0000 0.0000 0.1874 0.0000 0.0000
# 5 0.0000 0.0000 0.0000 0.0000 14.1280 0.0000
# 6 0.0000 0.0000 0.0000 0.0000 0.0000 49.1573
#
#
#
# Elastic Compliance Matrix: (Units=1/GPa)
#
#
# Indices 1 2 3 4 5 6 
#
# 1 0.013743 0.001007 -0.003782 0.000000 0.000000 0.000000
# 2 0.001007 0.010002 -0.003259 0.000000 0.000000 0.000000
# 3 -0.003782 -0.003259 0.015214 0.000000 0.000000 0.000000
# 4 0.000000 0.000000 0.000000 5.335372 0.000000 0.000000
# 5 0.000000 0.000000 0.000000 0.000000 0.070782 0.000000
# 6 0.000000 0.000000 0.000000 0.000000 0.000000 0.020343
#
#
# Mechanical properties :
#
#
# Convention : Reuss Voigt Hill
#
# Bulk Modulus (GPa) = 37.18663 37.89254 37.53958
# Shear Modulus (GPa) = 0.91133 27.42329 14.16731
#
# Velocity S-wave (km/s) = 0.66717 3.65981 2.63053
# Velocity P-wave (km/s) = 4.33086 6.03048 5.24991
#
# Compressibility (1/GPa) = 0.02689139
#
# Stress axis : x y z
#
# Youngs Moduli (GPa) = 72.76174 99.98498 65.72755
#
# Poissons Ratio (x) = -0.10070 0.24860
# Poissons Ratio (y) = -0.07328 0.21419
# Poissons Ratio (z) = 0.27521 0.32583
#
# Static dielectric constant tensor:
#      x y z
#    x 4.321800 0.000000 0.000000 
#    y 0.000000 3.974250 0.000000 
#    z 0.000000 0.000000 3.490020 
# 
# 
# High freq. dielectric constant tensor:
#      x y z
#    x 1.821610 0.000000 0.000000 
#    y 0.000000 1.823390 0.000000 
#    z 0.000000 0.000000 1.772530 
# 
# From -- ./inp_files/17173.got.cif
#   From: 2010.03.12/outbox.cif.g09.slc.cpg/sg57_9_cif.got.tgz:17173.got - 2010.04.16 15:48:40.
