data_PCOD8232739
_publ_section_title
;
Structure prediction by ZEFSAII (Michael W. Deem and Ramdas Pophale) SiO2 
 PCOD8232739
Probable space group: P B C M
;
_chemical_formula_sum "Si O2"
_cell_formula_units_Z 64
_cell_length_a 20.104725
_cell_length_b 18.347197
_cell_length_c 8.908591
_cell_angle_alpha 90.000000
_cell_angle_beta 90.000000
_cell_angle_gamma 90.000000
_cell_volume 3286.070539
_symmetry_space_group_name_H-M "P B C M"
_symmetry_group_IT_number 57
_symmetry_cell_setting 'orthorhombic'
loop_
_space_group_symop_operation_xyz
x,y,z
-x,-y,1/2+z
x,1/2-y,-z
-x,1/2+y,1/2-z
-x,-y,-z
x,y,1/2-z
-x,1/2+y,z
x,1/2-y,1/2+z
loop_
_atom_site_type_symbol
_atom_site_label
_atom_site_fract_x
_atom_site_fract_y
_atom_site_fract_z
Si Si1 0.928871 0.425384 0.424549
Si Si2 0.321889 0.912039 0.426364
Si Si3 0.583880 0.823343 0.575673
Si Si4 0.193187 0.673341 0.573648
Si Si5 0.704440 0.576965 0.425344
Si Si6 0.433753 0.674354 0.072770
Si Si7 0.935298 0.906871 0.575155
Si Si8 0.183983 0.327400 0.072029
O O1 0.945999 0.413855 0.250000
O O2 0.863551 0.382847 0.476524
O O3 0.914679 0.509990 0.458526
O O4 0.989373 0.394099 0.522112
O O5 0.335775 0.906669 0.250000
O O6 0.264002 0.857502 0.479930
O O7 0.388961 0.891664 0.513346
O O8 0.299423 0.992872 0.470916
O O9 0.610764 0.750000 0.500000
O O10 0.583435 0.806969 0.750000
O O11 0.632934 0.888852 0.533869
O O12 0.509337 0.843046 0.521593
O O13 0.178189 0.750000 0.500000
O O14 0.192708 0.683603 0.750000
O O15 0.722027 0.586979 0.250000
O O16 0.761729 0.613642 0.522456
O O17 0.426402 0.680994 0.250000
O O18 0.409301 0.750000 0.000000
O O19 0.929086 0.887682 0.750000
O O20 0.888307 0.852957 0.482756
O O21 0.184058 0.319618 0.250000
O O22 0.202490 0.250000 0.000000
#
# Coordination Sequence:
#
# PCOD8232739 Si02
#       8
#     8   8   8   8   8   8   8   8
#     4   9  19  37  59  83 113 148 185 226 274 330
#     4  10  21  37  57  81 111 148 185 227 281 334
#     4   9  19  35  56  81 110 145 183 226 276 332
#     4  10  21  36  54  77 107 143 182 224 271 323
#     4  10  21  39  60  82 111 146 185 230 283 339
#     4  10  20  35  55  81 112 146 186 229 275 329
#     4  10  20  37  61  86 113 147 185 227 277 332
#     4  12  25  40  59  84 114 148 188 233 282 336
#
# _framework density 19.476147999999998
#
# number of rings (size 3 to 8) (size 9 to 14) (size 15 to 20)
#    0.000    2.000    0.000    3.375    0.000    8.000 
#    0.000    2.500    0.000    0.000    0.000    0.000 
#    0.000    0.000    0.000    0.000    0.000    0.000 
#
# Total GULP energy -793902.907680 kJ/mol
# GULP energy per Si atom -12404.732933 kJ/mol
# Density = 1.943182 g / cm^3
# Si number density = 19.476148 Si / 1000 Ang^3
#
#
#
# Elastic Constant Matrix: (Units=GPa)
#
#
# Indices 1 2 3 4 5 6 
#
# 1 82.4403 26.4548 35.7329 0.0000 0.0000 0.0000
# 2 26.4548 72.2622 31.1158 0.0000 0.0000 0.0000
# 3 35.7329 31.1158 72.5927 0.0000 0.0000 0.0000
# 4 0.0000 0.0000 0.0000 31.7240 0.0000 0.0000
# 5 0.0000 0.0000 0.0000 0.0000 26.2126 0.0000
# 6 0.0000 0.0000 0.0000 0.0000 0.0000 38.0099
#
#
#
# Elastic Compliance Matrix: (Units=1/GPa)
#
#
# Indices 1 2 3 4 5 6 
#
# 1 0.015937 -0.003013 -0.006554 0.000000 0.000000 0.000000
# 2 -0.003013 0.017540 -0.006035 0.000000 0.000000 0.000000
# 3 -0.006554 -0.006035 0.019588 0.000000 0.000000 0.000000
# 4 0.000000 0.000000 0.000000 0.031522 0.000000 0.000000
# 5 0.000000 0.000000 0.000000 0.000000 0.038150 0.000000
# 6 0.000000 0.000000 0.000000 0.000000 0.000000 0.026309
#
#
# Mechanical properties :
#
#
# Convention : Reuss Voigt Hill
#
# Bulk Modulus (GPa) = 45.74017 45.98913 45.86465
# Shear Modulus (GPa) = 26.66136 28.12209 27.39173
#
# Velocity S-wave (km/s) = 3.70391 3.80402 3.75430
# Velocity P-wave (km/s) = 6.46747 6.55427 6.51101
#
# Compressibility (1/GPa) = 0.02186262
#
# Stress axis : x y z
#
# Youngs Moduli (GPa) = 62.74572 57.01187 51.05041
#
# Poissons Ratio (x) = 0.17175 0.33457
# Poissons Ratio (y) = 0.18903 0.30811
# Poissons Ratio (z) = 0.41122 0.34409
#
# Static dielectric constant tensor:
#      x y z
#    x 3.732510 0.000000 0.000000 
#    y 0.000000 3.547130 0.000000 
#    z 0.000000 0.000000 3.490210 
# 
# 
# High freq. dielectric constant tensor:
#      x y z
#    x 1.770720 0.000000 0.000000 
#    y 0.000000 1.758660 0.000000 
#    z 0.000000 0.000000 1.753230 
# 
# From -- ./inp_files/8485.got.cif
#   From: 2010.03.12/outbox.cif.g09.slc.cpg/sg57_5_cif.got.tgz:8485.got - 2010.04.16 15:48:40.
