data_PCOD8232197
_publ_section_title
;
Structure prediction by ZEFSAII (Michael W. Deem and Ramdas Pophale) SiO2 
 PCOD8232197
Probable space group: P B C M
;
_chemical_formula_sum "Si O2"
_cell_formula_units_Z 64
_cell_length_a 21.400614
_cell_length_b 19.376869
_cell_length_c 9.012166
_cell_angle_alpha 90.000000
_cell_angle_beta 90.000000
_cell_angle_gamma 90.000000
_cell_volume 3737.137005
_symmetry_space_group_name_H-M "P B C M"
_symmetry_group_IT_number 57
_symmetry_cell_setting 'orthorhombic'
loop_
_space_group_symop_operation_xyz
x,y,z
-x,-y,1/2+z
x,1/2-y,-z
-x,1/2+y,1/2-z
-x,-y,-z
x,y,1/2-z
-x,1/2+y,z
x,1/2-y,1/2+z
loop_
_atom_site_type_symbol
_atom_site_label
_atom_site_fract_x
_atom_site_fract_y
_atom_site_fract_z
Si Si1 0.560636 0.531166 0.925642
Si Si2 0.042901 0.094911 0.417501
Si Si3 0.923083 0.065281 0.582467
Si Si4 0.802763 0.035693 0.082333
Si Si5 0.595504 0.684271 0.576174
Si Si6 0.281062 0.152276 0.084451
Si Si7 0.162827 0.124677 0.582508
Si Si8 0.315926 0.505785 0.583992
O O1 0.559474 0.519987 0.750000
O O2 0.562292 0.612466 0.966897
O O3 0.500000 0.500000 0.000000
O O4 0.620223 0.491029 0.990705
O O5 0.038778 0.122949 0.250000
O O6 0.096148 0.136869 0.504842
O O7 0.976722 0.107853 0.497385
O O8 0.059671 0.014742 0.417882
O O9 0.917916 0.093097 0.750000
O O10 0.857209 0.077791 0.500925
O O11 0.797200 0.063345 0.250000
O O12 0.818977 0.955305 0.082572
O O13 0.737123 0.050403 0.999286
O O14 0.560472 0.750000 0.500000
O O15 0.595725 0.695657 0.750000
O O16 0.666273 0.685541 0.517955
O O17 0.282848 0.184432 0.250000
O O18 0.291097 0.071167 0.095421
O O19 0.214548 0.167911 0.008137
O O20 0.159384 0.152789 0.750000
O O21 0.327417 0.535384 0.750000
#
# Coordination Sequence:
#
# PCOD8232197 Si02
#       8
#     8   8   8   8   8   8   8   8
#     4  10  20  33  49  69  92 118 149 185 225 271
#     4   9  15  21  28  39  57  83 117 157 200 244
#     4   9  15  21  28  39  57  83 117 157 200 244
#     4   9  15  22  32  46  65  90 122 161 203 246
#     4  10  20  33  49  69  92 118 149 185 225 269
#     4   9  16  26  40  57  77 102 133 170 211 253
#     4   9  15  22  32  46  65  90 122 161 203 245
#     4   9  16  26  40  57  77 102 133 170 211 254
#
# _framework density 17.125409000000001
#
# number of rings (size 3 to 8) (size 9 to 14) (size 15 to 20)
#    0.000    2.750    0.000    3.000    0.000   10.500 
#    0.000    0.000    0.000    0.000    0.000    0.000 
#    0.000    0.000    0.000    0.000    0.000    1.250 
#
# Total GULP energy -793410.259508 kJ/mol
# GULP energy per Si atom -12397.035305 kJ/mol
# Density = 1.708643 g / cm^3
# Si number density = 17.125409 Si / 1000 Ang^3
#
#
#
# Elastic Constant Matrix: (Units=GPa)
#
#
# Indices 1 2 3 4 5 6 
#
# 1 144.2238 30.4143 77.7647 0.0000 0.0000 0.0000
# 2 30.4143 27.1687 25.0185 0.0000 0.0000 0.0000
# 3 77.7647 25.0185 149.9218 0.0000 0.0000 0.0000
# 4 0.0000 0.0000 0.0000 13.1524 0.0000 0.0000
# 5 0.0000 0.0000 0.0000 0.0000 35.9829 0.0000
# 6 0.0000 0.0000 0.0000 0.0000 0.0000 5.7965
#
#
#
# Elastic Compliance Matrix: (Units=1/GPa)
#
#
# Indices 1 2 3 4 5 6 
#
# 1 0.011030 -0.008364 -0.004325 0.000000 0.000000 0.000000
# 2 -0.008364 0.049833 -0.003977 0.000000 0.000000 0.000000
# 3 -0.004325 -0.003977 0.009577 0.000000 0.000000 0.000000
# 4 0.000000 0.000000 0.000000 0.076032 0.000000 0.000000
# 5 0.000000 0.000000 0.000000 0.000000 0.027791 0.000000
# 6 0.000000 0.000000 0.000000 0.000000 0.000000 0.172517
#
#
# Mechanical properties :
#
#
# Convention : Reuss Voigt Hill
#
# Bulk Modulus (GPa) = 26.94965 65.30102 46.12533
# Shear Modulus (GPa) = 12.73941 23.52751 18.13346
#
# Velocity S-wave (km/s) = 2.73039 3.71055 3.25755
# Velocity P-wave (km/s) = 5.07059 7.52140 6.41414
#
# Compressibility (1/GPa) = 0.03710624
#
# Stress axis : x y z
#
# Youngs Moduli (GPa) = 90.66383 20.06693 104.41203
#
# Poissons Ratio (x) = 0.16785 0.45162
# Poissons Ratio (y) = 0.75834 0.41529
# Poissons Ratio (z) = 0.39215 0.07981
#
# Static dielectric constant tensor:
#      x y z
#    x 3.231460 0.000000 0.000000 
#    y 0.000000 2.656530 0.000000 
#    z 0.000000 0.000000 3.485030 
# 
# 
# High freq. dielectric constant tensor:
#      x y z
#    x 1.656700 0.000000 0.000000 
#    y 0.000000 1.578840 0.000000 
#    z 0.000000 0.000000 1.686050 
# 
# From -- ./inp_files/8704.got.cif
#   From: 2010.03.12/outbox.cif.g09.slc.cpg/sg57_5_cif.got.tgz:8704.got - 2010.04.16 15:48:40.
