data_PCOD8232080
_publ_section_title
;
Structure prediction by ZEFSAII (Michael W. Deem and Ramdas Pophale) SiO2 
 PCOD8232080
Probable space group: P B C M
;
_chemical_formula_sum "Si O2"
_cell_formula_units_Z 36
_cell_length_a 13.066991
_cell_length_b 5.271754
_cell_length_c 23.607731
_cell_angle_alpha 90.000000
_cell_angle_beta 90.000000
_cell_angle_gamma 90.000000
_cell_volume 1626.241262
_symmetry_space_group_name_H-M "P B C M"
_symmetry_group_IT_number 57
_symmetry_cell_setting 'orthorhombic'
loop_
_space_group_symop_operation_xyz
x,y,z
-x,-y,1/2+z
x,1/2-y,-z
-x,1/2+y,1/2-z
-x,-y,-z
x,y,1/2-z
-x,1/2+y,z
x,1/2-y,1/2+z
loop_
_atom_site_type_symbol
_atom_site_label
_atom_site_fract_x
_atom_site_fract_y
_atom_site_fract_z
Si Si1 0.561586 0.538237 0.250000
Si Si2 0.433298 0.548706 0.627934
Si Si3 0.120914 0.027107 0.362019
Si Si4 0.744191 0.501312 0.462895
Si Si5 0.896914 0.472788 0.815282
O O1 0.533294 0.836848 0.250000
O O2 0.619493 0.477532 0.190646
O O3 0.516549 0.325447 0.620170
O O4 0.347272 0.518583 0.581270
O O5 0.149595 0.027990 0.428267
O O6 0.168129 0.776426 0.331618
O O7 0.998777 0.026409 0.353837
O O8 0.168032 0.277001 0.331223
O O9 0.749402 0.250000 0.500000
O O10 0.726729 0.750000 0.500000
O O11 0.929491 0.471979 0.750000
#
# Coordination Sequence:
#
# PCOD8232080 Si02
#       5
#     4   8   8   8   8
#     4   8  16  34  58  84 112 138 178 246 302 358
#     4  10  21  40  65  87 117 155 203 249 308 359
#     4  10  20  37  59  86 123 154 198 247 304 341
#     4  12  26  42  59  86 128 162 210 256 285 351
#     4  10  19  38  64  91 123 153 199 249 298 376
#
# _framework density 22.136934
#
# number of rings (size 3 to 8) (size 9 to 14) (size 15 to 20)
#    0.000    1.778    0.000    6.000    0.000    2.667 
#    6.000   13.333    4.889    0.000    0.000    0.000 
#    0.000    0.000    0.000    0.000    0.000    0.000 
#
# Total GULP energy -446034.230182 kJ/mol
# GULP energy per Si atom -12389.839727 kJ/mol
# Density = 2.208655 g / cm^3
# Si number density = 22.136934 Si / 1000 Ang^3
#
#
#
# Elastic Constant Matrix: (Units=GPa)
#
#
# Indices 1 2 3 4 5 6 
#
# 1 38.9395 4.4784 43.5872 0.0000 0.0000 0.0000
# 2 4.4784 195.6493 38.2483 0.0000 0.0000 0.0000
# 3 43.5872 38.2483 157.7453 0.0000 0.0000 0.0000
# 4 0.0000 0.0000 0.0000 47.8551 0.0000 0.0000
# 5 0.0000 0.0000 0.0000 0.0000 -100.5376 0.0000
# 6 0.0000 0.0000 0.0000 0.0000 0.0000 16.1471
#
#
#
# Elastic Compliance Matrix: (Units=1/GPa)
#
#
# Indices 1 2 3 4 5 6 
#
# 1 0.037458 0.001224 -0.010647 0.000000 0.000000 0.000000
# 2 0.001224 0.005406 -0.001649 0.000000 0.000000 0.000000
# 3 -0.010647 -0.001649 0.009681 0.000000 0.000000 0.000000
# 4 0.000000 0.000000 0.000000 0.020896 0.000000 0.000000
# 5 0.000000 0.000000 0.000000 0.000000 -0.009947 0.000000
# 6 0.000000 0.000000 0.000000 0.000000 0.000000 0.061931
#
#
# Mechanical properties :
#
#
# Convention : Reuss Voigt Hill
#
# Bulk Modulus (GPa) = 32.89393 62.77353 47.83373
# Shear Modulus (GPa) = 31.70539 13.09427 22.39983
#
# Velocity S-wave (km/s) = 3.78860 2.43474 3.18445
# Velocity P-wave (km/s) = 5.83348 6.02681 5.93093
#
# Compressibility (1/GPa) = 0.03040075
#
# Stress axis : x y z
#
# Youngs Moduli (GPa) = 26.69679 184.99630 103.29508
#
# Poissons Ratio (x) = -0.22643 1.09977
# Poissons Ratio (y) = -0.03268 0.17032
# Poissons Ratio (z) = 0.28424 0.30504
#
# Static dielectric constant tensor:
#      x y z
#    x 3.383150 0.000000 0.000000 
#    y 0.000000 6.195540 0.000000 
#    z 0.000000 0.000000 4.227940 
# 
# 
# High freq. dielectric constant tensor:
#      x y z
#    x 1.819510 0.000000 0.000000 
#    y 0.000000 1.916190 0.000000 
#    z 0.000000 0.000000 1.877920 
# 
# From -- ./inp_files/25207.got.cif
#   From: 2010.03.12/outbox.cif.g09.slc.cpg/sg57_13_cif.got.tgz:25207.got - 2010.04.16 15:48:40.
