data_PCOD8232542
_publ_section_title
;
Structure prediction by ZEFSAII (Michael W. Deem and Ramdas Pophale) SiO2 
 PCOD8232542
Probable space group: P B C M
;
_chemical_formula_sum "Si O2"
_cell_formula_units_Z 40
_cell_length_a 10.461156
_cell_length_b 13.399644
_cell_length_c 14.725694
_cell_angle_alpha 90.000000
_cell_angle_beta 90.000000
_cell_angle_gamma 90.000000
_cell_volume 2064.185440
_symmetry_space_group_name_H-M "P B C M"
_symmetry_group_IT_number 57
_symmetry_cell_setting 'orthorhombic'
loop_
_space_group_symop_operation_xyz
x,y,z
-x,-y,1/2+z
x,1/2-y,-z
-x,1/2+y,1/2-z
-x,-y,-z
x,y,1/2-z
-x,1/2+y,z
x,1/2-y,1/2+z
loop_
_atom_site_type_symbol
_atom_site_label
_atom_site_fract_x
_atom_site_fract_y
_atom_site_fract_z
Si Si1 0.639965 0.902615 0.147567
Si Si2 0.849634 0.065821 0.963726
Si Si3 0.266414 0.615811 0.352844
Si Si4 0.372352 0.669449 0.644249
Si Si5 0.882627 0.860198 0.035824
O O1 0.640491 0.865618 0.250000
O O2 0.511017 0.858424 0.102393
O O3 0.768840 0.856793 0.107521
O O4 0.636935 0.022596 0.138959
O O5 0.730663 0.102970 0.906980
O O6 0.980398 0.108855 0.920387
O O7 0.842281 0.102882 0.069871
O O8 0.850453 0.944805 0.960034
O O9 0.206721 0.619709 0.250000
O O10 0.348284 0.714150 0.373469
O O11 0.363698 0.641552 0.750000
O O12 0.897961 0.750000 0.000000
#
# Coordination Sequence:
#
# PCOD8232542 Si02
#       5
#     8   8   8   8   8
#     4   9  20  36  53  78 109 139 176 220 265 314
#     4  10  21  37  56  79 107 140 180 220 258 315
#     4   9  18  34  56  78 105 142 179 217 263 313
#     4  10  20  34  55  82 109 141 180 218 260 315
#     4  10  21  36  54  79 108 137 175 219 269 316
#
# _framework density 19.378104
#
# number of rings (size 3 to 8) (size 9 to 14) (size 15 to 20)
#    0.000    2.400    0.000    1.800    0.000    7.200 
#    0.000    7.000    0.000    0.000    0.000    1.400 
#    0.000    0.000    0.000    0.000    0.000    0.000 
#
# Total GULP energy -495749.344253 kJ/mol
# GULP energy per Si atom -12393.733606 kJ/mol
# Density = 1.933400 g / cm^3
# Si number density = 19.378104 Si / 1000 Ang^3
#
#
#
# Elastic Constant Matrix: (Units=GPa)
#
#
# Indices 1 2 3 4 5 6 
#
# 1 148.0208 41.4418 34.9236 0.0000 0.0000 0.0000
# 2 41.4418 126.0740 22.0667 0.0000 0.0000 0.0000
# 3 34.9236 22.0667 44.4478 0.0000 0.0000 0.0000
# 4 0.0000 0.0000 0.0000 3.8926 0.0000 0.0000
# 5 0.0000 0.0000 0.0000 0.0000 -18.9631 0.0000
# 6 0.0000 0.0000 0.0000 0.0000 0.0000 27.3306
#
#
#
# Elastic Compliance Matrix: (Units=1/GPa)
#
#
# Indices 1 2 3 4 5 6 
#
# 1 0.008655 -0.001812 -0.005901 0.000000 0.000000 0.000000
# 2 -0.001812 0.009066 -0.003077 0.000000 0.000000 0.000000
# 3 -0.005901 -0.003077 0.028663 0.000000 0.000000 0.000000
# 4 0.000000 0.000000 0.000000 0.256895 0.000000 0.000000
# 5 0.000000 0.000000 0.000000 0.000000 -0.052734 0.000000
# 6 0.000000 0.000000 0.000000 0.000000 0.000000 0.036589
#
#
# Mechanical properties :
#
#
# Convention : Reuss Voigt Hill
#
# Bulk Modulus (GPa) = 40.31711 57.26743 48.79227
# Shear Modulus (GPa) = 15.77375 17.12608 16.44991
#
# Velocity S-wave (km/s) = 2.85616 2.97608 2.91674
# Velocity P-wave (km/s) = 5.63272 6.43632 6.04788
#
# Compressibility (1/GPa) = 0.02480337
#
# Stress axis : x y z
#
# Youngs Moduli (GPa) = 115.53376 110.30057 34.88872
#
# Poissons Ratio (x) = 0.19990 0.20588
# Poissons Ratio (y) = 0.20938 0.10735
# Poissons Ratio (z) = 0.68177 0.33940
#
# Static dielectric constant tensor:
#      x y z
#    x 3.658930 0.000000 0.000000 
#    y 0.000000 3.691870 0.000000 
#    z 0.000000 0.000000 3.529830 
# 
# 
# High freq. dielectric constant tensor:
#      x y z
#    x 1.754880 0.000000 0.000000 
#    y 0.000000 1.767900 0.000000 
#    z 0.000000 0.000000 1.732360 
# 
# From -- ./inp_files/15878.got.cif
#   From: 2010.03.12/outbox.cif.g09.slc.cpg/sg57_8_cif.got.tgz:15878.got - 2010.04.16 15:48:40.
