data_PCOD8232876
_publ_section_title
;
Structure prediction by ZEFSAII (Michael W. Deem and Ramdas Pophale) SiO2 
 PCOD8232876
Probable space group: P B C M
;
_chemical_formula_sum "Si O2"
_cell_formula_units_Z 48
_cell_length_a 20.477555
_cell_length_b 13.374012
_cell_length_c 9.074949
_cell_angle_alpha 90.000000
_cell_angle_beta 90.000000
_cell_angle_gamma 90.000000
_cell_volume 2485.329659
_symmetry_space_group_name_H-M "P B C M"
_symmetry_group_IT_number 57
_symmetry_cell_setting 'orthorhombic'
loop_
_space_group_symop_operation_xyz
x,y,z
-x,-y,1/2+z
x,1/2-y,-z
-x,1/2+y,1/2-z
-x,-y,-z
x,y,1/2-z
-x,1/2+y,z
x,1/2-y,1/2+z
loop_
_atom_site_type_symbol
_atom_site_label
_atom_site_fract_x
_atom_site_fract_y
_atom_site_fract_z
Si Si1 0.145013 0.065778 0.077172
Si Si2 0.287252 0.355216 0.924551
Si Si3 0.403627 0.049919 0.578301
Si Si4 0.023621 0.403421 0.416450
Si Si5 0.477669 0.848793 0.578417
Si Si6 0.116517 0.843789 0.415269
O O1 0.130646 0.068929 0.250000
O O2 0.214496 0.110801 0.035260
O O3 0.139540 0.950862 0.018789
O O4 0.089561 0.134455 0.998243
O O5 0.298245 0.347950 0.750000
O O6 0.302583 0.250000 0.000000
O O7 0.335061 0.437290 0.995187
O O8 0.397828 0.078398 0.750000
O O9 0.455325 0.123254 0.502417
O O10 0.424197 0.935067 0.557287
O O11 0.042768 0.430255 0.250000
O O12 0.000000 0.500000 0.500000
O O13 0.962331 0.328198 0.420577
O O14 0.449142 0.750000 0.500000
O O15 0.492237 0.829211 0.750000
O O16 0.148582 0.750000 0.500000
O O17 0.142978 0.837504 0.250000
#
# Coordination Sequence:
#
# PCOD8232876 Si02
#       6
#     8   8   8   8   8   8
#     4   9  20  37  53  73 103 137 174 216 262 313
#     4  11  23  39  58  78 106 142 179 222 270 322
#     4  10  21  37  57  83 114 146 183 223 264 315
#     4   9  17  30  49  72  99 130 167 213 261 310
#     4  10  20  35  58  86 115 147 182 222 267 314
#     4   9  18  32  50  74 101 131 169 210 258 312
#
# _framework density 19.313334000000001
#
# number of rings (size 3 to 8) (size 9 to 14) (size 15 to 20)
#    0.000    2.333    0.000    3.500    0.000    7.333 
#    0.000    4.167    0.000    4.000    0.000    0.000 
#    0.000    0.000    0.000    0.000    0.000    0.000 
#
# Total GULP energy -595047.591773 kJ/mol
# GULP energy per Si atom -12396.824829 kJ/mol
# Density = 1.926938 g / cm^3
# Si number density = 19.313334 Si / 1000 Ang^3
#
#
#
# Elastic Constant Matrix: (Units=GPa)
#
#
# Indices 1 2 3 4 5 6 
#
# 1 94.2738 20.5437 48.5900 0.0000 0.0000 0.0000
# 2 20.5437 78.0081 40.6213 0.0000 0.0000 0.0000
# 3 48.5900 40.6213 111.2078 0.0000 0.0000 0.0000
# 4 0.0000 0.0000 0.0000 31.7488 0.0000 0.0000
# 5 0.0000 0.0000 0.0000 0.0000 31.8298 0.0000
# 6 0.0000 0.0000 0.0000 0.0000 0.0000 18.0473
#
#
#
# Elastic Compliance Matrix: (Units=1/GPa)
#
#
# Indices 1 2 3 4 5 6 
#
# 1 0.013714 -0.000607 -0.005770 0.000000 0.000000 0.000000
# 2 -0.000607 0.015857 -0.005527 0.000000 0.000000 0.000000
# 3 -0.005770 -0.005527 0.013532 0.000000 0.000000 0.000000
# 4 0.000000 0.000000 0.000000 0.031497 0.000000 0.000000
# 5 0.000000 0.000000 0.000000 0.000000 0.031417 0.000000
# 6 0.000000 0.000000 0.000000 0.000000 0.000000 0.055410
#
#
# Mechanical properties :
#
#
# Convention : Reuss Voigt Hill
#
# Bulk Modulus (GPa) = 51.82736 55.88885 53.85810
# Shear Modulus (GPa) = 26.08685 27.90747 26.99716
#
# Velocity S-wave (km/s) = 3.67920 3.80542 3.74284
# Velocity P-wave (km/s) = 6.70387 6.95047 6.82829
#
# Compressibility (1/GPa) = 0.01929483
#
# Stress axis : x y z
#
# Youngs Moduli (GPa) = 72.91970 63.06324 73.89736
#
# Poissons Ratio (x) = 0.03827 0.42641
# Poissons Ratio (y) = 0.04425 0.40844
# Poissons Ratio (z) = 0.42077 0.34855
#
# Static dielectric constant tensor:
#      x y z
#    x 3.460880 0.000000 0.000000 
#    y 0.000000 3.412780 0.000000 
#    z 0.000000 0.000000 3.879770 
# 
# 
# High freq. dielectric constant tensor:
#      x y z
#    x 1.734010 0.000000 0.000000 
#    y 0.000000 1.745120 0.000000 
#    z 0.000000 0.000000 1.762190 
# 
# From -- ./inp_files/6563.got.cif
#   From: 2010.03.12/outbox.cif.g09.slc.cpg/sg57_4_cif.got.tgz:6563.got - 2010.04.16 15:48:40.
