data_PCOD8232238
_publ_section_title
;
Structure prediction by ZEFSAII (Michael W. Deem and Ramdas Pophale) SiO2 
 PCOD8232238
Probable space group: P B C M
;
_chemical_formula_sum "Si O2"
_cell_formula_units_Z 40
_cell_length_a 7.214186
_cell_length_b 33.112611
_cell_length_c 8.986512
_cell_angle_alpha 90.000000
_cell_angle_beta 90.000000
_cell_angle_gamma 90.000000
_cell_volume 2146.702792
_symmetry_space_group_name_H-M "P B C M"
_symmetry_group_IT_number 57
_symmetry_cell_setting 'orthorhombic'
loop_
_space_group_symop_operation_xyz
x,y,z
-x,-y,1/2+z
x,1/2-y,-z
-x,1/2+y,1/2-z
-x,-y,-z
x,y,1/2-z
-x,1/2+y,z
x,1/2-y,1/2+z
loop_
_atom_site_type_symbol
_atom_site_label
_atom_site_fract_x
_atom_site_fract_y
_atom_site_fract_z
Si Si1 0.200211 0.495551 0.074942
Si Si2 0.230133 0.209987 0.923886
Si Si3 0.811654 0.289942 0.423713
Si Si4 0.520741 0.143993 0.923934
Si Si5 0.511865 0.559620 0.075969
O O1 0.171573 0.489398 0.250000
O O2 0.326151 0.534504 0.038016
O O3 0.307738 0.456782 0.010294
O O4 0.000000 0.500000 0.000000
O O5 0.245504 0.217726 0.750000
O O6 0.341571 0.170070 0.968592
O O7 0.020861 0.202667 0.978179
O O8 0.314028 0.250000 0.000000
O O9 0.727514 0.250000 0.500000
O O10 0.797715 0.281934 0.250000
O O11 0.699621 0.329782 0.467612
O O12 0.520056 0.132023 0.750000
O O13 0.526404 0.104783 0.024914
O O14 0.556557 0.557890 0.250000
#
# Coordination Sequence:
#
# PCOD8232238 Si02
#       5
#     8   8   8   8   8
#     4  10  21  39  62  84 109 142 177 217 267 322
#     4   9  18  32  49  71  99 134 176 218 263 313
#     4   9  18  32  49  70  98 133 174 217 261 310
#     4  10  20  33  50  74 105 138 172 215 266 315
#     4  10  22  38  56  83 113 140 178 222 265 320
#
# _framework density 18.633227999999999
#
# number of rings (size 3 to 8) (size 9 to 14) (size 15 to 20)
#    0.000    2.400    0.000    1.800    0.000    5.600 
#    0.000    2.000    0.000    0.000    0.000    0.000 
#    0.000    0.000    0.000    0.000    0.000    0.000 
#
# Total GULP energy -496038.254499 kJ/mol
# GULP energy per Si atom -12400.956362 kJ/mol
# Density = 1.859082 g / cm^3
# Si number density = 18.633228 Si / 1000 Ang^3
#
#
#
# Elastic Constant Matrix: (Units=GPa)
#
#
# Indices 1 2 3 4 5 6 
#
# 1 120.1156 53.4401 48.1092 0.0000 0.0000 0.0000
# 2 53.4401 133.6147 50.0768 0.0000 0.0000 0.0000
# 3 48.1092 50.0768 70.2776 0.0000 0.0000 0.0000
# 4 0.0000 0.0000 0.0000 39.0135 0.0000 0.0000
# 5 0.0000 0.0000 0.0000 0.0000 84.5783 0.0000
# 6 0.0000 0.0000 0.0000 0.0000 0.0000 19.4319
#
#
#
# Elastic Compliance Matrix: (Units=1/GPa)
#
#
# Indices 1 2 3 4 5 6 
#
# 1 0.011986 -0.002345 -0.006534 0.000000 0.000000 0.000000
# 2 -0.002345 0.010670 -0.005998 0.000000 0.000000 0.000000
# 3 -0.006534 -0.005998 0.022976 0.000000 0.000000 0.000000
# 4 0.000000 0.000000 0.000000 0.025632 0.000000 0.000000
# 5 0.000000 0.000000 0.000000 0.000000 0.011823 0.000000
# 6 0.000000 0.000000 0.000000 0.000000 0.000000 0.051462
#
#
# Mechanical properties :
#
#
# Convention : Reuss Voigt Hill
#
# Bulk Modulus (GPa) = 62.97926 69.69557 66.33741
# Shear Modulus (GPa) = 29.48206 40.09684 34.78945
#
# Velocity S-wave (km/s) = 3.98204 4.64389 4.32564
# Velocity P-wave (km/s) = 7.41721 8.13876 7.78635
#
# Compressibility (1/GPa) = 0.01587824
#
# Stress axis : x y z
#
# Youngs Moduli (GPa) = 83.43353 93.72159 43.52386
#
# Poissons Ratio (x) = 0.21977 0.28438
# Poissons Ratio (y) = 0.19564 0.26104
# Poissons Ratio (z) = 0.54515 0.56211
#
# Static dielectric constant tensor:
#      x y z
#    x 3.777690 0.000000 0.000000 
#    y 0.000000 3.374580 0.000000 
#    z 0.000000 0.000000 3.386510 
# 
# 
# High freq. dielectric constant tensor:
#      x y z
#    x 1.732650 0.000000 0.000000 
#    y 0.000000 1.721290 0.000000 
#    z 0.000000 0.000000 1.722060 
# 
# From -- ./inp_files/1747.got.cif
#   From: 2010.03.12/outbox.cif.g09.slc.cpg/sg57_1_cif.got.tgz:1747.got - 2010.04.16 15:48:40.
