data_PCOD8232078
_publ_section_title
;
Structure prediction by ZEFSAII (Michael W. Deem and Ramdas Pophale) SiO2 
 PCOD8232078
Probable space group: P B C M
;
_chemical_formula_sum "Si O2"
_cell_formula_units_Z 44
_cell_length_a 8.842822
_cell_length_b 17.341729
_cell_length_c 14.506011
_cell_angle_alpha 90.000000
_cell_angle_beta 90.000000
_cell_angle_gamma 90.000000
_cell_volume 2224.494215
_symmetry_space_group_name_H-M "P B C M"
_symmetry_group_IT_number 57
_symmetry_cell_setting 'orthorhombic'
loop_
_space_group_symop_operation_xyz
x,y,z
-x,-y,1/2+z
x,1/2-y,-z
-x,1/2+y,1/2-z
-x,-y,-z
x,y,1/2-z
-x,1/2+y,z
x,1/2-y,1/2+z
loop_
_atom_site_type_symbol
_atom_site_label
_atom_site_fract_x
_atom_site_fract_y
_atom_site_fract_z
Si Si1 0.474679 0.788025 0.400830
Si Si2 0.415678 0.532596 0.586326
Si Si3 0.932822 0.001466 0.601682
Si Si4 0.250994 0.746818 0.250000
Si Si5 0.981859 0.373018 0.250000
Si Si6 0.379651 0.005229 0.750000
Si Si7 0.293999 0.180220 0.750000
Si Si8 0.083374 0.594954 0.250000
O O1 0.501697 0.750000 0.500000
O O2 0.416036 0.874971 0.411703
O O3 0.351354 0.739508 0.342742
O O4 0.630649 0.785531 0.342621
O O5 0.500000 0.500000 0.500000
O O6 0.246764 0.500739 0.593459
O O7 0.510367 0.492635 0.665495
O O8 0.993448 0.075420 0.657783
O O9 0.000000 0.000000 0.500000
O O10 0.988583 0.926296 0.658177
O O11 0.115409 0.685756 0.250000
O O12 0.179669 0.831959 0.250000
O O13 0.113298 0.307361 0.250000
O O14 0.305739 0.088503 0.750000
O O15 0.248014 0.943202 0.750000
#
# Coordination Sequence:
#
# PCOD8232078 Si02
#       8
#     8   8   8   4   4   4   4   4
#     4  10  23  42  65  92 130 167 217 259 322 393
#     4  11  23  39  67  93 124 168 217 260 319 380
#     4  11  23  40  64  97 128 166 216 275 317 383
#     4  11  24  42  65  90 129 179 205 255 338 397
#     4  11  21  45  66  87 134 172 206 257 335 397
#     4  10  19  38  64  90 122 160 206 263 309 374
#     4   9  20  41  66  88 122 173 204 263 321 376
#     4  11  24  40  65  97 129 160 221 272 321 392
#
# _framework density 19.779775999999998
#
# number of rings (size 3 to 8) (size 9 to 14) (size 15 to 20)
#    0.000    1.455    3.636    2.727    7.636    0.000 
#    3.273    0.909    0.000    0.000    0.000    0.000 
#    0.000    0.000    0.000    0.000    0.000    0.000 
#
# Total GULP energy -545517.290513 kJ/mol
# GULP energy per Si atom -12398.120239 kJ/mol
# Density = 1.973476 g / cm^3
# Si number density = 19.779776 Si / 1000 Ang^3
#
#
#
# Elastic Constant Matrix: (Units=GPa)
#
#
# Indices 1 2 3 4 5 6 
#
# 1 138.5946 27.9455 62.2543 0.0000 0.0000 0.0000
# 2 27.9455 64.1446 38.4508 0.0000 0.0000 0.0000
# 3 62.2543 38.4508 183.8756 0.0000 0.0000 0.0000
# 4 0.0000 0.0000 0.0000 21.7134 0.0000 0.0000
# 5 0.0000 0.0000 0.0000 0.0000 34.4226 0.0000
# 6 0.0000 0.0000 0.0000 0.0000 0.0000 37.1431
#
#
#
# Elastic Compliance Matrix: (Units=1/GPa)
#
#
# Indices 1 2 3 4 5 6 
#
# 1 0.008807 -0.002343 -0.002492 0.000000 0.000000 0.000000
# 2 -0.002343 0.018447 -0.003064 0.000000 0.000000 0.000000
# 3 -0.002492 -0.003064 0.006923 0.000000 0.000000 0.000000
# 4 0.000000 0.000000 0.000000 0.046055 0.000000 0.000000
# 5 0.000000 0.000000 0.000000 0.000000 0.029051 0.000000
# 6 0.000000 0.000000 0.000000 0.000000 0.000000 0.026923
#
#
# Mechanical properties :
#
#
# Convention : Reuss Voigt Hill
#
# Bulk Modulus (GPa) = 54.41043 71.54622 62.97832
# Shear Modulus (GPa) = 31.61946 35.85341 33.73644
#
# Velocity S-wave (km/s) = 4.00256 4.26212 4.13437
# Velocity P-wave (km/s) = 6.99489 7.77630 7.39592
#
# Compressibility (1/GPa) = 0.01837883
#
# Stress axis : x y z
#
# Youngs Moduli (GPa) = 113.54571 54.20789 144.44871
#
# Poissons Ratio (x) = 0.12702 0.35993
# Poissons Ratio (y) = 0.26607 0.44263
# Poissons Ratio (z) = 0.28293 0.16611
#
# Static dielectric constant tensor:
#      x y z
#    x 3.791680 0.000000 0.000000 
#    y 0.000000 3.448630 0.000000 
#    z 0.000000 0.000000 3.786070 
# 
# 
# High freq. dielectric constant tensor:
#      x y z
#    x 1.786460 0.000000 0.000000 
#    y 0.000000 1.751940 0.000000 
#    z 0.000000 0.000000 1.783040 
# 
# From -- ./inp_files/16265.got.cif
#   From: 2010.03.12/outbox.cif.g09.slc.cpg/sg57_9_cif.got.tgz:16265.got - 2010.04.16 15:48:40.
