data_PCOD8232584
_publ_section_title
;
Structure prediction by ZEFSAII (Michael W. Deem and Ramdas Pophale) SiO2 
 PCOD8232584
Probable space group: P B C M
;
_chemical_formula_sum "Si O2"
_cell_formula_units_Z 56
_cell_length_a 21.545720
_cell_length_b 14.296214
_cell_length_c 8.911771
_cell_angle_alpha 90.000000
_cell_angle_beta 90.000000
_cell_angle_gamma 90.000000
_cell_volume 2745.023522
_symmetry_space_group_name_H-M "P B C M"
_symmetry_group_IT_number 57
_symmetry_cell_setting 'orthorhombic'
loop_
_space_group_symop_operation_xyz
x,y,z
-x,-y,1/2+z
x,1/2-y,-z
-x,1/2+y,1/2-z
-x,-y,-z
x,y,1/2-z
-x,1/2+y,z
x,1/2-y,1/2+z
loop_
_atom_site_type_symbol
_atom_site_label
_atom_site_fract_x
_atom_site_fract_y
_atom_site_fract_z
Si Si1 0.587683 0.541387 0.926039
Si Si2 0.832058 0.849299 0.925239
Si Si3 0.066401 0.492940 0.574899
Si Si4 0.878303 0.337485 0.914857
Si Si5 0.523449 0.150067 0.426590
Si Si6 0.266176 0.838875 0.916833
Si Si7 0.714868 0.968652 0.572244
O O1 0.584151 0.561154 0.750000
O O2 0.574846 0.430834 0.960410
O O3 0.540379 0.611271 0.006361
O O4 0.654393 0.571299 0.989720
O O5 0.824285 0.835986 0.750000
O O6 0.898479 0.896359 0.963509
O O7 0.774565 0.910917 0.985280
O O8 0.830350 0.750000 0.000000
O O9 0.057663 0.507016 0.750000
O O10 0.111677 0.572045 0.514443
O O11 0.000000 0.500000 0.500000
O O12 0.909456 0.348541 0.750000
O O13 0.806056 0.319269 0.894634
O O14 0.909840 0.250000 0.000000
O O15 0.542206 0.250000 0.500000
O O16 0.515328 0.165684 0.250000
O O17 0.296173 0.853769 0.750000
O O18 0.297279 0.750000 0.000000
O O19 0.276656 0.925097 0.024880
O O20 0.706348 0.962649 0.750000
#
# Coordination Sequence:
#
# PCOD8232584 Si02
#       7
#     8   8   8   8   8   8   8
#     4  10  22  39  60  90 124 161 207 254 302 361
#     4  10  24  43  64  88 119 158 202 250 302 358
#     4  11  23  41  62  88 120 155 200 251 305 364
#     4  10  20  35  58  86 114 149 189 236 294 355
#     4  10  21  39  63  89 121 161 205 253 307 359
#     4  10  20  34  56  85 116 152 193 239 296 360
#     4  11  22  39  61  88 124 162 202 252 306 362
#
# _framework density 20.400552999999999
#
# number of rings (size 3 to 8) (size 9 to 14) (size 15 to 20)
#    0.000    1.714    1.429    2.571    0.000    6.857 
#    0.000    4.286    0.000    0.000    0.000    0.000 
#    0.000    0.000    0.000    0.000    0.000    0.000 
#
# Total GULP energy -694363.737536 kJ/mol
# GULP energy per Si atom -12399.352456 kJ/mol
# Density = 2.035412 g / cm^3
# Si number density = 20.400553 Si / 1000 Ang^3
#
#
#
# Elastic Constant Matrix: (Units=GPa)
#
#
# Indices 1 2 3 4 5 6 
#
# 1 91.4593 22.4512 50.5617 0.0000 0.0000 0.0000
# 2 22.4512 104.1122 44.2169 0.0000 0.0000 0.0000
# 3 50.5617 44.2169 96.2820 0.0000 0.0000 0.0000
# 4 0.0000 0.0000 0.0000 39.7446 0.0000 0.0000
# 5 0.0000 0.0000 0.0000 0.0000 31.0045 0.0000
# 6 0.0000 0.0000 0.0000 0.0000 0.0000 8.4269
#
#
#
# Elastic Compliance Matrix: (Units=1/GPa)
#
#
# Indices 1 2 3 4 5 6 
#
# 1 0.015408 0.000141 -0.008156 0.000000 0.000000 0.000000
# 2 0.000141 0.011934 -0.005555 0.000000 0.000000 0.000000
# 3 -0.008156 -0.005555 0.017220 0.000000 0.000000 0.000000
# 4 0.000000 0.000000 0.000000 0.025161 0.000000 0.000000
# 5 0.000000 0.000000 0.000000 0.000000 0.032253 0.000000
# 6 0.000000 0.000000 0.000000 0.000000 0.000000 0.118667
#
#
# Mechanical properties :
#
#
# Convention : Reuss Voigt Hill
#
# Bulk Modulus (GPa) = 57.39614 58.47926 57.93770
# Shear Modulus (GPa) = 19.71682 27.47679 23.59681
#
# Velocity S-wave (km/s) = 3.11221 3.67395 3.40468
# Velocity P-wave (km/s) = 6.41172 6.83556 6.62703
#
# Compressibility (1/GPa) = 0.01742277
#
# Stress axis : x y z
#
# Youngs Moduli (GPa) = 64.90025 83.79674 58.07067
#
# Poissons Ratio (x) = -0.01185 0.47365
# Poissons Ratio (y) = -0.00918 0.32256
# Poissons Ratio (z) = 0.52936 0.46547
#
# Static dielectric constant tensor:
#      x y z
#    x 3.709660 0.000000 0.000000 
#    y 0.000000 3.688990 0.000000 
#    z 0.000000 0.000000 3.921790 
# 
# 
# High freq. dielectric constant tensor:
#      x y z
#    x 1.790650 0.000000 0.000000 
#    y 0.000000 1.797360 0.000000 
#    z 0.000000 0.000000 1.811800 
# 
# From -- ./inp_files/8170.got.cif
#   From: 2010.03.12/outbox.cif.g09.slc.cpg/sg57_5_cif.got.tgz:8170.got - 2010.04.16 15:48:40.
