data_PCOD8232251
_publ_section_title
;
Structure prediction by ZEFSAII (Michael W. Deem and Ramdas Pophale) SiO2 
 PCOD8232251
Probable space group: P B C M
;
_chemical_formula_sum "Si O2"
_cell_formula_units_Z 64
_cell_length_a 17.091007
_cell_length_b 23.836096
_cell_length_c 9.124856
_cell_angle_alpha 90.000000
_cell_angle_beta 90.000000
_cell_angle_gamma 90.000000
_cell_volume 3717.310150
_symmetry_space_group_name_H-M "P B C M"
_symmetry_group_IT_number 57
_symmetry_cell_setting 'orthorhombic'
loop_
_space_group_symop_operation_xyz
x,y,z
-x,-y,1/2+z
x,1/2-y,-z
-x,1/2+y,1/2-z
-x,-y,-z
x,y,1/2-z
-x,1/2+y,z
x,1/2-y,1/2+z
loop_
_atom_site_type_symbol
_atom_site_label
_atom_site_fract_x
_atom_site_fract_y
_atom_site_fract_z
Si Si1 0.756041 0.809600 0.577513
Si Si2 0.738789 0.133397 0.422136
Si Si3 0.876664 0.192662 0.575459
Si Si4 0.582562 0.190902 0.079461
Si Si5 0.585684 0.807423 0.581247
Si Si6 0.967595 0.400965 0.580849
Si Si7 0.176259 0.522527 0.082971
Si Si8 0.854052 0.913884 0.578629
O O1 0.770879 0.750000 0.500000
O O2 0.766522 0.799291 0.750000
O O3 0.669049 0.835779 0.540166
O O4 0.817647 0.855566 0.518573
O O5 0.756821 0.143189 0.250000
O O6 0.791569 0.175653 0.515627
O O7 0.648943 0.145888 0.464803
O O8 0.760034 0.069426 0.464462
O O9 0.902699 0.250000 0.500000
O O10 0.874254 0.198505 0.750000
O O11 0.941697 0.147917 0.528154
O O12 0.589539 0.204885 0.250000
O O13 0.497230 0.161752 0.043315
O O14 0.595738 0.250000 0.000000
O O15 0.580732 0.750000 0.500000
O O16 0.587465 0.792360 0.750000
O O17 0.962769 0.380406 0.750000
O O18 0.911381 0.454205 0.556953
O O19 0.055086 0.417537 0.536208
O O20 0.188812 0.505226 0.250000
O O21 0.190578 0.466975 0.989046
O O22 0.839723 0.917304 0.750000
#
# Coordination Sequence:
#
# PCOD8232251 Si02
#       8
#     8   8   8   8   8   8   8   8
#     4   9  18  32  49  71  97 122 149 185 230 277
#     4   9  18  32  47  67  95 124 157 195 230 267
#     4  11  21  32  47  67  94 128 159 188 230 280
#     4   9  16  26  44  69  95 123 154 188 226 269
#     4   8  14  26  44  66  92 121 151 183 223 270
#     4   9  19  35  50  67  92 120 155 199 238 273
#     4   9  18  32  49  67  90 120 154 194 235 275
#     4  10  20  33  51  72  93 118 151 193 235 276
#
# _framework density 17.216750000000001
#
# number of rings (size 3 to 8) (size 9 to 14) (size 15 to 20)
#    0.000    2.750    0.000    2.625    0.000    5.000 
#    0.000    1.250    0.000    0.750    0.000    0.000 
#    0.000    0.000    0.000    0.000    0.000    0.250 
#
# Total GULP energy -793012.770690 kJ/mol
# GULP energy per Si atom -12390.824542 kJ/mol
# Density = 1.717756 g / cm^3
# Si number density = 17.216750 Si / 1000 Ang^3
#
#
#
# Elastic Constant Matrix: (Units=GPa)
#
#
# Indices 1 2 3 4 5 6 
#
# 1 101.2057 47.2179 19.9448 0.0000 0.0000 0.0000
# 2 47.2179 97.1443 34.3377 0.0000 0.0000 0.0000
# 3 19.9448 34.3377 51.6009 0.0000 0.0000 0.0000
# 4 0.0000 0.0000 0.0000 28.4718 0.0000 0.0000
# 5 0.0000 0.0000 0.0000 0.0000 19.7979 0.0000
# 6 0.0000 0.0000 0.0000 0.0000 0.0000 17.1422
#
#
#
# Elastic Compliance Matrix: (Units=1/GPa)
#
#
# Indices 1 2 3 4 5 6 
#
# 1 0.012823 -0.005859 -0.001058 0.000000 0.000000 0.000000
# 2 -0.005859 0.016137 -0.008474 0.000000 0.000000 0.000000
# 3 -0.001058 -0.008474 0.025427 0.000000 0.000000 0.000000
# 4 0.000000 0.000000 0.000000 0.035123 0.000000 0.000000
# 5 0.000000 0.000000 0.000000 0.000000 0.050511 0.000000
# 6 0.000000 0.000000 0.000000 0.000000 0.000000 0.058335
#
#
# Mechanical properties :
#
#
# Convention : Reuss Voigt Hill
#
# Bulk Modulus (GPa) = 42.36098 50.32795 46.34447
# Shear Modulus (GPa) = 21.09668 22.97908 22.03788
#
# Velocity S-wave (km/s) = 3.50431 3.65731 3.58163
# Velocity P-wave (km/s) = 6.40558 6.86513 6.63933
#
# Compressibility (1/GPa) = 0.02360663
#
# Stress axis : x y z
#
# Youngs Moduli (GPa) = 77.98658 61.96977 39.32817
#
# Poissons Ratio (x) = 0.36307 0.04159
# Poissons Ratio (y) = 0.45691 0.33326
# Poissons Ratio (z) = 0.08247 0.52511
#
# Static dielectric constant tensor:
#      x y z
#    x 3.782760 0.000000 0.000000 
#    y 0.000000 2.979650 0.000000 
#    z 0.000000 0.000000 3.137680 
# 
# 
# High freq. dielectric constant tensor:
#      x y z
#    x 1.670670 0.000000 0.000000 
#    y 0.000000 1.637350 0.000000 
#    z 0.000000 0.000000 1.660710 
# 
# From -- ./inp_files/7408.got.cif
#   From: 2010.03.12/outbox.cif.g09.slc.cpg/sg57_4_cif.got.tgz:7408.got - 2010.04.16 15:48:40.
