data_PCOD8232244
_publ_section_title
;
Structure prediction by ZEFSAII (Michael W. Deem and Ramdas Pophale) SiO2 
 PCOD8232244
Probable space group: P B C M
;
_chemical_formula_sum "Si O2"
_cell_formula_units_Z 64
_cell_length_a 21.296819
_cell_length_b 19.113430
_cell_length_c 8.746539
_cell_angle_alpha 90.000000
_cell_angle_beta 90.000000
_cell_angle_gamma 90.000000
_cell_volume 3560.324700
_symmetry_space_group_name_H-M "P B C M"
_symmetry_group_IT_number 57
_symmetry_cell_setting 'orthorhombic'
loop_
_space_group_symop_operation_xyz
x,y,z
-x,-y,1/2+z
x,1/2-y,-z
-x,1/2+y,1/2-z
-x,-y,-z
x,y,1/2-z
-x,1/2+y,z
x,1/2-y,1/2+z
loop_
_atom_site_type_symbol
_atom_site_label
_atom_site_fract_x
_atom_site_fract_y
_atom_site_fract_z
Si Si1 0.768601 0.360771 0.421006
Si Si2 0.892025 0.319442 0.569606
Si Si3 0.062066 0.969101 0.571397
Si Si4 0.353084 0.592872 0.069553
Si Si5 0.686696 0.550264 0.071028
Si Si6 0.463960 0.675304 0.568168
Si Si7 0.597195 0.822788 0.569947
Si Si8 0.819325 0.516453 0.418091
O O1 0.761983 0.329437 0.250000
O O2 0.819952 0.317490 0.515162
O O3 0.702335 0.356723 0.508054
O O4 0.789753 0.440202 0.412242
O O5 0.925503 0.250000 0.500000
O O6 0.894900 0.316072 0.750000
O O7 0.926549 0.389942 0.509579
O O8 0.053367 0.968475 0.750000
O O9 0.121370 0.018863 0.531484
O O10 0.000000 0.000000 0.500000
O O11 0.358319 0.601790 0.250000
O O12 0.341716 0.512057 0.029194
O O13 0.417329 0.615612 0.989721
O O14 0.681245 0.529862 0.250000
O O15 0.649841 0.620428 0.031452
O O16 0.760514 0.564675 0.028797
O O17 0.443527 0.750000 0.500000
O O18 0.463385 0.679297 0.750000
O O19 0.532770 0.653918 0.509770
O O20 0.621415 0.750000 0.500000
O O21 0.585478 0.814396 0.750000
O O22 0.843781 0.538725 0.250000
#
# Coordination Sequence:
#
# PCOD8232244 Si02
#       8
#     8   8   8   8   8   8   8   8
#     4   9  17  31  49  70  99 133 165 200 245 296
#     4  10  20  33  50  75 104 136 175 215 253 297
#     4  10  20  33  52  78 106 138 175 210 249 300
#     4  11  21  33  51  76 104 134 171 213 257 305
#     4   9  19  35  55  78 104 135 168 208 257 307
#     4  11  22  37  53  70  97 132 171 213 260 313
#     4  10  20  36  56  77 101 130 169 213 262 317
#     4   8  15  30  51  74 100 128 160 199 243 289
#
# _framework density 17.975887
#
# number of rings (size 3 to 8) (size 9 to 14) (size 15 to 20)
#    0.000    2.250    0.000    5.250    0.000    6.500 
#    0.000    2.500    0.000    0.750    0.000    1.750 
#    0.000    0.000    0.000    0.000    0.000    0.000 
#
# Total GULP energy -793460.605042 kJ/mol
# GULP energy per Si atom -12397.821954 kJ/mol
# Density = 1.793497 g / cm^3
# Si number density = 17.975887 Si / 1000 Ang^3
#
#
#
# Elastic Constant Matrix: (Units=GPa)
#
#
# Indices 1 2 3 4 5 6 
#
# 1 125.8331 64.2101 50.6976 0.0000 0.0000 0.0000
# 2 64.2101 77.9436 39.4459 0.0000 0.0000 0.0000
# 3 50.6976 39.4459 108.7541 0.0000 0.0000 0.0000
# 4 0.0000 0.0000 0.0000 26.8661 0.0000 0.0000
# 5 0.0000 0.0000 0.0000 0.0000 30.1759 0.0000
# 6 0.0000 0.0000 0.0000 0.0000 0.0000 19.3005
#
#
#
# Elastic Compliance Matrix: (Units=1/GPa)
#
#
# Indices 1 2 3 4 5 6 
#
# 1 0.014450 -0.010405 -0.002962 0.000000 0.000000 0.000000
# 2 -0.010405 0.023206 -0.003567 0.000000 0.000000 0.000000
# 3 -0.002962 -0.003567 0.011870 0.000000 0.000000 0.000000
# 4 0.000000 0.000000 0.000000 0.037222 0.000000 0.000000
# 5 0.000000 0.000000 0.000000 0.000000 0.033139 0.000000
# 6 0.000000 0.000000 0.000000 0.000000 0.000000 0.051812
#
#
# Mechanical properties :
#
#
# Convention : Reuss Voigt Hill
#
# Bulk Modulus (GPa) = 63.86326 69.02646 66.44486
# Shear Modulus (GPa) = 23.72085 25.81365 24.76725
#
# Velocity S-wave (km/s) = 3.63656 3.79359 3.71590
# Velocity P-wave (km/s) = 7.29637 7.59416 7.44676
#
# Compressibility (1/GPa) = 0.01565846
#
# Stress axis : x y z
#
# Youngs Moduli (GPa) = 69.20532 43.09180 84.24877
#
# Poissons Ratio (x) = 0.44836 0.24956
# Poissons Ratio (y) = 0.72006 0.30050
# Poissons Ratio (z) = 0.20500 0.15370
#
# Static dielectric constant tensor:
#      x y z
#    x 3.448720 0.000000 0.000000 
#    y 0.000000 3.308140 0.000000 
#    z 0.000000 0.000000 3.427260 
# 
# 
# High freq. dielectric constant tensor:
#      x y z
#    x 1.689210 0.000000 0.000000 
#    y 0.000000 1.673470 0.000000 
#    z 0.000000 0.000000 1.707490 
# 
# From -- ./inp_files/8593.got.cif
#   From: 2010.03.12/outbox.cif.g09.slc.cpg/sg57_5_cif.got.tgz:8593.got - 2010.04.16 15:48:40.
