data_PCOD8232221
_publ_section_title
;
Structure prediction by ZEFSAII (Michael W. Deem and Ramdas Pophale) SiO2 
 PCOD8232221
Probable space group: P B C M
;
_chemical_formula_sum "Si O2"
_cell_formula_units_Z 64
_cell_length_a 15.861293
_cell_length_b 23.839130
_cell_length_c 8.924619
_cell_angle_alpha 90.000000
_cell_angle_beta 90.000000
_cell_angle_gamma 90.000000
_cell_volume 3374.571812
_symmetry_space_group_name_H-M "P B C M"
_symmetry_group_IT_number 57
_symmetry_cell_setting 'orthorhombic'
loop_
_space_group_symop_operation_xyz
x,y,z
-x,-y,1/2+z
x,1/2-y,-z
-x,1/2+y,1/2-z
-x,-y,-z
x,y,1/2-z
-x,1/2+y,z
x,1/2-y,1/2+z
loop_
_atom_site_type_symbol
_atom_site_label
_atom_site_fract_x
_atom_site_fract_y
_atom_site_fract_z
Si Si1 0.932749 0.463965 0.415643
Si Si2 0.634686 0.809985 0.572909
Si Si3 0.016988 0.344821 0.083863
Si Si4 0.222724 0.578737 0.425612
Si Si5 0.827743 0.808721 0.925771
Si Si6 0.437172 0.080681 0.924978
Si Si7 0.618407 0.028855 0.924478
Si Si8 0.140455 0.696229 0.424850
O O1 0.913911 0.488548 0.250000
O O2 0.846703 0.464024 0.510240
O O3 0.000000 0.500000 0.500000
O O4 0.971991 0.403499 0.401463
O O5 0.610400 0.750000 0.500000
O O6 0.618418 0.805828 0.750000
O O7 0.731747 0.825379 0.536027
O O8 0.578140 0.859448 0.503683
O O9 0.032074 0.319613 0.250000
O O10 0.106629 0.352593 0.998549
O O11 0.954218 0.305775 0.989903
O O12 0.232153 0.568125 0.250000
O O13 0.310205 0.568114 0.507348
O O14 0.196260 0.642156 0.463635
O O15 0.842053 0.805519 0.750000
O O16 0.851578 0.750000 0.000000
O O17 0.415856 0.086058 0.750000
O O18 0.533132 0.063023 0.954302
O O19 0.379349 0.031885 0.995855
O O20 0.634064 0.018314 0.750000
O O21 0.186057 0.750000 0.500000
O O22 0.133029 0.705492 0.250000
#
# Coordination Sequence:
#
# PCOD8232221 Si02
#       8
#     8   8   8   8   8   8   8   8
#     4  10  21  36  53  74 104 141 179 221 268 320
#     4  10  21  37  57  82 114 150 187 228 277 331
#     4  10  20  33  50  72  99 135 177 219 263 311
#     4  10  21  37  57  81 109 143 182 227 277 327
#     4  10  20  33  50  73 102 136 173 215 259 306
#     4  10  21  38  61  87 114 145 181 223 273 329
#     4  10  21  38  61  87 113 143 181 226 274 326
#     4  10  20  34  53  76 104 139 179 223 271 322
#
# _framework density 18.965368999999999
#
# number of rings (size 3 to 8) (size 9 to 14) (size 15 to 20)
#    0.000    2.000    0.000    3.375    0.000    7.000 
#    0.000    3.125    0.000    1.500    0.000    0.000 
#    0.000    0.000    0.000    0.000    0.000    0.000 
#
# Total GULP energy -793626.969029 kJ/mol
# GULP energy per Si atom -12400.421391 kJ/mol
# Density = 1.892220 g / cm^3
# Si number density = 18.965369 Si / 1000 Ang^3
#
#
#
# Elastic Constant Matrix: (Units=GPa)
#
#
# Indices 1 2 3 4 5 6 
#
# 1 86.7537 47.0769 60.0251 0.0000 0.0000 0.0000
# 2 47.0769 89.8250 63.5994 0.0000 0.0000 0.0000
# 3 60.0251 63.5994 132.6306 0.0000 0.0000 0.0000
# 4 0.0000 0.0000 0.0000 35.9360 0.0000 0.0000
# 5 0.0000 0.0000 0.0000 0.0000 34.5221 0.0000
# 6 0.0000 0.0000 0.0000 0.0000 0.0000 16.0655
#
#
#
# Elastic Compliance Matrix: (Units=1/GPa)
#
#
# Indices 1 2 3 4 5 6 
#
# 1 0.018537 -0.005716 -0.005648 0.000000 0.000000 0.000000
# 2 -0.005716 0.018618 -0.006341 0.000000 0.000000 0.000000
# 3 -0.005648 -0.006341 0.013137 0.000000 0.000000 0.000000
# 4 0.000000 0.000000 0.000000 0.027827 0.000000 0.000000
# 5 0.000000 0.000000 0.000000 0.000000 0.028967 0.000000
# 6 0.000000 0.000000 0.000000 0.000000 0.000000 0.062245
#
#
# Mechanical properties :
#
#
# Convention : Reuss Voigt Hill
#
# Bulk Modulus (GPa) = 67.19897 72.29026 69.74462
# Shear Modulus (GPa) = 23.84346 26.53858 25.19102
#
# Velocity S-wave (km/s) = 3.54956 3.74480 3.64849
# Velocity P-wave (km/s) = 7.23247 7.54306 7.38940
#
# Compressibility (1/GPa) = 0.01488118
#
# Stress axis : x y z
#
# Youngs Moduli (GPa) = 53.94717 53.71156 76.12273
#
# Poissons Ratio (x) = 0.30700 0.42997
# Poissons Ratio (y) = 0.30835 0.48269
# Poissons Ratio (z) = 0.30471 0.34058
#
# Static dielectric constant tensor:
#      x y z
#    x 3.378660 0.000000 0.000000 
#    y 0.000000 2.977880 0.000000 
#    z 0.000000 0.000000 3.761180 
# 
# 
# High freq. dielectric constant tensor:
#      x y z
#    x 1.726450 0.000000 0.000000 
#    y 0.000000 1.732300 0.000000 
#    z 0.000000 0.000000 1.759200 
# 
# From -- ./inp_files/5541.got.cif
#   From: 2010.03.12/outbox.cif.g09.slc.cpg/sg57_3_cif.got.tgz:5541.got - 2010.04.16 15:48:40.
