data_PCOD8232877
_publ_section_title
;
Structure prediction by ZEFSAII (Michael W. Deem and Ramdas Pophale) SiO2 
 PCOD8232877
Probable space group: P B C M
;
_chemical_formula_sum "Si O2"
_cell_formula_units_Z 64
_cell_length_a 15.060052
_cell_length_b 24.899648
_cell_length_c 8.865009
_cell_angle_alpha 90.000000
_cell_angle_beta 90.000000
_cell_angle_gamma 90.000000
_cell_volume 3324.289669
_symmetry_space_group_name_H-M "P B C M"
_symmetry_group_IT_number 57
_symmetry_cell_setting 'orthorhombic'
loop_
_space_group_symop_operation_xyz
x,y,z
-x,-y,1/2+z
x,1/2-y,-z
-x,1/2+y,1/2-z
-x,-y,-z
x,y,1/2-z
-x,1/2+y,z
x,1/2-y,1/2+z
loop_
_atom_site_type_symbol
_atom_site_label
_atom_site_fract_x
_atom_site_fract_y
_atom_site_fract_z
Si Si1 0.759757 0.587224 0.571863
Si Si2 0.003735 0.805751 0.921287
Si Si3 0.417251 0.439477 0.915018
Si Si4 0.760418 0.410579 0.928145
Si Si5 0.416645 0.561586 0.915401
Si Si6 0.901904 0.500040 0.928220
Si Si7 0.191530 0.307592 0.921991
Si Si8 0.825083 0.308922 0.071953
O O1 0.757941 0.589344 0.750000
O O2 0.671495 0.559392 0.513276
O O3 0.846056 0.552718 0.519221
O O4 0.753313 0.647714 0.509007
O O5 0.038537 0.798602 0.750000
O O6 0.907989 0.833393 0.925758
O O7 0.985616 0.750000 0.000000
O O8 0.079894 0.834512 0.019156
O O9 0.402461 0.412039 0.750000
O O10 0.444490 0.500589 0.887486
O O11 0.499302 0.409912 0.001180
O O12 0.760334 0.402410 0.750000
O O13 0.844865 0.447362 0.976846
O O14 0.669999 0.438006 0.979994
O O15 0.756568 0.352361 0.009191
O O16 0.400192 0.588598 0.750000
O O17 0.915178 0.500114 0.750000
O O18 0.000000 0.500000 0.000000
O O19 0.223696 0.301218 0.750000
O O20 0.202231 0.250000 0.000000
O O21 0.818579 0.303961 0.250000
O O22 0.810515 0.250000 0.000000
#
# Coordination Sequence:
#
# PCOD8232877 Si02
#       8
#     8   8   8   8   8   8   8   8
#     4  11  22  38  58  84 116 153 193 238 285 340
#     4   9  17  31  50  73 101 136 183 234 280 324
#     4  10  20  35  58  86 115 148 185 233 286 339
#     4  11  22  39  59  83 116 153 192 237 285 340
#     4  10  20  35  58  87 115 146 185 234 286 339
#     4  10  24  40  56  80 116 158 197 234 283 339
#     4  10  21  36  55  80 109 147 191 239 287 337
#     4  11  22  36  55  80 109 146 191 238 286 336
#
# _framework density 19.252233
#
# number of rings (size 3 to 8) (size 9 to 14) (size 15 to 20)
#    0.000    1.750    1.250    4.125    1.750    4.500 
#    0.000    0.000    0.000    0.750    0.000    5.250 
#    0.000    0.000    0.000    0.000    0.000    0.000 
#
# Total GULP energy -793000.624727 kJ/mol
# GULP energy per Si atom -12390.634761 kJ/mol
# Density = 1.920841 g / cm^3
# Si number density = 19.252233 Si / 1000 Ang^3
#
#
#
# Elastic Constant Matrix: (Units=GPa)
#
#
# Indices 1 2 3 4 5 6 
#
# 1 116.4710 28.5509 46.9720 0.0000 0.0000 0.0000
# 2 28.5509 85.4852 47.1728 0.0000 0.0000 0.0000
# 3 46.9720 47.1728 136.7219 0.0000 0.0000 0.0000
# 4 0.0000 0.0000 0.0000 25.4019 0.0000 0.0000
# 5 0.0000 0.0000 0.0000 0.0000 31.4351 0.0000
# 6 0.0000 0.0000 0.0000 0.0000 0.0000 11.6580
#
#
#
# Elastic Compliance Matrix: (Units=1/GPa)
#
#
# Indices 1 2 3 4 5 6 
#
# 1 0.010190 -0.001818 -0.002874 0.000000 0.000000 0.000000
# 2 -0.001818 0.014773 -0.004473 0.000000 0.000000 0.000000
# 3 -0.002874 -0.004473 0.009845 0.000000 0.000000 0.000000
# 4 0.000000 0.000000 0.000000 0.039367 0.000000 0.000000
# 5 0.000000 0.000000 0.000000 0.000000 0.031812 0.000000
# 6 0.000000 0.000000 0.000000 0.000000 0.000000 0.085778
#
#
# Mechanical properties :
#
#
# Convention : Reuss Voigt Hill
#
# Bulk Modulus (GPa) = 60.68003 64.89659 62.78831
# Shear Modulus (GPa) = 23.19258 28.09785 25.64522
#
# Velocity S-wave (km/s) = 3.47460 3.82443 3.65371
# Velocity P-wave (km/s) = 6.90536 7.29955 7.10519
#
# Compressibility (1/GPa) = 0.01647989
#
# Stress axis : x y z
#
# Youngs Moduli (GPa) = 98.13166 67.69063 101.57794
#
# Poissons Ratio (x) = 0.12303 0.29192
# Poissons Ratio (y) = 0.17836 0.45433
# Poissons Ratio (z) = 0.28202 0.30276
#
# Static dielectric constant tensor:
#      x y z
#    x 3.541790 0.000000 0.000000 
#    y 0.000000 3.304570 0.000000 
#    z 0.000000 0.000000 3.759780 
# 
# 
# High freq. dielectric constant tensor:
#      x y z
#    x 1.740600 0.000000 0.000000 
#    y 0.000000 1.720520 0.000000 
#    z 0.000000 0.000000 1.766850 
# 
# From -- ./inp_files/5598.got.cif
#   From: 2010.03.12/outbox.cif.g09.slc.cpg/sg57_3_cif.got.tgz:5598.got - 2010.04.16 15:48:40.
