data_PCOD8232203
_publ_section_title
;
Structure prediction by ZEFSAII (Michael W. Deem and Ramdas Pophale) SiO2 
 PCOD8232203
Probable space group: P B C M
;
_chemical_formula_sum "Si O2"
_cell_formula_units_Z 48
_cell_length_a 11.458243
_cell_length_b 23.361856
_cell_length_c 9.437206
_cell_angle_alpha 90.000000
_cell_angle_beta 90.000000
_cell_angle_gamma 90.000000
_cell_volume 2526.206255
_symmetry_space_group_name_H-M "P B C M"
_symmetry_group_IT_number 57
_symmetry_cell_setting 'orthorhombic'
loop_
_space_group_symop_operation_xyz
x,y,z
-x,-y,1/2+z
x,1/2-y,-z
-x,1/2+y,1/2-z
-x,-y,-z
x,y,1/2-z
-x,1/2+y,z
x,1/2-y,1/2+z
loop_
_atom_site_type_symbol
_atom_site_label
_atom_site_fract_x
_atom_site_fract_y
_atom_site_fract_z
Si Si1 0.216755 0.917045 0.416961
Si Si2 0.171289 0.302885 0.088607
Si Si3 0.957880 0.916824 0.088165
Si Si4 0.635123 0.191201 0.583698
Si Si5 0.272449 0.478035 0.080994
Si Si6 0.397005 0.134054 0.581991
O O1 0.226595 0.929724 0.250000
O O2 0.258815 0.852262 0.447122
O O3 0.085770 0.924866 0.480423
O O4 0.298254 0.962436 0.500602
O O5 0.187850 0.283669 0.250000
O O6 0.072696 0.350467 0.073630
O O7 0.293992 0.325253 0.024382
O O8 0.124820 0.250000 0.000000
O O9 0.969133 0.934663 0.250000
O O10 0.854227 0.955523 0.023567
O O11 0.655940 0.250000 0.500000
O O12 0.624152 0.205593 0.750000
O O13 0.519312 0.158658 0.526317
O O14 0.272308 0.486883 0.250000
O O15 0.371270 0.431683 0.034789
O O16 0.391791 0.134524 0.750000
#
# Coordination Sequence:
#
# PCOD8232203 Si02
#       6
#     8   8   8   8   8   8
#     4  10  20  33  49  71 100 128 154 191 238 281
#     4   9  16  28  47  68  91 121 158 199 239 278
#     4   8  16  31  48  67  95 130 159 188 235 286
#     4  10  21  36  52  70  96 130 162 193 232 279
#     4   9  17  32  54  74  93 122 160 196 232 281
#     4   8  16  32  51  70  94 124 156 193 240 284
#
# _framework density 19.000824000000001
#
# number of rings (size 3 to 8) (size 9 to 14) (size 15 to 20)
#    0.000    3.000    0.000    3.000    0.000    2.000 
#    0.000    5.000    0.000    0.000    0.000    0.000 
#    0.000    0.000    0.000    0.000    0.000    0.000 
#
# Total GULP energy -594832.004108 kJ/mol
# GULP energy per Si atom -12392.333419 kJ/mol
# Density = 1.895758 g / cm^3
# Si number density = 19.000824 Si / 1000 Ang^3
#
#
#
# Elastic Constant Matrix: (Units=GPa)
#
#
# Indices 1 2 3 4 5 6 
#
# 1 53.4362 27.7581 14.6803 0.0000 0.0000 0.0000
# 2 27.7581 125.9408 48.5784 0.0000 0.0000 0.0000
# 3 14.6803 48.5784 42.9596 0.0000 0.0000 0.0000
# 4 0.0000 0.0000 0.0000 37.1669 0.0000 0.0000
# 5 0.0000 0.0000 0.0000 0.0000 14.8835 0.0000
# 6 0.0000 0.0000 0.0000 0.0000 0.0000 10.5207
#
#
#
# Elastic Compliance Matrix: (Units=1/GPa)
#
#
# Indices 1 2 3 4 5 6 
#
# 1 0.021429 -0.003367 -0.003515 0.000000 0.000000 0.000000
# 2 -0.003367 0.014612 -0.015372 0.000000 0.000000 0.000000
# 3 -0.003515 -0.015372 0.041862 0.000000 0.000000 0.000000
# 4 0.000000 0.000000 0.000000 0.026906 0.000000 0.000000
# 5 0.000000 0.000000 0.000000 0.000000 0.067189 0.000000
# 6 0.000000 0.000000 0.000000 0.000000 0.000000 0.095050
#
#
# Mechanical properties :
#
#
# Convention : Reuss Voigt Hill
#
# Bulk Modulus (GPa) = 29.94629 44.93004 37.43816
# Shear Modulus (GPa) = 15.49486 21.26888 18.38187
#
# Velocity S-wave (km/s) = 2.85877 3.34932 3.11372
# Velocity P-wave (km/s) = 5.16638 6.21731 5.71605
#
# Compressibility (1/GPa) = 0.03339312
#
# Stress axis : x y z
#
# Youngs Moduli (GPa) = 46.66638 68.43754 23.88809
#
# Poissons Ratio (x) = 0.23044 0.08397
# Poissons Ratio (y) = 0.15713 0.36722
# Poissons Ratio (z) = 0.16404 1.05205
#
# Static dielectric constant tensor:
#      x y z
#    x 3.725880 0.000000 0.000000 
#    y 0.000000 3.443060 0.000000 
#    z 0.000000 0.000000 3.174620 
# 
# 
# High freq. dielectric constant tensor:
#      x y z
#    x 1.736620 0.000000 0.000000 
#    y 0.000000 1.744890 0.000000 
#    z 0.000000 0.000000 1.693850 
# 
# From -- ./inp_files/3149.got.cif
#   From: 2010.03.12/outbox.cif.g09.slc.cpg/sg57_2_cif.got.tgz:3149.got - 2010.04.16 15:48:40.
