data_PCOD8232284
_publ_section_title
;
Structure prediction by ZEFSAII (Michael W. Deem and Ramdas Pophale) SiO2 
 PCOD8232284
Probable space group: P B C M
;
_chemical_formula_sum "Si O2"
_cell_formula_units_Z 48
_cell_length_a 18.224769
_cell_length_b 16.491125
_cell_length_c 8.815730
_cell_angle_alpha 90.000000
_cell_angle_beta 90.000000
_cell_angle_gamma 90.000000
_cell_volume 2649.540708
_symmetry_space_group_name_H-M "P B C M"
_symmetry_group_IT_number 57
_symmetry_cell_setting 'orthorhombic'
loop_
_space_group_symop_operation_xyz
x,y,z
-x,-y,1/2+z
x,1/2-y,-z
-x,1/2+y,1/2-z
-x,-y,-z
x,y,1/2-z
-x,1/2+y,z
x,1/2-y,1/2+z
loop_
_atom_site_type_symbol
_atom_site_label
_atom_site_fract_x
_atom_site_fract_y
_atom_site_fract_z
Si Si1 0.202499 0.918240 0.079771
Si Si2 0.699645 0.922648 0.582884
Si Si3 0.578238 0.010816 0.073395
Si Si4 0.159873 0.164598 0.430574
Si Si5 0.920814 0.512768 0.569294
Si Si6 0.330407 0.666823 0.070396
O O1 0.182194 0.889119 0.250000
O O2 0.250458 0.998397 0.087588
O O3 0.129141 0.937277 0.985338
O O4 0.249043 0.848815 0.995345
O O5 0.667474 0.904589 0.750000
O O6 0.631143 0.935569 0.470979
O O7 0.753809 0.850486 0.529431
O O8 0.566855 0.009002 0.250000
O O9 0.614010 0.095569 0.019685
O O10 0.500000 0.000000 0.000000
O O11 0.136050 0.250000 0.500000
O O12 0.147498 0.161804 0.250000
O O13 0.109377 0.097773 0.508709
O O14 0.923542 0.513936 0.750000
O O15 0.000000 0.500000 0.500000
O O16 0.325401 0.673348 0.250000
O O17 0.361387 0.750000 0.000000
#
# Coordination Sequence:
#
# PCOD8232284 Si02
#       6
#     8   8   8   8   8   8
#     4   9  17  32  53  76 101 132 169 210 253 303
#     4   8  16  31  51  73  99 130 167 206 248 301
#     4  10  20  33  52  76 103 135 174 214 259 312
#     4  10  20  35  55  80 107 138 175 218 265 312
#     4  11  21  35  55  79 108 142 178 216 259 313
#     4  10  20  34  53  78 104 135 173 216 263 313
#
# _framework density 18.116347000000001
#
# number of rings (size 3 to 8) (size 9 to 14) (size 15 to 20)
#    0.000    2.333    0.000    4.500    0.000    6.667 
#    0.000    1.667    0.000    0.000    0.000    0.000 
#    0.000    0.000    0.000    0.000    0.000    0.000 
#
# Total GULP energy -595090.577627 kJ/mol
# GULP energy per Si atom -12397.720367 kJ/mol
# Density = 1.807511 g / cm^3
# Si number density = 18.116347 Si / 1000 Ang^3
#
#
#
# Elastic Constant Matrix: (Units=GPa)
#
#
# Indices 1 2 3 4 5 6 
#
# 1 135.3741 45.0877 67.9760 0.0000 0.0000 0.0000
# 2 45.0877 78.3811 45.2577 0.0000 0.0000 0.0000
# 3 67.9760 45.2577 124.5293 0.0000 0.0000 0.0000
# 4 0.0000 0.0000 0.0000 29.2061 0.0000 0.0000
# 5 0.0000 0.0000 0.0000 0.0000 35.0496 0.0000
# 6 0.0000 0.0000 0.0000 0.0000 0.0000 17.7937
#
#
#
# Elastic Compliance Matrix: (Units=1/GPa)
#
#
# Indices 1 2 3 4 5 6 
#
# 1 0.010922 -0.003595 -0.004655 0.000000 0.000000 0.000000
# 2 -0.003595 0.017329 -0.004336 0.000000 0.000000 0.000000
# 3 -0.004655 -0.004336 0.012147 0.000000 0.000000 0.000000
# 4 0.000000 0.000000 0.000000 0.034239 0.000000 0.000000
# 5 0.000000 0.000000 0.000000 0.000000 0.028531 0.000000
# 6 0.000000 0.000000 0.000000 0.000000 0.000000 0.056200
#
#
# Mechanical properties :
#
#
# Convention : Reuss Voigt Hill
#
# Bulk Modulus (GPa) = 65.67398 72.76970 69.22184
# Shear Modulus (GPa) = 26.36909 28.40743 27.38826
#
# Velocity S-wave (km/s) = 3.81929 3.96416 3.89240
# Velocity P-wave (km/s) = 7.46855 7.82355 7.64811
#
# Compressibility (1/GPa) = 0.01522673
#
# Stress axis : x y z
#
# Youngs Moduli (GPa) = 91.56007 57.70516 82.32299
#
# Poissons Ratio (x) = 0.20742 0.38325
# Poissons Ratio (y) = 0.32912 0.35695
# Poissons Ratio (z) = 0.42625 0.25021
#
# Static dielectric constant tensor:
#      x y z
#    x 3.641440 0.000000 0.000000 
#    y 0.000000 3.363820 0.000000 
#    z 0.000000 0.000000 3.518460 
# 
# 
# High freq. dielectric constant tensor:
#      x y z
#    x 1.693140 0.000000 0.000000 
#    y 0.000000 1.681780 0.000000 
#    z 0.000000 0.000000 1.717360 
# 
# From -- ./inp_files/6510.got.cif
#   From: 2010.03.12/outbox.cif.g09.slc.cpg/sg57_4_cif.got.tgz:6510.got - 2010.04.16 15:48:40.
