data_PCOD8232678
_publ_section_title
;
Structure prediction by ZEFSAII (Michael W. Deem and Ramdas Pophale) SiO2 
 PCOD8232678
Probable space group: P B C M
;
_chemical_formula_sum "Si O2"
_cell_formula_units_Z 48
_cell_length_a 29.807164
_cell_length_b 8.851044
_cell_length_c 9.756632
_cell_angle_alpha 90.000000
_cell_angle_beta 90.000000
_cell_angle_gamma 90.000000
_cell_volume 2574.038755
_symmetry_space_group_name_H-M "P B C M"
_symmetry_group_IT_number 57
_symmetry_cell_setting 'orthorhombic'
loop_
_space_group_symop_operation_xyz
x,y,z
-x,-y,1/2+z
x,1/2-y,-z
-x,1/2+y,1/2-z
-x,-y,-z
x,y,1/2-z
-x,1/2+y,z
x,1/2-y,1/2+z
loop_
_atom_site_type_symbol
_atom_site_label
_atom_site_fract_x
_atom_site_fract_y
_atom_site_fract_z
Si Si1 0.132581 0.107243 0.405317
Si Si2 0.966818 0.900195 0.588652
Si Si3 0.691079 0.392730 0.404707
Si Si4 0.539791 0.928684 0.750000
Si Si5 0.403208 0.567417 0.512601
Si Si6 0.788411 0.395391 0.092798
Si Si7 0.556430 0.930779 0.250000
O O1 0.133783 0.250000 0.500000
O O2 0.142954 0.157864 0.250000
O O3 0.083375 0.028598 0.412519
O O4 0.171415 0.998876 0.460911
O O5 0.965273 0.750000 0.500000
O O6 0.982008 0.877742 0.750000
O O7 0.000000 0.000000 0.500000
O O8 0.692374 0.250000 0.500000
O O9 0.685528 0.334295 0.250000
O O10 0.646823 0.488450 0.443205
O O11 0.739300 0.478271 0.421174
O O12 0.545866 0.747723 0.750000
O O13 0.560467 0.008410 0.881299
O O14 0.487402 0.965060 0.750000
O O15 0.406408 0.750000 0.500000
O O16 0.412852 0.477377 0.375858
O O17 0.797066 0.347925 0.250000
O O18 0.789124 0.250000 0.000000
#
# Coordination Sequence:
#
# PCOD8232678 Si02
#       7
#     8   8   8   4   8   8   4
#     4   9  19  35  54  76 109 146 185 226 278 334
#     4  10  20  35  54  78 107 146 188 235 285 342
#     4   9  18  33  58  84 112 143 182 228 273 325
#     4  12  24  44  60  86 120 148 188 230 281 332
#     4  11  22  39  63  88 113 150 190 230 279 335
#     4   9  18  34  55  82 110 141 181 227 270 321
#     4  12  26  40  62  86 116 152 186 234 279 334
#
# _framework density 18.647738
#
# number of rings (size 3 to 8) (size 9 to 14) (size 15 to 20)
#    0.000    2.000    0.833    3.000    3.500    2.000 
#    0.000    3.333    0.000    0.000    0.000    0.000 
#    0.000    0.000    0.000    0.000    0.000    0.000 
#
# Total GULP energy -594640.980509 kJ/mol
# GULP energy per Si atom -12388.353761 kJ/mol
# Density = 1.860530 g / cm^3
# Si number density = 18.647738 Si / 1000 Ang^3
#
#
#
# Elastic Constant Matrix: (Units=GPa)
#
#
# Indices 1 2 3 4 5 6 
#
# 1 151.4804 45.4352 56.5496 0.0000 0.0000 0.0000
# 2 45.4352 76.3861 31.2560 0.0000 0.0000 0.0000
# 3 56.5496 31.2560 120.8331 0.0000 0.0000 0.0000
# 4 0.0000 0.0000 0.0000 30.9890 0.0000 0.0000
# 5 0.0000 0.0000 0.0000 0.0000 31.3012 0.0000
# 6 0.0000 0.0000 0.0000 0.0000 0.0000 66.5307
#
#
#
# Elastic Compliance Matrix: (Units=1/GPa)
#
#
# Indices 1 2 3 4 5 6 
#
# 1 0.008999 -0.004059 -0.003162 0.000000 0.000000 0.000000
# 2 -0.004059 0.016472 -0.002361 0.000000 0.000000 0.000000
# 3 -0.003162 -0.002361 0.010366 0.000000 0.000000 0.000000
# 4 0.000000 0.000000 0.000000 0.032270 0.000000 0.000000
# 5 0.000000 0.000000 0.000000 0.000000 0.031948 0.000000
# 6 0.000000 0.000000 0.000000 0.000000 0.000000 0.015031
#
#
# Mechanical properties :
#
#
# Convention : Reuss Voigt Hill
#
# Bulk Modulus (GPa) = 59.97500 68.35346 64.16423
# Shear Modulus (GPa) = 35.76352 40.12810 37.94581
#
# Velocity S-wave (km/s) = 4.38407 4.64389 4.51585
# Velocity P-wave (km/s) = 7.60649 8.09253 7.85327
#
# Compressibility (1/GPa) = 0.01667361
#
# Stress axis : x y z
#
# Youngs Moduli (GPa) = 111.11946 60.70917 96.46656
#
# Poissons Ratio (x) = 0.24643 0.30500
# Poissons Ratio (y) = 0.45105 0.22777
# Poissons Ratio (z) = 0.35132 0.14334
#
# Static dielectric constant tensor:
#      x y z
#    x 4.428320 0.000000 0.000000 
#    y 0.000000 2.965170 0.000000 
#    z 0.000000 0.000000 3.585740 
# 
# 
# High freq. dielectric constant tensor:
#      x y z
#    x 1.750890 0.000000 0.000000 
#    y 0.000000 1.683130 0.000000 
#    z 0.000000 0.000000 1.745310 
# 
# From -- ./inp_files/10116.got.cif
#   From: 2010.03.12/outbox.cif.g09.slc.cpg/sg57_6_cif.got.tgz:10116.got - 2010.04.16 15:48:40.
