data_PCOD8232753
_publ_section_title
;
Structure prediction by ZEFSAII (Michael W. Deem and Ramdas Pophale) SiO2 
 PCOD8232753
Probable space group: P B C M
;
_chemical_formula_sum "Si O2"
_cell_formula_units_Z 40
_cell_length_a 13.520180
_cell_length_b 18.107922
_cell_length_c 8.846613
_cell_angle_alpha 90.000000
_cell_angle_beta 90.000000
_cell_angle_gamma 90.000000
_cell_volume 2165.848716
_symmetry_space_group_name_H-M "P B C M"
_symmetry_group_IT_number 57
_symmetry_cell_setting 'orthorhombic'
loop_
_space_group_symop_operation_xyz
x,y,z
-x,-y,1/2+z
x,1/2-y,-z
-x,1/2+y,1/2-z
-x,-y,-z
x,y,1/2-z
-x,1/2+y,z
x,1/2-y,1/2+z
loop_
_atom_site_type_symbol
_atom_site_label
_atom_site_fract_x
_atom_site_fract_y
_atom_site_fract_z
Si Si1 0.418786 0.827040 0.426902
Si Si2 0.100733 0.472588 0.070892
Si Si3 0.611000 0.884802 0.578670
Si Si4 0.174540 0.325984 0.924439
Si Si5 0.710411 0.035015 0.572220
O O1 0.387236 0.750000 0.500000
O O2 0.417079 0.815999 0.250000
O O3 0.528609 0.851527 0.470565
O O4 0.339923 0.888660 0.477695
O O5 0.093423 0.472913 0.250000
O O6 0.119225 0.390264 0.013153
O O7 0.188112 0.527404 0.019091
O O8 0.000000 0.500000 0.000000
O O9 0.571198 0.882360 0.750000
O O10 0.707850 0.834744 0.560648
O O11 0.635486 0.968699 0.529900
O O12 0.141612 0.327971 0.750000
O O13 0.140820 0.250000 0.000000
O O14 0.734988 0.031055 0.750000
#
# Coordination Sequence:
#
# PCOD8232753 Si02
#       5
#     8   8   8   8   8
#     4  11  22  34  51  76 110 147 182 220 263 313
#     4  11  22  38  61  84 107 139 178 224 275 329
#     4   9  18  33  54  78 107 141 179 221 264 314
#     4  10  20  35  55  83 115 144 178 223 271 319
#     4   9  20  38  56  77 105 139 180 226 270 319
#
# _framework density 18.468512
#
# number of rings (size 3 to 8) (size 9 to 14) (size 15 to 20)
#    0.000    2.000    0.000    5.400    0.000    7.200 
#    0.000    1.000    0.000    2.400    0.000    0.000 
#    0.000    0.000    0.000    0.000    0.000    0.000 
#
# Total GULP energy -496143.950338 kJ/mol
# GULP energy per Si atom -12403.598758 kJ/mol
# Density = 1.842648 g / cm^3
# Si number density = 18.468512 Si / 1000 Ang^3
#
#
#
# Elastic Constant Matrix: (Units=GPa)
#
#
# Indices 1 2 3 4 5 6 
#
# 1 89.9287 58.0272 45.8541 0.0000 0.0000 0.0000
# 2 58.0272 132.8218 48.6320 0.0000 0.0000 0.0000
# 3 45.8541 48.6320 98.0263 0.0000 0.0000 0.0000
# 4 0.0000 0.0000 0.0000 33.3022 0.0000 0.0000
# 5 0.0000 0.0000 0.0000 0.0000 32.1345 0.0000
# 6 0.0000 0.0000 0.0000 0.0000 0.0000 16.9285
#
#
#
# Elastic Compliance Matrix: (Units=1/GPa)
#
#
# Indices 1 2 3 4 5 6 
#
# 1 0.017535 -0.005691 -0.005379 0.000000 0.000000 0.000000
# 2 -0.005691 0.011047 -0.002818 0.000000 0.000000 0.000000
# 3 -0.005379 -0.002818 0.014116 0.000000 0.000000 0.000000
# 4 0.000000 0.000000 0.000000 0.030028 0.000000 0.000000
# 5 0.000000 0.000000 0.000000 0.000000 0.031119 0.000000
# 6 0.000000 0.000000 0.000000 0.000000 0.000000 0.059072
#
#
# Mechanical properties :
#
#
# Convention : Reuss Voigt Hill
#
# Bulk Modulus (GPa) = 67.02084 69.53370 68.27727
# Shear Modulus (GPa) = 25.55354 27.69060 26.62207
#
# Velocity S-wave (km/s) = 3.72375 3.87633 3.80081
# Velocity P-wave (km/s) = 7.40651 7.60041 7.50409
#
# Compressibility (1/GPa) = 0.01492073
#
# Stress axis : x y z
#
# Youngs Moduli (GPa) = 57.02926 90.52062 70.84298
#
# Poissons Ratio (x) = 0.51517 0.38106
# Poissons Ratio (y) = 0.32456 0.19967
# Poissons Ratio (z) = 0.30675 0.25513
#
# Static dielectric constant tensor:
#      x y z
#    x 3.283840 0.000000 0.000000 
#    y 0.000000 3.589440 0.000000 
#    z 0.000000 0.000000 3.439020 
# 
# 
# High freq. dielectric constant tensor:
#      x y z
#    x 1.699910 0.000000 0.000000 
#    y 0.000000 1.724930 0.000000 
#    z 0.000000 0.000000 1.725120 
# 
# From -- ./inp_files/2681.got.cif
#   From: 2010.03.12/outbox.cif.g09.slc.cpg/sg57_2_cif.got.tgz:2681.got - 2010.04.16 15:48:40.
