data_PCOD8232996
_publ_section_title
;
Structure prediction by ZEFSAII (Michael W. Deem and Ramdas Pophale) SiO2 
 PCOD8232996
Probable space group: P B C M
;
_chemical_formula_sum "Si O2"
_cell_formula_units_Z 40
_cell_length_a 11.635586
_cell_length_b 21.572937
_cell_length_c 8.778681
_cell_angle_alpha 90.000000
_cell_angle_beta 90.000000
_cell_angle_gamma 90.000000
_cell_volume 2203.569758
_symmetry_space_group_name_H-M "P B C M"
_symmetry_group_IT_number 57
_symmetry_cell_setting 'orthorhombic'
loop_
_space_group_symop_operation_xyz
x,y,z
-x,-y,1/2+z
x,1/2-y,-z
-x,1/2+y,1/2-z
-x,-y,-z
x,y,1/2-z
-x,1/2+y,z
x,1/2-y,1/2+z
loop_
_atom_site_type_symbol
_atom_site_label
_atom_site_fract_x
_atom_site_fract_y
_atom_site_fract_z
Si Si1 0.834668 0.042420 0.928844
Si Si2 0.478699 0.183907 0.068648
Si Si3 0.573229 0.057113 0.567949
Si Si4 0.048716 0.415883 0.929699
Si Si5 0.216241 0.312483 0.570785
O O1 0.837887 0.050695 0.750000
O O2 0.704422 0.047615 0.986424
O O3 0.887580 0.977800 0.984707
O O4 0.920447 0.093262 0.002263
O O5 0.497612 0.184627 0.250000
O O6 0.346597 0.174254 0.020925
O O7 0.523333 0.250000 0.000000
O O8 0.541097 0.124696 0.995920
O O9 0.560229 0.055973 0.750000
O O10 0.500000 0.000000 0.500000
O O11 0.039044 0.412773 0.750000
O O12 0.131488 0.363540 0.996711
O O13 0.169416 0.250000 0.500000
O O14 0.208576 0.308958 0.750000
#
# Coordination Sequence:
#
# PCOD8232996 Si02
#       5
#     8   8   8   8   8
#     4   9  19  34  51  73 101 131 165 208 256 305
#     4  10  20  36  56  79 109 142 177 218 265 316
#     4  11  22  36  55  80 109 141 179 221 265 313
#     4   9  17  32  52  73  99 130 163 203 253 304
#     4   9  18  32  51  75 102 131 165 207 252 300
#
# _framework density 18.152363999999999
#
# number of rings (size 3 to 8) (size 9 to 14) (size 15 to 20)
#    0.000    2.400    0.000    2.400    0.000    6.400 
#    0.000    5.000    0.000    2.400    0.000    0.000 
#    0.000    0.000    0.000    0.000    0.000    0.000 
#
# Total GULP energy -495770.663707 kJ/mol
# GULP energy per Si atom -12394.266593 kJ/mol
# Density = 1.811105 g / cm^3
# Si number density = 18.152364 Si / 1000 Ang^3
#
#
#
# Elastic Constant Matrix: (Units=GPa)
#
#
# Indices 1 2 3 4 5 6 
#
# 1 147.0160 78.6704 40.7721 0.0000 0.0000 0.0000
# 2 78.6704 127.0724 42.2457 0.0000 0.0000 0.0000
# 3 40.7721 42.2457 43.6133 0.0000 0.0000 0.0000
# 4 0.0000 0.0000 0.0000 32.9203 0.0000 0.0000
# 5 0.0000 0.0000 0.0000 0.0000 29.6148 0.0000
# 6 0.0000 0.0000 0.0000 0.0000 0.0000 35.2961
#
#
#
# Elastic Compliance Matrix: (Units=1/GPa)
#
#
# Indices 1 2 3 4 5 6 
#
# 1 0.010979 -0.004993 -0.005428 0.000000 0.000000 0.000000
# 2 -0.004993 0.013878 -0.008775 0.000000 0.000000 0.000000
# 3 -0.005428 -0.008775 0.036503 0.000000 0.000000 0.000000
# 4 0.000000 0.000000 0.000000 0.030376 0.000000 0.000000
# 5 0.000000 0.000000 0.000000 0.000000 0.033767 0.000000
# 6 0.000000 0.000000 0.000000 0.000000 0.000000 0.028332
#
#
# Mechanical properties :
#
#
# Convention : Reuss Voigt Hill
#
# Bulk Modulus (GPa) = 43.53769 71.23090 57.38430
# Shear Modulus (GPa) = 25.01480 29.96714 27.49097
#
# Velocity S-wave (km/s) = 3.71623 4.06749 3.89582
# Velocity P-wave (km/s) = 6.51540 7.83486 7.20540
#
# Compressibility (1/GPa) = 0.02296860
#
# Stress axis : x y z
#
# Youngs Moduli (GPa) = 91.08475 72.05750 27.39508
#
# Poissons Ratio (x) = 0.35975 0.14869
# Poissons Ratio (y) = 0.45474 0.24040
# Poissons Ratio (z) = 0.49437 0.63233
#
# Static dielectric constant tensor:
#      x y z
#    x 3.616050 0.000000 0.000000 
#    y 0.000000 3.521550 0.000000 
#    z 0.000000 0.000000 3.285410 
# 
# 
# High freq. dielectric constant tensor:
#      x y z
#    x 1.705750 0.000000 0.000000 
#    y 0.000000 1.702210 0.000000 
#    z 0.000000 0.000000 1.701940 
# 
# From -- ./inp_files/2864.got.cif
#   From: 2010.03.12/outbox.cif.g09.slc.cpg/sg57_2_cif.got.tgz:2864.got - 2010.04.16 15:48:40.
