data_PCOD8232568
_publ_section_title
;
Structure prediction by ZEFSAII (Michael W. Deem and Ramdas Pophale) SiO2 
 PCOD8232568
Probable space group: P B C M
;
_chemical_formula_sum "Si O2"
_cell_formula_units_Z 48
_cell_length_a 13.890836
_cell_length_b 11.641572
_cell_length_c 15.031943
_cell_angle_alpha 90.000000
_cell_angle_beta 90.000000
_cell_angle_gamma 90.000000
_cell_volume 2430.833051
_symmetry_space_group_name_H-M "P B C M"
_symmetry_group_IT_number 57
_symmetry_cell_setting 'orthorhombic'
loop_
_space_group_symop_operation_xyz
x,y,z
-x,-y,1/2+z
x,1/2-y,-z
-x,1/2+y,1/2-z
-x,-y,-z
x,y,1/2-z
-x,1/2+y,z
x,1/2-y,1/2+z
loop_
_atom_site_type_symbol
_atom_site_label
_atom_site_fract_x
_atom_site_fract_y
_atom_site_fract_z
Si Si1 0.364400 0.480622 0.068672
Si Si2 0.548047 0.146894 0.567194
Si Si3 0.845209 0.913294 0.471910
Si Si4 0.699776 0.204711 0.347337
Si Si5 0.898255 0.332670 0.926554
Si Si6 0.089277 0.211192 0.146735
O O1 0.445694 0.393753 0.107465
O O2 0.268482 0.410017 0.047862
O O3 0.347889 0.579980 0.140753
O O4 0.400997 0.537591 0.977345
O O5 0.527402 0.250000 0.500000
O O6 0.621866 0.194453 0.640466
O O7 0.860223 0.873874 0.574459
O O8 0.894173 0.837878 0.393921
O O9 0.890607 0.038721 0.462398
O O10 0.742097 0.213096 0.250000
O O11 0.792634 0.219481 0.409007
O O12 0.975633 0.322605 0.846847
O O13 0.945818 0.250000 0.000000
O O14 0.128454 0.202311 0.250000
#
# Coordination Sequence:
#
# PCOD8232568 Si02
#       6
#     8   8   8   8   8   8
#     4   9  19  36  61  79 111 153 197 232 294 355
#     4   9  18  35  59  84 105 149 196 237 281 349
#     4  10  22  41  62  87 122 162 198 251 302 359
#     4  10  20  34  55  87 118 149 190 243 296 348
#     4  11  21  41  64  86 116 160 205 245 298 359
#     4  11  24  39  60  91 122 160 204 248 301 358
#
# _framework density 19.746316
#
# number of rings (size 3 to 8) (size 9 to 14) (size 15 to 20)
#    0.000    2.000    1.667    3.500    2.333    4.000 
#    0.000    3.333    0.000    0.000    0.000    0.000 
#    0.000    0.000    0.000    0.000    0.000    0.000 
#
# Total GULP energy -594759.245533 kJ/mol
# GULP energy per Si atom -12390.817615 kJ/mol
# Density = 1.970137 g / cm^3
# Si number density = 19.746316 Si / 1000 Ang^3
#
#
#
# Elastic Constant Matrix: (Units=GPa)
#
#
# Indices 1 2 3 4 5 6 
#
# 1 128.6621 50.7864 26.7683 0.0000 0.0000 0.0000
# 2 50.7864 99.1013 36.2424 0.0000 0.0000 0.0000
# 3 26.7683 36.2424 115.3897 0.0000 0.0000 0.0000
# 4 0.0000 0.0000 0.0000 7.8465 0.0000 0.0000
# 5 0.0000 0.0000 0.0000 0.0000 14.6689 0.0000
# 6 0.0000 0.0000 0.0000 0.0000 0.0000 37.3208
#
#
#
# Elastic Compliance Matrix: (Units=1/GPa)
#
#
# Indices 1 2 3 4 5 6 
#
# 1 0.009806 -0.004738 -0.000787 0.000000 0.000000 0.000000
# 2 -0.004738 0.013689 -0.003201 0.000000 0.000000 0.000000
# 3 -0.000787 -0.003201 0.009854 0.000000 0.000000 0.000000
# 4 0.000000 0.000000 0.000000 0.127445 0.000000 0.000000
# 5 0.000000 0.000000 0.000000 0.000000 0.068171 0.000000
# 6 0.000000 0.000000 0.000000 0.000000 0.000000 0.026795
#
#
# Mechanical properties :
#
#
# Convention : Reuss Voigt Hill
#
# Bulk Modulus (GPa) = 62.89573 63.41636 63.15604
# Shear Modulus (GPa) = 17.95272 27.25766 22.60519
#
# Velocity S-wave (km/s) = 3.01851 3.71939 3.38713
# Velocity P-wave (km/s) = 6.63849 7.11551 6.88113
#
# Compressibility (1/GPa) = 0.01589933
#
# Stress axis : x y z
#
# Youngs Moduli (GPa) = 101.97807 73.05134 101.48109
#
# Poissons Ratio (x) = 0.34608 0.07985
# Poissons Ratio (y) = 0.48313 0.32479
# Poissons Ratio (z) = 0.08024 0.23380
#
# Static dielectric constant tensor:
#      x y z
#    x 3.756210 0.000000 0.000000 
#    y 0.000000 3.650640 0.000000 
#    z 0.000000 0.000000 3.278620 
# 
# 
# High freq. dielectric constant tensor:
#      x y z
#    x 1.785110 0.000000 0.000000 
#    y 0.000000 1.772300 0.000000 
#    z 0.000000 0.000000 1.741810 
# 
# From -- ./inp_files/18419.got.cif
#   From: 2010.03.12/outbox.cif.g09.slc.cpg/sg57_10_cif.got.tgz:18419.got - 2010.04.16 15:48:40.
