data_PCOD8232990
_publ_section_title
;
Structure prediction by ZEFSAII (Michael W. Deem and Ramdas Pophale) SiO2 
 PCOD8232990
Probable space group: P B C M
;
_chemical_formula_sum "Si O2"
_cell_formula_units_Z 56
_cell_length_a 23.550751
_cell_length_b 14.288600
_cell_length_c 8.827134
_cell_angle_alpha 90.000000
_cell_angle_beta 90.000000
_cell_angle_gamma 90.000000
_cell_volume 2970.394683
_symmetry_space_group_name_H-M "P B C M"
_symmetry_group_IT_number 57
_symmetry_cell_setting 'orthorhombic'
loop_
_space_group_symop_operation_xyz
x,y,z
-x,-y,1/2+z
x,1/2-y,-z
-x,1/2+y,1/2-z
-x,-y,-z
x,y,1/2-z
-x,1/2+y,z
x,1/2-y,1/2+z
loop_
_atom_site_type_symbol
_atom_site_label
_atom_site_fract_x
_atom_site_fract_y
_atom_site_fract_z
Si Si1 0.151630 0.148071 0.928620
Si Si2 0.765772 0.507000 0.074003
Si Si3 0.554992 0.150882 0.074275
Si Si4 0.857346 0.349731 0.426221
Si Si5 0.938800 0.491274 0.928330
Si Si6 0.645133 0.002185 0.070392
Si Si7 0.428515 0.149849 0.072977
O O1 0.159008 0.158955 0.750000
O O2 0.097598 0.083496 0.970911
O O3 0.142575 0.250000 0.000000
O O4 0.207903 0.098632 0.994131
O O5 0.759441 0.530798 0.250000
O O6 0.803319 0.415354 0.045667
O O7 0.705842 0.481208 0.002749
O O8 0.564899 0.165964 0.250000
O O9 0.491948 0.109061 0.044179
O O10 0.602087 0.080986 0.008249
O O11 0.564641 0.250000 0.000000
O O12 0.844367 0.250000 0.500000
O O13 0.870685 0.336474 0.250000
O O14 0.911438 0.397316 0.504529
O O15 0.943875 0.479062 0.750000
O O16 0.000000 0.500000 0.000000
O O17 0.650834 0.002897 0.250000
O O18 0.619791 0.904924 0.015527
O O19 0.413714 0.153222 0.250000
O O20 0.426944 0.250000 0.000000
#
# Coordination Sequence:
#
# PCOD8232990 Si02
#       7
#     8   8   8   8   8   8   8
#     4  10  21  38  60  84 111 147 185 226 274 323
#     4  10  22  39  57  80 109 143 184 229 273 323
#     4   9  20  36  55  79 108 141 177 220 270 325
#     4  10  21  38  60  83 111 148 188 229 277 327
#     4  10  21  37  58  86 120 152 187 229 272 320
#     4  11  22  36  55  81 110 141 179 224 273 325
#     4  10  20  36  56  79 107 140 178 221 271 327
#
# _framework density 18.852713000000001
#
# number of rings (size 3 to 8) (size 9 to 14) (size 15 to 20)
#    0.000    2.000    0.000    3.000    0.000    6.857 
#    0.000    7.143    0.000    0.000    0.000    0.000 
#    0.000    0.000    0.000    0.000    0.000    0.000 
#
# Total GULP energy -694504.276993 kJ/mol
# GULP energy per Si atom -12401.862089 kJ/mol
# Density = 1.880980 g / cm^3
# Si number density = 18.852713 Si / 1000 Ang^3
#
#
#
# Elastic Constant Matrix: (Units=GPa)
#
#
# Indices 1 2 3 4 5 6 
#
# 1 121.1060 38.0429 53.9756 0.0000 0.0000 0.0000
# 2 38.0429 95.7534 52.0938 0.0000 0.0000 0.0000
# 3 53.9756 52.0938 92.2025 0.0000 0.0000 0.0000
# 4 0.0000 0.0000 0.0000 36.5674 0.0000 0.0000
# 5 0.0000 0.0000 0.0000 0.0000 37.7806 0.0000
# 6 0.0000 0.0000 0.0000 0.0000 0.0000 16.4156
#
#
#
# Elastic Compliance Matrix: (Units=1/GPa)
#
#
# Indices 1 2 3 4 5 6 
#
# 1 0.011280 -0.001284 -0.005878 0.000000 0.000000 0.000000
# 2 -0.001284 0.015224 -0.007850 0.000000 0.000000 0.000000
# 3 -0.005878 -0.007850 0.018722 0.000000 0.000000 0.000000
# 4 0.000000 0.000000 0.000000 0.027347 0.000000 0.000000
# 5 0.000000 0.000000 0.000000 0.000000 0.026469 0.000000
# 6 0.000000 0.000000 0.000000 0.000000 0.000000 0.060918
#
#
# Mechanical properties :
#
#
# Convention : Reuss Voigt Hill
#
# Bulk Modulus (GPa) = 65.77836 66.36517 66.07177
# Shear Modulus (GPa) = 25.63425 29.14935 27.39180
#
# Velocity S-wave (km/s) = 3.69143 3.93639 3.81588
# Velocity P-wave (km/s) = 7.28939 7.47921 7.38491
#
# Compressibility (1/GPa) = 0.01520257
#
# Stress axis : x y z
#
# Youngs Moduli (GPa) = 88.64968 65.68441 53.41264
#
# Poissons Ratio (x) = 0.08432 0.31398
# Poissons Ratio (y) = 0.11380 0.41930
# Poissons Ratio (z) = 0.52111 0.51563
#
# Static dielectric constant tensor:
#      x y z
#    x 3.591580 0.000000 0.000000 
#    y 0.000000 3.513920 0.000000 
#    z 0.000000 0.000000 2.880480 
# 
# 
# High freq. dielectric constant tensor:
#      x y z
#    x 1.735920 0.000000 0.000000 
#    y 0.000000 1.735240 0.000000 
#    z 0.000000 0.000000 1.747460 
# 
# From -- ./inp_files/8095.got.cif
#   From: 2010.03.12/outbox.cif.g09.slc.cpg/sg57_5_cif.got.tgz:8095.got - 2010.04.16 15:48:40.
