data_PCOD8232980
_publ_section_title
;
Structure prediction by ZEFSAII (Michael W. Deem and Ramdas Pophale) SiO2 
 PCOD8232980
Probable space group: P B C M
;
_chemical_formula_sum "Si O2"
_cell_formula_units_Z 32
_cell_length_a 4.802241
_cell_length_b 25.430734
_cell_length_c 10.632730
_cell_angle_alpha 90.000000
_cell_angle_beta 90.000000
_cell_angle_gamma 90.000000
_cell_volume 1298.516978
_symmetry_space_group_name_H-M "P B C M"
_symmetry_group_IT_number 57
_symmetry_cell_setting 'orthorhombic'
loop_
_space_group_symop_operation_xyz
x,y,z
-x,-y,1/2+z
x,1/2-y,-z
-x,1/2+y,1/2-z
-x,-y,-z
x,y,1/2-z
-x,1/2+y,z
x,1/2-y,1/2+z
loop_
_atom_site_type_symbol
_atom_site_label
_atom_site_fract_x
_atom_site_fract_y
_atom_site_fract_z
Si Si1 0.116231 0.134688 0.391661
Si Si2 0.250800 0.539149 0.750000
Si Si3 0.245222 0.964610 0.750000
Si Si4 0.375957 0.706375 0.393520
Si Si5 0.449123 0.938193 0.502508
O O1 0.107938 0.109737 0.250000
O O2 0.814611 0.156370 0.436076
O O3 0.258157 0.091957 0.484184
O O4 0.307692 0.186935 0.391653
O O5 0.440350 0.486840 0.750000
O O6 0.300319 0.576492 0.628684
O O7 0.939688 0.516638 0.750000
O O8 0.231027 0.928842 0.621439
O O9 0.335768 0.750000 0.500000
O O10 0.292299 0.724860 0.250000
O O11 0.500000 0.000000 0.500000
#
# Coordination Sequence:
#
# PCOD8232980 Si02
#       5
#     8   4   4   8   8
#     4  10  21  39  64  90 118 161 202 238 296 369
#     4  10  22  34  52  82 111 154 199 238 284 326
#     4  10  20  36  56  74 111 160 197 234 284 336
#     4  10  22  42  66  91 117 151 197 251 308 363
#     4  10  21  39  58  87 123 161 201 246 289 348
#
# _framework density 24.643498000000001
#
# number of rings (size 3 to 8) (size 9 to 14) (size 15 to 20)
#    0.000    2.000    1.250    1.500    0.000    8.000 
#    4.500    0.000    0.000    0.000    0.000    0.000 
#    0.000    0.000    0.000    0.000    0.000    0.000 
#
# Total GULP energy -396770.158764 kJ/mol
# GULP energy per Si atom -12399.067461 kJ/mol
# Density = 2.458741 g / cm^3
# Si number density = 24.643498 Si / 1000 Ang^3
#
#
#
# Elastic Constant Matrix: (Units=GPa)
#
#
# Indices 1 2 3 4 5 6 
#
# 1 75.2038 -3.1799 20.1017 0.0000 0.0000 0.0000
# 2 -3.1799 80.6254 38.2152 0.0000 0.0000 0.0000
# 3 20.1017 38.2152 199.0610 0.0000 0.0000 0.0000
# 4 0.0000 0.0000 0.0000 50.8970 0.0000 0.0000
# 5 0.0000 0.0000 0.0000 0.0000 29.8318 0.0000
# 6 0.0000 0.0000 0.0000 0.0000 0.0000 27.9998
#
#
#
# Elastic Compliance Matrix: (Units=1/GPa)
#
#
# Indices 1 2 3 4 5 6 
#
# 1 0.013794 0.001325 -0.001647 0.000000 0.000000 0.000000
# 2 0.001325 0.013772 -0.002778 0.000000 0.000000 0.000000
# 3 -0.001647 -0.002778 0.005723 0.000000 0.000000 0.000000
# 4 0.000000 0.000000 0.000000 0.019648 0.000000 0.000000
# 5 0.000000 0.000000 0.000000 0.000000 0.033521 0.000000
# 6 0.000000 0.000000 0.000000 0.000000 0.000000 0.035715
#
#
# Mechanical properties :
#
#
# Convention : Reuss Voigt Hill
#
# Bulk Modulus (GPa) = 36.91627 51.68490 44.30059
# Shear Modulus (GPa) = 36.38971 41.72928 39.05950
#
# Velocity S-wave (km/s) = 3.84688 4.11946 3.98550
# Velocity P-wave (km/s) = 5.89440 6.60645 6.26056
#
# Compressibility (1/GPa) = 0.02708833
#
# Stress axis : x y z
#
# Youngs Moduli (GPa) = 72.49787 72.61183 174.72814
#
# Poissons Ratio (x) = -0.09620 0.28782
# Poissons Ratio (y) = -0.09604 0.48534
# Poissons Ratio (z) = 0.11942 0.20169
#
# Static dielectric constant tensor:
#      x y z
#    x 4.677070 0.000000 0.000000 
#    y 0.000000 4.083040 0.000000 
#    z 0.000000 0.000000 7.275520 
# 
# 
# High freq. dielectric constant tensor:
#      x y z
#    x 2.006110 0.000000 0.000000 
#    y 0.000000 1.962350 0.000000 
#    z 0.000000 0.000000 1.986120 
# 
# From -- ./inp_files/10683.got.cif
#   From: 2010.03.12/outbox.cif.g09.slc.cpg/sg57_6_cif.got.tgz:10683.got - 2010.04.16 15:48:40.
