data_PCOD8232760
_publ_section_title
;
Structure prediction by ZEFSAII (Michael W. Deem and Ramdas Pophale) SiO2 
 PCOD8232760
Probable space group: P B C M
;
_chemical_formula_sum "Si O2"
_cell_formula_units_Z 64
_cell_length_a 20.146120
_cell_length_b 19.458703
_cell_length_c 8.990989
_cell_angle_alpha 90.000000
_cell_angle_beta 90.000000
_cell_angle_gamma 90.000000
_cell_volume 3524.623823
_symmetry_space_group_name_H-M "P B C M"
_symmetry_group_IT_number 57
_symmetry_cell_setting 'orthorhombic'
loop_
_space_group_symop_operation_xyz
x,y,z
-x,-y,1/2+z
x,1/2-y,-z
-x,1/2+y,1/2-z
-x,-y,-z
x,y,1/2-z
-x,1/2+y,z
x,1/2-y,1/2+z
loop_
_atom_site_type_symbol
_atom_site_label
_atom_site_fract_x
_atom_site_fract_y
_atom_site_fract_z
Si Si1 0.854265 0.818194 0.421771
Si Si2 0.381297 0.176033 0.575255
Si Si3 0.770644 0.061319 0.926583
Si Si4 0.524802 0.178634 0.921678
Si Si5 0.735012 0.921469 0.077808
Si Si6 0.331331 0.676326 0.575040
Si Si7 0.905131 0.456177 0.577982
Si Si8 0.952859 0.593134 0.421917
O O1 0.826239 0.750000 0.500000
O O2 0.867943 0.802780 0.250000
O O3 0.801683 0.878440 0.445025
O O4 0.923321 0.839050 0.501167
O O5 0.371618 0.250000 0.500000
O O6 0.370490 0.187748 0.750000
O O7 0.454390 0.141630 0.539953
O O8 0.326940 0.122451 0.515300
O O9 0.777176 0.059132 0.750000
O O10 0.722756 0.122284 0.982274
O O11 0.842127 0.077421 0.997898
O O12 0.740100 0.989924 0.981685
O O13 0.526320 0.195541 0.750000
O O14 0.595303 0.143604 0.965841
O O15 0.521507 0.250000 0.000000
O O16 0.724768 0.941087 0.250000
O O17 0.319684 0.750000 0.500000
O O18 0.324312 0.687631 0.750000
O O19 0.888078 0.470405 0.750000
O O20 0.921838 0.528135 0.503624
O O21 0.967447 0.404821 0.560631
O O22 0.931862 0.589824 0.250000
#
# Coordination Sequence:
#
# PCOD8232760 Si02
#       8
#     8   8   8   8   8   8   8   8
#     4  11  22  35  53  77 110 147 184 224 266 312
#     4   9  17  30  50  75 103 139 179 220 264 310
#     4  11  22  35  54  79 107 140 177 218 264 318
#     4   8  14  28  50  73 100 132 171 217 262 313
#     4  10  21  35  50  74 107 143 182 219 263 316
#     4   9  19  35  55  80 104 132 172 218 270 322
#     4  10  20  35  56  80 105 134 171 215 261 312
#     4  10  20  35  56  80 104 134 175 217 261 312
#
# _framework density 18.157965000000001
#
# number of rings (size 3 to 8) (size 9 to 14) (size 15 to 20)
#    0.000    2.250    1.250    1.875    0.000    3.500 
#    0.000    1.250    0.000    1.500    0.000    0.000 
#    0.000    0.000    0.000    0.000    0.000    0.000 
#
# Total GULP energy -793201.172376 kJ/mol
# GULP energy per Si atom -12393.768318 kJ/mol
# Density = 1.811664 g / cm^3
# Si number density = 18.157965 Si / 1000 Ang^3
#
#
#
# Elastic Constant Matrix: (Units=GPa)
#
#
# Indices 1 2 3 4 5 6 
#
# 1 148.1741 54.3695 52.7214 0.0000 0.0000 0.0000
# 2 54.3695 78.4970 41.6895 0.0000 0.0000 0.0000
# 3 52.7214 41.6895 82.5168 0.0000 0.0000 0.0000
# 4 0.0000 0.0000 0.0000 27.9777 0.0000 0.0000
# 5 0.0000 0.0000 0.0000 0.0000 27.9024 0.0000
# 6 0.0000 0.0000 0.0000 0.0000 0.0000 29.9885
#
#
#
# Elastic Compliance Matrix: (Units=1/GPa)
#
#
# Indices 1 2 3 4 5 6 
#
# 1 0.009891 -0.004776 -0.003907 0.000000 0.000000 0.000000
# 2 -0.004776 0.019717 -0.006910 0.000000 0.000000 0.000000
# 3 -0.003907 -0.006910 0.018106 0.000000 0.000000 0.000000
# 4 0.000000 0.000000 0.000000 0.035743 0.000000 0.000000
# 5 0.000000 0.000000 0.000000 0.000000 0.035839 0.000000
# 6 0.000000 0.000000 0.000000 0.000000 0.000000 0.033346
#
#
# Mechanical properties :
#
#
# Convention : Reuss Voigt Hill
#
# Bulk Modulus (GPa) = 60.50090 67.41651 63.95871
# Shear Modulus (GPa) = 26.40774 27.86758 27.13766
#
# Velocity S-wave (km/s) = 3.81771 3.92181 3.87011
# Velocity P-wave (km/s) = 7.26806 7.59710 7.43440
#
# Compressibility (1/GPa) = 0.01652868
#
# Stress axis : x y z
#
# Youngs Moduli (GPa) = 101.09795 50.71648 55.23050
#
# Poissons Ratio (x) = 0.24223 0.21577
# Poissons Ratio (y) = 0.48287 0.38165
# Poissons Ratio (z) = 0.39496 0.35046
#
# Static dielectric constant tensor:
#      x y z
#    x 4.047840 0.000000 0.000000 
#    y 0.000000 3.063180 0.000000 
#    z 0.000000 0.000000 3.363930 
# 
# 
# High freq. dielectric constant tensor:
#      x y z
#    x 1.723310 0.000000 0.000000 
#    y 0.000000 1.669200 0.000000 
#    z 0.000000 0.000000 1.710020 
# 
# From -- ./inp_files/7145.got.cif
#   From: 2010.03.12/outbox.cif.g09.slc.cpg/sg57_4_cif.got.tgz:7145.got - 2010.04.16 15:48:40.
