data_PCOD8232798
_publ_section_title
;
Structure prediction by ZEFSAII (Michael W. Deem and Ramdas Pophale) SiO2 
 PCOD8232798
Probable space group: P B C M
;
_chemical_formula_sum "Si O2"
_cell_formula_units_Z 64
_cell_length_a 11.975467
_cell_length_b 30.991150
_cell_length_c 8.931642
_cell_angle_alpha 90.000000
_cell_angle_beta 90.000000
_cell_angle_gamma 90.000000
_cell_volume 3314.831504
_symmetry_space_group_name_H-M "P B C M"
_symmetry_group_IT_number 57
_symmetry_cell_setting 'orthorhombic'
loop_
_space_group_symop_operation_xyz
x,y,z
-x,-y,1/2+z
x,1/2-y,-z
-x,1/2+y,1/2-z
-x,-y,-z
x,y,1/2-z
-x,1/2+y,z
x,1/2-y,1/2+z
loop_
_atom_site_type_symbol
_atom_site_label
_atom_site_fract_x
_atom_site_fract_y
_atom_site_fract_z
Si Si1 0.240778 0.205004 0.422510
Si Si2 0.325759 0.496755 0.574256
Si Si3 0.857899 0.379794 0.928560
Si Si4 0.997149 0.296880 0.926025
Si Si5 0.089396 0.968184 0.070520
Si Si6 0.627409 0.138410 0.923247
Si Si7 0.519851 0.796058 0.925912
Si Si8 0.519040 0.559547 0.920555
O O1 0.246001 0.250000 0.500000
O O2 0.237289 0.215946 0.250000
O O3 0.358539 0.180057 0.456664
O O4 0.121394 0.183786 0.467595
O O5 0.320310 0.493275 0.750000
O O6 0.206138 0.511550 0.514684
O O7 0.366214 0.450350 0.509999
O O8 0.415808 0.531414 0.516939
O O9 0.861887 0.384893 0.750000
O O10 0.912374 0.334206 0.980670
O O11 0.923538 0.419967 0.003312
O O12 0.731444 0.380747 0.987070
O O13 0.983769 0.289571 0.750000
O O14 0.972368 0.250000 0.000000
O O15 0.078842 0.966034 0.250000
O O16 0.000000 0.000000 0.000000
O O17 0.662093 0.143648 0.750000
O O18 0.518164 0.108584 0.940961
O O19 0.586636 0.182621 0.995354
O O20 0.494557 0.793080 0.750000
O O21 0.528741 0.750000 0.000000
O O22 0.542762 0.547584 0.750000
#
# Coordination Sequence:
#
# PCOD8232798 Si02
#       8
#     8   8   8   8   8   8   8   8
#     4   8  15  31  54  77 105 139 178 226 279 334
#     4   9  18  35  58  83 109 141 182 229 281 336
#     4  11  23  39  60  86 118 156 200 244 292 354
#     4   9  19  36  59  87 117 151 194 241 290 343
#     4  11  23  42  63  86 118 156 197 241 296 351
#     4  11  22  38  57  80 116 153 190 239 290 344
#     4  10  20  35  56  83 113 150 192 232 285 345
#     4   9  18  34  56  82 110 141 181 230 282 337
#
# _framework density 19.307165000000001
#
# number of rings (size 3 to 8) (size 9 to 14) (size 15 to 20)
#    0.000    2.250    1.250    1.500    0.000    4.000 
#    2.250    1.250    0.000    0.000    0.000    0.000 
#    0.000    0.000    0.000    0.000    0.000    0.000 
#
# Total GULP energy -792859.841937 kJ/mol
# GULP energy per Si atom -12388.435030 kJ/mol
# Density = 1.926322 g / cm^3
# Si number density = 19.307165 Si / 1000 Ang^3
#
#
#
# Elastic Constant Matrix: (Units=GPa)
#
#
# Indices 1 2 3 4 5 6 
#
# 1 89.7028 53.6583 41.2020 0.0000 0.0000 0.0000
# 2 53.6583 92.6552 42.4956 0.0000 0.0000 0.0000
# 3 41.2020 42.4956 64.6660 0.0000 0.0000 0.0000
# 4 0.0000 0.0000 0.0000 31.3478 0.0000 0.0000
# 5 0.0000 0.0000 0.0000 0.0000 29.3463 0.0000
# 6 0.0000 0.0000 0.0000 0.0000 0.0000 33.6842
#
#
#
# Elastic Compliance Matrix: (Units=1/GPa)
#
#
# Indices 1 2 3 4 5 6 
#
# 1 0.019035 -0.007817 -0.006991 0.000000 0.000000 0.000000
# 2 -0.007817 0.018659 -0.007281 0.000000 0.000000 0.000000
# 3 -0.006991 -0.007281 0.024704 0.000000 0.000000 0.000000
# 4 0.000000 0.000000 0.000000 0.031900 0.000000 0.000000
# 5 0.000000 0.000000 0.000000 0.000000 0.034076 0.000000
# 6 0.000000 0.000000 0.000000 0.000000 0.000000 0.029687
#
#
# Mechanical properties :
#
#
# Convention : Reuss Voigt Hill
#
# Bulk Modulus (GPa) = 54.88904 57.97066 56.42985
# Shear Modulus (GPa) = 24.00226 26.18686 25.09456
#
# Velocity S-wave (km/s) = 3.52970 3.68683 3.60912
# Velocity P-wave (km/s) = 6.71586 6.94365 6.83071
#
# Compressibility (1/GPa) = 0.01821857
#
# Stress axis : x y z
#
# Youngs Moduli (GPa) = 52.53444 53.59265 40.48008
#
# Poissons Ratio (x) = 0.41894 0.28300
# Poissons Ratio (y) = 0.41067 0.29475
# Poissons Ratio (z) = 0.36728 0.39023
#
# Static dielectric constant tensor:
#      x y z
#    x 4.086040 0.000000 0.000000 
#    y 0.000000 3.406230 0.000000 
#    z 0.000000 0.000000 3.490270 
# 
# 
# High freq. dielectric constant tensor:
#      x y z
#    x 1.758400 0.000000 0.000000 
#    y 0.000000 1.732140 0.000000 
#    z 0.000000 0.000000 1.753570 
# 
# From -- ./inp_files/3868.got.cif
#   From: 2010.03.12/outbox.cif.g09.slc.cpg/sg57_2_cif.got.tgz:3868.got - 2010.04.16 15:48:40.
