data_PCOD8232594
_publ_section_title
;
Structure prediction by ZEFSAII (Michael W. Deem and Ramdas Pophale) SiO2 
 PCOD8232594
Probable space group: P B C M
;
_chemical_formula_sum "Si O2"
_cell_formula_units_Z 64
_cell_length_a 14.035847
_cell_length_b 11.910482
_cell_length_c 18.241084
_cell_angle_alpha 90.000000
_cell_angle_beta 90.000000
_cell_angle_gamma 90.000000
_cell_volume 3049.429560
_symmetry_space_group_name_H-M "P B C M"
_symmetry_group_IT_number 57
_symmetry_cell_setting 'orthorhombic'
loop_
_space_group_symop_operation_xyz
x,y,z
-x,-y,1/2+z
x,1/2-y,-z
-x,1/2+y,1/2-z
-x,-y,-z
x,y,1/2-z
-x,1/2+y,z
x,1/2-y,1/2+z
loop_
_atom_site_type_symbol
_atom_site_label
_atom_site_fract_x
_atom_site_fract_y
_atom_site_fract_z
Si Si1 0.879554 0.768538 0.828444
Si Si2 0.455921 0.295644 0.421996
Si Si3 0.323767 0.142067 0.168550
Si Si4 0.258733 0.580163 0.591940
Si Si5 0.120555 0.421344 0.065080
Si Si6 0.072632 0.465457 0.914433
Si Si7 0.675536 0.015021 0.067729
Si Si8 0.365165 0.730587 0.338207
O O1 0.916694 0.725772 0.750000
O O2 0.766167 0.775959 0.828784
O O3 0.916255 0.682384 0.888320
O O4 0.922744 0.892028 0.841249
O O5 0.492833 0.250000 0.500000
O O6 0.391154 0.196485 0.391128
O O7 0.402008 0.414567 0.431066
O O8 0.544386 0.304203 0.366036
O O9 0.370594 0.136360 0.250000
O O10 0.297405 0.017402 0.144293
O O11 0.142901 0.573700 0.587601
O O12 0.311601 0.570285 0.512846
O O13 0.275471 0.699449 0.631100
O O14 0.221872 0.467319 0.093526
O O15 0.038111 0.514475 0.071341
O O16 0.122177 0.388976 0.979082
O O17 0.638414 0.106717 0.126047
O O18 0.364912 0.720396 0.250000
#
# Coordination Sequence:
#
# PCOD8232594 Si02
#       8
#     8   8   8   8   8   8   8   8
#     4  10  20  34  56  88 124 161 206 257 316 380
#     4  12  24  42  69  97 123 162 215 270 323 381
#     4  10  20  36  62  93 123 161 207 263 316 372
#     4  10  21  43  67  92 127 170 217 264 312 382
#     4  10  20  39  63  92 124 164 207 268 318 368
#     4   9  21  37  64  93 124 165 217 261 311 377
#     4  11  24  43  69  96 128 165 220 270 324 383
#     4  12  29  45  62  92 135 177 211 263 329 391
#
# _framework density 20.987532000000002
#
# number of rings (size 3 to 8) (size 9 to 14) (size 15 to 20)
#    0.000    1.500    2.500    2.250    1.750    4.500 
#    0.000    5.000    0.000    0.000    0.000    0.000 
#    0.000    0.000    0.000    0.000    0.000    0.000 
#
# Total GULP energy -793226.173568 kJ/mol
# GULP energy per Si atom -12394.158962 kJ/mol
# Density = 2.093976 g / cm^3
# Si number density = 20.987532 Si / 1000 Ang^3
#
#
#
# Elastic Constant Matrix: (Units=GPa)
#
#
# Indices 1 2 3 4 5 6 
#
# 1 76.2965 26.8045 29.7123 0.0000 0.0000 0.0000
# 2 26.8045 89.7253 44.9250 0.0000 0.0000 0.0000
# 3 29.7123 44.9250 129.9221 0.0000 0.0000 0.0000
# 4 0.0000 0.0000 0.0000 30.2883 0.0000 0.0000
# 5 0.0000 0.0000 0.0000 0.0000 19.7830 0.0000
# 6 0.0000 0.0000 0.0000 0.0000 0.0000 20.7840
#
#
#
# Elastic Compliance Matrix: (Units=1/GPa)
#
#
# Indices 1 2 3 4 5 6 
#
# 1 0.015193 -0.003385 -0.002304 0.000000 0.000000 0.000000
# 2 -0.003385 0.014233 -0.004147 0.000000 0.000000 0.000000
# 3 -0.002304 -0.004147 0.009658 0.000000 0.000000 0.000000
# 4 0.000000 0.000000 0.000000 0.033016 0.000000 0.000000
# 5 0.000000 0.000000 0.000000 0.000000 0.050548 0.000000
# 6 0.000000 0.000000 0.000000 0.000000 0.000000 0.048114
#
#
# Mechanical properties :
#
#
# Convention : Reuss Voigt Hill
#
# Bulk Modulus (GPa) = 51.51726 55.42529 53.47127
# Shear Modulus (GPa) = 25.39279 27.13787 26.26533
#
# Velocity S-wave (km/s) = 3.48213 3.59980 3.54145
# Velocity P-wave (km/s) = 6.38490 6.61393 6.50042
#
# Compressibility (1/GPa) = 0.01941097
#
# Stress axis : x y z
#
# Youngs Moduli (GPa) = 65.81835 70.25929 103.54186
#
# Poissons Ratio (x) = 0.23784 0.23857
# Poissons Ratio (y) = 0.22281 0.42943
# Poissons Ratio (z) = 0.15165 0.29139
#
# Static dielectric constant tensor:
#      x y z
#    x 3.814300 0.000000 0.000000 
#    y 0.000000 3.568850 0.000000 
#    z 0.000000 0.000000 4.016450 
# 
# 
# High freq. dielectric constant tensor:
#      x y z
#    x 1.816870 0.000000 0.000000 
#    y 0.000000 1.810430 0.000000 
#    z 0.000000 0.000000 1.832140 
# 
# From -- ./inp_files/22642.got.cif
#   From: 2010.03.12/outbox.cif.g09.slc.cpg/sg57_12_cif.got.tgz:22642.got - 2010.04.16 15:48:40.
