data_PCOD8232961
_publ_section_title
;
Structure prediction by ZEFSAII (Michael W. Deem and Ramdas Pophale) SiO2 
 PCOD8232961
Probable space group: P B C M
;
_chemical_formula_sum "Si O2"
_cell_formula_units_Z 48
_cell_length_a 29.163211
_cell_length_b 10.202565
_cell_length_c 8.691896
_cell_angle_alpha 90.000000
_cell_angle_beta 90.000000
_cell_angle_gamma 90.000000
_cell_volume 2586.182875
_symmetry_space_group_name_H-M "P B C M"
_symmetry_group_IT_number 57
_symmetry_cell_setting 'orthorhombic'
loop_
_space_group_symop_operation_xyz
x,y,z
-x,-y,1/2+z
x,1/2-y,-z
-x,1/2+y,1/2-z
-x,-y,-z
x,y,1/2-z
-x,1/2+y,z
x,1/2-y,1/2+z
loop_
_atom_site_type_symbol
_atom_site_label
_atom_site_fract_x
_atom_site_fract_y
_atom_site_fract_z
Si Si1 0.363938 0.611606 0.569618
Si Si2 0.301584 0.389497 0.067408
Si Si3 0.030874 0.612919 0.931847
Si Si4 0.470483 0.613977 0.928447
Si Si5 0.203358 0.388963 0.566893
Si Si6 0.864779 0.385750 0.430954
O O1 0.347709 0.750000 0.500000
O O2 0.352437 0.608423 0.750000
O O3 0.338075 0.497278 0.481138
O O4 0.417319 0.588558 0.535938
O O5 0.298436 0.379058 0.250000
O O6 0.317520 0.250000 0.000000
O O7 0.252435 0.430136 0.999836
O O8 0.025880 0.616116 0.750000
O O9 0.083187 0.587209 0.984649
O O10 0.013191 0.750000 0.000000
O O11 0.000000 0.500000 0.000000
O O12 0.480717 0.620458 0.750000
O O13 0.487150 0.750000 0.000000
O O14 0.500000 0.500000 0.000000
O O15 0.187148 0.250000 0.500000
O O16 0.206477 0.380122 0.750000
O O17 0.166717 0.495850 0.509657
O O18 0.846123 0.250000 0.500000
O O19 0.861751 0.373030 0.250000
#
# Coordination Sequence:
#
# PCOD8232961 Si02
#       6
#     8   8   8   8   8   8
#     4  10  21  38  58  82 110 143 181 223 268 319
#     4  11  22  37  57  81 109 143 180 223 269 318
#     4  10  20  36  55  79 108 141 179 221 267 317
#     4  10  21  37  58  82 111 144 181 223 269 318
#     4  10  20  36  55  78 107 139 176 220 265 317
#     4   9  20  36  55  78 106 138 176 218 263 315
#
# _framework density 18.560172999999999
#
# number of rings (size 3 to 8) (size 9 to 14) (size 15 to 20)
#    0.000    2.000    0.000    4.500    0.000    6.000 
#    0.000    3.333    0.000    0.000    0.000    0.000 
#    0.000    0.000    0.000    0.000    0.000    0.000 
#
# Total GULP energy -595378.368551 kJ/mol
# GULP energy per Si atom -12403.716011 kJ/mol
# Density = 1.851793 g / cm^3
# Si number density = 18.560173 Si / 1000 Ang^3
#
#
#
# Elastic Constant Matrix: (Units=GPa)
#
#
# Indices 1 2 3 4 5 6 
#
# 1 84.8298 94.5148 50.3261 0.0000 0.0000 0.0000
# 2 94.5148 178.4581 69.8878 0.0000 0.0000 0.0000
# 3 50.3261 69.8878 101.2921 0.0000 0.0000 0.0000
# 4 0.0000 0.0000 0.0000 39.7376 0.0000 0.0000
# 5 0.0000 0.0000 0.0000 0.0000 28.7059 0.0000
# 6 0.0000 0.0000 0.0000 0.0000 0.0000 39.1912
#
#
#
# Elastic Compliance Matrix: (Units=1/GPa)
#
#
# Indices 1 2 3 4 5 6 
#
# 1 0.030887 -0.014180 -0.005562 0.000000 0.000000 0.000000
# 2 -0.014180 0.014188 -0.002744 0.000000 0.000000 0.000000
# 3 -0.005562 -0.002744 0.014529 0.000000 0.000000 0.000000
# 4 0.000000 0.000000 0.000000 0.025165 0.000000 0.000000
# 5 0.000000 0.000000 0.000000 0.000000 0.034836 0.000000
# 6 0.000000 0.000000 0.000000 0.000000 0.000000 0.025516
#
#
# Mechanical properties :
#
#
# Convention : Reuss Voigt Hill
#
# Bulk Modulus (GPa) = 68.34428 88.22637 78.28533
# Shear Modulus (GPa) = 25.64462 31.51703 28.58082
#
# Velocity S-wave (km/s) = 3.72116 4.12527 3.92841
# Velocity P-wave (km/s) = 7.44081 8.38624 7.92763
#
# Compressibility (1/GPa) = 0.01463180
#
# Stress axis : x y z
#
# Youngs Moduli (GPa) = 32.37564 70.48048 68.82624
#
# Poissons Ratio (x) = 0.99943 0.38283
# Poissons Ratio (y) = 0.45909 0.18886
# Poissons Ratio (z) = 0.18008 0.19340
#
# Static dielectric constant tensor:
#      x y z
#    x 3.472470 0.000000 0.000000 
#    y 0.000000 3.601580 0.000000 
#    z 0.000000 0.000000 3.386150 
# 
# 
# High freq. dielectric constant tensor:
#      x y z
#    x 1.717020 0.000000 0.000000 
#    y 0.000000 1.731460 0.000000 
#    z 0.000000 0.000000 1.735780 
# 
# From -- ./inp_files/10083.got.cif
#   From: 2010.03.12/outbox.cif.g09.slc.cpg/sg57_6_cif.got.tgz:10083.got - 2010.04.16 15:48:40.
