data_PCOD8232347
_publ_section_title
;
Structure prediction by ZEFSAII (Michael W. Deem and Ramdas Pophale) SiO2 
 PCOD8232347
Probable space group: P B C M
;
_chemical_formula_sum "Si O2"
_cell_formula_units_Z 56
_cell_length_a 17.939249
_cell_length_b 18.877193
_cell_length_c 9.560009
_cell_angle_alpha 90.000000
_cell_angle_beta 90.000000
_cell_angle_gamma 90.000000
_cell_volume 3237.426931
_symmetry_space_group_name_H-M "P B C M"
_symmetry_group_IT_number 57
_symmetry_cell_setting 'orthorhombic'
loop_
_space_group_symop_operation_xyz
x,y,z
-x,-y,1/2+z
x,1/2-y,-z
-x,1/2+y,1/2-z
-x,-y,-z
x,y,1/2-z
-x,1/2+y,z
x,1/2-y,1/2+z
loop_
_atom_site_type_symbol
_atom_site_label
_atom_site_fract_x
_atom_site_fract_y
_atom_site_fract_z
Si Si1 0.271589 0.082865 0.913848
Si Si2 0.530240 0.064441 0.910933
Si Si3 0.135176 0.321604 0.087780
Si Si4 0.298695 0.943424 0.412934
Si Si5 0.973852 0.182065 0.907728
Si Si6 0.187962 0.821725 0.412652
Si Si7 0.588589 0.820888 0.087805
O O1 0.272653 0.064560 0.750000
O O2 0.195868 0.121586 0.960919
O O3 0.340680 0.132197 0.955578
O O4 0.275717 0.011138 0.999263
O O5 0.516533 0.044031 0.750000
O O6 0.616456 0.078412 0.943651
O O7 0.486115 0.135850 0.949109
O O8 0.500000 0.000000 0.000000
O O9 0.148129 0.301828 0.250000
O O10 0.052731 0.358181 0.064206
O O11 0.144667 0.250000 0.000000
O O12 0.285426 0.960165 0.250000
O O13 0.248094 0.878364 0.464758
O O14 0.973806 0.209746 0.750000
O O15 0.894943 0.142500 0.936669
O O16 0.974953 0.250000 0.000000
O O17 0.197913 0.750000 0.500000
O O18 0.200591 0.803089 0.250000
O O19 0.592154 0.800031 0.250000
O O20 0.588718 0.750000 0.000000
#
# Coordination Sequence:
#
# PCOD8232347 Si02
#       7
#     8   8   8   8   8   8   8
#     4  10  20  34  50  72 103 135 168 205 246 295
#     4  10  20  36  55  74  98 130 168 206 246 297
#     4   9  17  29  48  73  99 131 169 208 248 293
#     4  10  21  35  53  75 100 132 168 204 248 301
#     4   8  14  27  47  69  96 129 164 203 248 293
#     4   9  18  33  52  75 101 129 165 209 252 296
#     4  10  21  35  52  76 103 129 162 205 249 294
#
# _framework density 17.297688000000001
#
# number of rings (size 3 to 8) (size 9 to 14) (size 15 to 20)
#    0.000    2.571    1.429    0.429    0.000    2.857 
#    0.000    0.714    0.000    0.000    0.000    0.000 
#    0.000    0.000    0.000    0.000    0.000    0.000 
#
# Total GULP energy -694013.098829 kJ/mol
# GULP energy per Si atom -12393.091051 kJ/mol
# Density = 1.725832 g / cm^3
# Si number density = 17.297688 Si / 1000 Ang^3
#
#
#
# Elastic Constant Matrix: (Units=GPa)
#
#
# Indices 1 2 3 4 5 6 
#
# 1 179.2104 87.9404 50.6487 0.0000 0.0000 0.0000
# 2 87.9404 124.0503 56.5161 0.0000 0.0000 0.0000
# 3 50.6487 56.5161 52.9588 0.0000 0.0000 0.0000
# 4 0.0000 0.0000 0.0000 32.8391 0.0000 0.0000
# 5 0.0000 0.0000 0.0000 0.0000 20.4362 0.0000
# 6 0.0000 0.0000 0.0000 0.0000 0.0000 23.5186
#
#
#
# Elastic Compliance Matrix: (Units=1/GPa)
#
#
# Indices 1 2 3 4 5 6 
#
# 1 0.008869 -0.004716 -0.003450 0.000000 0.000000 0.000000
# 2 -0.004716 0.018197 -0.014909 0.000000 0.000000 0.000000
# 3 -0.003450 -0.014909 0.038092 0.000000 0.000000 0.000000
# 4 0.000000 0.000000 0.000000 0.030451 0.000000 0.000000
# 5 0.000000 0.000000 0.000000 0.000000 0.048933 0.000000
# 6 0.000000 0.000000 0.000000 0.000000 0.000000 0.042520
#
#
# Mechanical properties :
#
#
# Convention : Reuss Voigt Hill
#
# Bulk Modulus (GPa) = 52.60608 82.93666 67.77137
# Shear Modulus (GPa) = 20.87277 26.09974 23.48625
#
# Velocity S-wave (km/s) = 3.47750 3.88862 3.68879
# Velocity P-wave (km/s) = 6.82658 8.25909 7.57677
#
# Compressibility (1/GPa) = 0.01900921
#
# Stress axis : x y z
#
# Youngs Moduli (GPa) = 112.75198 54.95538 26.25213
#
# Poissons Ratio (x) = 0.25915 0.09056
# Poissons Ratio (y) = 0.53170 0.39139
# Poissons Ratio (z) = 0.38896 0.81932
#
# Static dielectric constant tensor:
#      x y z
#    x 4.041530 0.000000 0.000000 
#    y 0.000000 2.899430 0.000000 
#    z 0.000000 0.000000 3.240410 
# 
# 
# High freq. dielectric constant tensor:
#      x y z
#    x 1.695730 0.000000 0.000000 
#    y 0.000000 1.636760 0.000000 
#    z 0.000000 0.000000 1.668810 
# 
# From -- ./inp_files/13787.got.cif
#   From: 2010.03.12/outbox.cif.g09.slc.cpg/sg57_7_cif.got.tgz:13787.got - 2010.04.16 15:48:40.
