data_PCOD8232094
_publ_section_title
;
Structure prediction by ZEFSAII (Michael W. Deem and Ramdas Pophale) SiO2 
 PCOD8232094
Probable space group: P B C M
;
_chemical_formula_sum "Si O2"
_cell_formula_units_Z 44
_cell_length_a 8.437098
_cell_length_b 9.753482
_cell_length_c 29.169895
_cell_angle_alpha 90.000000
_cell_angle_beta 90.000000
_cell_angle_gamma 90.000000
_cell_volume 2400.422264
_symmetry_space_group_name_H-M "P B C M"
_symmetry_group_IT_number 57
_symmetry_cell_setting 'orthorhombic'
loop_
_space_group_symop_operation_xyz
x,y,z
-x,-y,1/2+z
x,1/2-y,-z
-x,1/2+y,1/2-z
-x,-y,-z
x,y,1/2-z
-x,1/2+y,z
x,1/2-y,1/2+z
loop_
_atom_site_type_symbol
_atom_site_label
_atom_site_fract_x
_atom_site_fract_y
_atom_site_fract_z
Si Si1 0.374500 0.428750 0.301324
Si Si2 0.814275 0.278415 0.250000
Si Si3 0.403036 0.781147 0.665132
Si Si4 0.676000 0.250519 0.437373
Si Si5 0.083351 0.016854 0.750000
Si Si6 0.185713 0.527234 0.499744
Si Si7 0.383883 0.250000 0.000000
O O1 0.451166 0.434760 0.250000
O O2 0.436415 0.558184 0.330290
O O3 0.427551 0.294601 0.329147
O O4 0.182963 0.434851 0.295372
O O5 0.709847 0.276030 0.204647
O O6 0.910802 0.419244 0.250000
O O7 0.932815 0.147883 0.250000
O O8 0.321398 0.746712 0.617161
O O9 0.764300 0.387061 0.455192
O O10 0.767794 0.115174 0.454897
O O11 0.494934 0.247385 0.455091
O O12 0.275209 0.383377 0.499097
O O13 0.000000 0.500000 0.500000
#
# Coordination Sequence:
#
# PCOD8232094 Si02
#       7
#     8   4   8   8   4   8   4
#     4   9  19  37  55  81 113 155 191 235 281 329
#     4  10  19  40  54  80 122 156 183 240 274 346
#     4  11  21  36  59  86 116 146 198 241 281 333
#     4  10  22  37  60  89 116 147 199 240 290 349
#     4   8  19  34  56  74 110 158 191 220 290 322
#     4  10  21  42  61  84 118 152 185 242 304 353
#     4  10  20  38  64  84 110 152 194 240 286 348
#
# _framework density 18.330109
#
# number of rings (size 3 to 8) (size 9 to 14) (size 15 to 20)
#    0.545    1.818    1.818    3.273    5.091    1.455 
#    6.545    1.818    0.000    0.000    0.000    0.000 
#    0.000    0.000    0.000    0.000    0.000    0.000 
#
# Total GULP energy -545392.448488 kJ/mol
# GULP energy per Si atom -12395.282920 kJ/mol
# Density = 1.828839 g / cm^3
# Si number density = 18.330109 Si / 1000 Ang^3
#
#
#
# Elastic Constant Matrix: (Units=GPa)
#
#
# Indices 1 2 3 4 5 6 
#
# 1 91.5503 45.7126 27.2469 0.0000 0.0000 0.0000
# 2 45.7126 96.6508 23.6916 0.0000 0.0000 0.0000
# 3 27.2469 23.6916 130.6522 0.0000 0.0000 0.0000
# 4 0.0000 0.0000 0.0000 13.0375 0.0000 0.0000
# 5 0.0000 0.0000 0.0000 0.0000 12.3894 0.0000
# 6 0.0000 0.0000 0.0000 0.0000 0.0000 41.0194
#
#
#
# Elastic Compliance Matrix: (Units=1/GPa)
#
#
# Indices 1 2 3 4 5 6 
#
# 1 0.014734 -0.006505 -0.001893 0.000000 0.000000 0.000000
# 2 -0.006505 0.013699 -0.001128 0.000000 0.000000 0.000000
# 3 -0.001893 -0.001128 0.008253 0.000000 0.000000 0.000000
# 4 0.000000 0.000000 0.000000 0.076702 0.000000 0.000000
# 5 0.000000 0.000000 0.000000 0.000000 0.080714 0.000000
# 6 0.000000 0.000000 0.000000 0.000000 0.000000 0.024379
#
#
# Mechanical properties :
#
#
# Convention : Reuss Voigt Hill
#
# Bulk Modulus (GPa) = 56.70303 56.90617 56.80460
# Shear Modulus (GPa) = 20.54133 28.10274 24.32203
#
# Velocity S-wave (km/s) = 3.35122 3.91979 3.64660
# Velocity P-wave (km/s) = 6.78054 7.18324 6.98479
#
# Compressibility (1/GPa) = 0.01763574
#
# Stress axis : x y z
#
# Youngs Moduli (GPa) = 67.86856 72.99552 121.16485
#
# Poissons Ratio (x) = 0.47482 0.22940
# Poissons Ratio (y) = 0.44147 0.13663
# Poissons Ratio (z) = 0.12849 0.08231
#
# Static dielectric constant tensor:
#      x y z
#    x 3.209350 0.000000 0.000000 
#    y 0.000000 3.492510 0.000000 
#    z 0.000000 0.000000 3.182870 
# 
# 
# High freq. dielectric constant tensor:
#      x y z
#    x 1.696750 0.000000 0.000000 
#    y 0.000000 1.724860 0.000000 
#    z 0.000000 0.000000 1.693830 
# 
# From -- ./inp_files/29425.got.cif
#   From: 2010.03.12/outbox.cif.g09.slc.cpg/sg57_15_cif.got.tgz:29425.got - 2010.04.16 15:48:40.
