data_PCOD8232915
_publ_section_title
;
Structure prediction by ZEFSAII (Michael W. Deem and Ramdas Pophale) SiO2 
 PCOD8232915
Probable space group: P B C M
;
_chemical_formula_sum "Si O2"
_cell_formula_units_Z 48
_cell_length_a 19.945352
_cell_length_b 13.810893
_cell_length_c 8.760305
_cell_angle_alpha 90.000000
_cell_angle_beta 90.000000
_cell_angle_gamma 90.000000
_cell_volume 2413.140968
_symmetry_space_group_name_H-M "P B C M"
_symmetry_group_IT_number 57
_symmetry_cell_setting 'orthorhombic'
loop_
_space_group_symop_operation_xyz
x,y,z
-x,-y,1/2+z
x,1/2-y,-z
-x,1/2+y,1/2-z
-x,-y,-z
x,y,1/2-z
-x,1/2+y,z
x,1/2-y,1/2+z
loop_
_atom_site_type_symbol
_atom_site_label
_atom_site_fract_x
_atom_site_fract_y
_atom_site_fract_z
Si Si1 0.341693 0.959943 0.071291
Si Si2 0.975135 0.648978 0.070834
Si Si3 0.470865 0.847094 0.073287
Si Si4 0.900606 0.454460 0.071213
Si Si5 0.778929 0.353244 0.930763
Si Si6 0.378343 0.350787 0.068930
O O1 0.325138 0.959791 0.250000
O O2 0.418927 0.932313 0.036173
O O3 0.294386 0.883056 0.988321
O O4 0.330923 0.066274 0.001102
O O5 0.987677 0.661132 0.250000
O O6 0.920430 0.565719 0.036913
O O7 0.949047 0.750000 0.000000
O O8 0.044617 0.620018 0.992187
O O9 0.476200 0.825930 0.250000
O O10 0.545348 0.870889 0.011690
O O11 0.441819 0.750000 0.000000
O O12 0.892297 0.435563 0.250000
O O13 0.830942 0.434715 0.986537
O O14 0.779324 0.345914 0.750000
O O15 0.799437 0.250000 0.000000
O O16 0.371182 0.350095 0.250000
O O17 0.352422 0.250000 0.000000
#
# Coordination Sequence:
#
# PCOD8232915 Si02
#       6
#     8   8   8   8   8   8
#     4  11  22  37  56  81 111 145 186 231 278 332
#     4  10  20  35  59  89 120 152 187 230 277 325
#     4   9  19  33  53  80 110 142 179 226 279 334
#     4  10  21  38  59  85 117 153 192 232 276 327
#     4  12  25  41  60  83 113 149 187 229 278 333
#     4  10  20  36  56  80 108 142 183 229 282 336
#
# _framework density 19.891089000000001
#
# number of rings (size 3 to 8) (size 9 to 14) (size 15 to 20)
#    0.000    1.667    0.000    5.000    0.000    5.333 
#    0.000    0.833    0.000    2.000    0.000    0.000 
#    0.000    0.000    0.000    0.000    0.000    0.000 
#
# Total GULP energy -595369.124102 kJ/mol
# GULP energy per Si atom -12403.523419 kJ/mol
# Density = 1.984582 g / cm^3
# Si number density = 19.891089 Si / 1000 Ang^3
#
#
#
# Elastic Constant Matrix: (Units=GPa)
#
#
# Indices 1 2 3 4 5 6 
#
# 1 50.5866 26.7143 32.0634 0.0000 0.0000 0.0000
# 2 26.7143 127.7804 55.4392 0.0000 0.0000 0.0000
# 3 32.0634 55.4392 118.0387 0.0000 0.0000 0.0000
# 4 0.0000 0.0000 0.0000 38.2336 0.0000 0.0000
# 5 0.0000 0.0000 0.0000 0.0000 32.0529 0.0000
# 6 0.0000 0.0000 0.0000 0.0000 0.0000 28.8301
#
#
#
# Elastic Compliance Matrix: (Units=1/GPa)
#
#
# Indices 1 2 3 4 5 6 
#
# 1 0.024666 -0.002826 -0.005373 0.000000 0.000000 0.000000
# 2 -0.002826 0.010152 -0.004001 0.000000 0.000000 0.000000
# 3 -0.005373 -0.004001 0.011810 0.000000 0.000000 0.000000
# 4 0.000000 0.000000 0.000000 0.026155 0.000000 0.000000
# 5 0.000000 0.000000 0.000000 0.000000 0.031198 0.000000
# 6 0.000000 0.000000 0.000000 0.000000 0.000000 0.034686
#
#
# Mechanical properties :
#
#
# Convention : Reuss Voigt Hill
#
# Bulk Modulus (GPa) = 44.98447 58.31550 51.64999
# Shear Modulus (GPa) = 29.32953 31.96925 30.64939
#
# Velocity S-wave (km/s) = 3.84410 4.01336 3.92964
# Velocity P-wave (km/s) = 6.50901 7.13142 6.82731
#
# Compressibility (1/GPa) = 0.02222989
#
# Stress axis : x y z
#
# Youngs Moduli (GPa) = 40.54188 98.49842 84.67172
#
# Poissons Ratio (x) = 0.27832 0.45494
# Poissons Ratio (y) = 0.11456 0.33875
# Poissons Ratio (z) = 0.21783 0.39407
#
# Static dielectric constant tensor:
#      x y z
#    x 3.464360 0.000000 0.000000 
#    y 0.000000 4.292990 0.000000 
#    z 0.000000 0.000000 3.661140 
# 
# 
# High freq. dielectric constant tensor:
#      x y z
#    x 1.754400 0.000000 0.000000 
#    y 0.000000 1.784680 0.000000 
#    z 0.000000 0.000000 1.788440 
# 
# From -- ./inp_files/6531.got.cif
#   From: 2010.03.12/outbox.cif.g09.slc.cpg/sg57_4_cif.got.tgz:6531.got - 2010.04.16 15:48:40.
