data_PCOD8232508
_publ_section_title
;
Structure prediction by ZEFSAII (Michael W. Deem and Ramdas Pophale) SiO2 
 PCOD8232508
Probable space group: P B C M
;
_chemical_formula_sum "Si O2"
_cell_formula_units_Z 48
_cell_length_a 30.791008
_cell_length_b 9.463631
_cell_length_c 8.880957
_cell_angle_alpha 90.000000
_cell_angle_beta 90.000000
_cell_angle_gamma 90.000000
_cell_volume 2587.864137
_symmetry_space_group_name_H-M "P B C M"
_symmetry_group_IT_number 57
_symmetry_cell_setting 'orthorhombic'
loop_
_space_group_symop_operation_xyz
x,y,z
-x,-y,1/2+z
x,1/2-y,-z
-x,1/2+y,1/2-z
-x,-y,-z
x,y,1/2-z
-x,1/2+y,z
x,1/2-y,1/2+z
loop_
_atom_site_type_symbol
_atom_site_label
_atom_site_fract_x
_atom_site_fract_y
_atom_site_fract_z
Si Si1 0.796194 0.598654 0.925129
Si Si2 0.298989 0.401493 0.074909
Si Si3 0.880892 0.903442 0.926430
Si Si4 0.533983 0.399235 0.423224
Si Si5 0.368135 0.600184 0.923521
Si Si6 0.962910 0.094959 0.927644
O O1 0.807255 0.613021 0.750000
O O2 0.748847 0.526185 0.948999
O O3 0.792969 0.750000 0.000000
O O4 0.836795 0.523128 0.007556
O O5 0.309175 0.383337 0.250000
O O6 0.300638 0.250000 0.000000
O O7 0.335629 0.494565 0.001316
O O8 0.875901 0.878692 0.750000
O O9 0.918268 0.014862 0.964190
O O10 0.890525 0.750000 0.000000
O O11 0.529601 0.250000 0.500000
O O12 0.500000 0.500000 0.500000
O O13 0.521579 0.382476 0.250000
O O14 0.582877 0.458449 0.443357
O O15 0.355629 0.616351 0.750000
O O16 0.362885 0.750000 0.000000
O O17 0.971120 0.110078 0.750000
O O18 0.962246 0.250000 0.000000
O O19 0.000000 0.000000 0.000000
#
# Coordination Sequence:
#
# PCOD8232508 Si02
#       6
#     8   8   8   8   8   8
#     4   9  17  30  51  78 107 140 177 218 264 313
#     4  10  20  34  54  81 110 142 182 225 267 313
#     4  10  20  34  55  82 109 141 179 219 266 318
#     4  10  21  37  57  80 106 138 176 218 266 319
#     4  10  21  37  56  78 106 141 178 218 267 321
#     4  11  24  40  59  83 111 144 182 224 270 320
#
# _framework density 18.548114000000002
#
# number of rings (size 3 to 8) (size 9 to 14) (size 15 to 20)
#    0.000    2.000    0.000    4.500    0.000    8.667 
#    0.000    0.833    0.000    2.000    0.000    0.000 
#    0.000    0.000    0.000    0.000    0.000    0.000 
#
# Total GULP energy -594983.161491 kJ/mol
# GULP energy per Si atom -12395.482531 kJ/mol
# Density = 1.850590 g / cm^3
# Si number density = 18.548114 Si / 1000 Ang^3
#
#
#
# Elastic Constant Matrix: (Units=GPa)
#
#
# Indices 1 2 3 4 5 6 
#
# 1 160.9583 75.1291 99.3916 0.0000 0.0000 0.0000
# 2 75.1291 88.2723 66.0721 0.0000 0.0000 0.0000
# 3 99.3916 66.0721 161.9439 0.0000 0.0000 0.0000
# 4 0.0000 0.0000 0.0000 34.1235 0.0000 0.0000
# 5 0.0000 0.0000 0.0000 0.0000 36.8023 0.0000
# 6 0.0000 0.0000 0.0000 0.0000 0.0000 32.2257
#
#
#
# Elastic Compliance Matrix: (Units=1/GPa)
#
#
# Indices 1 2 3 4 5 6 
#
# 1 0.012429 -0.007009 -0.004768 0.000000 0.000000 0.000000
# 2 -0.007009 0.020262 -0.003965 0.000000 0.000000 0.000000
# 3 -0.004768 -0.003965 0.010719 0.000000 0.000000 0.000000
# 4 0.000000 0.000000 0.000000 0.029305 0.000000 0.000000
# 5 0.000000 0.000000 0.000000 0.000000 0.027172 0.000000
# 6 0.000000 0.000000 0.000000 0.000000 0.000000 0.031031
#
#
# Mechanical properties :
#
#
# Convention : Reuss Voigt Hill
#
# Bulk Modulus (GPa) = 83.85746 99.15113 91.50429
# Shear Modulus (GPa) = 30.05195 32.00241 31.02718
#
# Velocity S-wave (km/s) = 4.02956 4.15827 4.09442
# Velocity P-wave (km/s) = 8.18283 8.75369 8.47307
#
# Compressibility (1/GPa) = 0.01192500
#
# Stress axis : x y z
#
# Youngs Moduli (GPa) = 80.45791 49.35387 93.29033
#
# Poissons Ratio (x) = 0.34593 0.44485
# Poissons Ratio (y) = 0.56394 0.36989
# Poissons Ratio (z) = 0.38366 0.19569
#
# Static dielectric constant tensor:
#      x y z
#    x 4.111860 0.000000 0.000000 
#    y 0.000000 3.162980 0.000000 
#    z 0.000000 0.000000 3.680410 
# 
# 
# High freq. dielectric constant tensor:
#      x y z
#    x 1.742400 0.000000 0.000000 
#    y 0.000000 1.690800 0.000000 
#    z 0.000000 0.000000 1.743730 
# 
# From -- ./inp_files/9939.got.cif
#   From: 2010.03.12/outbox.cif.g09.slc.cpg/sg57_5_cif.got.tgz:9939.got - 2010.04.16 15:48:40.
