data_PCOD8232106
_publ_section_title
;
Structure prediction by ZEFSAII (Michael W. Deem and Ramdas Pophale) SiO2 
 PCOD8232106
Probable space group: P B C M
;
_chemical_formula_sum "Si O2"
_cell_formula_units_Z 56
_cell_length_a 20.323885
_cell_length_b 17.065203
_cell_length_c 9.034569
_cell_angle_alpha 90.000000
_cell_angle_beta 90.000000
_cell_angle_gamma 90.000000
_cell_volume 3133.470618
_symmetry_space_group_name_H-M "P B C M"
_symmetry_group_IT_number 57
_symmetry_cell_setting 'orthorhombic'
loop_
_space_group_symop_operation_xyz
x,y,z
-x,-y,1/2+z
x,1/2-y,-z
-x,1/2+y,1/2-z
-x,-y,-z
x,y,1/2-z
-x,1/2+y,z
x,1/2-y,1/2+z
loop_
_atom_site_type_symbol
_atom_site_label
_atom_site_fract_x
_atom_site_fract_y
_atom_site_fract_z
Si Si1 0.408019 0.055004 0.916206
Si Si2 0.844709 0.018569 0.417793
Si Si3 0.474730 0.886359 0.583641
Si Si4 0.068217 0.829786 0.575309
Si Si5 0.353948 0.675285 0.577215
Si Si6 0.030728 0.426579 0.079742
Si Si7 0.289349 0.987630 0.077295
O O1 0.398383 0.087073 0.750000
O O2 0.444968 0.972759 0.913823
O O3 0.453118 0.114947 0.009209
O O4 0.336726 0.048075 0.992445
O O5 0.818678 0.027460 0.250000
O O6 0.882096 0.099050 0.462922
O O7 0.785270 0.001549 0.527705
O O8 0.890884 0.941164 0.430191
O O9 0.480606 0.853257 0.750000
O O10 0.427279 0.831739 0.487793
O O11 0.094856 0.750000 0.500000
O O12 0.060575 0.817918 0.750000
O O13 0.996041 0.849470 0.505215
O O14 0.319389 0.750000 0.500000
O O15 0.359434 0.689769 0.750000
O O16 0.309825 0.600761 0.537984
O O17 0.007695 0.422805 0.250000
O O18 0.000000 0.500000 0.000000
O O19 0.296257 0.005107 0.250000
#
# Coordination Sequence:
#
# PCOD8232106 Si02
#       7
#     8   8   8   8   8   8   8
#     4   9  16  27  44  64  87 113 143 184 228 267
#     4   9  19  33  48  68  96 129 162 196 239 288
#     4   9  16  27  44  64  85 111 145 186 228 267
#     4  10  20  33  50  73  99 128 162 201 243 288
#     4  10  20  32  44  62  89 122 158 192 230 275
#     4   9  17  31  50  71  95 124 159 200 243 287
#     4  10  20  31  45  66  92 123 158 193 229 274
#
# _framework density 17.871558
#
# number of rings (size 3 to 8) (size 9 to 14) (size 15 to 20)
#    0.000    2.571    0.000    3.429    0.000    9.143 
#    0.000    2.857    0.000    0.000    0.000    1.000 
#    0.000    4.571    0.000    0.000    0.000    0.000 
#
# Total GULP energy -694202.827666 kJ/mol
# GULP energy per Si atom -12396.479065 kJ/mol
# Density = 1.783088 g / cm^3
# Si number density = 17.871558 Si / 1000 Ang^3
#
#
#
# Elastic Constant Matrix: (Units=GPa)
#
#
# Indices 1 2 3 4 5 6 
#
# 1 93.3482 9.3649 42.3104 0.0000 0.0000 0.0000
# 2 9.3649 8.2350 3.6695 0.0000 0.0000 0.0000
# 3 42.3104 3.6695 100.1547 0.0000 0.0000 0.0000
# 4 0.0000 0.0000 0.0000 26.6203 0.0000 0.0000
# 5 0.0000 0.0000 0.0000 0.0000 33.6392 0.0000
# 6 0.0000 0.0000 0.0000 0.0000 0.0000 13.5196
#
#
#
# Elastic Compliance Matrix: (Units=1/GPa)
#
#
# Indices 1 2 3 4 5 6 
#
# 1 0.014720 -0.014200 -0.005698 0.000000 0.000000 0.000000
# 2 -0.014200 0.137147 0.000974 0.000000 0.000000 0.000000
# 3 -0.005698 0.000974 0.012356 0.000000 0.000000 0.000000
# 4 0.000000 0.000000 0.000000 0.037565 0.000000 0.000000
# 5 0.000000 0.000000 0.000000 0.000000 0.029727 0.000000
# 6 0.000000 0.000000 0.000000 0.000000 0.000000 0.073967
#
#
# Mechanical properties :
#
#
# Convention : Reuss Voigt Hill
#
# Bulk Modulus (GPa) = 7.91301 34.71416 21.31358
# Shear Modulus (GPa) = 12.97166 24.51537 18.74351
#
# Velocity S-wave (km/s) = 2.69704 3.70774 3.24202
# Velocity P-wave (km/s) = 3.75979 6.14786 5.09569
#
# Compressibility (1/GPa) = 0.12637414
#
# Stress axis : x y z
#
# Youngs Moduli (GPa) = 67.93520 7.29145 80.93208
#
# Poissons Ratio (x) = 0.10354 0.46116
# Poissons Ratio (y) = 0.96471 -0.07885
# Poissons Ratio (z) = 0.38710 -0.00710
#
# Static dielectric constant tensor:
#      x y z
#    x 3.290490 0.000000 0.000000 
#    y 0.000000 3.158330 0.000000 
#    z 0.000000 0.000000 3.526110 
# 
# 
# High freq. dielectric constant tensor:
#      x y z
#    x 1.676560 0.000000 0.000000 
#    y 0.000000 1.650870 0.000000 
#    z 0.000000 0.000000 1.711280 
# 
# From -- ./inp_files/7006.got.cif
#   From: 2010.03.12/outbox.cif.g09.slc.cpg/sg57_4_cif.got.tgz:7006.got - 2010.04.16 15:48:40.
