data_PCOD8232522
_publ_section_title
;
Structure prediction by ZEFSAII (Michael W. Deem and Ramdas Pophale) SiO2 
 PCOD8232522
Probable space group: P B C M
;
_chemical_formula_sum "Si O2"
_cell_formula_units_Z 64
_cell_length_a 14.993338
_cell_length_b 24.326390
_cell_length_c 8.668624
_cell_angle_alpha 90.000000
_cell_angle_beta 90.000000
_cell_angle_gamma 90.000000
_cell_volume 3161.740065
_symmetry_space_group_name_H-M "P B C M"
_symmetry_group_IT_number 57
_symmetry_cell_setting 'orthorhombic'
loop_
_space_group_symop_operation_xyz
x,y,z
-x,-y,1/2+z
x,1/2-y,-z
-x,1/2+y,1/2-z
-x,-y,-z
x,y,1/2-z
-x,1/2+y,z
x,1/2-y,1/2+z
loop_
_atom_site_type_symbol
_atom_site_label
_atom_site_fract_x
_atom_site_fract_y
_atom_site_fract_z
Si Si1 0.351918 0.128227 0.930215
Si Si2 0.290829 0.009311 0.567942
Si Si3 0.013442 0.193300 0.575382
Si Si4 0.657600 0.105385 0.926130
Si Si5 0.188429 0.188755 0.067784
Si Si6 0.095505 0.990453 0.575864
Si Si7 0.481215 0.688935 0.068925
Si Si8 0.856197 0.386750 0.080033
O O1 0.369055 0.137532 0.750000
O O2 0.350219 0.063084 0.970543
O O3 0.257260 0.151382 0.978385
O O4 0.425247 0.161849 0.023462
O O5 0.286570 0.998075 0.750000
O O6 0.339164 0.957203 0.489428
O O7 0.187305 0.018481 0.508288
O O8 0.990001 0.250000 0.500000
O O9 0.048985 0.199969 0.750000
O O10 0.919264 0.164639 0.569186
O O11 0.091162 0.163621 0.475312
O O12 0.623699 0.102638 0.750000
O O13 0.754806 0.132833 0.940767
O O14 0.593959 0.145788 0.019445
O O15 0.206020 0.188084 0.250000
O O16 0.193118 0.250000 0.000000
O O17 0.083335 0.009354 0.750000
O O18 0.115428 0.926182 0.558631
O O19 0.000000 0.000000 0.500000
O O20 0.477987 0.696584 0.250000
O O21 0.468623 0.750000 0.000000
O O22 0.866327 0.415347 0.250000
#
# Coordination Sequence:
#
# PCOD8232522 Si02
#       8
#     8   8   8   8   8   8   8   8
#     4  11  23  41  64  90 122 160 202 253 307 364
#     4   9  21  40  61  88 123 164 207 249 304 365
#     4  10  20  35  54  79 113 152 197 244 296 354
#     4  10  21  41  66  92 124 160 202 253 307 364
#     4  11  22  37  56  82 116 156 201 248 305 366
#     4  10  20  34  54  83 117 157 201 247 295 349
#     4  12  26  45  68  95 124 157 201 252 308 372
#     4   9  20  37  57  82 115 154 195 244 296 348
#
# _framework density 20.242018999999999
#
# number of rings (size 3 to 8) (size 9 to 14) (size 15 to 20)
#    0.000    1.750    0.000    4.875    1.750    4.000 
#    0.000    1.250    0.000    0.000    0.000    0.000 
#    0.000    0.000    0.000    0.000    0.000    0.000 
#
# Total GULP energy -793101.592638 kJ/mol
# GULP energy per Si atom -12392.212385 kJ/mol
# Density = 2.019595 g / cm^3
# Si number density = 20.242019 Si / 1000 Ang^3
#
#
#
# Elastic Constant Matrix: (Units=GPa)
#
#
# Indices 1 2 3 4 5 6 
#
# 1 70.9448 47.1450 28.9338 0.0000 0.0000 0.0000
# 2 47.1450 95.5177 43.6171 0.0000 0.0000 0.0000
# 3 28.9338 43.6171 89.7269 0.0000 0.0000 0.0000
# 4 0.0000 0.0000 0.0000 33.0594 0.0000 0.0000
# 5 0.0000 0.0000 0.0000 0.0000 31.5595 0.0000
# 6 0.0000 0.0000 0.0000 0.0000 0.0000 31.3733
#
#
#
# Elastic Compliance Matrix: (Units=1/GPa)
#
#
# Indices 1 2 3 4 5 6 
#
# 1 0.021327 -0.009493 -0.002262 0.000000 0.000000 0.000000
# 2 -0.009493 0.017682 -0.005534 0.000000 0.000000 0.000000
# 3 -0.002262 -0.005534 0.014565 0.000000 0.000000 0.000000
# 4 0.000000 0.000000 0.000000 0.030249 0.000000 0.000000
# 5 0.000000 0.000000 0.000000 0.000000 0.031686 0.000000
# 6 0.000000 0.000000 0.000000 0.000000 0.000000 0.031874
#
#
# Mechanical properties :
#
#
# Convention : Reuss Voigt Hill
#
# Bulk Modulus (GPa) = 52.64858 55.06459 53.85659
# Shear Modulus (GPa) = 26.55436 28.29800 27.42618
#
# Velocity S-wave (km/s) = 3.62587 3.74302 3.68491
# Velocity P-wave (km/s) = 6.60267 6.77808 6.69095
#
# Compressibility (1/GPa) = 0.01899386
#
# Stress axis : x y z
#
# Youngs Moduli (GPa) = 46.88969 56.55485 68.65934
#
# Poissons Ratio (x) = 0.53689 0.15533
# Poissons Ratio (y) = 0.44513 0.37997
# Poissons Ratio (z) = 0.10608 0.31298
#
# Static dielectric constant tensor:
#      x y z
#    x 3.964490 0.000000 0.000000 
#    y 0.000000 3.745260 0.000000 
#    z 0.000000 0.000000 3.816080 
# 
# 
# High freq. dielectric constant tensor:
#      x y z
#    x 1.802850 0.000000 0.000000 
#    y 0.000000 1.782980 0.000000 
#    z 0.000000 0.000000 1.797940 
# 
# From -- ./inp_files/5542.got.cif
#   From: 2010.03.12/outbox.cif.g09.slc.cpg/sg57_3_cif.got.tgz:5542.got - 2010.04.16 15:48:40.
