data_PCOD8232311
_publ_section_title
;
Structure prediction by ZEFSAII (Michael W. Deem and Ramdas Pophale) SiO2 
 PCOD8232311
Probable space group: P B C M
;
_chemical_formula_sum "Si O2"
_cell_formula_units_Z 64
_cell_length_a 22.708050
_cell_length_b 16.334040
_cell_length_c 9.010855
_cell_angle_alpha 90.000000
_cell_angle_beta 90.000000
_cell_angle_gamma 90.000000
_cell_volume 3342.254047
_symmetry_space_group_name_H-M "P B C M"
_symmetry_group_IT_number 57
_symmetry_cell_setting 'orthorhombic'
loop_
_space_group_symop_operation_xyz
x,y,z
-x,-y,1/2+z
x,1/2-y,-z
-x,1/2+y,1/2-z
-x,-y,-z
x,y,1/2-z
-x,1/2+y,z
x,1/2-y,1/2+z
loop_
_atom_site_type_symbol
_atom_site_label
_atom_site_fract_x
_atom_site_fract_y
_atom_site_fract_z
Si Si1 0.865876 0.836120 0.075439
Si Si2 0.380128 0.173082 0.076591
Si Si3 0.440878 0.025281 0.919989
Si Si4 0.881817 0.335622 0.072389
Si Si5 0.731856 0.631632 0.916647
Si Si6 0.252826 0.827144 0.418717
Si Si7 0.936420 0.001822 0.071902
Si Si8 0.680425 0.452503 0.589506
O O1 0.872799 0.823339 0.250000
O O2 0.798589 0.854831 0.029341
O O3 0.903449 0.916560 0.025990
O O4 0.886911 0.750000 0.000000
O O5 0.387545 0.176700 0.250000
O O6 0.411507 0.250000 0.000000
O O7 0.414717 0.097678 0.013983
O O8 0.311027 0.175444 0.033010
O O9 0.453715 0.050701 0.750000
O O10 0.390385 0.956133 0.925890
O O11 0.500000 0.000000 0.000000
O O12 0.894080 0.335101 0.250000
O O13 0.813552 0.343893 0.030385
O O14 0.906220 0.250000 0.000000
O O15 0.908053 0.416402 0.996610
O O16 0.722560 0.667209 0.750000
O O17 0.714454 0.537488 0.916191
O O18 0.280660 0.750000 0.500000
O O19 0.254931 0.805381 0.250000
O O20 0.294403 0.903037 0.452373
O O21 0.938696 0.009825 0.250000
O O22 0.000000 0.000000 0.000000
O O23 0.694949 0.411940 0.750000
#
# Coordination Sequence:
#
# PCOD8232311 Si02
#       8
#     8   8   8   8   8   8   8   8
#     4  10  22  38  58  84 116 152 188 228 281 338
#     4  11  21  34  54  81 111 143 178 220 267 317
#     4  10  21  38  57  78 105 141 183 226 270 321
#     4  10  21  38  61  89 116 147 187 234 287 342
#     4   9  18  34  55  82 113 144 177 218 270 331
#     4  10  20  33  53  81 112 142 178 223 274 331
#     4  11  24  42  61  83 113 151 194 241 287 337
#     4   9  18  33  54  78 109 144 178 220 274 329
#
# _framework density 19.148754
#
# number of rings (size 3 to 8) (size 9 to 14) (size 15 to 20)
#    0.000    2.000    0.000    4.500    0.000    8.000 
#    0.000    1.875    0.000    3.000    0.000    0.000 
#    0.000    0.000    0.000    0.000    0.000    0.000 
#
# Total GULP energy -793090.913910 kJ/mol
# GULP energy per Si atom -12392.045530 kJ/mol
# Density = 1.910517 g / cm^3
# Si number density = 19.148754 Si / 1000 Ang^3
#
#
#
# Elastic Constant Matrix: (Units=GPa)
#
#
# Indices 1 2 3 4 5 6 
#
# 1 95.4346 55.9089 53.0255 0.0000 0.0000 0.0000
# 2 55.9089 120.7326 60.0107 0.0000 0.0000 0.0000
# 3 53.0255 60.0107 115.7261 0.0000 0.0000 0.0000
# 4 0.0000 0.0000 0.0000 39.2975 0.0000 0.0000
# 5 0.0000 0.0000 0.0000 0.0000 103.7169 0.0000
# 6 0.0000 0.0000 0.0000 0.0000 0.0000 5.9556
#
#
#
# Elastic Compliance Matrix: (Units=1/GPa)
#
#
# Indices 1 2 3 4 5 6 
#
# 1 0.016095 -0.005103 -0.004729 0.000000 0.000000 0.000000
# 2 -0.005103 0.012777 -0.004287 0.000000 0.000000 0.000000
# 3 -0.004729 -0.004287 0.013031 0.000000 0.000000 0.000000
# 4 0.000000 0.000000 0.000000 0.025447 0.000000 0.000000
# 5 0.000000 0.000000 0.000000 0.000000 0.009642 0.000000
# 6 0.000000 0.000000 0.000000 0.000000 0.000000 0.167910
#
#
# Mechanical properties :
#
#
# Convention : Reuss Voigt Hill
#
# Bulk Modulus (GPa) = 73.17886 74.42039 73.79962
# Shear Modulus (GPa) = 18.00538 40.65721 29.33129
#
# Velocity S-wave (km/s) = 3.06974 4.61285 3.91802
# Velocity P-wave (km/s) = 7.13186 8.20487 7.68711
#
# Compressibility (1/GPa) = 0.01366515
#
# Stress axis : x y z
#
# Youngs Moduli (GPa) = 62.13033 78.26593 76.74014
#
# Poissons Ratio (x) = 0.39939 0.36287
# Poissons Ratio (y) = 0.31705 0.32902
# Poissons Ratio (z) = 0.29379 0.33556
#
# Static dielectric constant tensor:
#      x y z
#    x 3.602500 0.000000 0.000000 
#    y 0.000000 3.730660 0.000000 
#    z 0.000000 0.000000 3.643170 
# 
# 
# High freq. dielectric constant tensor:
#      x y z
#    x 1.733760 0.000000 0.000000 
#    y 0.000000 1.751730 0.000000 
#    z 0.000000 0.000000 1.754670 
# 
# From -- ./inp_files/9479.got.cif
#   From: 2010.03.12/outbox.cif.g09.slc.cpg/sg57_5_cif.got.tgz:9479.got - 2010.04.16 15:48:40.
