data_PCOD8232355
_publ_section_title
;
Structure prediction by ZEFSAII (Michael W. Deem and Ramdas Pophale) SiO2 
 PCOD8232355
Probable space group: P B C M
;
_chemical_formula_sum "Si O2"
_cell_formula_units_Z 48
_cell_length_a 9.644736
_cell_length_b 31.254991
_cell_length_c 8.945747
_cell_angle_alpha 90.000000
_cell_angle_beta 90.000000
_cell_angle_gamma 90.000000
_cell_volume 2696.660875
_symmetry_space_group_name_H-M "P B C M"
_symmetry_group_IT_number 57
_symmetry_cell_setting 'orthorhombic'
loop_
_space_group_symop_operation_xyz
x,y,z
-x,-y,1/2+z
x,1/2-y,-z
-x,1/2+y,1/2-z
-x,-y,-z
x,y,1/2-z
-x,1/2+y,z
x,1/2-y,1/2+z
loop_
_atom_site_type_symbol
_atom_site_label
_atom_site_fract_x
_atom_site_fract_y
_atom_site_fract_z
Si Si1 0.908758 0.127145 0.085768
Si Si2 0.905515 0.208578 0.584279
Si Si3 0.420529 0.877016 0.918482
Si Si4 0.596376 0.035691 0.929227
Si Si5 0.104926 0.532900 0.071520
Si Si6 0.574659 0.207409 0.580450
O O1 0.966654 0.137283 0.250000
O O2 0.743548 0.127303 0.088049
O O3 0.956909 0.080012 0.034146
O O4 0.967579 0.164406 0.980377
O O5 0.964169 0.250000 0.500000
O O6 0.962474 0.212344 0.750000
O O7 0.740306 0.207498 0.577103
O O8 0.480172 0.881716 0.750000
O O9 0.461072 0.918233 0.016974
O O10 0.483409 0.834400 0.994921
O O11 0.595379 0.033734 0.750000
O O12 0.749031 0.026699 0.991097
O O13 0.500000 0.000000 0.000000
O O14 0.122372 0.526698 0.250000
O O15 0.000000 0.500000 0.000000
O O16 0.517374 0.250000 0.500000
O O17 0.519900 0.206716 0.750000
#
# Coordination Sequence:
#
# PCOD8232355 Si02
#       6
#     8   8   8   8   8   8
#     4   8  15  26  39  56  82 113 146 183 225 271
#     4   9  15  21  32  50  75 107 143 179 219 267
#     4   9  16  27  41  59  84 115 150 189 232 280
#     4  11  21  34  51  71  96 127 162 201 243 289
#     4  10  20  34  51  72  97 127 161 199 241 286
#     4   9  15  22  33  52  78 111 147 183 224 273
#
# _framework density 17.799790999999999
#
# number of rings (size 3 to 8) (size 9 to 14) (size 15 to 20)
#    0.000    2.667    0.000    4.500    0.000    8.667 
#    0.000    0.000    0.000    0.000    0.000    0.000 
#    0.000    1.333    0.000    9.333    0.000   11.667 
#
# Total GULP energy -594949.025172 kJ/mol
# GULP energy per Si atom -12394.771358 kJ/mol
# Density = 1.775928 g / cm^3
# Si number density = 17.799791 Si / 1000 Ang^3
#
#
#
# Elastic Constant Matrix: (Units=GPa)
#
#
# Indices 1 2 3 4 5 6 
#
# 1 20.6463 36.1847 30.1072 0.0000 0.0000 0.0000
# 2 36.1847 193.6530 107.1365 0.0000 0.0000 0.0000
# 3 30.1072 107.1365 180.7336 0.0000 0.0000 0.0000
# 4 0.0000 0.0000 0.0000 41.0332 0.0000 0.0000
# 5 0.0000 0.0000 0.0000 0.0000 14.5945 0.0000
# 6 0.0000 0.0000 0.0000 0.0000 0.0000 15.3890
#
#
#
# Elastic Compliance Matrix: (Units=1/GPa)
#
#
# Indices 1 2 3 4 5 6 
#
# 1 0.076645 -0.010799 -0.006366 0.000000 0.000000 0.000000
# 2 -0.010799 0.009205 -0.003658 0.000000 0.000000 0.000000
# 3 -0.006366 -0.003658 0.008762 0.000000 0.000000 0.000000
# 4 0.000000 0.000000 0.000000 0.024370 0.000000 0.000000
# 5 0.000000 0.000000 0.000000 0.000000 0.068519 0.000000
# 6 0.000000 0.000000 0.000000 0.000000 0.000000 0.064982
#
#
# Mechanical properties :
#
#
# Convention : Reuss Voigt Hill
#
# Bulk Modulus (GPa) = 18.88012 82.43218 50.65615
# Shear Modulus (GPa) = 16.03666 28.97697 22.50682
#
# Velocity S-wave (km/s) = 3.00483 4.03915 3.55976
# Velocity P-wave (km/s) = 4.76116 8.25617 6.73917
#
# Compressibility (1/GPa) = 0.05296577
#
# Stress axis : x y z
#
# Youngs Moduli (GPa) = 13.04713 108.63100 114.13156
#
# Poissons Ratio (x) = 1.17316 0.72656
# Poissons Ratio (y) = 0.14090 0.41748
# Poissons Ratio (z) = 0.08306 0.39736
#
# Static dielectric constant tensor:
#      x y z
#    x 2.515720 0.000000 0.000000 
#    y 0.000000 3.714580 0.000000 
#    z 0.000000 0.000000 3.573190 
# 
# 
# High freq. dielectric constant tensor:
#      x y z
#    x 1.597480 0.000000 0.000000 
#    y 0.000000 1.713080 0.000000 
#    z 0.000000 0.000000 1.708000 
# 
# From -- ./inp_files/3527.got.cif
#   From: 2010.03.12/outbox.cif.g09.slc.cpg/sg57_2_cif.got.tgz:3527.got - 2010.04.16 15:48:40.
