data_PCOD8232572
_publ_section_title
;
Structure prediction by ZEFSAII (Michael W. Deem and Ramdas Pophale) SiO2 
 PCOD8232572
Probable space group: P B C M
;
_chemical_formula_sum "Si O2"
_cell_formula_units_Z 56
_cell_length_a 9.876420
_cell_length_b 20.174346
_cell_length_c 15.152182
_cell_angle_alpha 90.000000
_cell_angle_beta 90.000000
_cell_angle_gamma 90.000000
_cell_volume 3019.077026
_symmetry_space_group_name_H-M "P B C M"
_symmetry_group_IT_number 57
_symmetry_cell_setting 'orthorhombic'
loop_
_space_group_symop_operation_xyz
x,y,z
-x,-y,1/2+z
x,1/2-y,-z
-x,1/2+y,1/2-z
-x,-y,-z
x,y,1/2-z
-x,1/2+y,z
x,1/2-y,1/2+z
loop_
_atom_site_type_symbol
_atom_site_label
_atom_site_fract_x
_atom_site_fract_y
_atom_site_fract_z
Si Si1 0.100553 0.892480 0.418731
Si Si2 0.396298 0.653503 0.346872
Si Si3 0.197352 0.412230 0.029412
Si Si4 0.681540 0.199996 0.648995
Si Si5 0.550078 0.674236 0.515599
Si Si6 0.183878 0.945063 0.600590
Si Si7 0.887088 0.535498 0.153110
O O1 0.169751 0.828921 0.373117
O O2 0.161594 0.899555 0.515540
O O3 0.938763 0.882833 0.426345
O O4 0.137058 0.957748 0.363050
O O5 0.465797 0.659625 0.250000
O O6 0.314395 0.721213 0.369039
O O7 0.507233 0.641192 0.422512
O O8 0.295959 0.591166 0.340971
O O9 0.234773 0.482391 0.072524
O O10 0.317545 0.362261 0.051643
O O11 0.181423 0.420834 0.923566
O O12 0.644142 0.184305 0.750000
O O13 0.568480 0.165628 0.587527
O O14 0.589588 0.750000 0.500000
O O15 0.046879 0.950974 0.655498
O O16 0.827800 0.554207 0.250000
#
# Coordination Sequence:
#
# PCOD8232572 Si02
#       7
#     8   8   8   8   8   8   8
#     4   9  17  34  55  80 105 139 180 223 269 320
#     4  10  20  34  56  81 106 144 188 224 271 324
#     4   9  20  35  55  80 112 147 179 218 280 332
#     4  10  20  36  58  79 105 143 190 230 267 322
#     4  10  21  39  55  77 112 151 177 226 277 321
#     4   9  17  33  54  77 109 141 175 229 273 320
#     4   9  17  31  53  80 113 143 174 220 277 324
#
# _framework density 18.548715000000001
#
# number of rings (size 3 to 8) (size 9 to 14) (size 15 to 20)
#    0.000    2.571    1.429    2.571    0.000    1.143 
#    5.143    4.286    0.000    0.000    0.000    0.000 
#    0.000    0.000    0.000    0.000    0.000    0.000 
#
# Total GULP energy -694261.472236 kJ/mol
# GULP energy per Si atom -12397.526290 kJ/mol
# Density = 1.850650 g / cm^3
# Si number density = 18.548715 Si / 1000 Ang^3
#
#
#
# Elastic Constant Matrix: (Units=GPa)
#
#
# Indices 1 2 3 4 5 6 
#
# 1 91.6331 49.2827 30.0998 0.0000 0.0000 0.0000
# 2 49.2827 62.1200 21.5978 0.0000 0.0000 0.0000
# 3 30.0998 21.5978 103.1003 0.0000 0.0000 0.0000
# 4 0.0000 0.0000 0.0000 20.0926 0.0000 0.0000
# 5 0.0000 0.0000 0.0000 0.0000 14.2221 0.0000
# 6 0.0000 0.0000 0.0000 0.0000 0.0000 32.2084
#
#
#
# Elastic Compliance Matrix: (Units=1/GPa)
#
#
# Indices 1 2 3 4 5 6 
#
# 1 0.019694 -0.014696 -0.002671 0.000000 0.000000 0.000000
# 2 -0.014696 0.028328 -0.001644 0.000000 0.000000 0.000000
# 3 -0.002671 -0.001644 0.010824 0.000000 0.000000 0.000000
# 4 0.000000 0.000000 0.000000 0.049770 0.000000 0.000000
# 5 0.000000 0.000000 0.000000 0.000000 0.070313 0.000000
# 6 0.000000 0.000000 0.000000 0.000000 0.000000 0.031048
#
#
# Mechanical properties :
#
#
# Convention : Reuss Voigt Hill
#
# Bulk Modulus (GPa) = 48.02058 50.97933 49.49995
# Shear Modulus (GPa) = 19.61252 23.69616 21.65434
#
# Velocity S-wave (km/s) = 3.25522 3.57810 3.42048
# Velocity P-wave (km/s) = 6.33038 6.67938 6.50722
#
# Compressibility (1/GPa) = 0.02082441
#
# Stress axis : x y z
#
# Youngs Moduli (GPa) = 50.77634 35.30058 92.39145
#
# Poissons Ratio (x) = 0.51876 0.24679
# Poissons Ratio (y) = 0.74619 0.15189
# Poissons Ratio (z) = 0.13563 0.05803
#
# Static dielectric constant tensor:
#      x y z
#    x 3.116590 0.000000 0.000000 
#    y 0.000000 3.234830 0.000000 
#    z 0.000000 0.000000 3.477690 
# 
# 
# High freq. dielectric constant tensor:
#      x y z
#    x 1.696180 0.000000 0.000000 
#    y 0.000000 1.706840 0.000000 
#    z 0.000000 0.000000 1.729320 
# 
# From -- ./inp_files/16715.got.cif
#   From: 2010.03.12/outbox.cif.g09.slc.cpg/sg57_9_cif.got.tgz:16715.got - 2010.04.16 15:48:40.
