data_PCOD8232924
_publ_section_title
;
Structure prediction by ZEFSAII (Michael W. Deem and Ramdas Pophale) SiO2 
 PCOD8232924
Probable space group: P B C M
;
_chemical_formula_sum "Si O2"
_cell_formula_units_Z 56
_cell_length_a 22.087766
_cell_length_b 14.053890
_cell_length_c 8.658957
_cell_angle_alpha 90.000000
_cell_angle_beta 90.000000
_cell_angle_gamma 90.000000
_cell_volume 2687.905065
_symmetry_space_group_name_H-M "P B C M"
_symmetry_group_IT_number 57
_symmetry_cell_setting 'orthorhombic'
loop_
_space_group_symop_operation_xyz
x,y,z
-x,-y,1/2+z
x,1/2-y,-z
-x,1/2+y,1/2-z
-x,-y,-z
x,y,1/2-z
-x,1/2+y,z
x,1/2-y,1/2+z
loop_
_atom_site_type_symbol
_atom_site_label
_atom_site_fract_x
_atom_site_fract_y
_atom_site_fract_z
Si Si1 0.470613 0.645001 0.068222
Si Si2 0.901472 0.844080 0.423577
Si Si3 0.153495 0.650327 0.432228
Si Si4 0.970372 0.408703 0.075391
Si Si5 0.590877 0.967655 0.568579
Si Si6 0.300319 0.146549 0.567991
Si Si7 0.808654 0.964810 0.569398
O O1 0.459855 0.648769 0.250000
O O2 0.536843 0.604781 0.026496
O O3 0.462806 0.750000 0.000000
O O4 0.421694 0.573779 0.993818
O O5 0.873530 0.750000 0.500000
O O6 0.876206 0.855551 0.250000
O O7 0.877397 0.933247 0.525478
O O8 0.974014 0.834644 0.421816
O O9 0.175858 0.750000 0.500000
O O10 0.160702 0.649514 0.250000
O O11 0.083393 0.633846 0.474148
O O12 0.198137 0.571781 0.506149
O O13 0.946680 0.428241 0.250000
O O14 0.000000 0.500000 0.000000
O O15 0.601867 0.973638 0.750000
O O16 0.650577 0.929344 0.487493
O O17 0.314375 0.250000 0.500000
O O18 0.302291 0.155263 0.750000
O O19 0.235346 0.108962 0.514428
O O20 0.796390 0.962301 0.750000
#
# Coordination Sequence:
#
# PCOD8232924 Si02
#       7
#     8   8   8   8   8   8   8
#     4  10  20  35  59  92 131 173 214 260 312 365
#     4  11  23  38  58  86 118 153 192 239 296 357
#     4  12  25  43  65  90 120 156 201 248 302 367
#     4  11  22  37  60  88 120 155 194 242 299 361
#     4  10  21  38  61  92 129 169 215 261 310 367
#     4  12  25  43  66  93 126 163 206 253 306 363
#     4  12  25  43  65  88 118 155 200 250 303 359
#
# _framework density 20.834070000000001
#
# number of rings (size 3 to 8) (size 9 to 14) (size 15 to 20)
#    0.000    0.857    1.429    6.857    0.000    5.714 
#    0.000    0.714    0.000    0.000    0.000    0.000 
#    0.000    0.000    0.000    0.000    0.000    0.000 
#
# Total GULP energy -694615.417978 kJ/mol
# GULP energy per Si atom -12403.846750 kJ/mol
# Density = 2.078665 g / cm^3
# Si number density = 20.834070 Si / 1000 Ang^3
#
#
#
# Elastic Constant Matrix: (Units=GPa)
#
#
# Indices 1 2 3 4 5 6 
#
# 1 60.7432 20.1006 31.0680 0.0000 0.0000 0.0000
# 2 20.1006 141.4638 61.3037 0.0000 0.0000 0.0000
# 3 31.0680 61.3037 139.0382 0.0000 0.0000 0.0000
# 4 0.0000 0.0000 0.0000 40.3660 0.0000 0.0000
# 5 0.0000 0.0000 0.0000 0.0000 32.6196 0.0000
# 6 0.0000 0.0000 0.0000 0.0000 0.0000 37.0775
#
#
#
# Elastic Compliance Matrix: (Units=1/GPa)
#
#
# Indices 1 2 3 4 5 6 
#
# 1 0.018712 -0.001047 -0.003720 0.000000 0.000000 0.000000
# 2 -0.001047 0.008797 -0.003645 0.000000 0.000000 0.000000
# 3 -0.003720 -0.003645 0.009630 0.000000 0.000000 0.000000
# 4 0.000000 0.000000 0.000000 0.024773 0.000000 0.000000
# 5 0.000000 0.000000 0.000000 0.000000 0.030656 0.000000
# 6 0.000000 0.000000 0.000000 0.000000 0.000000 0.026971
#
#
# Mechanical properties :
#
#
# Convention : Reuss Voigt Hill
#
# Bulk Modulus (GPa) = 49.22053 62.90998 56.06525
# Shear Modulus (GPa) = 34.93224 37.26415 36.09820
#
# Velocity S-wave (km/s) = 4.09918 4.23379 4.16703
# Velocity P-wave (km/s) = 6.78828 7.35943 7.07962
#
# Compressibility (1/GPa) = 0.02031673
#
# Stress axis : x y z
#
# Youngs Moduli (GPa) = 53.44286 113.67239 103.83716
#
# Poissons Ratio (x) = 0.11900 0.38622
# Poissons Ratio (y) = 0.05595 0.37847
# Poissons Ratio (z) = 0.19878 0.41432
#
# Static dielectric constant tensor:
#      x y z
#    x 3.671590 0.000000 0.000000 
#    y 0.000000 73.472420 0.000000 
#    z 0.000000 0.000000 3.965570 
# 
# 
# High freq. dielectric constant tensor:
#      x y z
#    x 1.795960 0.000000 0.000000 
#    y 0.000000 1.828230 0.000000 
#    z 0.000000 0.000000 1.834600 
# 
# From -- ./inp_files/8187.got.cif
#   From: 2010.03.12/outbox.cif.g09.slc.cpg/sg57_5_cif.got.tgz:8187.got - 2010.04.16 15:48:40.
