data_PCOD8232962
_publ_section_title
;
Structure prediction by ZEFSAII (Michael W. Deem and Ramdas Pophale) SiO2 
 PCOD8232962
Probable space group: P B C M
;
_chemical_formula_sum "Si O2"
_cell_formula_units_Z 32
_cell_length_a 19.662435
_cell_length_b 10.200347
_cell_length_c 8.586652
_cell_angle_alpha 90.000000
_cell_angle_beta 90.000000
_cell_angle_gamma 90.000000
_cell_volume 1722.170351
_symmetry_space_group_name_H-M "P B C M"
_symmetry_group_IT_number 57
_symmetry_cell_setting 'orthorhombic'
loop_
_space_group_symop_operation_xyz
x,y,z
-x,-y,1/2+z
x,1/2-y,-z
-x,1/2+y,1/2-z
-x,-y,-z
x,y,1/2-z
-x,1/2+y,z
x,1/2-y,1/2+z
loop_
_atom_site_type_symbol
_atom_site_label
_atom_site_fract_x
_atom_site_fract_y
_atom_site_fract_z
Si Si1 0.700972 0.113280 0.433537
Si Si2 0.546944 0.112329 0.065976
Si Si3 0.950170 0.608960 0.064981
Si Si4 0.197272 0.110969 0.935410
O O1 0.729125 0.250000 0.500000
O O2 0.703367 0.122586 0.250000
O O3 0.624126 0.087158 0.491930
O O4 0.748542 0.996144 0.493358
O O5 0.542005 0.114395 0.250000
O O6 0.520026 0.250000 0.000000
O O7 0.500000 0.000000 0.000000
O O8 0.952682 0.612211 0.250000
O O9 0.973092 0.750000 0.000000
O O10 0.874879 0.573026 0.008241
O O11 0.000000 0.500000 0.000000
O O12 0.190507 0.117176 0.750000
O O13 0.222988 0.250000 0.000000
#
# Coordination Sequence:
#
# PCOD8232962 Si02
#       4
#     8   8   8   8
#     4   9  20  36  55  78 107 139 177 219 265 317
#     4  10  20  36  55  79 108 142 180 223 269 319
#     4  11  22  38  58  82 110 143 180 222 267 317
#     4  10  20  36  55  79 108 140 177 220 265 317
#
# _framework density 18.581205000000001
#
# number of rings (size 3 to 8) (size 9 to 14) (size 15 to 20)
#    0.000    2.000    0.000    5.250    0.000    5.000 
#    0.000    5.000    0.000    0.000    0.000    0.000 
#    0.000    0.000    0.000    0.000    0.000    0.000 
#
# Total GULP energy -396887.337097 kJ/mol
# GULP energy per Si atom -12402.729284 kJ/mol
# Density = 1.853891 g / cm^3
# Si number density = 18.581205 Si / 1000 Ang^3
#
#
#
# Elastic Constant Matrix: (Units=GPa)
#
#
# Indices 1 2 3 4 5 6 
#
# 1 109.4404 115.8381 44.7835 0.0000 0.0000 0.0000
# 2 115.8381 191.8581 59.1102 0.0000 0.0000 0.0000
# 3 44.7835 59.1102 100.2789 0.0000 0.0000 0.0000
# 4 0.0000 0.0000 0.0000 37.8203 0.0000 0.0000
# 5 0.0000 0.0000 0.0000 0.0000 28.4532 0.0000
# 6 0.0000 0.0000 0.0000 0.0000 0.0000 44.8574
#
#
#
# Elastic Compliance Matrix: (Units=1/GPa)
#
#
# Indices 1 2 3 4 5 6 
#
# 1 0.025979 -0.014798 -0.002879 0.000000 0.000000 0.000000
# 2 -0.014798 0.014798 -0.002114 0.000000 0.000000 0.000000
# 3 -0.002879 -0.002114 0.012504 0.000000 0.000000 0.000000
# 4 0.000000 0.000000 0.000000 0.026441 0.000000 0.000000
# 5 0.000000 0.000000 0.000000 0.000000 0.035145 0.000000
# 6 0.000000 0.000000 0.000000 0.000000 0.000000 0.022293
#
#
# Mechanical properties :
#
#
# Convention : Reuss Voigt Hill
#
# Bulk Modulus (GPa) = 73.00105 93.44900 83.22503
# Shear Modulus (GPa) = 27.57723 34.34923 30.96323
#
# Velocity S-wave (km/s) = 3.85664 4.30420 4.08655
# Velocity P-wave (km/s) = 7.69444 8.66619 8.19473
#
# Compressibility (1/GPa) = 0.01369843
#
# Stress axis : x y z
#
# Youngs Moduli (GPa) = 38.49307 67.57558 79.97354
#
# Poissons Ratio (x) = 0.99999 0.23024
# Poissons Ratio (y) = 0.56963 0.16908
# Poissons Ratio (z) = 0.11082 0.14287
#
# Static dielectric constant tensor:
#      x y z
#    x 3.599700 0.000000 0.000000 
#    y 0.000000 3.441670 0.000000 
#    z 0.000000 0.000000 3.402220 
# 
# 
# High freq. dielectric constant tensor:
#      x y z
#    x 1.720010 0.000000 0.000000 
#    y 0.000000 1.731400 0.000000 
#    z 0.000000 0.000000 1.733900 
# 
# From -- ./inp_files/4118.got.cif
#   From: 2010.03.12/outbox.cif.g09.slc.cpg/sg57_3_cif.got.tgz:4118.got - 2010.04.16 15:48:40.
