data_PCOD8232305
_publ_section_title
;
Structure prediction by ZEFSAII (Michael W. Deem and Ramdas Pophale) SiO2 
 PCOD8232305
Probable space group: P B C M
;
_chemical_formula_sum "Si O2"
_cell_formula_units_Z 40
_cell_length_a 25.765545
_cell_length_b 9.818442
_cell_length_c 8.678162
_cell_angle_alpha 90.000000
_cell_angle_beta 90.000000
_cell_angle_gamma 90.000000
_cell_volume 2195.379807
_symmetry_space_group_name_H-M "P B C M"
_symmetry_group_IT_number 57
_symmetry_cell_setting 'orthorhombic'
loop_
_space_group_symop_operation_xyz
x,y,z
-x,-y,1/2+z
x,1/2-y,-z
-x,1/2+y,1/2-z
-x,-y,-z
x,y,1/2-z
-x,1/2+y,z
x,1/2-y,1/2+z
loop_
_atom_site_type_symbol
_atom_site_label
_atom_site_fract_x
_atom_site_fract_y
_atom_site_fract_z
Si Si1 0.258286 0.899766 0.930976
Si Si2 0.541575 0.897388 0.933631
Si Si3 0.844499 0.398041 0.429426
Si Si4 0.651694 0.895414 0.433047
Si Si5 0.041244 0.898944 0.429717
O O1 0.255388 0.885838 0.750000
O O2 0.305467 0.995026 0.982687
O O3 0.266560 0.750000 0.000000
O O4 0.204644 0.971777 0.990254
O O5 0.539891 0.894669 0.750000
O O6 0.527883 0.750000 0.000000
O O7 0.598084 0.944449 0.991079
O O8 0.500000 0.000000 0.000000
O O9 0.846863 0.250000 0.500000
O O10 0.832656 0.389098 0.250000
O O11 0.901225 0.463381 0.461722
O O12 0.668936 0.750000 0.500000
O O13 0.644863 0.884063 0.250000
O O14 0.034659 0.750000 0.500000
O O15 0.031025 0.884312 0.250000
O O16 0.000000 0.000000 0.500000
#
# Coordination Sequence:
#
# PCOD8232305 Si02
#       5
#     8   8   8   8   8
#     4  10  20  33  53  79 105 134 172 215 257 304
#     4  11  22  38  59  82 109 142 178 218 263 312
#     4   9  17  30  50  74 101 133 170 210 257 307
#     4  10  21  37  55  78 107 140 176 213 259 313
#     4  10  20  34  53  77 104 137 174 216 263 314
#
# _framework density 18.220082999999999
#
# number of rings (size 3 to 8) (size 9 to 14) (size 15 to 20)
#    0.000    2.000    0.000    6.600    0.000    6.400 
#    0.000    3.000    0.000    2.400    0.000    0.000 
#    0.000    0.000    0.000    0.000    0.000    0.000 
#
# Total GULP energy -495819.710656 kJ/mol
# GULP energy per Si atom -12395.492766 kJ/mol
# Density = 1.817861 g / cm^3
# Si number density = 18.220083 Si / 1000 Ang^3
#
#
#
# Elastic Constant Matrix: (Units=GPa)
#
#
# Indices 1 2 3 4 5 6 
#
# 1 186.3537 95.9661 83.9422 0.0000 0.0000 0.0000
# 2 95.9661 86.6947 52.5533 0.0000 0.0000 0.0000
# 3 83.9422 52.5533 127.9329 0.0000 0.0000 0.0000
# 4 0.0000 0.0000 0.0000 30.3278 0.0000 0.0000
# 5 0.0000 0.0000 0.0000 0.0000 34.6570 0.0000
# 6 0.0000 0.0000 0.0000 0.0000 0.0000 34.2180
#
#
#
# Elastic Compliance Matrix: (Units=1/GPa)
#
#
# Indices 1 2 3 4 5 6 
#
# 1 0.013659 -0.012899 -0.003663 0.000000 0.000000 0.000000
# 2 -0.012899 0.027540 -0.002850 0.000000 0.000000 0.000000
# 3 -0.003663 -0.002850 0.011391 0.000000 0.000000 0.000000
# 4 0.000000 0.000000 0.000000 0.032973 0.000000 0.000000
# 5 0.000000 0.000000 0.000000 0.000000 0.028854 0.000000
# 6 0.000000 0.000000 0.000000 0.000000 0.000000 0.029224
#
#
# Mechanical properties :
#
#
# Convention : Reuss Voigt Hill
#
# Bulk Modulus (GPa) = 72.64201 96.21161 84.42681
# Shear Modulus (GPa) = 26.73013 31.07519 28.90266
#
# Velocity S-wave (km/s) = 3.83439 4.13431 3.98717
# Velocity P-wave (km/s) = 7.71746 8.70114 8.22402
#
# Compressibility (1/GPa) = 0.01376614
#
# Stress axis : x y z
#
# Youngs Moduli (GPa) = 73.21307 36.31020 87.78830
#
# Poissons Ratio (x) = 0.46836 0.32161
# Poissons Ratio (y) = 0.94436 0.25019
# Poissons Ratio (z) = 0.26821 0.10348
#
# Static dielectric constant tensor:
#      x y z
#    x 4.160960 0.000000 0.000000 
#    y 0.000000 3.158350 0.000000 
#    z 0.000000 0.000000 3.558300 
# 
# 
# High freq. dielectric constant tensor:
#      x y z
#    x 1.727560 0.000000 0.000000 
#    y 0.000000 1.675370 0.000000 
#    z 0.000000 0.000000 1.729160 
# 
# From -- ./inp_files/9638.got.cif
#   From: 2010.03.12/outbox.cif.g09.slc.cpg/sg57_5_cif.got.tgz:9638.got - 2010.04.16 15:48:40.
