data_PCOD8232646
_publ_section_title
;
Structure prediction by ZEFSAII (Michael W. Deem and Ramdas Pophale) SiO2 
 PCOD8232646
Probable space group: P B C M
;
_chemical_formula_sum "Si O2"
_cell_formula_units_Z 64
_cell_length_a 24.074939
_cell_length_b 8.861592
_cell_length_c 14.875428
_cell_angle_alpha 90.000000
_cell_angle_beta 90.000000
_cell_angle_gamma 90.000000
_cell_volume 3173.557827
_symmetry_space_group_name_H-M "P B C M"
_symmetry_group_IT_number 57
_symmetry_cell_setting 'orthorhombic'
loop_
_space_group_symop_operation_xyz
x,y,z
-x,-y,1/2+z
x,1/2-y,-z
-x,1/2+y,1/2-z
-x,-y,-z
x,y,1/2-z
-x,1/2+y,z
x,1/2-y,1/2+z
loop_
_atom_site_type_symbol
_atom_site_label
_atom_site_fract_x
_atom_site_fract_y
_atom_site_fract_z
Si Si1 0.950747 0.920532 0.853557
Si Si2 0.561550 0.496133 0.643194
Si Si3 0.067099 0.072528 0.853431
Si Si4 0.543473 0.676202 0.142711
Si Si5 0.868939 0.428835 0.009357
Si Si6 0.338039 0.113919 0.150057
Si Si7 0.318391 0.029994 0.849511
Si Si8 0.753545 0.927424 0.510105
O O1 0.934757 0.948817 0.750000
O O2 0.945524 0.745278 0.879828
O O3 0.013510 0.970492 0.872499
O O4 0.911225 0.023308 0.913212
O O5 0.555918 0.506659 0.750000
O O6 0.513926 0.388780 0.602928
O O7 0.549782 0.659024 0.599465
O O8 0.624757 0.443372 0.620456
O O9 0.086162 0.060567 0.750000
O O10 0.116380 0.008947 0.914931
O O11 0.540801 0.686118 0.250000
O O12 0.598633 0.576885 0.117935
O O13 0.808529 0.485299 0.039644
O O14 0.870042 0.250000 0.000000
O O15 0.326927 0.049322 0.250000
O O16 0.332597 0.293713 0.150488
O O17 0.293438 0.039525 0.084190
O O18 0.299437 0.977785 0.750000
O O19 0.268024 0.998495 0.917278
O O20 0.766314 0.750000 0.500000
#
# Coordination Sequence:
#
# PCOD8232646 Si02
#       8
#     8   8   8   8   8   8   8   8
#     4  10  21  39  64  92 120 150 186 227 271 321
#     4   8  13  23  41  65  91 119 153 196 251 314
#     4  10  21  39  64  92 120 150 186 227 271 321
#     4   8  13  23  41  65  91 119 153 196 251 314
#     4  12  25  39  56  81 118 156 188 228 277 328
#     4   8  15  29  49  71  95 125 164 213 265 315
#     4   8  15  29  49  71  95 125 164 213 265 315
#     4  10  20  35  54  73  95 132 184 228 263 310
#
# _framework density 20.166640999999998
#
# number of rings (size 3 to 8) (size 9 to 14) (size 15 to 20)
#    0.000    2.750    0.000    3.750    0.000    2.500 
#    0.000    4.375    0.000    1.500    0.000    0.000 
#    0.000    0.000    0.000    0.000    0.000    0.000 
#
# Total GULP energy -793306.801456 kJ/mol
# GULP energy per Si atom -12395.418773 kJ/mol
# Density = 2.012074 g / cm^3
# Si number density = 20.166641 Si / 1000 Ang^3
#
#
#
# Elastic Constant Matrix: (Units=GPa)
#
#
# Indices 1 2 3 4 5 6 
#
# 1 70.8574 13.3896 19.2713 0.0000 0.0000 0.0000
# 2 13.3896 70.6001 11.5091 0.0000 0.0000 0.0000
# 3 19.2713 11.5091 58.6195 0.0000 0.0000 0.0000
# 4 0.0000 0.0000 0.0000 18.6680 0.0000 0.0000
# 5 0.0000 0.0000 0.0000 0.0000 27.5299 0.0000
# 6 0.0000 0.0000 0.0000 0.0000 0.0000 29.5760
#
#
#
# Elastic Compliance Matrix: (Units=1/GPa)
#
#
# Indices 1 2 3 4 5 6 
#
# 1 0.015830 -0.002225 -0.004767 0.000000 0.000000 0.000000
# 2 -0.002225 0.014945 -0.002203 0.000000 0.000000 0.000000
# 3 -0.004767 -0.002203 0.019059 0.000000 0.000000 0.000000
# 4 0.000000 0.000000 0.000000 0.053568 0.000000 0.000000
# 5 0.000000 0.000000 0.000000 0.000000 0.036324 0.000000
# 6 0.000000 0.000000 0.000000 0.000000 0.000000 0.033811
#
#
# Mechanical properties :
#
#
# Convention : Reuss Voigt Hill
#
# Bulk Modulus (GPa) = 31.80266 32.04634 31.92450
# Shear Modulus (GPa) = 24.70249 25.54857 25.12553
#
# Velocity S-wave (km/s) = 3.50368 3.56318 3.53355
# Velocity P-wave (km/s) = 5.67203 5.73180 5.70199
#
# Compressibility (1/GPa) = 0.03144391
#
# Stress axis : x y z
#
# Youngs Moduli (GPa) = 63.17169 66.91030 52.46886
#
# Poissons Ratio (x) = 0.14888 0.25013
# Poissons Ratio (y) = 0.14056 0.11558
# Poissons Ratio (z) = 0.30116 0.14739
#
# Static dielectric constant tensor:
#      x y z
#    x 3.746900 0.000000 0.000000 
#    y 0.000000 3.467230 0.000000 
#    z 0.000000 0.000000 3.697250 
# 
# 
# High freq. dielectric constant tensor:
#      x y z
#    x 1.790510 0.000000 0.000000 
#    y 0.000000 1.752800 0.000000 
#    z 0.000000 0.000000 1.781980 
# 
# From -- ./inp_files/19476.got.cif
#   From: 2010.03.12/outbox.cif.g09.slc.cpg/sg57_10_cif.got.tgz:19476.got - 2010.04.16 15:48:40.
