data_PCOD8232904
_publ_section_title
;
Structure prediction by ZEFSAII (Michael W. Deem and Ramdas Pophale) SiO2 
 PCOD8232904
Probable space group: P B C M
;
_chemical_formula_sum "Si O2"
_cell_formula_units_Z 64
_cell_length_a 6.929140
_cell_length_b 27.076925
_cell_length_c 17.343555
_cell_angle_alpha 90.000000
_cell_angle_beta 90.000000
_cell_angle_gamma 90.000000
_cell_volume 3253.994391
_symmetry_space_group_name_H-M "P B C M"
_symmetry_group_IT_number 57
_symmetry_cell_setting 'orthorhombic'
loop_
_space_group_symop_operation_xyz
x,y,z
-x,-y,1/2+z
x,1/2-y,-z
-x,1/2+y,1/2-z
-x,-y,-z
x,y,1/2-z
-x,1/2+y,z
x,1/2-y,1/2+z
loop_
_atom_site_type_symbol
_atom_site_label
_atom_site_fract_x
_atom_site_fract_y
_atom_site_fract_z
Si Si1 0.165701 0.305954 0.660458
Si Si2 0.158156 0.869849 0.342480
Si Si3 0.874982 0.932132 0.435604
Si Si4 0.791979 0.457651 0.550032
Si Si5 0.469822 0.609736 0.958026
Si Si6 0.150135 0.622329 0.336807
Si Si7 0.431329 0.810023 0.913803
Si Si8 0.895027 0.235447 0.916212
O O1 0.223176 0.310379 0.750000
O O2 0.350374 0.299281 0.607370
O O3 0.045148 0.353135 0.628359
O O4 0.027955 0.258844 0.650060
O O5 0.165907 0.861061 0.250000
O O6 0.368924 0.886874 0.373599
O O7 0.105329 0.821900 0.393505
O O8 0.998713 0.911865 0.362800
O O9 0.700395 0.893993 0.450442
O O10 0.013140 0.939378 0.508497
O O11 0.780363 0.985815 0.423424
O O12 0.607936 0.440045 0.500166
O O13 0.795586 0.430284 0.630650
O O14 0.414260 0.658773 0.006749
O O15 0.103075 0.612899 0.250000
O O16 0.331572 0.658650 0.346323
O O17 0.322382 0.757616 0.918900
O O18 0.986638 0.250000 0.000000
#
# Coordination Sequence:
#
# PCOD8232904 Si02
#       8
#     8   8   8   8   8   8   8   8
#     4  10  21  35  58  88 116 148 188 239 299 355
#     4  11  25  42  57  83 122 157 199 251 301 354
#     4  10  21  37  62  85 115 154 200 239 292 350
#     4   9  19  36  58  89 116 151 194 242 284 345
#     4  10  20  37  62  87 114 153 198 248 293 348
#     4   9  18  33  53  81 118 147 177 231 290 345
#     4  10  20  35  59  85 111 147 193 240 296 348
#     4  11  23  40  60  82 115 155 199 244 293 353
#
# _framework density 19.668136000000001
#
# number of rings (size 3 to 8) (size 9 to 14) (size 15 to 20)
#    0.000    2.000    1.250    1.875    3.500    4.000 
#    0.000    0.000    0.000    0.000    0.000    0.000 
#    0.000    0.000    0.000    0.000    0.000    0.000 
#
# Total GULP energy -793101.680723 kJ/mol
# GULP energy per Si atom -12392.213761 kJ/mol
# Density = 1.962337 g / cm^3
# Si number density = 19.668136 Si / 1000 Ang^3
#
#
#
# Elastic Constant Matrix: (Units=GPa)
#
#
# Indices 1 2 3 4 5 6 
#
# 1 103.5065 10.0517 28.7234 0.0000 0.0000 0.0000
# 2 10.0517 76.7224 33.3815 0.0000 0.0000 0.0000
# 3 28.7234 33.3815 77.9242 0.0000 0.0000 0.0000
# 4 0.0000 0.0000 0.0000 18.6533 0.0000 0.0000
# 5 0.0000 0.0000 0.0000 0.0000 23.5588 0.0000
# 6 0.0000 0.0000 0.0000 0.0000 0.0000 18.4787
#
#
#
# Elastic Compliance Matrix: (Units=1/GPa)
#
#
# Indices 1 2 3 4 5 6 
#
# 1 0.010772 0.000389 -0.004137 0.000000 0.000000 0.000000
# 2 0.000389 0.016034 -0.007012 0.000000 0.000000 0.000000
# 3 -0.004137 -0.007012 0.017362 0.000000 0.000000 0.000000
# 4 0.000000 0.000000 0.000000 0.053610 0.000000 0.000000
# 5 0.000000 0.000000 0.000000 0.000000 0.042447 0.000000
# 6 0.000000 0.000000 0.000000 0.000000 0.000000 0.054116
#
#
# Mechanical properties :
#
#
# Convention : Reuss Voigt Hill
#
# Bulk Modulus (GPa) = 44.15647 44.71851 44.43749
# Shear Modulus (GPa) = 22.38043 24.53794 23.45918
#
# Velocity S-wave (km/s) = 3.37694 3.53597 3.45737
# Velocity P-wave (km/s) = 6.14040 6.28145 6.21133
#
# Compressibility (1/GPa) = 0.02264674
#
# Stress axis : x y z
#
# Youngs Moduli (GPa) = 92.83753 62.36768 57.59791
#
# Poissons Ratio (x) = -0.02425 0.23828
# Poissons Ratio (y) = -0.03609 0.40388
# Poissons Ratio (z) = 0.38407 0.43732
#
# Static dielectric constant tensor:
#      x y z
#    x 3.521940 0.000000 0.000000 
#    y 0.000000 3.685960 0.000000 
#    z 0.000000 0.000000 3.402240 
# 
# 
# High freq. dielectric constant tensor:
#      x y z
#    x 1.768290 0.000000 0.000000 
#    y 0.000000 1.764620 0.000000 
#    z 0.000000 0.000000 1.753680 
# 
# From -- ./inp_files/20360.got.cif
#   From: 2010.03.12/outbox.cif.g09.slc.cpg/sg57_11_cif.got.tgz:20360.got - 2010.04.16 15:48:40.
