data_PCOD8232599
_publ_section_title
;
Structure prediction by ZEFSAII (Michael W. Deem and Ramdas Pophale) SiO2 
 PCOD8232599
Probable space group: P B C M
;
_chemical_formula_sum "Si O2"
_cell_formula_units_Z 48
_cell_length_a 27.653476
_cell_length_b 9.743158
_cell_length_c 9.110221
_cell_angle_alpha 90.000000
_cell_angle_beta 90.000000
_cell_angle_gamma 90.000000
_cell_volume 2454.586758
_symmetry_space_group_name_H-M "P B C M"
_symmetry_group_IT_number 57
_symmetry_cell_setting 'orthorhombic'
loop_
_space_group_symop_operation_xyz
x,y,z
-x,-y,1/2+z
x,1/2-y,-z
-x,1/2+y,1/2-z
-x,-y,-z
x,y,1/2-z
-x,1/2+y,z
x,1/2-y,1/2+z
loop_
_atom_site_type_symbol
_atom_site_label
_atom_site_fract_x
_atom_site_fract_y
_atom_site_fract_z
Si Si1 0.607550 0.750000 0.000000
Si Si2 0.322834 0.008612 0.411911
Si Si3 0.035383 0.103968 0.078856
Si Si4 0.550267 0.340004 0.750000
Si Si5 0.233826 0.398512 0.075438
Si Si6 0.142641 0.105679 0.079679
Si Si7 0.540114 0.645004 0.750000
Si Si8 0.381703 0.750000 0.000000
O O1 0.640353 0.634508 0.073743
O O2 0.572598 0.824924 0.111251
O O3 0.299422 0.019876 0.250000
O O4 0.348950 0.862897 0.421359
O O5 0.281053 0.013571 0.535023
O O6 0.021646 0.122002 0.250000
O O7 0.089476 0.038573 0.064431
O O8 0.031172 0.250000 0.000000
O O9 0.000000 0.000000 0.000000
O O10 0.524044 0.486639 0.750000
O O11 0.509762 0.225026 0.750000
O O12 0.584371 0.330464 0.610639
O O13 0.229461 0.386314 0.250000
O O14 0.239405 0.250000 0.000000
O O15 0.185836 0.473815 0.006908
O O16 0.156924 0.123679 0.250000
O O17 0.138949 0.250000 0.000000
#
# Coordination Sequence:
#
# PCOD8232599 Si02
#       8
#     4   8   8   4   8   8   4   4
#     4  12  25  42  66  94 122 160 193 248 288 356
#     4  12  25  42  66  92 121 161 202 248 301 359
#     4  10  20  34  57  87 122 167 214 265 318 375
#     4  12  28  46  68  96 124 164 196 248 293 362
#     4  11  22  34  59  92 125 159 201 253 307 363
#     4   9  17  32  53  83 123 161 205 258 312 366
#     4  12  28  44  68  94 130 154 204 240 299 354
#     4  12  27  46  68  90 126 160 201 244 304 358
#
# _framework density 19.555226999999999
#
# number of rings (size 3 to 8) (size 9 to 14) (size 15 to 20)
#    0.000    1.000    4.167    4.000    4.667    3.333 
#    0.000    0.000    1.833    0.000    0.000    0.000 
#    0.000    0.000    0.000    0.000    0.000    0.000 
#
# Total GULP energy -595050.331933 kJ/mol
# GULP energy per Si atom -12396.881915 kJ/mol
# Density = 1.951072 g / cm^3
# Si number density = 19.555227 Si / 1000 Ang^3
#
#
#
# Elastic Constant Matrix: (Units=GPa)
#
#
# Indices 1 2 3 4 5 6 
#
# 1 127.3883 39.9479 58.2677 0.0000 0.0000 0.0000
# 2 39.9479 95.2256 31.2353 0.0000 0.0000 0.0000
# 3 58.2677 31.2353 164.7925 0.0000 0.0000 0.0000
# 4 0.0000 0.0000 0.0000 11.2120 0.0000 0.0000
# 5 0.0000 0.0000 0.0000 0.0000 41.9948 0.0000
# 6 0.0000 0.0000 0.0000 0.0000 0.0000 17.7136
#
#
#
# Elastic Compliance Matrix: (Units=1/GPa)
#
#
# Indices 1 2 3 4 5 6 
#
# 1 0.010264 -0.003322 -0.002999 0.000000 0.000000 0.000000
# 2 -0.003322 0.012273 -0.001152 0.000000 0.000000 0.000000
# 3 -0.002999 -0.001152 0.007347 0.000000 0.000000 0.000000
# 4 0.000000 0.000000 0.000000 0.089190 0.000000 0.000000
# 5 0.000000 0.000000 0.000000 0.000000 0.023812 0.000000
# 6 0.000000 0.000000 0.000000 0.000000 0.000000 0.056454
#
#
# Mechanical properties :
#
#
# Convention : Reuss Voigt Hill
#
# Bulk Modulus (GPa) = 66.94528 71.81203 69.37866
# Shear Modulus (GPa) = 22.80351 31.38112 27.09231
#
# Velocity S-wave (km/s) = 3.41854 4.01027 3.72617
# Velocity P-wave (km/s) = 7.06329 7.63187 7.35308
#
# Compressibility (1/GPa) = 0.01493757
#
# Stress axis : x y z
#
# Youngs Moduli (GPa) = 97.43122 81.48189 136.10875
#
# Poissons Ratio (x) = 0.27067 0.40825
# Poissons Ratio (y) = 0.32365 0.15675
# Poissons Ratio (z) = 0.29224 0.09384
#
# Static dielectric constant tensor:
#      x y z
#    x 4.282090 0.000000 0.000000 
#    y 0.000000 3.290070 0.000000 
#    z 0.000000 0.000000 4.968280 
# 
# 
# High freq. dielectric constant tensor:
#      x y z
#    x 1.778840 0.000000 0.000000 
#    y 0.000000 1.726910 0.000000 
#    z 0.000000 0.000000 1.784420 
# 
# From -- ./inp_files/10218.got.cif
#   From: 2010.03.12/outbox.cif.g09.slc.cpg/sg57_6_cif.got.tgz:10218.got - 2010.04.16 15:48:40.
