data_PCOD8232255
_publ_section_title
;
Structure prediction by ZEFSAII (Michael W. Deem and Ramdas Pophale) SiO2 
 PCOD8232255
Probable space group: P B C M
;
_chemical_formula_sum "Si O2"
_cell_formula_units_Z 64
_cell_length_a 30.526242
_cell_length_b 13.776094
_cell_length_c 8.494678
_cell_angle_alpha 90.000000
_cell_angle_beta 90.000000
_cell_angle_gamma 90.000000
_cell_volume 3572.287150
_symmetry_space_group_name_H-M "P B C M"
_symmetry_group_IT_number 57
_symmetry_cell_setting 'orthorhombic'
loop_
_space_group_symop_operation_xyz
x,y,z
-x,-y,1/2+z
x,1/2-y,-z
-x,1/2+y,1/2-z
-x,-y,-z
x,y,1/2-z
-x,1/2+y,z
x,1/2-y,1/2+z
loop_
_atom_site_type_symbol
_atom_site_label
_atom_site_fract_x
_atom_site_fract_y
_atom_site_fract_z
Si Si1 0.105183 0.354041 0.933777
Si Si2 0.818100 0.963197 0.064890
Si Si3 0.124941 0.855758 0.935478
Si Si4 0.952492 0.016077 0.431425
Si Si5 0.479568 0.856990 0.564836
Si Si6 0.354481 0.352053 0.434231
Si Si7 0.432240 0.034394 0.433348
Si Si8 0.740000 0.856156 0.935531
O O1 0.093969 0.362595 0.750000
O O2 0.095048 0.250000 0.000000
O O3 0.155187 0.382755 0.966970
O O4 0.074041 0.419299 0.039293
O O5 0.824836 0.946659 0.250000
O O6 0.835472 0.070764 0.016484
O O7 0.768082 0.943089 0.015336
O O8 0.121959 0.849227 0.750000
O O9 0.077815 0.895733 0.001617
O O10 0.135898 0.750000 0.000000
O O11 0.959095 0.036157 0.250000
O O12 0.000000 0.000000 0.500000
O O13 0.473115 0.750000 0.500000
O O14 0.471394 0.860498 0.750000
O O15 0.527958 0.894278 0.521155
O O16 0.443886 0.924577 0.479864
O O17 0.372773 0.250000 0.500000
O O18 0.344747 0.342613 0.250000
O O19 0.390187 0.434492 0.466408
O O20 0.310003 0.380073 0.523006
O O21 0.420939 0.040386 0.250000
O O22 0.746993 0.857750 0.750000
O O23 0.753600 0.750000 0.000000
#
# Coordination Sequence:
#
# PCOD8232255 Si02
#       8
#     8   8   8   8   8   8   8   8
#     4  11  21  34  52  75 101 133 167 204 248 298
#     4  10  20  36  54  77 106 134 166 209 254 302
#     4   9  20  36  56  78 103 133 170 212 255 299
#     4  10  21  37  53  75 104 136 171 211 253 299
#     4  10  20  33  51  75 103 137 177 221 267 314
#     4  11  21  34  52  76 107 141 175 213 259 312
#     4  10  20  34  52  75 104 138 177 220 265 315
#     4  11  21  34  53  79 108 140 173 208 255 311
#
# _framework density 17.915692
#
# number of rings (size 3 to 8) (size 9 to 14) (size 15 to 20)
#    0.000    1.750    0.000    7.125    0.000    6.000 
#    0.000    1.250    0.000    0.750    0.000    3.500 
#    0.000    0.000    0.000    0.000    0.000    0.000 
#
# Total GULP energy -793547.971173 kJ/mol
# GULP energy per Si atom -12399.187050 kJ/mol
# Density = 1.787492 g / cm^3
# Si number density = 17.915692 Si / 1000 Ang^3
#
#
#
# Elastic Constant Matrix: (Units=GPa)
#
#
# Indices 1 2 3 4 5 6 
#
# 1 97.2582 52.2305 21.1723 0.0000 0.0000 0.0000
# 2 52.2305 113.0957 21.1076 0.0000 0.0000 0.0000
# 3 21.1723 21.1076 68.2459 0.0000 0.0000 0.0000
# 4 0.0000 0.0000 0.0000 31.2265 0.0000 0.0000
# 5 0.0000 0.0000 0.0000 0.0000 30.9951 0.0000
# 6 0.0000 0.0000 0.0000 0.0000 0.0000 24.3748
#
#
#
# Elastic Compliance Matrix: (Units=1/GPa)
#
#
# Indices 1 2 3 4 5 6 
#
# 1 0.014063 -0.006028 -0.002498 0.000000 0.000000 0.000000
# 2 -0.006028 0.011968 -0.001831 0.000000 0.000000 0.000000
# 3 -0.002498 -0.001831 0.015994 0.000000 0.000000 0.000000
# 4 0.000000 0.000000 0.000000 0.032024 0.000000 0.000000
# 5 0.000000 0.000000 0.000000 0.000000 0.032263 0.000000
# 6 0.000000 0.000000 0.000000 0.000000 0.000000 0.041026
#
#
# Mechanical properties :
#
#
# Convention : Reuss Voigt Hill
#
# Bulk Modulus (GPa) = 46.92793 51.95783 49.44288
# Shear Modulus (GPa) = 28.54560 29.59190 29.06875
#
# Velocity S-wave (km/s) = 3.99598 4.06856 4.03243
# Velocity P-wave (km/s) = 6.89501 7.15088 7.02411
#
# Compressibility (1/GPa) = 0.02130927
#
# Stress axis : x y z
#
# Youngs Moduli (GPa) = 71.10723 83.55641 62.52201
#
# Poissons Ratio (x) = 0.50372 0.15620
# Poissons Ratio (y) = 0.42867 0.11450
# Poissons Ratio (z) = 0.17765 0.15302
#
# Static dielectric constant tensor:
#      x y z
#    x 3.076850 0.000000 0.000000 
#    y 0.000000 3.513180 0.000000 
#    z 0.000000 0.000000 3.445300 
# 
# 
# High freq. dielectric constant tensor:
#      x y z
#    x 1.687940 0.000000 0.000000 
#    y 0.000000 1.683080 0.000000 
#    z 0.000000 0.000000 1.707710 
# 
# From -- ./inp_files/10288.got.cif
#   From: 2010.03.12/outbox.cif.g09.slc.cpg/sg57_6_cif.got.tgz:10288.got - 2010.04.16 15:48:40.
