data_PCOD8232487
_publ_section_title
;
Structure prediction by ZEFSAII (Michael W. Deem and Ramdas Pophale) SiO2 
 PCOD8232487
Probable space group: P B C M
;
_chemical_formula_sum "Si O2"
_cell_formula_units_Z 64
_cell_length_a 21.193782
_cell_length_b 17.607978
_cell_length_c 8.800635
_cell_angle_alpha 90.000000
_cell_angle_beta 90.000000
_cell_angle_gamma 90.000000
_cell_volume 3284.217864
_symmetry_space_group_name_H-M "P B C M"
_symmetry_group_IT_number 57
_symmetry_cell_setting 'orthorhombic'
loop_
_space_group_symop_operation_xyz
x,y,z
-x,-y,1/2+z
x,1/2-y,-z
-x,1/2+y,1/2-z
-x,-y,-z
x,y,1/2-z
-x,1/2+y,z
x,1/2-y,1/2+z
loop_
_atom_site_type_symbol
_atom_site_label
_atom_site_fract_x
_atom_site_fract_y
_atom_site_fract_z
Si Si1 0.160799 0.326725 0.078380
Si Si2 0.309869 0.563934 0.426984
Si Si3 0.433688 0.020372 0.929776
Si Si4 0.743091 0.578930 0.422223
Si Si5 0.908403 0.064766 0.928843
Si Si6 0.620825 0.669176 0.076134
Si Si7 0.046703 0.082480 0.920721
Si Si8 0.208930 0.666768 0.569273
O O1 0.187581 0.327890 0.250000
O O2 0.085341 0.338843 0.076071
O O3 0.180190 0.250000 0.000000
O O4 0.189561 0.393039 0.976443
O O5 0.305895 0.583773 0.250000
O O6 0.382428 0.545018 0.476594
O O7 0.272311 0.487601 0.461794
O O8 0.277121 0.633020 0.518067
O O9 0.438244 0.025390 0.750000
O O10 0.500000 0.000000 0.000000
O O11 0.416961 0.103350 0.991244
O O12 0.746419 0.546813 0.250000
O O13 0.694648 0.649050 0.434208
O O14 0.900306 0.064551 0.750000
O O15 0.848722 0.113109 0.993018
O O16 0.976165 0.100351 0.981973
O O17 0.911990 0.978418 0.985908
O O18 0.597808 0.672713 0.250000
O O19 0.607431 0.750000 0.000000
O O20 0.041135 0.050017 0.750000
O O21 0.199749 0.750000 0.500000
O O22 0.208211 0.673176 0.750000
#
# Coordination Sequence:
#
# PCOD8232487 Si02
#       8
#     8   8   8   8   8   8   8   8
#     4  11  22  33  47  70 103 140 176 217 266 319
#     4  10  21  38  60  85 113 144 179 220 267 320
#     4  10  21  38  61  87 116 150 186 224 268 323
#     4  10  20  34  54  79 108 143 181 221 266 319
#     4   9  19  36  56  77 101 133 177 227 279 334
#     4  10  20  34  54  81 113 147 184 226 271 319
#     4   9  19  35  53  74 101 135 177 225 277 334
#     4  11  23  38  58  83 112 146 187 237 289 339
#
# _framework density 19.487134999999999
#
# number of rings (size 3 to 8) (size 9 to 14) (size 15 to 20)
#    0.000    2.000    0.000    3.375    0.000    8.500 
#    0.000    0.625    0.000    3.000    0.000    0.000 
#    0.000    0.000    0.000    0.000    0.000    0.000 
#
# Total GULP energy -793176.911075 kJ/mol
# GULP energy per Si atom -12393.389236 kJ/mol
# Density = 1.944278 g / cm^3
# Si number density = 19.487135 Si / 1000 Ang^3
#
#
#
# Elastic Constant Matrix: (Units=GPa)
#
#
# Indices 1 2 3 4 5 6 
#
# 1 122.4186 51.9549 42.5133 0.0000 0.0000 0.0000
# 2 51.9549 77.9495 35.0807 0.0000 0.0000 0.0000
# 3 42.5133 35.0807 73.2679 0.0000 0.0000 0.0000
# 4 0.0000 0.0000 0.0000 34.9632 0.0000 0.0000
# 5 0.0000 0.0000 0.0000 0.0000 27.1717 0.0000
# 6 0.0000 0.0000 0.0000 0.0000 0.0000 24.0210
#
#
#
# Elastic Compliance Matrix: (Units=1/GPa)
#
#
# Indices 1 2 3 4 5 6 
#
# 1 0.012282 -0.006346 -0.004088 0.000000 0.000000 0.000000
# 2 -0.006346 0.019632 -0.005717 0.000000 0.000000 0.000000
# 3 -0.004088 -0.005717 0.018758 0.000000 0.000000 0.000000
# 4 0.000000 0.000000 0.000000 0.028602 0.000000 0.000000
# 5 0.000000 0.000000 0.000000 0.000000 0.036803 0.000000
# 6 0.000000 0.000000 0.000000 0.000000 0.000000 0.041630
#
#
# Mechanical properties :
#
#
# Convention : Reuss Voigt Hill
#
# Bulk Modulus (GPa) = 54.44070 59.19267 56.81668
# Shear Modulus (GPa) = 25.49307 26.83698 26.16502
#
# Velocity S-wave (km/s) = 3.62083 3.71504 3.66824
# Velocity P-wave (km/s) = 6.74373 6.98879 6.86736
#
# Compressibility (1/GPa) = 0.01836861
#
# Stress axis : x y z
#
# Youngs Moduli (GPa) = 81.42205 50.93776 53.31090
#
# Poissons Ratio (x) = 0.32327 0.21792
# Poissons Ratio (y) = 0.51673 0.30479
# Poissons Ratio (z) = 0.33283 0.29123
#
# Static dielectric constant tensor:
#      x y z
#    x 3.770890 0.000000 0.000000 
#    y 0.000000 3.331620 0.000000 
#    z 0.000000 0.000000 3.748720 
# 
# 
# High freq. dielectric constant tensor:
#      x y z
#    x 1.760490 0.000000 0.000000 
#    y 0.000000 1.743040 0.000000 
#    z 0.000000 0.000000 1.765510 
# 
# From -- ./inp_files/9336.got.cif
#   From: 2010.03.12/outbox.cif.g09.slc.cpg/sg57_5_cif.got.tgz:9336.got - 2010.04.16 15:48:40.
