data_PCOD8232044
_publ_section_title
;
Structure prediction by ZEFSAII (Michael W. Deem and Ramdas Pophale) SiO2 
 PCOD8232044
Probable space group: P B C M
;
_chemical_formula_sum "Si O2"
_cell_formula_units_Z 64
_cell_length_a 7.838065
_cell_length_b 24.362809
_cell_length_c 16.518900
_cell_angle_alpha 90.000000
_cell_angle_beta 90.000000
_cell_angle_gamma 90.000000
_cell_volume 3154.404221
_symmetry_space_group_name_H-M "P B C M"
_symmetry_group_IT_number 57
_symmetry_cell_setting 'orthorhombic'
loop_
_space_group_symop_operation_xyz
x,y,z
-x,-y,1/2+z
x,1/2-y,-z
-x,1/2+y,1/2-z
-x,-y,-z
x,y,1/2-z
-x,1/2+y,z
x,1/2-y,1/2+z
loop_
_atom_site_type_symbol
_atom_site_label
_atom_site_fract_x
_atom_site_fract_y
_atom_site_fract_z
Si Si1 0.383092 0.242326 0.841676
Si Si2 0.526419 0.128120 0.607188
Si Si3 0.385113 0.158112 0.050135
Si Si4 0.975512 0.995336 0.405109
Si Si5 0.617301 0.982288 0.345246
Si Si6 0.697892 0.555312 0.155697
Si Si7 0.912190 0.794673 0.059614
Si Si8 0.898814 0.117592 0.843790
O O1 0.395306 0.263466 0.750000
O O2 0.485782 0.185627 0.849390
O O3 0.457612 0.288950 0.901912
O O4 0.185227 0.234393 0.865726
O O5 0.533996 0.136203 0.509673
O O6 0.386598 0.081561 0.628034
O O7 0.700973 0.104513 0.643319
O O8 0.324772 0.113271 0.113242
O O9 0.227058 0.171473 0.991224
O O10 0.781456 0.012660 0.384408
O O11 0.991864 0.933862 0.372090
O O12 0.000000 0.000000 0.500000
O O13 0.112267 0.033617 0.360800
O O14 0.635034 0.986529 0.250000
O O15 0.446270 0.013078 0.376310
O O16 0.674956 0.565462 0.250000
O O17 0.058709 0.831427 0.098255
O O18 0.999356 0.750000 0.000000
O O19 0.938672 0.130418 0.750000
#
# Coordination Sequence:
#
# PCOD8232044 Si02
#       8
#     8   8   8   8   8   8   8   8
#     4  10  19  37  62  87 116 157 203 249 307 372
#     4  11  22  37  61  89 122 154 206 258 313 366
#     4  10  22  39  59  87 120 159 203 250 308 370
#     4  12  25  39  63  91 126 164 208 257 316 369
#     4  11  23  40  63  91 123 161 204 257 311 363
#     4  11  23  41  63  90 125 164 208 253 306 375
#     4   9  20  37  58  86 119 155 203 252 309 373
#     4  12  23  38  60  90 123 160 205 262 315 370
#
# _framework density 20.289093000000001
#
# number of rings (size 3 to 8) (size 9 to 14) (size 15 to 20)
#    0.000    1.250    1.250    7.125    1.750    2.000 
#    0.000    0.000    0.000    0.000    0.000    0.000 
#    0.000    0.000    0.000    0.000    0.000    0.000 
#
# Total GULP energy -793677.373388 kJ/mol
# GULP energy per Si atom -12401.208959 kJ/mol
# Density = 2.024291 g / cm^3
# Si number density = 20.289093 Si / 1000 Ang^3
#
#
#
# Elastic Constant Matrix: (Units=GPa)
#
#
# Indices 1 2 3 4 5 6 
#
# 1 77.8547 19.1100 29.5211 0.0000 0.0000 0.0000
# 2 19.1100 85.1807 36.6212 0.0000 0.0000 0.0000
# 3 29.5211 36.6212 127.1700 0.0000 0.0000 0.0000
# 4 0.0000 0.0000 0.0000 35.5603 0.0000 0.0000
# 5 0.0000 0.0000 0.0000 0.0000 28.2968 0.0000
# 6 0.0000 0.0000 0.0000 0.0000 0.0000 19.9243
#
#
#
# Elastic Compliance Matrix: (Units=1/GPa)
#
#
# Indices 1 2 3 4 5 6 
#
# 1 0.014390 -0.002045 -0.002751 0.000000 0.000000 0.000000
# 2 -0.002045 0.013689 -0.003467 0.000000 0.000000 0.000000
# 3 -0.002751 -0.003467 0.009501 0.000000 0.000000 0.000000
# 4 0.000000 0.000000 0.000000 0.028121 0.000000 0.000000
# 5 0.000000 0.000000 0.000000 0.000000 0.035340 0.000000
# 6 0.000000 0.000000 0.000000 0.000000 0.000000 0.050190
#
#
# Mechanical properties :
#
#
# Convention : Reuss Voigt Hill
#
# Bulk Modulus (GPa) = 47.50248 51.19001 49.34625
# Shear Modulus (GPa) = 28.60804 30.41982 29.51393
#
# Velocity S-wave (km/s) = 3.75910 3.87630 3.81815
# Velocity P-wave (km/s) = 6.50421 6.73197 6.61907
#
# Compressibility (1/GPa) = 0.02105153
#
# Stress axis : x y z
#
# Youngs Moduli (GPa) = 69.49374 73.04977 105.25559
#
# Poissons Ratio (x) = 0.14942 0.28960
# Poissons Ratio (y) = 0.14214 0.36495
# Poissons Ratio (z) = 0.19121 0.25329
#
# Static dielectric constant tensor:
#      x y z
#    x 3.571320 0.000000 0.000000 
#    y 0.000000 3.562350 0.000000 
#    z 0.000000 0.000000 3.849900 
# 
# 
# High freq. dielectric constant tensor:
#      x y z
#    x 1.776520 0.000000 0.000000 
#    y 0.000000 1.792700 0.000000 
#    z 0.000000 0.000000 1.808560 
# 
# From -- ./inp_files/16995.got.cif
#   From: 2010.03.12/outbox.cif.g09.slc.cpg/sg57_9_cif.got.tgz:16995.got - 2010.04.16 15:48:40.
