data_PCOD8232339
_publ_section_title
;
Structure prediction by ZEFSAII (Michael W. Deem and Ramdas Pophale) SiO2 
 PCOD8232339
Probable space group: P B C M
;
_chemical_formula_sum "Si O2"
_cell_formula_units_Z 64
_cell_length_a 12.410787
_cell_length_b 17.916191
_cell_length_c 14.459581
_cell_angle_alpha 90.000000
_cell_angle_beta 90.000000
_cell_angle_gamma 90.000000
_cell_volume 3215.146113
_symmetry_space_group_name_H-M "P B C M"
_symmetry_group_IT_number 57
_symmetry_cell_setting 'orthorhombic'
loop_
_space_group_symop_operation_xyz
x,y,z
-x,-y,1/2+z
x,1/2-y,-z
-x,1/2+y,1/2-z
-x,-y,-z
x,y,1/2-z
-x,1/2+y,z
x,1/2-y,1/2+z
loop_
_atom_site_type_symbol
_atom_site_label
_atom_site_fract_x
_atom_site_fract_y
_atom_site_fract_z
Si Si1 0.341482 0.833727 0.019026
Si Si2 0.514323 0.455538 0.091969
Si Si3 0.285176 0.456008 0.851493
Si Si4 0.783759 0.665328 0.010521
Si Si5 0.209304 0.600731 0.140795
Si Si6 0.840579 0.397355 0.140178
Si Si7 0.968280 0.334816 0.514260
Si Si8 0.725365 0.563091 0.648618
O O1 0.444547 0.873628 0.063562
O O2 0.245205 0.840494 0.094032
O O3 0.376125 0.750000 0.000000
O O4 0.308068 0.866731 0.919009
O O5 0.601254 0.500679 0.152378
O O6 0.403075 0.448512 0.145621
O O7 0.500000 0.500000 0.000000
O O8 0.260878 0.424322 0.750000
O O9 0.194548 0.517127 0.879427
O O10 0.286757 0.384964 0.919267
O O11 0.769896 0.630102 0.911008
O O12 0.741072 0.750000 0.000000
O O13 0.907218 0.663015 0.042916
O O14 0.221745 0.620552 0.250000
O O15 0.096517 0.631151 0.101084
O O16 0.212259 0.512449 0.123034
O O17 0.854400 0.381368 0.250000
O O18 0.949621 0.381283 0.081768
O O19 0.929242 0.250000 0.500000
O O20 0.757094 0.588479 0.750000
#
# Coordination Sequence:
#
# PCOD8232339 Si02
#       8
#     8   8   8   8   8   8   8   8
#     4  10  20  33  56  87 118 150 189 232 287 346
#     4  11  19  39  62  82 117 155 187 235 287 337
#     4  10  21  38  62  87 111 150 197 237 284 343
#     4  11  24  41  59  81 118 157 193 237 286 340
#     4  10  20  36  59  87 115 145 188 243 291 340
#     4   9  18  34  59  86 114 147 190 242 291 340
#     4  10  22  37  55  83 117 156 190 230 291 349
#     4  11  23  40  62  87 113 149 195 242 291 343
#
# _framework density 19.905783
#
# number of rings (size 3 to 8) (size 9 to 14) (size 15 to 20)
#    0.000    1.750    2.500    3.375    0.000    6.500 
#    0.000    5.000    0.000    0.000    0.000    0.000 
#    0.000    0.000    0.000    0.000    0.000    0.000 
#
# Total GULP energy -793383.333774 kJ/mol
# GULP energy per Si atom -12396.614590 kJ/mol
# Density = 1.986048 g / cm^3
# Si number density = 19.905783 Si / 1000 Ang^3
#
#
#
# Elastic Constant Matrix: (Units=GPa)
#
#
# Indices 1 2 3 4 5 6 
#
# 1 52.6584 29.5917 9.5030 0.0000 0.0000 0.0000
# 2 29.5917 134.8254 57.4254 0.0000 0.0000 0.0000
# 3 9.5030 57.4254 122.7581 0.0000 0.0000 0.0000
# 4 0.0000 0.0000 0.0000 18.7063 0.0000 0.0000
# 5 0.0000 0.0000 0.0000 0.0000 12.5755 0.0000
# 6 0.0000 0.0000 0.0000 0.0000 0.0000 23.6186
#
#
#
# Elastic Compliance Matrix: (Units=1/GPa)
#
#
# Indices 1 2 3 4 5 6 
#
# 1 0.021708 -0.005056 0.000685 0.000000 0.000000 0.000000
# 2 -0.005056 0.010440 -0.004492 0.000000 0.000000 0.000000
# 3 0.000685 -0.004492 0.010195 0.000000 0.000000 0.000000
# 4 0.000000 0.000000 0.000000 0.053458 0.000000 0.000000
# 5 0.000000 0.000000 0.000000 0.000000 0.079520 0.000000
# 6 0.000000 0.000000 0.000000 0.000000 0.000000 0.042339
#
#
# Mechanical properties :
#
#
# Convention : Reuss Voigt Hill
#
# Bulk Modulus (GPa) = 40.62527 55.92022 48.27275
# Shear Modulus (GPa) = 20.52604 25.22821 22.87713
#
# Velocity S-wave (km/s) = 3.21465 3.56389 3.39377
# Velocity P-wave (km/s) = 5.85079 6.71480 6.29763
#
# Compressibility (1/GPa) = 0.02461522
#
# Stress axis : x y z
#
# Youngs Moduli (GPa) = 46.06574 95.78384 98.09096
#
# Poissons Ratio (x) = 0.48430 -0.06717
# Poissons Ratio (y) = 0.23292 0.44067
# Poissons Ratio (z) = -0.03155 0.43030
#
# Static dielectric constant tensor:
#      x y z
#    x 3.303350 0.000000 0.000000 
#    y 0.000000 3.607160 0.000000 
#    z 0.000000 0.000000 3.599240 
# 
# 
# High freq. dielectric constant tensor:
#      x y z
#    x 1.763650 0.000000 0.000000 
#    y 0.000000 1.774150 0.000000 
#    z 0.000000 0.000000 1.783360 
# 
# From -- ./inp_files/18016.got.cif
#   From: 2010.03.12/outbox.cif.g09.slc.cpg/sg57_10_cif.got.tgz:18016.got - 2010.04.16 15:48:40.
