data_PCOD8232076
_publ_section_title
;
Structure prediction by ZEFSAII (Michael W. Deem and Ramdas Pophale) SiO2 
 PCOD8232076
Probable space group: P B C M
;
_chemical_formula_sum "Si O2"
_cell_formula_units_Z 64
_cell_length_a 12.129436
_cell_length_b 15.389758
_cell_length_c 16.840420
_cell_angle_alpha 90.000000
_cell_angle_beta 90.000000
_cell_angle_gamma 90.000000
_cell_volume 3143.585788
_symmetry_space_group_name_H-M "P B C M"
_symmetry_group_IT_number 57
_symmetry_cell_setting 'orthorhombic'
loop_
_space_group_symop_operation_xyz
x,y,z
-x,-y,1/2+z
x,1/2-y,-z
-x,1/2+y,1/2-z
-x,-y,-z
x,y,1/2-z
-x,1/2+y,z
x,1/2-y,1/2+z
loop_
_atom_site_type_symbol
_atom_site_label
_atom_site_fract_x
_atom_site_fract_y
_atom_site_fract_z
Si Si1 0.238944 0.274597 0.589150
Si Si2 0.014313 0.531925 0.656220
Si Si3 0.522851 0.724910 0.908917
Si Si4 0.473034 0.956842 0.159056
Si Si5 0.385855 0.880950 0.656951
Si Si6 0.245210 0.453217 0.840426
Si Si7 0.985767 0.777511 0.342127
Si Si8 0.862937 0.377143 0.654918
O O1 0.205020 0.250000 0.500000
O O2 0.349191 0.225260 0.616997
O O3 0.265715 0.376309 0.597318
O O4 0.139464 0.252607 0.647517
O O5 0.999420 0.537479 0.750000
O O6 0.135772 0.502265 0.632355
O O7 0.998413 0.627479 0.617628
O O8 0.923952 0.463915 0.622625
O O9 0.483231 0.627327 0.895555
O O10 0.450683 0.792102 0.858685
O O11 0.510082 0.750000 0.000000
O O12 0.506305 0.935429 0.250000
O O13 0.548475 0.035001 0.123634
O O14 0.345484 0.980831 0.153985
O O15 0.377435 0.892858 0.750000
O O16 0.261997 0.876496 0.621228
O O17 0.233763 0.417353 0.750000
O O18 0.012856 0.785080 0.250000
O O19 0.071184 0.707160 0.378871
O O20 0.865260 0.375507 0.750000
#
# Coordination Sequence:
#
# PCOD8232076 Si02
#       8
#     8   8   8   8   8   8   8   8
#     4  11  23  40  58  85 118 157 203 247 294 352
#     4   9  18  32  56  89 115 145 189 234 293 353
#     4  11  25  42  58  84 120 164 200 239 300 364
#     4  10  22  38  64  94 116 150 201 252 295 346
#     4  10  21  38  60  89 121 152 196 255 301 344
#     4  10  19  38  64  88 117 154 200 252 299 350
#     4  10  20  35  60  86 114 155 195 240 297 355
#     4   9  18  33  54  84 120 148 182 241 301 349
#
# _framework density 20.358915
#
# number of rings (size 3 to 8) (size 9 to 14) (size 15 to 20)
#    0.000    2.000    2.500    0.750    3.500    2.000 
#    0.000    1.250    0.000    0.000    0.000    0.000 
#    0.000    0.000    0.000    0.000    0.000    0.000 
#
# Total GULP energy -793549.109991 kJ/mol
# GULP energy per Si atom -12399.204844 kJ/mol
# Density = 2.031258 g / cm^3
# Si number density = 20.358915 Si / 1000 Ang^3
#
#
#
# Elastic Constant Matrix: (Units=GPa)
#
#
# Indices 1 2 3 4 5 6 
#
# 1 123.1801 39.0036 18.1786 0.0000 0.0000 0.0000
# 2 39.0036 144.8575 23.8618 0.0000 0.0000 0.0000
# 3 18.1786 23.8618 21.0673 0.0000 0.0000 0.0000
# 4 0.0000 0.0000 0.0000 22.3226 0.0000 0.0000
# 5 0.0000 0.0000 0.0000 0.0000 13.6281 0.0000
# 6 0.0000 0.0000 0.0000 0.0000 0.0000 30.7180
#
#
#
# Elastic Compliance Matrix: (Units=1/GPa)
#
#
# Indices 1 2 3 4 5 6 
#
# 1 0.009559 -0.001494 -0.006556 0.000000 0.000000 0.000000
# 2 -0.001494 0.008720 -0.008588 0.000000 0.000000 0.000000
# 3 -0.006556 -0.008588 0.062851 0.000000 0.000000 0.000000
# 4 0.000000 0.000000 0.000000 0.044798 0.000000 0.000000
# 5 0.000000 0.000000 0.000000 0.000000 0.073378 0.000000
# 6 0.000000 0.000000 0.000000 0.000000 0.000000 0.032554
#
#
# Mechanical properties :
#
#
# Convention : Reuss Voigt Hill
#
# Bulk Modulus (GPa) = 20.89671 50.13252 35.51462
# Shear Modulus (GPa) = 17.78811 27.20449 22.49630
#
# Velocity S-wave (km/s) = 2.95909 3.65943 3.32774
# Velocity P-wave (km/s) = 4.68630 6.52174 5.67867
#
# Compressibility (1/GPa) = 0.04785442
#
# Stress axis : x y z
#
# Youngs Moduli (GPa) = 104.61660 114.67630 15.91060
#
# Poissons Ratio (x) = 0.17130 0.10431
# Poissons Ratio (y) = 0.15627 0.13664
# Poissons Ratio (z) = 0.68588 0.98483
#
# Static dielectric constant tensor:
#      x y z
#    x 3.961230 0.000000 0.000000 
#    y 0.000000 3.933770 0.000000 
#    z 0.000000 0.000000 3.198660 
# 
# 
# High freq. dielectric constant tensor:
#      x y z
#    x 1.811260 0.000000 0.000000 
#    y 0.000000 1.806930 0.000000 
#    z 0.000000 0.000000 1.747500 
# 
# From -- ./inp_files/22087.got.cif
#   From: 2010.03.12/outbox.cif.g09.slc.cpg/sg57_12_cif.got.tgz:22087.got - 2010.04.16 15:48:40.
