data_PCOD8232670
_publ_section_title
;
Structure prediction by ZEFSAII (Michael W. Deem and Ramdas Pophale) SiO2 
 PCOD8232670
Probable space group: P B C M
;
_chemical_formula_sum "Si O2"
_cell_formula_units_Z 52
_cell_length_a 26.256149
_cell_length_b 5.155322
_cell_length_c 19.478944
_cell_angle_alpha 90.000000
_cell_angle_beta 90.000000
_cell_angle_gamma 90.000000
_cell_volume 2636.648483
_symmetry_space_group_name_H-M "P B C M"
_symmetry_group_IT_number 57
_symmetry_cell_setting 'orthorhombic'
loop_
_space_group_symop_operation_xyz
x,y,z
-x,-y,1/2+z
x,1/2-y,-z
-x,1/2+y,1/2-z
-x,-y,-z
x,y,1/2-z
-x,1/2+y,z
x,1/2-y,1/2+z
loop_
_atom_site_type_symbol
_atom_site_label
_atom_site_fract_x
_atom_site_fract_y
_atom_site_fract_z
Si Si1 0.466691 0.459399 0.672162
Si Si2 0.389682 0.996709 0.047118
Si Si3 0.276609 0.418088 0.567538
Si Si4 0.968030 0.388325 0.670082
Si Si5 0.802861 0.250000 0.500000
Si Si6 0.856230 0.139859 0.374523
Si Si7 0.198853 0.343388 0.673437
O O1 0.444013 0.482629 0.750000
O O2 0.509652 0.676119 0.661368
O O3 0.424204 0.497349 0.614493
O O4 0.332977 0.969047 0.078810
O O5 0.397167 0.250000 0.000000
O O6 0.403103 0.750000 0.000000
O O7 0.278855 0.250000 0.500000
O O8 0.234466 0.634287 0.556670
O O9 0.252637 0.277838 0.634157
O O10 0.953432 0.373254 0.750000
O O11 0.993239 0.660479 0.650287
O O12 0.916949 0.355399 0.626609
O O13 0.838925 0.067001 0.453095
O O14 0.836036 0.425427 0.355563
O O15 0.834775 0.917172 0.325106
O O16 0.215192 0.415547 0.750000
#
# Coordination Sequence:
#
# PCOD8232670 Si02
#       7
#     8   8   8   8   4   8   8
#     4  10  22  41  62  87 123 163 203 250 307 358
#     4  11  23  37  62  90 121 159 204 252 295 352
#     4  10  20  38  57  83 118 155 193 229 296 352
#     4  10  20  35  54  77 109 145 182 233 292 341
#     4  10  20  38  60  80 112 160 188 230 288 356
#     4  11  22  37  59  83 113 147 195 232 290 350
#     4  11  22  35  58  86 114 146 192 247 285 343
#
# _framework density 19.722009
#
# number of rings (size 3 to 8) (size 9 to 14) (size 15 to 20)
#    0.000    1.538    2.308    3.231    0.000    3.692 
#    0.000    0.769    0.000    4.615    0.000    0.000 
#    0.000    0.000    0.000    0.000    0.000    0.000 
#
# Total GULP energy -644424.182445 kJ/mol
# GULP energy per Si atom -12392.772739 kJ/mol
# Density = 1.967712 g / cm^3
# Si number density = 19.722009 Si / 1000 Ang^3
#
#
#
# Elastic Constant Matrix: (Units=GPa)
#
#
# Indices 1 2 3 4 5 6 
#
# 1 122.9953 17.5762 76.0703 0.0000 0.0000 0.0000
# 2 17.5762 84.6325 12.1361 0.0000 0.0000 0.0000
# 3 76.0703 12.1361 101.6563 0.0000 0.0000 0.0000
# 4 0.0000 0.0000 0.0000 22.3169 0.0000 0.0000
# 5 0.0000 0.0000 0.0000 0.0000 27.9731 0.0000
# 6 0.0000 0.0000 0.0000 0.0000 0.0000 23.8732
#
#
#
# Elastic Compliance Matrix: (Units=1/GPa)
#
#
# Indices 1 2 3 4 5 6 
#
# 1 0.015337 -0.001566 -0.011289 0.000000 0.000000 0.000000
# 2 -0.001566 0.012182 -0.000282 0.000000 0.000000 0.000000
# 3 -0.011289 -0.000282 0.018319 0.000000 0.000000 0.000000
# 4 0.000000 0.000000 0.000000 0.044809 0.000000 0.000000
# 5 0.000000 0.000000 0.000000 0.000000 0.035749 0.000000
# 6 0.000000 0.000000 0.000000 0.000000 0.000000 0.041888
#
#
# Mechanical properties :
#
#
# Convention : Reuss Voigt Hill
#
# Bulk Modulus (GPa) = 51.12224 57.87213 54.49719
# Shear Modulus (GPa) = 24.86589 28.39942 26.63266
#
# Velocity S-wave (km/s) = 3.55465 3.79883 3.67877
# Velocity P-wave (km/s) = 6.54409 6.97489 6.76292
#
# Compressibility (1/GPa) = 0.01956096
#
# Stress axis : x y z
#
# Youngs Moduli (GPa) = 65.20375 82.09148 54.58875
#
# Poissons Ratio (x) = 0.12857 0.61628
# Poissons Ratio (y) = 0.10212 0.01541
# Poissons Ratio (z) = 0.73612 0.02318
#
# Static dielectric constant tensor:
#      x y z
#    x 3.711040 0.000000 0.000000 
#    y 0.000000 2.660850 0.000000 
#    z 0.000000 0.000000 3.798680 
# 
# 
# High freq. dielectric constant tensor:
#      x y z
#    x 1.766550 0.000000 0.000000 
#    y 0.000000 1.772960 0.000000 
#    z 0.000000 0.000000 1.768350 
# 
# From -- ./inp_files/25735.got.cif
#   From: 2010.03.12/outbox.cif.g09.slc.cpg/sg57_13_cif.got.tgz:25735.got - 2010.04.16 15:48:40.
