data_PCOD8232429
_publ_section_title
;
Structure prediction by ZEFSAII (Michael W. Deem and Ramdas Pophale) SiO2 
 PCOD8232429
Probable space group: P B C M
;
_chemical_formula_sum "Si O2"
_cell_formula_units_Z 48
_cell_length_a 21.021754
_cell_length_b 13.883096
_cell_length_c 8.995035
_cell_angle_alpha 90.000000
_cell_angle_beta 90.000000
_cell_angle_gamma 90.000000
_cell_volume 2625.174239
_symmetry_space_group_name_H-M "P B C M"
_symmetry_group_IT_number 57
_symmetry_cell_setting 'orthorhombic'
loop_
_space_group_symop_operation_xyz
x,y,z
-x,-y,1/2+z
x,1/2-y,-z
-x,1/2+y,1/2-z
-x,-y,-z
x,y,1/2-z
-x,1/2+y,z
x,1/2-y,1/2+z
loop_
_atom_site_type_symbol
_atom_site_label
_atom_site_fract_x
_atom_site_fract_y
_atom_site_fract_z
Si Si1 0.240164 0.018690 0.577513
Si Si2 0.336032 0.649424 0.424804
Si Si3 0.999415 0.150218 0.076249
Si Si4 0.566822 0.483451 0.076516
Si Si5 0.334263 0.151195 0.078366
Si Si6 0.905168 0.980588 0.076891
O O1 0.246245 0.044558 0.750000
O O2 0.269418 0.107701 0.487549
O O3 0.167513 0.005281 0.527830
O O4 0.276735 0.920084 0.540479
O O5 0.318763 0.750000 0.500000
O O6 0.347559 0.662689 0.250000
O O7 0.399871 0.607394 0.498322
O O8 0.007394 0.166828 0.250000
O O9 0.981990 0.250000 0.000000
O O10 0.065515 0.108421 0.013571
O O11 0.941834 0.078536 0.036935
O O12 0.558024 0.460267 0.250000
O O13 0.607854 0.578867 0.050000
O O14 0.500000 0.500000 0.000000
O O15 0.322545 0.171666 0.250000
O O16 0.352938 0.250000 0.000000
O O17 0.911596 0.955939 0.250000
#
# Coordination Sequence:
#
# PCOD8232429 Si02
#       6
#     8   8   8   8   8   8
#     4   9  19  36  56  77 104 137 173 215 260 307
#     4  10  20  35  55  79 107 139 174 214 261 311
#     4  10  20  34  53  77 105 137 173 214 260 309
#     4  10  21  37  56  79 107 139 176 217 260 308
#     4  10  21  36  55  79 106 137 173 213 258 308
#     4   9  19  36  55  76 103 136 175 216 258 306
#
# _framework density 18.284502
#
# number of rings (size 3 to 8) (size 9 to 14) (size 15 to 20)
#    0.000    2.333    0.000    2.000    0.000    6.000 
#    0.000    1.667    0.000    0.000    0.000    0.000 
#    0.000    0.000    0.000    0.000    0.000    0.000 
#
# Total GULP energy -595419.926843 kJ/mol
# GULP energy per Si atom -12404.581809 kJ/mol
# Density = 1.824289 g / cm^3
# Si number density = 18.284502 Si / 1000 Ang^3
#
#
#
# Elastic Constant Matrix: (Units=GPa)
#
#
# Indices 1 2 3 4 5 6 
#
# 1 125.3476 29.1696 47.7337 0.0000 0.0000 0.0000
# 2 29.1696 97.8295 52.7241 0.0000 0.0000 0.0000
# 3 47.7337 52.7241 96.7542 0.0000 0.0000 0.0000
# 4 0.0000 0.0000 0.0000 39.0572 0.0000 0.0000
# 5 0.0000 0.0000 0.0000 0.0000 29.6100 0.0000
# 6 0.0000 0.0000 0.0000 0.0000 0.0000 14.3332
#
#
#
# Elastic Compliance Matrix: (Units=1/GPa)
#
#
# Indices 1 2 3 4 5 6 
#
# 1 0.009837 -0.000450 -0.004608 0.000000 0.000000 0.000000
# 2 -0.000450 0.014493 -0.007676 0.000000 0.000000 0.000000
# 3 -0.004608 -0.007676 0.016792 0.000000 0.000000 0.000000
# 4 0.000000 0.000000 0.000000 0.025604 0.000000 0.000000
# 5 0.000000 0.000000 0.000000 0.000000 0.033772 0.000000
# 6 0.000000 0.000000 0.000000 0.000000 0.000000 0.069768
#
#
# Mechanical properties :
#
#
# Convention : Reuss Voigt Hill
#
# Bulk Modulus (GPa) = 63.87898 64.35400 64.11649
# Shear Modulus (GPa) = 24.88171 29.28699 27.08435
#
# Velocity S-wave (km/s) = 3.69292 4.00651 3.85291
# Velocity P-wave (km/s) = 7.29352 7.52829 7.41184
#
# Compressibility (1/GPa) = 0.01565460
#
# Stress axis : x y z
#
# Youngs Moduli (GPa) = 101.65387 69.00072 59.55365
#
# Poissons Ratio (x) = 0.03102 0.27444
# Poissons Ratio (y) = 0.04571 0.45711
# Poissons Ratio (z) = 0.46844 0.52962
#
# Static dielectric constant tensor:
#      x y z
#    x 3.396120 0.000000 0.000000 
#    y 0.000000 3.375340 0.000000 
#    z 0.000000 0.000000 3.482360 
# 
# 
# High freq. dielectric constant tensor:
#      x y z
#    x 1.708480 0.000000 0.000000 
#    y 0.000000 1.710790 0.000000 
#    z 0.000000 0.000000 1.720100 
# 
# From -- ./inp_files/7877.got.cif
#   From: 2010.03.12/outbox.cif.g09.slc.cpg/sg57_4_cif.got.tgz:7877.got - 2010.04.16 15:48:40.
