data_PCOD8232103
_publ_section_title
;
Structure prediction by ZEFSAII (Michael W. Deem and Ramdas Pophale) SiO2 
 PCOD8232103
Probable space group: P B C M
;
_chemical_formula_sum "Si O2"
_cell_formula_units_Z 60
_cell_length_a 6.612351
_cell_length_b 22.996222
_cell_length_c 21.248999
_cell_angle_alpha 90.000000
_cell_angle_beta 90.000000
_cell_angle_gamma 90.000000
_cell_volume 3231.103484
_symmetry_space_group_name_H-M "P B C M"
_symmetry_group_IT_number 57
_symmetry_cell_setting 'orthorhombic'
loop_
_space_group_symop_operation_xyz
x,y,z
-x,-y,1/2+z
x,1/2-y,-z
-x,1/2+y,1/2-z
-x,-y,-z
x,y,1/2-z
-x,1/2+y,z
x,1/2-y,1/2+z
loop_
_atom_site_type_symbol
_atom_site_label
_atom_site_fract_x
_atom_site_fract_y
_atom_site_fract_z
Si Si1 0.562065 0.048651 0.588038
Si Si2 0.683997 0.874898 0.178890
Si Si3 0.551370 0.581036 0.447499
Si Si4 0.090916 0.345526 0.518424
Si Si5 0.697869 0.187850 0.408727
Si Si6 0.354608 0.716266 0.821861
Si Si7 0.592937 0.750000 0.500000
Si Si8 0.089649 0.873566 0.388349
O O1 0.393715 0.074719 0.633282
O O2 0.527242 0.074329 0.518526
O O3 0.778679 0.067609 0.616383
O O4 0.546911 0.979361 0.589426
O O5 0.652720 0.896454 0.250000
O O6 0.580042 0.811202 0.170038
O O7 0.918882 0.870995 0.164053
O O8 0.397373 0.623805 0.411321
O O9 0.781948 0.605007 0.444670
O O10 0.929399 0.314211 0.565119
O O11 0.975832 0.373478 0.460545
O O12 0.258003 0.303605 0.486765
O O13 0.678425 0.215079 0.338429
O O14 0.556459 0.234961 0.443566
O O15 0.281944 0.707546 0.750000
O O16 0.222332 0.682464 0.873160
#
# Coordination Sequence:
#
# PCOD8232103 Si02
#       8
#     8   8   8   8   8   8   4   8
#     4  10  21  38  57  82 117 147 188 237 288 333
#     4  10  21  38  60  85 113 151 191 232 285 341
#     4  10  22  37  55  84 114 148 187 234 286 350
#     4  11  20  32  54  86 112 147 183 231 292 343
#     4  11  21  35  54  80 115 148 189 231 285 344
#     4  10  22  37  55  79 113 151 190 233 280 342
#     4  10  20  30  50  78 114 140 178 228 282 344
#     4  11  19  33  57  86 111 143 183 237 287 341
#
# _framework density 18.569507000000002
#
# number of rings (size 3 to 8) (size 9 to 14) (size 15 to 20)
#    0.000    1.600    2.667    3.200    3.733    3.200 
#    0.000    0.667    0.000    0.800    0.000    0.000 
#    0.000    0.000    0.000    0.000    0.000    0.000 
#
# Total GULP energy -743601.239349 kJ/mol
# GULP energy per Si atom -12393.353989 kJ/mol
# Density = 1.852724 g / cm^3
# Si number density = 18.569507 Si / 1000 Ang^3
#
#
#
# Elastic Constant Matrix: (Units=GPa)
#
#
# Indices 1 2 3 4 5 6 
#
# 1 103.4087 38.4175 15.0828 0.0000 0.0000 0.0000
# 2 38.4175 120.6304 34.4627 0.0000 0.0000 0.0000
# 3 15.0828 34.4627 52.2265 0.0000 0.0000 0.0000
# 4 0.0000 0.0000 0.0000 23.9032 0.0000 0.0000
# 5 0.0000 0.0000 0.0000 0.0000 24.6617 0.0000
# 6 0.0000 0.0000 0.0000 0.0000 0.0000 16.6453
#
#
#
# Elastic Compliance Matrix: (Units=1/GPa)
#
#
# Indices 1 2 3 4 5 6 
#
# 1 0.011016 -0.003203 -0.001068 0.000000 0.000000 0.000000
# 2 -0.003203 0.011147 -0.006431 0.000000 0.000000 0.000000
# 3 -0.001068 -0.006431 0.023699 0.000000 0.000000 0.000000
# 4 0.000000 0.000000 0.000000 0.041835 0.000000 0.000000
# 5 0.000000 0.000000 0.000000 0.000000 0.040549 0.000000
# 6 0.000000 0.000000 0.000000 0.000000 0.000000 0.060077
#
#
# Mechanical properties :
#
#
# Convention : Reuss Voigt Hill
#
# Bulk Modulus (GPa) = 40.88428 50.24351 45.56390
# Shear Modulus (GPa) = 22.94847 25.59555 24.27201
#
# Velocity S-wave (km/s) = 3.51923 3.71666 3.61929
# Velocity P-wave (km/s) = 6.21112 6.74788 6.48505
#
# Compressibility (1/GPa) = 0.02445928
#
# Stress axis : x y z
#
# Youngs Moduli (GPa) = 90.77566 89.70952 42.19584
#
# Poissons Ratio (x) = 0.28737 0.04505
# Poissons Ratio (y) = 0.29079 0.27134
# Poissons Ratio (z) = 0.09691 0.57688
#
# Static dielectric constant tensor:
#      x y z
#    x 3.692710 0.000000 0.000000 
#    y 0.000000 3.378660 0.000000 
#    z 0.000000 0.000000 3.228470 
# 
# 
# High freq. dielectric constant tensor:
#      x y z
#    x 1.735230 0.000000 0.000000 
#    y 0.000000 1.709500 0.000000 
#    z 0.000000 0.000000 1.698150 
# 
# From -- ./inp_files/23818.got.cif
#   From: 2010.03.12/outbox.cif.g09.slc.cpg/sg57_12_cif.got.tgz:23818.got - 2010.04.16 15:48:40.
