data_PCOD8232541
_publ_section_title
;
Structure prediction by ZEFSAII (Michael W. Deem and Ramdas Pophale) SiO2 
 PCOD8232541
Probable space group: P B C M
;
_chemical_formula_sum "Si O2"
_cell_formula_units_Z 48
_cell_length_a 9.523487
_cell_length_b 29.960719
_cell_length_c 8.822874
_cell_angle_alpha 90.000000
_cell_angle_beta 90.000000
_cell_angle_gamma 90.000000
_cell_volume 2517.435208
_symmetry_space_group_name_H-M "P B C M"
_symmetry_group_IT_number 57
_symmetry_cell_setting 'orthorhombic'
loop_
_space_group_symop_operation_xyz
x,y,z
-x,-y,1/2+z
x,1/2-y,-z
-x,1/2+y,1/2-z
-x,-y,-z
x,y,1/2-z
-x,1/2+y,z
x,1/2-y,1/2+z
loop_
_atom_site_type_symbol
_atom_site_label
_atom_site_fract_x
_atom_site_fract_y
_atom_site_fract_z
Si Si1 0.652535 0.050295 0.072089
Si Si2 0.646618 0.202997 0.570315
Si Si3 0.366165 0.050589 0.925841
Si Si4 0.157330 0.878120 0.072832
Si Si5 0.648707 0.797021 0.929462
Si Si6 0.163986 0.370100 0.426608
O O1 0.653564 0.055071 0.250000
O O2 0.674397 0.999088 0.019018
O O3 0.503561 0.068609 0.012159
O O4 0.780184 0.078732 0.007794
O O5 0.694920 0.250000 0.500000
O O6 0.630597 0.207970 0.750000
O O7 0.762076 0.166689 0.523558
O O8 0.498676 0.187325 0.500981
O O9 0.405410 0.050595 0.750000
O O10 0.235775 0.082495 0.961920
O O11 0.171733 0.886331 0.250000
O O12 0.996749 0.873428 0.022774
O O13 0.632671 0.792362 0.750000
O O14 0.695113 0.750000 0.000000
O O15 0.767248 0.832450 0.970134
O O16 0.179538 0.357195 0.250000
#
# Coordination Sequence:
#
# PCOD8232541 Si02
#       6
#     8   8   8   8   8   8
#     4  10  20  34  55  82 108 138 181 227 267 315
#     4  10  20  36  57  80 105 136 176 218 263 313
#     4   9  19  36  57  79 106 142 181 223 271 319
#     4  10  22  37  54  78 110 146 177 214 269 324
#     4  11  22  37  58  83 108 138 178 221 266 314
#     4  10  21  38  56  77 109 146 181 218 266 321
#
# _framework density 19.067024
#
# number of rings (size 3 to 8) (size 9 to 14) (size 15 to 20)
#    0.000    2.000    0.000    4.500    0.000    8.667 
#    0.000    1.667    0.000    0.000    0.000    0.000 
#    0.000    0.000    0.000    0.000    0.000    0.000 
#
# Total GULP energy -595410.145785 kJ/mol
# GULP energy per Si atom -12404.378037 kJ/mol
# Density = 1.902363 g / cm^3
# Si number density = 19.067024 Si / 1000 Ang^3
#
#
#
# Elastic Constant Matrix: (Units=GPa)
#
#
# Indices 1 2 3 4 5 6 
#
# 1 148.1410 86.6233 48.1282 0.0000 0.0000 0.0000
# 2 86.6233 114.6969 49.8381 0.0000 0.0000 0.0000
# 3 48.1282 49.8381 73.4051 0.0000 0.0000 0.0000
# 4 0.0000 0.0000 0.0000 32.3962 0.0000 0.0000
# 5 0.0000 0.0000 0.0000 0.0000 25.0267 0.0000
# 6 0.0000 0.0000 0.0000 0.0000 0.0000 18.7218
#
#
#
# Elastic Compliance Matrix: (Units=1/GPa)
#
#
# Indices 1 2 3 4 5 6 
#
# 1 0.012408 -0.008278 -0.002515 0.000000 0.000000 0.000000
# 2 -0.008278 0.017890 -0.006719 0.000000 0.000000 0.000000
# 3 -0.002515 -0.006719 0.019834 0.000000 0.000000 0.000000
# 4 0.000000 0.000000 0.000000 0.030868 0.000000 0.000000
# 5 0.000000 0.000000 0.000000 0.000000 0.039957 0.000000
# 6 0.000000 0.000000 0.000000 0.000000 0.000000 0.053414
#
#
# Mechanical properties :
#
#
# Convention : Reuss Voigt Hill
#
# Bulk Modulus (GPa) = 66.19027 78.38023 72.28525
# Shear Modulus (GPa) = 23.31767 25.33918 24.32842
#
# Velocity S-wave (km/s) = 3.50084 3.64944 3.57591
# Velocity P-wave (km/s) = 7.15060 7.67820 7.41909
#
# Compressibility (1/GPa) = 0.01510796
#
# Stress axis : x y z
#
# Youngs Moduli (GPa) = 80.59406 55.89709 50.41960
#
# Poissons Ratio (x) = 0.46272 0.12680
# Poissons Ratio (y) = 0.66717 0.33876
# Poissons Ratio (z) = 0.20268 0.37556
#
# Static dielectric constant tensor:
#      x y z
#    x 3.481680 0.000000 0.000000 
#    y 0.000000 3.628380 0.000000 
#    z 0.000000 0.000000 3.463160 
# 
# 
# High freq. dielectric constant tensor:
#      x y z
#    x 1.737290 0.000000 0.000000 
#    y 0.000000 1.751890 0.000000 
#    z 0.000000 0.000000 1.742830 
# 
# From -- ./inp_files/2064.got.cif
#   From: 2010.03.12/outbox.cif.g09.slc.cpg/sg57_2_cif.got.tgz:2064.got - 2010.04.16 15:48:40.
