data_PCOD8232274
_publ_section_title
;
Structure prediction by ZEFSAII (Michael W. Deem and Ramdas Pophale) SiO2 
 PCOD8232274
Probable space group: P B C M
;
_chemical_formula_sum "Si O2"
_cell_formula_units_Z 56
_cell_length_a 14.872659
_cell_length_b 20.785454
_cell_length_c 8.791468
_cell_angle_alpha 90.000000
_cell_angle_beta 90.000000
_cell_angle_gamma 90.000000
_cell_volume 2717.750192
_symmetry_space_group_name_H-M "P B C M"
_symmetry_group_IT_number 57
_symmetry_cell_setting 'orthorhombic'
loop_
_space_group_symop_operation_xyz
x,y,z
-x,-y,1/2+z
x,1/2-y,-z
-x,1/2+y,1/2-z
-x,-y,-z
x,y,1/2-z
-x,1/2+y,z
x,1/2-y,1/2+z
loop_
_atom_site_type_symbol
_atom_site_label
_atom_site_fract_x
_atom_site_fract_y
_atom_site_fract_z
Si Si1 0.720327 0.605285 0.578717
Si Si2 0.547069 0.818307 0.075700
Si Si3 0.924768 0.452273 0.069881
Si Si4 0.278793 0.521532 0.572812
Si Si5 0.055071 0.685585 0.419619
Si Si6 0.549306 0.062006 0.429727
Si Si7 0.155153 0.311571 0.917478
O O1 0.729131 0.578714 0.750000
O O2 0.652758 0.665235 0.568248
O O3 0.685248 0.549397 0.468611
O O4 0.818294 0.626995 0.518784
O O5 0.513591 0.817276 0.250000
O O6 0.528343 0.750000 0.000000
O O7 0.494649 0.872143 0.982994
O O8 0.936869 0.455566 0.250000
O O9 0.824871 0.473723 0.019210
O O10 0.930941 0.378524 0.017096
O O11 0.000000 0.500000 0.000000
O O12 0.288392 0.535830 0.750000
O O13 0.346260 0.568383 0.482718
O O14 0.095994 0.750000 0.500000
O O15 0.097529 0.678704 0.250000
O O16 0.950019 0.695341 0.402247
O O17 0.544131 0.055122 0.250000
O O18 0.500000 0.000000 0.500000
O O19 0.198751 0.318077 0.750000
O O20 0.196997 0.250000 0.000000
#
# Coordination Sequence:
#
# PCOD8232274 Si02
#       7
#     8   8   8   8   8   8   8
#     4  11  22  35  56  86 121 160 203 251 312 378
#     4  11  24  41  62  92 128 167 211 261 319 377
#     4  11  24  41  63  94 130 169 213 268 323 378
#     4  11  24  41  63  91 124 163 211 261 315 378
#     4  10  21  38  60  85 117 162 210 263 322 382
#     4  12  24  42  68  95 125 165 211 260 312 372
#     4  10  20  33  51  78 114 155 201 250 308 374
#
# _framework density 20.605277999999998
#
# number of rings (size 3 to 8) (size 9 to 14) (size 15 to 20)
#    0.000    1.143    1.429    5.143    0.000   10.286 
#    0.000    0.714    0.000    3.429    0.000    0.000 
#    0.000    0.000    0.000    0.000    0.000    0.000 
#
# Total GULP energy -694235.963072 kJ/mol
# GULP energy per Si atom -12397.070769 kJ/mol
# Density = 2.055838 g / cm^3
# Si number density = 20.605278 Si / 1000 Ang^3
#
#
#
# Elastic Constant Matrix: (Units=GPa)
#
#
# Indices 1 2 3 4 5 6 
#
# 1 79.2521 33.8753 54.4268 0.0000 0.0000 0.0000
# 2 33.8753 136.0336 53.5739 0.0000 0.0000 0.0000
# 3 54.4268 53.5739 142.2170 0.0000 0.0000 0.0000
# 4 0.0000 0.0000 0.0000 38.4790 0.0000 0.0000
# 5 0.0000 0.0000 0.0000 0.0000 28.1261 0.0000
# 6 0.0000 0.0000 0.0000 0.0000 0.0000 24.4014
#
#
#
# Elastic Compliance Matrix: (Units=1/GPa)
#
#
# Indices 1 2 3 4 5 6 
#
# 1 0.017581 -0.002029 -0.005964 0.000000 0.000000 0.000000
# 2 -0.002029 0.008866 -0.002563 0.000000 0.000000 0.000000
# 3 -0.005964 -0.002563 0.010279 0.000000 0.000000 0.000000
# 4 0.000000 0.000000 0.000000 0.025988 0.000000 0.000000
# 5 0.000000 0.000000 0.000000 0.000000 0.035554 0.000000
# 6 0.000000 0.000000 0.000000 0.000000 0.000000 0.040981
#
#
# Mechanical properties :
#
#
# Convention : Reuss Voigt Hill
#
# Bulk Modulus (GPa) = 64.04643 71.25053 67.64848
# Shear Modulus (GPa) = 30.19917 32.57641 31.38779
#
# Velocity S-wave (km/s) = 3.83247 3.98046 3.90717
# Velocity P-wave (km/s) = 7.12277 7.46855 7.29771
#
# Compressibility (1/GPa) = 0.01561367
#
# Stress axis : x y z
#
# Youngs Moduli (GPa) = 56.87931 112.79121 97.28118
#
# Poissons Ratio (x) = 0.22889 0.58017
# Poissons Ratio (y) = 0.11543 0.24935
# Poissons Ratio (z) = 0.33922 0.28911
#
# Static dielectric constant tensor:
#      x y z
#    x 3.751320 0.000000 0.000000 
#    y 0.000000 4.037140 0.000000 
#    z 0.000000 0.000000 4.017390 
# 
# 
# High freq. dielectric constant tensor:
#      x y z
#    x 1.791080 0.000000 0.000000 
#    y 0.000000 1.806230 0.000000 
#    z 0.000000 0.000000 1.823960 
# 
# From -- ./inp_files/5190.got.cif
#   From: 2010.03.12/outbox.cif.g09.slc.cpg/sg57_3_cif.got.tgz:5190.got - 2010.04.16 15:48:40.
