data_PCOD8232622
_publ_section_title
;
Structure prediction by ZEFSAII (Michael W. Deem and Ramdas Pophale) SiO2 
 PCOD8232622
Probable space group: P B C M
;
_chemical_formula_sum "Si O2"
_cell_formula_units_Z 60
_cell_length_a 5.658181
_cell_length_b 26.011959
_cell_length_c 20.102005
_cell_angle_alpha 90.000000
_cell_angle_beta 90.000000
_cell_angle_gamma 90.000000
_cell_volume 2958.620578
_symmetry_space_group_name_H-M "P B C M"
_symmetry_group_IT_number 57
_symmetry_cell_setting 'orthorhombic'
loop_
_space_group_symop_operation_xyz
x,y,z
-x,-y,1/2+z
x,1/2-y,-z
-x,1/2+y,1/2-z
-x,-y,-z
x,y,1/2-z
-x,1/2+y,z
x,1/2-y,1/2+z
loop_
_atom_site_type_symbol
_atom_site_label
_atom_site_fract_x
_atom_site_fract_y
_atom_site_fract_z
Si Si1 0.311564 0.312141 0.392659
Si Si2 0.035085 0.398459 0.173358
Si Si3 0.351285 0.899895 0.080264
Si Si4 0.260732 0.028743 0.564704
Si Si5 0.026632 0.250000 0.500000
Si Si6 0.925589 0.322618 0.888578
Si Si7 0.056896 0.924203 0.538783
Si Si8 0.565347 0.787959 0.671846
O O1 0.141864 0.342069 0.341133
O O2 0.466967 0.354280 0.429974
O O3 0.181509 0.285854 0.453357
O O4 0.467269 0.270979 0.351743
O O5 0.068230 0.413103 0.250000
O O6 0.140343 0.443618 0.127796
O O7 0.757963 0.395865 0.154371
O O8 0.463865 0.956605 0.069342
O O9 0.158856 0.892540 0.023518
O O10 0.174629 0.048252 0.491570
O O11 0.227253 0.967685 0.570401
O O12 0.872205 0.287402 0.546640
O O13 0.173175 0.305604 0.853942
O O14 0.984029 0.382125 0.904434
O O15 0.675016 0.319007 0.848765
O O16 0.578433 0.791740 0.750000
#
# Coordination Sequence:
#
# PCOD8232622 Si02
#       8
#     8   8   8   8   4   8   8   8
#     4  10  23  38  61  88 125 164 201 263 322 380
#     4  10  21  38  57  87 122 161 210 255 312 380
#     4  10  20  34  60  93 121 155 197 264 320 390
#     4   9  20  39  60  91 125 156 201 259 328 389
#     4  10  22  40  58  98 124 156 206 258 328 380
#     4  11  25  40  68  92 129 168 211 272 313 381
#     4  10  21  37  64  92 122 159 203 261 330 384
#     4  11  26  45  62  88 126 176 223 259 310 378
#
# _framework density 20.279720000000001
#
# number of rings (size 3 to 8) (size 9 to 14) (size 15 to 20)
#    0.000    1.867    0.000    3.600   11.200    3.200 
#    0.000    1.333    0.000    0.000    0.000    0.000 
#    0.000    0.000    0.000    0.000    0.000    0.000 
#
# Total GULP energy -743323.999233 kJ/mol
# GULP energy per Si atom -12388.733321 kJ/mol
# Density = 2.023356 g / cm^3
# Si number density = 20.279720 Si / 1000 Ang^3
#
#
#
# Elastic Constant Matrix: (Units=GPa)
#
#
# Indices 1 2 3 4 5 6 
#
# 1 87.3893 18.3250 23.8948 0.0000 0.0000 0.0000
# 2 18.3250 102.3142 38.4694 0.0000 0.0000 0.0000
# 3 23.8948 38.4694 109.6405 0.0000 0.0000 0.0000
# 4 0.0000 0.0000 0.0000 22.3065 0.0000 0.0000
# 5 0.0000 0.0000 0.0000 0.0000 13.7160 0.0000
# 6 0.0000 0.0000 0.0000 0.0000 0.0000 46.0352
#
#
#
# Elastic Compliance Matrix: (Units=1/GPa)
#
#
# Indices 1 2 3 4 5 6 
#
# 1 0.012335 -0.001381 -0.002204 0.000000 0.000000 0.000000
# 2 -0.001381 0.011414 -0.003704 0.000000 0.000000 0.000000
# 3 -0.002204 -0.003704 0.010901 0.000000 0.000000 0.000000
# 4 0.000000 0.000000 0.000000 0.044830 0.000000 0.000000
# 5 0.000000 0.000000 0.000000 0.000000 0.072908 0.000000
# 6 0.000000 0.000000 0.000000 0.000000 0.000000 0.021723
#
#
# Mechanical properties :
#
#
# Convention : Reuss Voigt Hill
#
# Bulk Modulus (GPa) = 49.81872 51.19137 50.50505
# Shear Modulus (GPa) = 25.59151 30.98852 28.29001
#
# Velocity S-wave (km/s) = 3.55621 3.91327 3.73901
# Velocity P-wave (km/s) = 6.44060 6.76134 6.60292
#
# Compressibility (1/GPa) = 0.02007278
#
# Stress axis : x y z
#
# Youngs Moduli (GPa) = 81.06903 87.61405 91.73829
#
# Poissons Ratio (x) = 0.12096 0.20218
# Poissons Ratio (y) = 0.11193 0.33978
# Poissons Ratio (z) = 0.17867 0.32451
#
# Static dielectric constant tensor:
#      x y z
#    x 3.970650 0.000000 0.000000 
#    y 0.000000 3.821440 0.000000 
#    z 0.000000 0.000000 3.570770 
# 
# 
# High freq. dielectric constant tensor:
#      x y z
#    x 1.795600 0.000000 0.000000 
#    y 0.000000 1.796900 0.000000 
#    z 0.000000 0.000000 1.775500 
# 
# From -- ./inp_files/20284.got.cif
#   From: 2010.03.12/outbox.cif.g09.slc.cpg/sg57_11_cif.got.tgz:20284.got - 2010.04.16 15:48:40.
