data_PCOD8232952
_publ_section_title
;
Structure prediction by ZEFSAII (Michael W. Deem and Ramdas Pophale) SiO2 
 PCOD8232952
Probable space group: P B C M
;
_chemical_formula_sum "Si O2"
_cell_formula_units_Z 48
_cell_length_a 11.918106
_cell_length_b 8.531665
_cell_length_c 25.371223
_cell_angle_alpha 90.000000
_cell_angle_beta 90.000000
_cell_angle_gamma 90.000000
_cell_volume 2579.778628
_symmetry_space_group_name_H-M "P B C M"
_symmetry_group_IT_number 57
_symmetry_cell_setting 'orthorhombic'
loop_
_space_group_symop_operation_xyz
x,y,z
-x,-y,1/2+z
x,1/2-y,-z
-x,1/2+y,1/2-z
-x,-y,-z
x,y,1/2-z
-x,1/2+y,z
x,1/2-y,1/2+z
loop_
_atom_site_type_symbol
_atom_site_label
_atom_site_fract_x
_atom_site_fract_y
_atom_site_fract_z
Si Si1 0.863205 0.183336 0.250000
Si Si2 0.578521 0.128658 0.593600
Si Si3 0.109416 0.187579 0.750000
Si Si4 0.641520 0.685991 0.444377
Si Si5 0.701863 0.347306 0.660550
Si Si6 0.461842 0.411800 0.807162
Si Si7 0.266941 0.206488 0.656987
O O1 0.796443 0.233679 0.302854
O O2 0.979978 0.271538 0.250000
O O3 0.875903 0.997488 0.250000
O O4 0.471276 0.223216 0.573119
O O5 0.680931 0.248422 0.606571
O O6 0.615698 0.000125 0.550203
O O7 0.552336 0.039046 0.647649
O O8 0.166454 0.256690 0.696637
O O9 0.685154 0.750000 0.500000
O O10 0.739684 0.710419 0.400623
O O11 0.587361 0.346765 0.693511
O O12 0.736881 0.522359 0.645413
O O13 0.434744 0.486303 0.750000
O O14 0.382966 0.260138 0.816112
#
# Coordination Sequence:
#
# PCOD8232952 Si02
#       7
#     4   8   4   8   8   8   8
#     4  10  24  35  56  78 111 150 180 221 277 326
#     4  11  21  32  49  80 113 148 182 217 265 325
#     4  10  22  39  54  78 109 144 180 229 273 330
#     4  11  21  35  52  78 112 151 187 223 267 321
#     4  11  19  33  51  79 112 140 184 213 267 331
#     4  11  19  29  51  80 111 147 174 210 263 334
#     4  10  20  36  54  75 111 146 177 222 275 321
#
# _framework density 18.606245999999999
#
# number of rings (size 3 to 8) (size 9 to 14) (size 15 to 20)
#    0.000    1.333    6.667    0.500    1.167    4.000 
#    0.000    0.000    0.000    0.000    0.000   11.667 
#    0.000    0.000    0.000    0.000    0.000    0.000 
#
# Total GULP energy -594876.481722 kJ/mol
# GULP energy per Si atom -12393.260036 kJ/mol
# Density = 1.856390 g / cm^3
# Si number density = 18.606246 Si / 1000 Ang^3
#
#
#
# Elastic Constant Matrix: (Units=GPa)
#
#
# Indices 1 2 3 4 5 6 
#
# 1 80.0686 8.4993 25.9264 0.0000 0.0000 0.0000
# 2 8.4993 55.5001 3.2529 0.0000 0.0000 0.0000
# 3 25.9264 3.2529 82.6080 0.0000 0.0000 0.0000
# 4 0.0000 0.0000 0.0000 18.3875 0.0000 0.0000
# 5 0.0000 0.0000 0.0000 0.0000 11.8615 0.0000
# 6 0.0000 0.0000 0.0000 0.0000 0.0000 20.6072
#
#
#
# Elastic Compliance Matrix: (Units=1/GPa)
#
#
# Indices 1 2 3 4 5 6 
#
# 1 0.014100 -0.001904 -0.004350 0.000000 0.000000 0.000000
# 2 -0.001904 0.018317 -0.000124 0.000000 0.000000 0.000000
# 3 -0.004350 -0.000124 0.013476 0.000000 0.000000 0.000000
# 4 0.000000 0.000000 0.000000 0.054385 0.000000 0.000000
# 5 0.000000 0.000000 0.000000 0.000000 0.084306 0.000000
# 6 0.000000 0.000000 0.000000 0.000000 0.000000 0.048527
#
#
# Mechanical properties :
#
#
# Convention : Reuss Voigt Hill
#
# Bulk Modulus (GPa) = 30.17858 32.61486 31.39672
# Shear Modulus (GPa) = 19.46193 22.20446 20.83320
#
# Velocity S-wave (km/s) = 3.23768 3.45829 3.34980
# Velocity P-wave (km/s) = 5.49833 5.78908 5.64557
#
# Compressibility (1/GPa) = 0.03313609
#
# Stress axis : x y z
#
# Youngs Moduli (GPa) = 70.92168 54.59448 74.20838
#
# Poissons Ratio (x) = 0.10396 0.32283
# Poissons Ratio (y) = 0.13506 0.00917
# Poissons Ratio (z) = 0.30853 0.00675
#
# Static dielectric constant tensor:
#      x y z
#    x 3.315820 0.000000 0.000000 
#    y 0.000000 3.697120 0.000000 
#    z 0.000000 0.000000 3.598690 
# 
# 
# High freq. dielectric constant tensor:
#      x y z
#    x 1.669620 0.000000 0.000000 
#    y 0.000000 1.735570 0.000000 
#    z 0.000000 0.000000 1.711570 
# 
# From -- ./inp_files/28528.got.cif
#   From: 2010.03.12/outbox.cif.g09.slc.cpg/sg57_15_cif.got.tgz:28528.got - 2010.04.16 15:48:40.
