data_PCOD8232640
_publ_section_title
;
Structure prediction by ZEFSAII (Michael W. Deem and Ramdas Pophale) SiO2 
 PCOD8232640
Probable space group: P B C M
;
_chemical_formula_sum "Si O2"
_cell_formula_units_Z 48
_cell_length_a 30.664103
_cell_length_b 9.449355
_cell_length_c 8.697421
_cell_angle_alpha 90.000000
_cell_angle_beta 90.000000
_cell_angle_gamma 90.000000
_cell_volume 2520.129876
_symmetry_space_group_name_H-M "P B C M"
_symmetry_group_IT_number 57
_symmetry_cell_setting 'orthorhombic'
loop_
_space_group_symop_operation_xyz
x,y,z
-x,-y,1/2+z
x,1/2-y,-z
-x,1/2+y,1/2-z
-x,-y,-z
x,y,1/2-z
-x,1/2+y,z
x,1/2-y,1/2+z
loop_
_atom_site_type_symbol
_atom_site_label
_atom_site_fract_x
_atom_site_fract_y
_atom_site_fract_z
Si Si1 0.805120 0.101626 0.929595
Si Si2 0.292313 0.601822 0.932205
Si Si3 0.633138 0.901398 0.930230
Si Si4 0.039358 0.908608 0.566180
Si Si5 0.883890 0.907029 0.567838
Si Si6 0.536465 0.597330 0.429975
O O1 0.805009 0.128626 0.750000
O O2 0.756558 0.060969 0.988566
O O3 0.836395 0.970686 0.972160
O O4 0.821608 0.250000 0.000000
O O5 0.294429 0.607526 0.750000
O O6 0.328293 0.495990 0.000956
O O7 0.306344 0.750000 0.000000
O O8 0.638843 0.888344 0.750000
O O9 0.584921 0.961998 0.970487
O O10 0.639798 0.750000 0.000000
O O11 0.037751 0.750000 0.500000
O O12 0.036665 0.901603 0.750000
O O13 0.082973 0.986827 0.513737
O O14 0.000000 0.000000 0.500000
O O15 0.887934 0.750000 0.500000
O O16 0.892990 0.902097 0.750000
O O17 0.530156 0.750000 0.500000
O O18 0.500000 0.500000 0.500000
O O19 0.529316 0.607749 0.250000
#
# Coordination Sequence:
#
# PCOD8232640 Si02
#       6
#     8   8   8   8   8   8
#     4   9  19  35  56  79 108 143 181 223 270 320
#     4   9  18  34  53  77 106 138 176 220 265 317
#     4   9  19  34  52  74 103 135 172 214 262 316
#     4  12  25  43  65  90 119 153 190 232 279 329
#     4  11  23  39  58  85 117 151 189 231 276 327
#     4  10  20  35  53  75 102 136 174 218 267 321
#
# _framework density 19.046637
#
# number of rings (size 3 to 8) (size 9 to 14) (size 15 to 20)
#    0.000    2.000    0.000    3.500    0.000    5.333 
#    0.000    1.667    0.000    0.000    0.000    0.000 
#    0.000    0.000    0.000    0.000    0.000    0.000 
#
# Total GULP energy -595067.897707 kJ/mol
# GULP energy per Si atom -12397.247869 kJ/mol
# Density = 1.900329 g / cm^3
# Si number density = 19.046637 Si / 1000 Ang^3
#
#
#
# Elastic Constant Matrix: (Units=GPa)
#
#
# Indices 1 2 3 4 5 6 
#
# 1 147.1210 93.5693 56.6448 0.0000 0.0000 0.0000
# 2 93.5693 137.5792 60.4244 0.0000 0.0000 0.0000
# 3 56.6448 60.4244 77.2533 0.0000 0.0000 0.0000
# 4 0.0000 0.0000 0.0000 36.9531 0.0000 0.0000
# 5 0.0000 0.0000 0.0000 0.0000 26.9488 0.0000
# 6 0.0000 0.0000 0.0000 0.0000 0.0000 45.1709
#
#
#
# Elastic Compliance Matrix: (Units=1/GPa)
#
#
# Indices 1 2 3 4 5 6 
#
# 1 0.012704 -0.006929 -0.003895 0.000000 0.000000 0.000000
# 2 -0.006929 0.014852 -0.006536 0.000000 0.000000 0.000000
# 3 -0.003895 -0.006536 0.020912 0.000000 0.000000 0.000000
# 4 0.000000 0.000000 0.000000 0.027061 0.000000 0.000000
# 5 0.000000 0.000000 0.000000 0.000000 0.037107 0.000000
# 6 0.000000 0.000000 0.000000 0.000000 0.000000 0.022138
#
#
# Mechanical properties :
#
#
# Convention : Reuss Voigt Hill
#
# Bulk Modulus (GPa) = 72.73837 87.02563 79.88200
# Shear Modulus (GPa) = 28.72288 31.90223 30.31256
#
# Velocity S-wave (km/s) = 3.88755 4.09706 3.99368
# Velocity P-wave (km/s) = 7.64351 8.25659 7.95595
#
# Compressibility (1/GPa) = 0.01374790
#
# Stress axis : x y z
#
# Youngs Moduli (GPa) = 78.71590 67.33244 47.81883
#
# Poissons Ratio (x) = 0.46657 0.18626
# Poissons Ratio (y) = 0.54545 0.31252
# Poissons Ratio (z) = 0.30660 0.44005
#
# Static dielectric constant tensor:
#      x y z
#    x 4.096710 0.000000 0.000000 
#    y 0.000000 3.516180 0.000000 
#    z 0.000000 0.000000 3.559160 
# 
# 
# High freq. dielectric constant tensor:
#      x y z
#    x 1.759560 0.000000 0.000000 
#    y 0.000000 1.739700 0.000000 
#    z 0.000000 0.000000 1.744210 
# 
# From -- ./inp_files/9915.got.cif
#   From: 2010.03.12/outbox.cif.g09.slc.cpg/sg57_5_cif.got.tgz:9915.got - 2010.04.16 15:48:40.
