data_PCOD8232587
_publ_section_title
;
Structure prediction by ZEFSAII (Michael W. Deem and Ramdas Pophale) SiO2 
 PCOD8232587
Probable space group: P B C M
;
_chemical_formula_sum "Si O2"
_cell_formula_units_Z 64
_cell_length_a 11.919607
_cell_length_b 31.783700
_cell_length_c 8.503135
_cell_angle_alpha 90.000000
_cell_angle_beta 90.000000
_cell_angle_gamma 90.000000
_cell_volume 3221.406003
_symmetry_space_group_name_H-M "P B C M"
_symmetry_group_IT_number 57
_symmetry_cell_setting 'orthorhombic'
loop_
_space_group_symop_operation_xyz
x,y,z
-x,-y,1/2+z
x,1/2-y,-z
-x,1/2+y,1/2-z
-x,-y,-z
x,y,1/2-z
-x,1/2+y,z
x,1/2-y,1/2+z
loop_
_atom_site_type_symbol
_atom_site_label
_atom_site_fract_x
_atom_site_fract_y
_atom_site_fract_z
Si Si1 0.252098 0.929641 0.568569
Si Si2 0.946682 0.126577 0.430825
Si Si3 0.154525 0.412976 0.430765
Si Si4 0.515620 0.047874 0.564235
Si Si5 0.636435 0.619873 0.431651
Si Si6 0.122213 0.496323 0.931705
Si Si7 0.943184 0.705954 0.564968
Si Si8 0.684228 0.795069 0.064689
O O1 0.244895 0.944191 0.750000
O O2 0.380395 0.927609 0.515375
O O3 0.192450 0.961957 0.452946
O O4 0.185002 0.885537 0.545069
O O5 0.980385 0.122114 0.250000
O O6 0.024029 0.094146 0.528440
O O7 0.970358 0.173219 0.489812
O O8 0.177493 0.401752 0.250000
O O9 0.230173 0.382902 0.538848
O O10 0.187027 0.460815 0.469098
O O11 0.531659 0.044058 0.750000
O O12 0.415000 0.080154 0.526384
O O13 0.500000 0.000000 0.500000
O O14 0.603286 0.615903 0.250000
O O15 0.606899 0.667035 0.493568
O O16 0.116539 0.483564 0.750000
O O17 0.000000 0.500000 0.000000
O O18 0.985981 0.750000 0.500000
O O19 0.955513 0.703751 0.750000
O O20 0.814237 0.698097 0.514625
O O21 0.669373 0.795206 0.250000
O O22 0.641506 0.750000 0.000000
#
# Coordination Sequence:
#
# PCOD8232587 Si02
#       8
#     8   8   8   8   8   8   8   8
#     4  11  24  42  62  87 119 156 201 249 300 360
#     4  11  22  36  58  86 121 157 196 243 298 359
#     4  12  23  36  55  83 119 156 198 244 296 356
#     4  12  26  46  68  90 120 160 211 263 315 374
#     4  12  24  40  63  89 122 162 205 254 310 367
#     4  12  23  36  54  80 114 153 194 240 293 347
#     4  10  20  34  56  85 125 164 202 244 298 363
#     4  10  20  35  57  90 127 164 203 251 308 368
#
# _framework density 19.867101000000002
#
# number of rings (size 3 to 8) (size 9 to 14) (size 15 to 20)
#    0.000    0.750    2.500    6.750    0.000    2.500 
#    0.000    0.000    0.000    0.750    0.000    1.750 
#    0.000    0.000    0.000    0.000    0.000    0.000 
#
# Total GULP energy -793460.196580 kJ/mol
# GULP energy per Si atom -12397.815572 kJ/mol
# Density = 1.982188 g / cm^3
# Si number density = 19.867101 Si / 1000 Ang^3
#
#
#
# Elastic Constant Matrix: (Units=GPa)
#
#
# Indices 1 2 3 4 5 6 
#
# 1 64.9419 31.7186 23.6990 0.0000 0.0000 0.0000
# 2 31.7186 149.2509 44.2481 0.0000 0.0000 0.0000
# 3 23.6990 44.2481 104.9764 0.0000 0.0000 0.0000
# 4 0.0000 0.0000 0.0000 35.2795 0.0000 0.0000
# 5 0.0000 0.0000 0.0000 0.0000 29.2686 0.0000
# 6 0.0000 0.0000 0.0000 0.0000 0.0000 30.8109
#
#
#
# Elastic Compliance Matrix: (Units=1/GPa)
#
#
# Indices 1 2 3 4 5 6 
#
# 1 0.017865 -0.002972 -0.002780 0.000000 0.000000 0.000000
# 2 -0.002972 0.008152 -0.002765 0.000000 0.000000 0.000000
# 3 -0.002780 -0.002765 0.011319 0.000000 0.000000 0.000000
# 4 0.000000 0.000000 0.000000 0.028345 0.000000 0.000000
# 5 0.000000 0.000000 0.000000 0.000000 0.034166 0.000000
# 6 0.000000 0.000000 0.000000 0.000000 0.000000 0.032456
#
#
# Mechanical properties :
#
#
# Convention : Reuss Voigt Hill
#
# Bulk Modulus (GPa) = 49.26022 57.61120 53.43571
# Shear Modulus (GPa) = 32.02988 33.70537 32.86762
#
# Velocity S-wave (km/s) = 4.01959 4.12338 4.07181
# Velocity P-wave (km/s) = 6.81113 7.19242 7.00437
#
# Compressibility (1/GPa) = 0.02030036
#
# Stress axis : x y z
#
# Youngs Moduli (GPa) = 55.97636 122.67679 88.34700
#
# Poissons Ratio (x) = 0.36464 0.24562
# Poissons Ratio (y) = 0.16638 0.24427
# Poissons Ratio (z) = 0.15563 0.33919
#
# Static dielectric constant tensor:
#      x y z
#    x 3.903310 0.000000 0.000000 
#    y 0.000000 4.060410 0.000000 
#    z 0.000000 0.000000 2.830420 
# 
# 
# High freq. dielectric constant tensor:
#      x y z
#    x 1.742120 0.000000 0.000000 
#    y 0.000000 1.782400 0.000000 
#    z 0.000000 0.000000 1.790640 
# 
# From -- ./inp_files/3784.got.cif
#   From: 2010.03.12/outbox.cif.g09.slc.cpg/sg57_2_cif.got.tgz:3784.got - 2010.04.16 15:48:40.
