data_PCOD8232409
_publ_section_title
;
Structure prediction by ZEFSAII (Michael W. Deem and Ramdas Pophale) SiO2 
 PCOD8232409
Probable space group: P B C M
;
_chemical_formula_sum "Si O2"
_cell_formula_units_Z 48
_cell_length_a 9.914189
_cell_length_b 30.235021
_cell_length_c 8.775415
_cell_angle_alpha 90.000000
_cell_angle_beta 90.000000
_cell_angle_gamma 90.000000
_cell_volume 2630.480777
_symmetry_space_group_name_H-M "P B C M"
_symmetry_group_IT_number 57
_symmetry_cell_setting 'orthorhombic'
loop_
_space_group_symop_operation_xyz
x,y,z
-x,-y,1/2+z
x,1/2-y,-z
-x,1/2+y,1/2-z
-x,-y,-z
x,y,1/2-z
-x,1/2+y,z
x,1/2-y,1/2+z
loop_
_atom_site_type_symbol
_atom_site_label
_atom_site_fract_x
_atom_site_fract_y
_atom_site_fract_z
Si Si1 0.649592 0.116021 0.428893
Si Si2 0.346877 0.292522 0.416943
Si Si3 0.333167 0.793518 0.420377
Si Si4 0.361470 0.110732 0.932173
Si Si5 0.137864 0.946244 0.425302
Si Si6 0.858592 0.950582 0.926082
O O1 0.619334 0.117106 0.250000
O O2 0.706282 0.163586 0.481663
O O3 0.515048 0.102758 0.518963
O O4 0.760747 0.079562 0.466026
O O5 0.282553 0.250000 0.500000
O O6 0.283640 0.290972 0.250000
O O7 0.507037 0.288264 0.411384
O O8 0.311970 0.340456 0.489812
O O9 0.270273 0.750000 0.500000
O O10 0.273259 0.798190 0.250000
O O11 0.353150 0.107257 0.750000
O O12 0.272339 0.074024 0.012369
O O13 0.156529 0.931827 0.250000
O O14 0.986309 0.934787 0.476281
O O15 0.168346 0.997730 0.448935
O O16 0.884040 0.939026 0.750000
#
# Coordination Sequence:
#
# PCOD8232409 Si02
#       6
#     8   8   8   8   8   8
#     4  11  21  33  52  79 108 138 175 218 261 305
#     4   8  15  26  43  68  98 132 167 203 245 295
#     4   9  16  28  46  71 103 137 172 210 255 306
#     4  10  20  34  52  77 108 139 172 213 262 309
#     4  10  21  38  57  76 102 136 172 212 260 316
#     4  10  21  37  57  79 101 132 174 214 258 315
#
# _framework density 18.247615
#
# number of rings (size 3 to 8) (size 9 to 14) (size 15 to 20)
#    0.000    2.333    0.000    4.500    0.000    7.333 
#    0.000    0.000    0.000    1.000    0.000    4.667 
#    0.000    0.000    0.000    0.000    0.000    0.000 
#
# Total GULP energy -595115.956057 kJ/mol
# GULP energy per Si atom -12398.249085 kJ/mol
# Density = 1.820608 g / cm^3
# Si number density = 18.247615 Si / 1000 Ang^3
#
#
#
# Elastic Constant Matrix: (Units=GPa)
#
#
# Indices 1 2 3 4 5 6 
#
# 1 46.8315 44.5274 9.0354 0.0000 0.0000 0.0000
# 2 44.5274 89.7991 40.9724 0.0000 0.0000 0.0000
# 3 9.0354 40.9724 81.7685 0.0000 0.0000 0.0000
# 4 0.0000 0.0000 0.0000 34.2650 0.0000 0.0000
# 5 0.0000 0.0000 0.0000 0.0000 25.9567 0.0000
# 6 0.0000 0.0000 0.0000 0.0000 0.0000 -1.5466
#
#
#
# Elastic Compliance Matrix: (Units=1/GPa)
#
#
# Indices 1 2 3 4 5 6 
#
# 1 0.043986 -0.025400 0.007867 0.000000 0.000000 0.000000
# 2 -0.025400 0.029104 -0.011777 0.000000 0.000000 0.000000
# 3 0.007867 -0.011777 0.017261 0.000000 0.000000 0.000000
# 4 0.000000 0.000000 0.000000 0.029184 0.000000 0.000000
# 5 0.000000 0.000000 0.000000 0.000000 0.038526 0.000000
# 6 0.000000 0.000000 0.000000 0.000000 0.000000 -0.646570
#
#
# Mechanical properties :
#
#
# Convention : Reuss Voigt Hill
#
# Bulk Modulus (GPa) = 31.51427 45.27441 38.39434
# Shear Modulus (GPa) = -11.92430 19.99260 4.03415
#
# Velocity S-wave (km/s) = -2.55908 3.31362 1.48848
# Velocity P-wave (km/s) = 2.92848 6.28531 4.90311
#
# Compressibility (1/GPa) = 0.03173165
#
# Stress axis : x y z
#
# Youngs Moduli (GPa) = 22.73466 34.35951 57.93278
#
# Poissons Ratio (x) = 0.87273 -0.45576
# Poissons Ratio (y) = 0.57746 0.68226
# Poissons Ratio (z) = -0.17885 0.40464
#
# Static dielectric constant tensor:
#      x y z
#    x 2.936340 0.000000 0.000000 
#    y 0.000000 3.582290 0.000000 
#    z 0.000000 0.000000 3.564860 
# 
# 
# High freq. dielectric constant tensor:
#      x y z
#    x 1.661960 0.000000 0.000000 
#    y 0.000000 1.718590 0.000000 
#    z 0.000000 0.000000 1.721080 
# 
# From -- ./inp_files/2089.got.cif
#   From: 2010.03.12/outbox.cif.g09.slc.cpg/sg57_2_cif.got.tgz:2089.got - 2010.04.16 15:48:40.
