data_PCOD8232774
_publ_section_title
;
Structure prediction by ZEFSAII (Michael W. Deem and Ramdas Pophale) SiO2 
 PCOD8232774
Probable space group: P B C M
;
_chemical_formula_sum "Si O2"
_cell_formula_units_Z 40
_cell_length_a 12.611543
_cell_length_b 18.357794
_cell_length_c 8.688215
_cell_angle_alpha 90.000000
_cell_angle_beta 90.000000
_cell_angle_gamma 90.000000
_cell_volume 2011.496479
_symmetry_space_group_name_H-M "P B C M"
_symmetry_group_IT_number 57
_symmetry_cell_setting 'orthorhombic'
loop_
_space_group_symop_operation_xyz
x,y,z
-x,-y,1/2+z
x,1/2-y,-z
-x,1/2+y,1/2-z
-x,-y,-z
x,y,1/2-z
-x,1/2+y,z
x,1/2-y,1/2+z
loop_
_atom_site_type_symbol
_atom_site_label
_atom_site_fract_x
_atom_site_fract_y
_atom_site_fract_z
Si Si1 0.319537 0.071678 0.932587
Si Si2 0.134763 0.326609 0.068802
Si Si3 0.705143 0.408481 0.567257
Si Si4 0.105918 0.672278 0.567857
Si Si5 0.510302 0.172134 0.567349
O O1 0.316876 0.071272 0.750000
O O2 0.213497 0.111284 0.995449
O O3 0.423457 0.113970 0.991891
O O4 0.322719 0.989219 0.994679
O O5 0.144512 0.319237 0.250000
O O6 0.014840 0.346268 0.020306
O O7 0.171247 0.250000 0.000000
O O8 0.699938 0.403684 0.750000
O O9 0.822669 0.389722 0.509276
O O10 0.624474 0.350966 0.494946
O O11 0.140100 0.750000 0.500000
O O12 0.122353 0.673335 0.750000
O O13 0.478221 0.250000 0.500000
O O14 0.513672 0.177022 0.750000
#
# Coordination Sequence:
#
# PCOD8232774 Si02
#       5
#     8   8   8   8   8
#     4   9  20  37  57  81 110 142 175 219 271 321
#     4   9  18  35  57  81 109 141 179 221 266 316
#     4  11  22  37  56  79 110 145 180 219 267 318
#     4  10  20  35  56  81 109 142 181 223 265 314
#     4  11  22  38  59  82 108 139 179 222 267 319
#
# _framework density 19.885691999999999
#
# number of rings (size 3 to 8) (size 9 to 14) (size 15 to 20)
#    0.000    2.000    0.000    3.600    0.000    1.600 
#    0.000    6.000    0.000    0.000    0.000    0.000 
#    0.000    0.000    0.000    0.000    0.000    0.000 
#
# Total GULP energy -496141.805849 kJ/mol
# GULP energy per Si atom -12403.545146 kJ/mol
# Density = 1.984043 g / cm^3
# Si number density = 19.885692 Si / 1000 Ang^3
#
#
#
# Elastic Constant Matrix: (Units=GPa)
#
#
# Indices 1 2 3 4 5 6 
#
# 1 97.8714 38.0540 23.8982 0.0000 0.0000 0.0000
# 2 38.0540 102.6395 28.6149 0.0000 0.0000 0.0000
# 3 23.8982 28.6149 58.9531 0.0000 0.0000 0.0000
# 4 0.0000 0.0000 0.0000 26.8799 0.0000 0.0000
# 5 0.0000 0.0000 0.0000 0.0000 17.2342 0.0000
# 6 0.0000 0.0000 0.0000 0.0000 0.0000 40.5032
#
#
#
# Elastic Compliance Matrix: (Units=1/GPa)
#
#
# Indices 1 2 3 4 5 6 
#
# 1 0.012454 -0.003712 -0.003247 0.000000 0.000000 0.000000
# 2 -0.003712 0.012374 -0.004501 0.000000 0.000000 0.000000
# 3 -0.003247 -0.004501 0.020464 0.000000 0.000000 0.000000
# 4 0.000000 0.000000 0.000000 0.037203 0.000000 0.000000
# 5 0.000000 0.000000 0.000000 0.000000 0.058024 0.000000
# 6 0.000000 0.000000 0.000000 0.000000 0.000000 0.024689
#
#
# Mechanical properties :
#
#
# Convention : Reuss Voigt Hill
#
# Bulk Modulus (GPa) = 44.70047 48.95534 46.82790
# Shear Modulus (GPa) = 25.56440 28.18325 26.87382
#
# Velocity S-wave (km/s) = 3.58937 3.76874 3.68015
# Velocity P-wave (km/s) = 6.30124 6.60376 6.45427
#
# Compressibility (1/GPa) = 0.02237113
#
# Stress axis : x y z
#
# Youngs Moduli (GPa) = 80.29829 80.81429 48.86722
#
# Poissons Ratio (x) = 0.29999 0.15865
# Poissons Ratio (y) = 0.29807 0.21997
# Poissons Ratio (z) = 0.26070 0.36378
#
# Static dielectric constant tensor:
#      x y z
#    x 3.820340 0.000000 0.000000 
#    y 0.000000 3.796840 0.000000 
#    z 0.000000 0.000000 3.417700 
# 
# 
# High freq. dielectric constant tensor:
#      x y z
#    x 1.789640 0.000000 0.000000 
#    y 0.000000 1.778810 0.000000 
#    z 0.000000 0.000000 1.761950 
# 
# From -- ./inp_files/2632.got.cif
#   From: 2010.03.12/outbox.cif.g09.slc.cpg/sg57_2_cif.got.tgz:2632.got - 2010.04.16 15:48:40.
