data_PCOD8232502
_publ_section_title
;
Structure prediction by ZEFSAII (Michael W. Deem and Ramdas Pophale) SiO2 
 PCOD8232502
Probable space group: P B C M
;
_chemical_formula_sum "Si O2"
_cell_formula_units_Z 60
_cell_length_a 25.780978
_cell_length_b 5.003550
_cell_length_c 23.175212
_cell_angle_alpha 90.000000
_cell_angle_beta 90.000000
_cell_angle_gamma 90.000000
_cell_volume 2989.519206
_symmetry_space_group_name_H-M "P B C M"
_symmetry_group_IT_number 57
_symmetry_cell_setting 'orthorhombic'
loop_
_space_group_symop_operation_xyz
x,y,z
-x,-y,1/2+z
x,1/2-y,-z
-x,1/2+y,1/2-z
-x,-y,-z
x,y,1/2-z
-x,1/2+y,z
x,1/2-y,1/2+z
loop_
_atom_site_type_symbol
_atom_site_label
_atom_site_fract_x
_atom_site_fract_y
_atom_site_fract_z
Si Si1 0.532092 0.660674 0.181981
Si Si2 0.329583 0.643241 0.437819
Si Si3 0.124449 0.997860 0.538450
Si Si4 0.964700 0.543652 0.873579
Si Si5 0.966895 0.851012 0.250000
Si Si6 0.220912 0.668300 0.114619
Si Si7 0.357577 0.355956 0.872246
Si Si8 0.249631 0.325748 0.683546
O O1 0.538955 0.671984 0.250000
O O2 0.508508 0.382524 0.160528
O O3 0.588012 0.714408 0.155724
O O4 0.345757 0.750000 0.500000
O O5 0.267662 0.648166 0.431009
O O6 0.349204 0.341880 0.426828
O O7 0.357087 0.837092 0.391798
O O8 0.143401 0.250000 0.500000
O O9 0.077083 0.100273 0.577296
O O10 0.105250 0.750000 0.500000
O O11 0.169445 0.885890 0.578996
O O12 0.937189 0.580723 0.810078
O O13 0.987323 0.246772 0.879919
O O14 0.981390 0.537992 0.250000
O O15 0.226678 0.461034 0.166968
O O16 0.220413 0.960850 0.143049
O O17 0.311638 0.318045 0.825899
O O18 0.237833 0.387597 0.750000
#
# Coordination Sequence:
#
# PCOD8232502 Si02
#       8
#     8   8   8   8   4   8   8   8
#     4  10  20  34  54  80 110 143 179 220 276 342
#     4  10  20  35  57  80 104 145 191 235 272 328
#     4  12  25  40  61  86 122 157 194 241 289 345
#     4  10  21  39  62  87 116 150 197 239 289 340
#     4   8  16  34  58  80 108 144 184 236 274 328
#     4  10  22  38  57  84 117 150 192 228 290 342
#     4  10  20  34  56  82 110 143 184 234 280 330
#     4  10  20  37  59  85 118 148 185 236 288 348
#
# _framework density 20.070118999999998
#
# number of rings (size 3 to 8) (size 9 to 14) (size 15 to 20)
#    0.000    1.867    0.000    4.000    0.000    3.733 
#    2.400    4.000    2.933    8.000    0.000    0.000 
#    0.000    0.000    0.000    0.000    0.000    0.000 
#
# Total GULP energy -744025.992037 kJ/mol
# GULP energy per Si atom -12400.433201 kJ/mol
# Density = 2.002444 g / cm^3
# Si number density = 20.070119 Si / 1000 Ang^3
#
#
#
# Elastic Constant Matrix: (Units=GPa)
#
#
# Indices 1 2 3 4 5 6 
#
# 1 72.5603 16.3046 42.6389 0.0000 0.0000 0.0000
# 2 16.3046 67.5821 17.7955 0.0000 0.0000 0.0000
# 3 42.6389 17.7955 90.0427 0.0000 0.0000 0.0000
# 4 0.0000 0.0000 0.0000 22.3743 0.0000 0.0000
# 5 0.0000 0.0000 0.0000 0.0000 18.5801 0.0000
# 6 0.0000 0.0000 0.0000 0.0000 0.0000 18.7994
#
#
#
# Elastic Compliance Matrix: (Units=1/GPa)
#
#
# Indices 1 2 3 4 5 6 
#
# 1 0.019455 -0.002392 -0.008740 0.000000 0.000000 0.000000
# 2 -0.002392 0.015903 -0.002010 0.000000 0.000000 0.000000
# 3 -0.008740 -0.002010 0.015642 0.000000 0.000000 0.000000
# 4 0.000000 0.000000 0.000000 0.044694 0.000000 0.000000
# 5 0.000000 0.000000 0.000000 0.000000 0.053821 0.000000
# 6 0.000000 0.000000 0.000000 0.000000 0.000000 0.053193
#
#
# Mechanical properties :
#
#
# Convention : Reuss Voigt Hill
#
# Bulk Modulus (GPa) = 40.46070 42.62924 41.54497
# Shear Modulus (GPa) = 21.07641 22.18049 21.62845
#
# Velocity S-wave (km/s) = 3.24410 3.32799 3.28631
# Velocity P-wave (km/s) = 5.85113 6.00446 5.92829
#
# Compressibility (1/GPa) = 0.02471534
#
# Stress axis : x y z
#
# Youngs Moduli (GPa) = 51.40035 62.88005 63.93090
#
# Poissons Ratio (x) = 0.15043 0.55876
# Poissons Ratio (y) = 0.12296 0.12851
# Poissons Ratio (z) = 0.44924 0.12640
#
# Static dielectric constant tensor:
#      x y z
#    x 3.324990 0.000000 0.000000 
#    y 0.000000 3.836460 0.000000 
#    z 0.000000 0.000000 3.622890 
# 
# 
# High freq. dielectric constant tensor:
#      x y z
#    x 1.757110 0.000000 0.000000 
#    y 0.000000 1.805180 0.000000 
#    z 0.000000 0.000000 1.782070 
# 
# From -- ./inp_files/25878.got.cif
#   From: 2010.03.12/outbox.cif.g09.slc.cpg/sg57_13_cif.got.tgz:25878.got - 2010.04.16 15:48:40.
