data_PCOD8232186
_publ_section_title
;
Structure prediction by ZEFSAII (Michael W. Deem and Ramdas Pophale) SiO2 
 PCOD8232186
Probable space group: P B C M
;
_chemical_formula_sum "Si O2"
_cell_formula_units_Z 64
_cell_length_a 15.869866
_cell_length_b 24.729353
_cell_length_c 9.103279
_cell_angle_alpha 90.000000
_cell_angle_beta 90.000000
_cell_angle_gamma 90.000000
_cell_volume 3572.595666
_symmetry_space_group_name_H-M "P B C M"
_symmetry_group_IT_number 57
_symmetry_cell_setting 'orthorhombic'
loop_
_space_group_symop_operation_xyz
x,y,z
-x,-y,1/2+z
x,1/2-y,-z
-x,1/2+y,1/2-z
-x,-y,-z
x,y,1/2-z
-x,1/2+y,z
x,1/2-y,1/2+z
loop_
_atom_site_type_symbol
_atom_site_label
_atom_site_fract_x
_atom_site_fract_y
_atom_site_fract_z
Si Si1 0.650253 0.591671 0.922232
Si Si2 0.102075 0.695060 0.417911
Si Si3 0.018218 0.446145 0.086595
Si Si4 0.477741 0.553424 0.918541
Si Si5 0.835258 0.399863 0.087749
Si Si6 0.084456 0.350047 0.579296
Si Si7 0.243722 0.304716 0.425872
Si Si8 0.302343 0.519042 0.578345
O O1 0.665448 0.585072 0.750000
O O2 0.549254 0.598113 0.961286
O O3 0.696441 0.645846 0.977202
O O4 0.688985 0.537990 0.995909
O O5 0.119883 0.750000 0.500000
O O6 0.124810 0.703636 0.250000
O O7 0.168414 0.651254 0.480153
O O8 0.005489 0.678040 0.438998
O O9 0.055430 0.457853 0.250000
O O10 0.931701 0.415089 0.103238
O O11 0.000000 0.500000 0.000000
O O12 0.083532 0.409750 0.993572
O O13 0.489696 0.540058 0.750000
O O14 0.378699 0.562767 0.953291
O O15 0.500000 0.500000 0.000000
O O16 0.799715 0.384703 0.250000
O O17 0.781365 0.450030 0.022769
O O18 0.110268 0.355310 0.750000
O O19 0.150657 0.313995 0.490344
O O20 0.279846 0.250000 0.500000
O O21 0.239641 0.298432 0.250000
O O22 0.296674 0.504778 0.750000
#
# Coordination Sequence:
#
# PCOD8232186 Si02
#       8
#     8   8   8   8   8   8   8   8
#     4   9  19  33  50  74 102 133 166 204 253 303
#     4  10  20  34  53  73  94 126 165 207 251 296
#     4  10  20  33  48  69 102 139 173 209 252 303
#     4   8  14  28  49  73 100 127 157 193 236 291
#     4   9  19  33  48  72 101 130 164 204 247 294
#     4  10  21  36  53  73  96 129 172 215 259 303
#     4  11  23  37  52  74 101 134 174 216 259 305
#     4   9  17  30  52  79 104 132 165 203 251 301
#
# _framework density 17.914147
#
# number of rings (size 3 to 8) (size 9 to 14) (size 15 to 20)
#    0.000    2.500    0.000    1.875    1.750    4.500 
#    0.000    0.000    0.000    0.750    0.000    1.750 
#    0.000    0.000    0.000    0.000    0.000    0.000 
#
# Total GULP energy -792989.576539 kJ/mol
# GULP energy per Si atom -12390.462133 kJ/mol
# Density = 1.787337 g / cm^3
# Si number density = 17.914147 Si / 1000 Ang^3
#
#
#
# Elastic Constant Matrix: (Units=GPa)
#
#
# Indices 1 2 3 4 5 6 
#
# 1 56.3208 34.8437 28.0585 0.0000 0.0000 0.0000
# 2 34.8437 125.6955 58.4659 0.0000 0.0000 0.0000
# 3 28.0585 58.4659 89.1936 0.0000 0.0000 0.0000
# 4 0.0000 0.0000 0.0000 32.9793 0.0000 0.0000
# 5 0.0000 0.0000 0.0000 0.0000 19.0463 0.0000
# 6 0.0000 0.0000 0.0000 0.0000 0.0000 21.3622
#
#
#
# Elastic Compliance Matrix: (Units=1/GPa)
#
#
# Indices 1 2 3 4 5 6 
#
# 1 0.022524 -0.004241 -0.004306 0.000000 0.000000 0.000000
# 2 -0.004241 0.012244 -0.006692 0.000000 0.000000 0.000000
# 3 -0.004306 -0.006692 0.016952 0.000000 0.000000 0.000000
# 4 0.000000 0.000000 0.000000 0.030322 0.000000 0.000000
# 5 0.000000 0.000000 0.000000 0.000000 0.052504 0.000000
# 6 0.000000 0.000000 0.000000 0.000000 0.000000 0.046812
#
#
# Mechanical properties :
#
#
# Convention : Reuss Voigt Hill
#
# Bulk Modulus (GPa) = 47.07275 57.10514 52.08895
# Shear Modulus (GPa) = 22.83979 24.66702 23.75340
#
# Velocity S-wave (km/s) = 3.57453 3.71476 3.64532
# Velocity P-wave (km/s) = 6.58561 7.09546 6.84529
#
# Compressibility (1/GPa) = 0.02124371
#
# Stress axis : x y z
#
# Youngs Moduli (GPa) = 44.39649 81.67282 58.98877
#
# Poissons Ratio (x) = 0.34639 0.25398
# Poissons Ratio (y) = 0.18829 0.39473
# Poissons Ratio (z) = 0.19115 0.54653
#
# Static dielectric constant tensor:
#      x y z
#    x 4.084400 0.000000 0.000000 
#    y 0.000000 4.197560 0.000000 
#    z 0.000000 0.000000 3.774760 
# 
# 
# High freq. dielectric constant tensor:
#      x y z
#    x 1.680690 0.000000 0.000000 
#    y 0.000000 1.677020 0.000000 
#    z 0.000000 0.000000 1.702440 
# 
# From -- ./inp_files/5661.got.cif
#   From: 2010.03.12/outbox.cif.g09.slc.cpg/sg57_3_cif.got.tgz:5661.got - 2010.04.16 15:48:40.
