data_PCOD8232666
_publ_section_title
;
Structure prediction by ZEFSAII (Michael W. Deem and Ramdas Pophale) SiO2 
 PCOD8232666
Probable space group: P B C M
;
_chemical_formula_sum "Si O2"
_cell_formula_units_Z 40
_cell_length_a 16.332364
_cell_length_b 14.427669
_cell_length_c 8.821764
_cell_angle_alpha 90.000000
_cell_angle_beta 90.000000
_cell_angle_gamma 90.000000
_cell_volume 2078.742312
_symmetry_space_group_name_H-M "P B C M"
_symmetry_group_IT_number 57
_symmetry_cell_setting 'orthorhombic'
loop_
_space_group_symop_operation_xyz
x,y,z
-x,-y,1/2+z
x,1/2-y,-z
-x,1/2+y,1/2-z
-x,-y,-z
x,y,1/2-z
-x,1/2+y,z
x,1/2-y,1/2+z
loop_
_atom_site_type_symbol
_atom_site_label
_atom_site_fract_x
_atom_site_fract_y
_atom_site_fract_z
Si Si1 0.981223 0.851478 0.071814
Si Si2 0.120479 0.505787 0.927080
Si Si3 0.290010 0.517247 0.076047
Si Si4 0.398495 0.154180 0.924990
Si Si5 0.434906 0.650851 0.070292
O O1 0.972280 0.839282 0.250000
O O2 0.983772 0.750000 0.000000
O O3 0.904226 0.911121 0.012555
O O4 0.062981 0.907873 0.025978
O O5 0.114130 0.485812 0.750000
O O6 0.211821 0.534358 0.971770
O O7 0.266316 0.537377 0.250000
O O8 0.321685 0.412997 0.055085
O O9 0.361574 0.584653 0.019430
O O10 0.420477 0.170245 0.750000
O O11 0.371521 0.250000 0.000000
O O12 0.479361 0.112353 0.004886
O O13 0.442117 0.656592 0.250000
O O14 0.415526 0.750000 0.000000
#
# Coordination Sequence:
#
# PCOD8232666 Si02
#       5
#     8   8   8   8   8
#     4  10  21  39  62  85 111 144 180 220 270 326
#     4  10  22  38  58  85 113 143 181 224 270 324
#     4  10  22  37  54  78 111 146 179 222 273 322
#     4  10  20  35  54  77 105 141 183 225 270 319
#     4  10  20  35  54  77 106 143 184 226 272 320
#
# _framework density 19.242405999999999
#
# number of rings (size 3 to 8) (size 9 to 14) (size 15 to 20)
#    0.000    2.000    0.000    4.200    0.000    7.200 
#    0.000    6.000    0.000    0.000    0.000    0.000 
#    0.000    0.000    0.000    0.000    0.000    0.000 
#
# Total GULP energy -496103.276115 kJ/mol
# GULP energy per Si atom -12402.581903 kJ/mol
# Density = 1.919861 g / cm^3
# Si number density = 19.242406 Si / 1000 Ang^3
#
#
#
# Elastic Constant Matrix: (Units=GPa)
#
#
# Indices 1 2 3 4 5 6 
#
# 1 65.3321 7.3915 21.1418 0.0000 0.0000 0.0000
# 2 7.3915 73.7911 28.4140 0.0000 0.0000 0.0000
# 3 21.1418 28.4140 85.6603 0.0000 0.0000 0.0000
# 4 0.0000 0.0000 0.0000 31.4376 0.0000 0.0000
# 5 0.0000 0.0000 0.0000 0.0000 36.4599 0.0000
# 6 0.0000 0.0000 0.0000 0.0000 0.0000 17.8215
#
#
#
# Elastic Compliance Matrix: (Units=1/GPa)
#
#
# Indices 1 2 3 4 5 6 
#
# 1 0.016636 -0.000098 -0.004073 0.000000 0.000000 0.000000
# 2 -0.000098 0.015537 -0.005129 0.000000 0.000000 0.000000
# 3 -0.004073 -0.005129 0.014381 0.000000 0.000000 0.000000
# 4 0.000000 0.000000 0.000000 0.031809 0.000000 0.000000
# 5 0.000000 0.000000 0.000000 0.000000 0.027427 0.000000
# 6 0.000000 0.000000 0.000000 0.000000 0.000000 0.056112
#
#
# Mechanical properties :
#
#
# Convention : Reuss Voigt Hill
#
# Bulk Modulus (GPa) = 35.77588 37.63090 36.70339
# Shear Modulus (GPa) = 26.34069 28.33287 27.33678
#
# Velocity S-wave (km/s) = 3.70386 3.84137 3.77324
# Velocity P-wave (km/s) = 6.07651 6.26686 6.17242
#
# Compressibility (1/GPa) = 0.02795179
#
# Stress axis : x y z
#
# Youngs Moduli (GPa) = 60.11183 64.36367 69.53694
#
# Poissons Ratio (x) = 0.00630 0.28325
# Poissons Ratio (y) = 0.00588 0.35669
# Poissons Ratio (z) = 0.24486 0.33015
#
# Static dielectric constant tensor:
#      x y z
#    x 3.472580 0.000000 0.000000 
#    y 0.000000 3.590200 0.000000 
#    z 0.000000 0.000000 3.571160 
# 
# 
# High freq. dielectric constant tensor:
#      x y z
#    x 1.746290 0.000000 0.000000 
#    y 0.000000 1.752980 0.000000 
#    z 0.000000 0.000000 1.759640 
# 
# From -- ./inp_files/4265.got.cif
#   From: 2010.03.12/outbox.cif.g09.slc.cpg/sg57_3_cif.got.tgz:4265.got - 2010.04.16 15:48:40.
