data_PCOD8232807
_publ_section_title
;
Structure prediction by ZEFSAII (Michael W. Deem and Ramdas Pophale) SiO2 
 PCOD8232807
Probable space group: P B C M
;
_chemical_formula_sum "Si O2"
_cell_formula_units_Z 48
_cell_length_a 16.125110
_cell_length_b 18.383062
_cell_length_c 8.621239
_cell_angle_alpha 90.000000
_cell_angle_beta 90.000000
_cell_angle_gamma 90.000000
_cell_volume 2555.584367
_symmetry_space_group_name_H-M "P B C M"
_symmetry_group_IT_number 57
_symmetry_cell_setting 'orthorhombic'
loop_
_space_group_symop_operation_xyz
x,y,z
-x,-y,1/2+z
x,1/2-y,-z
-x,1/2+y,1/2-z
-x,-y,-z
x,y,1/2-z
-x,1/2+y,z
x,1/2-y,1/2+z
loop_
_atom_site_type_symbol
_atom_site_label
_atom_site_fract_x
_atom_site_fract_y
_atom_site_fract_z
Si Si1 0.984186 0.327668 0.068492
Si Si2 0.831924 0.398854 0.927302
Si Si3 0.842037 0.829474 0.566230
Si Si4 0.738898 0.544130 0.570803
Si Si5 0.416534 0.532163 0.932613
Si Si6 0.339102 0.671692 0.066717
O O1 0.001043 0.320263 0.250000
O O2 0.957719 0.250000 0.000000
O O3 0.910025 0.383647 0.036913
O O4 0.067637 0.357070 0.988251
O O5 0.855392 0.380708 0.750000
O O6 0.809776 0.483249 0.947615
O O7 0.754524 0.349443 0.981874
O O8 0.824380 0.750000 0.500000
O O9 0.838233 0.828321 0.750000
O O10 0.771318 0.881231 0.499890
O O11 0.714902 0.554393 0.750000
O O12 0.657450 0.521585 0.478319
O O13 0.423112 0.537695 0.750000
O O14 0.500000 0.500000 0.000000
O O15 0.402867 0.612928 0.999397
O O16 0.348458 0.671320 0.250000
O O17 0.362442 0.750000 0.000000
#
# Coordination Sequence:
#
# PCOD8232807 Si02
#       6
#     8   8   8   8   8   8
#     4  11  21  33  51  75 107 146 188 231 274 320
#     4   9  19  34  53  78 110 145 182 224 270 323
#     4  11  22  38  58  79 107 144 186 230 276 325
#     4  10  21  39  60  83 110 141 180 225 274 328
#     4  11  22  39  62  87 115 148 183 223 274 330
#     4  10  20  35  56  84 116 150 186 227 275 328
#
# _framework density 18.782397
#
# number of rings (size 3 to 8) (size 9 to 14) (size 15 to 20)
#    0.000    1.667    0.000    8.000    0.000    6.000 
#    0.000    0.833    0.000    0.000    0.000    0.000 
#    0.000    0.000    0.000    0.000    0.000    0.000 
#
# Total GULP energy -595425.956943 kJ/mol
# GULP energy per Si atom -12404.707436 kJ/mol
# Density = 1.873965 g / cm^3
# Si number density = 18.782397 Si / 1000 Ang^3
#
#
#
# Elastic Constant Matrix: (Units=GPa)
#
#
# Indices 1 2 3 4 5 6 
#
# 1 87.6127 67.2087 25.3175 0.0000 0.0000 0.0000
# 2 67.2087 115.6093 46.0610 0.0000 0.0000 0.0000
# 3 25.3175 46.0610 104.2007 0.0000 0.0000 0.0000
# 4 0.0000 0.0000 0.0000 33.8166 0.0000 0.0000
# 5 0.0000 0.0000 0.0000 0.0000 33.0774 0.0000
# 6 0.0000 0.0000 0.0000 0.0000 0.0000 26.8727
#
#
#
# Elastic Compliance Matrix: (Units=1/GPa)
#
#
# Indices 1 2 3 4 5 6 
#
# 1 0.020612 -0.012122 0.000350 0.000000 0.000000 0.000000
# 2 -0.012122 0.017628 -0.004847 0.000000 0.000000 0.000000
# 3 0.000350 -0.004847 0.011654 0.000000 0.000000 0.000000
# 4 0.000000 0.000000 0.000000 0.029571 0.000000 0.000000
# 5 0.000000 0.000000 0.000000 0.000000 0.030232 0.000000
# 6 0.000000 0.000000 0.000000 0.000000 0.000000 0.037212
#
#
# Mechanical properties :
#
#
# Convention : Reuss Voigt Hill
#
# Bulk Modulus (GPa) = 60.03592 64.95525 62.49559
# Shear Modulus (GPa) = 26.92526 30.00903 28.46714
#
# Velocity S-wave (km/s) = 3.79031 4.00149 3.89733
# Velocity P-wave (km/s) = 7.15462 7.48380 7.32106
#
# Compressibility (1/GPa) = 0.01665669
#
# Stress axis : x y z
#
# Youngs Moduli (GPa) = 48.51645 56.72774 85.80521
#
# Poissons Ratio (x) = 0.68766 -0.03007
# Poissons Ratio (y) = 0.58812 0.41590
# Poissons Ratio (z) = -0.01700 0.27496
#
# Static dielectric constant tensor:
#      x y z
#    x 3.364730 0.000000 0.000000 
#    y 0.000000 3.412120 0.000000 
#    z 0.000000 0.000000 3.562630 
# 
# 
# High freq. dielectric constant tensor:
#      x y z
#    x 1.718990 0.000000 0.000000 
#    y 0.000000 1.728790 0.000000 
#    z 0.000000 0.000000 1.746920 
# 
# From -- ./inp_files/4636.got.cif
#   From: 2010.03.12/outbox.cif.g09.slc.cpg/sg57_3_cif.got.tgz:4636.got - 2010.04.16 15:48:40.
