data_PCOD8232765
_publ_section_title
;
Structure prediction by ZEFSAII (Michael W. Deem and Ramdas Pophale) SiO2 
 PCOD8232765
Probable space group: P B C M
;
_chemical_formula_sum "Si O2"
_cell_formula_units_Z 56
_cell_length_a 21.513655
_cell_length_b 15.012538
_cell_length_c 8.592575
_cell_angle_alpha 90.000000
_cell_angle_beta 90.000000
_cell_angle_gamma 90.000000
_cell_volume 2775.183157
_symmetry_space_group_name_H-M "P B C M"
_symmetry_group_IT_number 57
_symmetry_cell_setting 'orthorhombic'
loop_
_space_group_symop_operation_xyz
x,y,z
-x,-y,1/2+z
x,1/2-y,-z
-x,1/2+y,1/2-z
-x,-y,-z
x,y,1/2-z
-x,1/2+y,z
x,1/2-y,1/2+z
loop_
_atom_site_type_symbol
_atom_site_label
_atom_site_fract_x
_atom_site_fract_y
_atom_site_fract_z
Si Si1 0.284479 0.009331 0.930592
Si Si2 0.050975 0.155984 0.066882
Si Si3 0.484246 0.653416 0.567426
Si Si4 0.618198 0.848506 0.434264
Si Si5 0.917774 0.153417 0.934750
Si Si6 0.349726 0.652395 0.566799
Si Si7 0.857907 0.515278 0.569184
O O1 0.298482 0.996145 0.750000
O O2 0.328899 0.086102 0.001816
O O3 0.213877 0.038009 0.960927
O O4 0.297027 0.915083 0.011572
O O5 0.038258 0.164594 0.250000
O O6 0.074802 0.250000 0.000000
O O7 0.102780 0.082686 0.035095
O O8 0.987722 0.126807 0.981904
O O9 0.489115 0.750000 0.500000
O O10 0.481765 0.660961 0.750000
O O11 0.550172 0.608186 0.517694
O O12 0.417926 0.613208 0.510423
O O13 0.628697 0.750000 0.500000
O O14 0.623957 0.840819 0.250000
O O15 0.910946 0.151498 0.750000
O O16 0.900238 0.250000 0.000000
O O17 0.870458 0.084755 0.012926
O O18 0.336425 0.750000 0.500000
O O19 0.346687 0.661112 0.750000
O O20 0.875723 0.525788 0.750000
#
# Coordination Sequence:
#
# PCOD8232765 Si02
#       7
#     8   8   8   8   8   8   8
#     4  10  23  39  55  78 111 150 189 228 273 328
#     4  11  22  39  63  91 119 149 185 228 277 328
#     4   8  15  29  51  78 105 135 175 224 279 333
#     4   9  18  35  56  79 108 142 181 228 280 331
#     4  11  22  39  63  91 118 147 184 229 280 331
#     4  10  20  35  56  80 108 142 182 230 281 334
#     4  11  23  40  58  81 115 154 193 232 276 328
#
# _framework density 20.178849
#
# number of rings (size 3 to 8) (size 9 to 14) (size 15 to 20)
#    0.000    2.000    0.000    4.714    0.000    4.000 
#    0.000    1.429    0.000    0.000    0.000    0.000 
#    0.000    0.000    0.000    0.000    0.000    0.000 
#
# Total GULP energy -694094.859784 kJ/mol
# GULP energy per Si atom -12394.551068 kJ/mol
# Density = 2.013292 g / cm^3
# Si number density = 20.178849 Si / 1000 Ang^3
#
#
#
# Elastic Constant Matrix: (Units=GPa)
#
#
# Indices 1 2 3 4 5 6 
#
# 1 55.5908 16.6079 17.2518 0.0000 0.0000 0.0000
# 2 16.6079 66.1132 9.4162 0.0000 0.0000 0.0000
# 3 17.2518 9.4162 45.7865 0.0000 0.0000 0.0000
# 4 0.0000 0.0000 0.0000 32.3429 0.0000 0.0000
# 5 0.0000 0.0000 0.0000 0.0000 15.7774 0.0000
# 6 0.0000 0.0000 0.0000 0.0000 0.0000 26.6498
#
#
#
# Elastic Compliance Matrix: (Units=1/GPa)
#
#
# Indices 1 2 3 4 5 6 
#
# 1 0.021537 -0.004383 -0.007213 0.000000 0.000000 0.000000
# 2 -0.004383 0.016474 -0.001737 0.000000 0.000000 0.000000
# 3 -0.007213 -0.001737 0.024916 0.000000 0.000000 0.000000
# 4 0.000000 0.000000 0.000000 0.030919 0.000000 0.000000
# 5 0.000000 0.000000 0.000000 0.000000 0.063382 0.000000
# 6 0.000000 0.000000 0.000000 0.000000 0.000000 0.037524
#
#
# Mechanical properties :
#
#
# Convention : Reuss Voigt Hill
#
# Bulk Modulus (GPa) = 27.57813 28.22693 27.90253
# Shear Modulus (GPa) = 21.41306 23.23498 22.32402
#
# Velocity S-wave (km/s) = 3.26108 3.39699 3.32973
# Velocity P-wave (km/s) = 5.27978 5.42262 5.35167
#
# Compressibility (1/GPa) = 0.03626062
#
# Stress axis : x y z
#
# Youngs Moduli (GPa) = 46.43275 60.70221 40.13555
#
# Poissons Ratio (x) = 0.26604 0.28951
# Poissons Ratio (y) = 0.20350 0.06970
# Poissons Ratio (z) = 0.33494 0.10541
#
# Static dielectric constant tensor:
#      x y z
#    x 3.991090 0.000000 0.000000 
#    y 0.000000 3.593810 0.000000 
#    z 0.000000 0.000000 3.604390 
# 
# 
# High freq. dielectric constant tensor:
#      x y z
#    x 1.794890 0.000000 0.000000 
#    y 0.000000 1.779640 0.000000 
#    z 0.000000 0.000000 1.790080 
# 
# From -- ./inp_files/8038.got.cif
#   From: 2010.03.12/outbox.cif.g09.slc.cpg/sg57_5_cif.got.tgz:8038.got - 2010.04.16 15:48:40.
