data_PCOD8232343
_publ_section_title
;
Structure prediction by ZEFSAII (Michael W. Deem and Ramdas Pophale) SiO2 
 PCOD8232343
Probable space group: P B C M
;
_chemical_formula_sum "Si O2"
_cell_formula_units_Z 64
_cell_length_a 12.413607
_cell_length_b 31.465065
_cell_length_c 8.588041
_cell_angle_alpha 90.000000
_cell_angle_beta 90.000000
_cell_angle_gamma 90.000000
_cell_volume 3354.445455
_symmetry_space_group_name_H-M "P B C M"
_symmetry_group_IT_number 57
_symmetry_cell_setting 'orthorhombic'
loop_
_space_group_symop_operation_xyz
x,y,z
-x,-y,1/2+z
x,1/2-y,-z
-x,1/2+y,1/2-z
-x,-y,-z
x,y,1/2-z
-x,1/2+y,z
x,1/2-y,1/2+z
loop_
_atom_site_type_symbol
_atom_site_label
_atom_site_fract_x
_atom_site_fract_y
_atom_site_fract_z
Si Si1 0.816838 0.984960 0.429284
Si Si2 0.815853 0.611907 0.930289
Si Si3 0.574035 0.890768 0.430620
Si Si4 0.196607 0.704061 0.430482
Si Si5 0.825273 0.427960 0.431237
Si Si6 0.353569 0.630116 0.065126
Si Si7 0.401243 0.022568 0.428969
Si Si8 0.022046 0.860044 0.930787
O O1 0.849097 0.988276 0.250000
O O2 0.836135 0.936757 0.492451
O O3 0.691559 0.993237 0.456958
O O4 0.869981 0.024938 0.519359
O O5 0.846868 0.613333 0.750000
O O6 0.693573 0.629819 0.953317
O O7 0.895761 0.642634 0.026034
O O8 0.563507 0.905344 0.250000
O O9 0.469333 0.863554 0.479199
O O10 0.573715 0.928116 0.555365
O O11 0.212992 0.750000 0.500000
O O12 0.211885 0.709642 0.250000
O O13 0.286605 0.671205 0.491762
O O14 0.078478 0.684974 0.471317
O O15 0.800287 0.428209 0.250000
O O16 0.714633 0.412012 0.515391
O O17 0.924171 0.397182 0.468835
O O18 0.369784 0.628746 0.250000
O O19 0.376805 0.010538 0.250000
O O20 0.500000 0.000000 0.500000
O O21 0.039695 0.870785 0.750000
#
# Coordination Sequence:
#
# PCOD8232343 Si02
#       8
#     8   8   8   8   8   8   8   8
#     4  10  20  34  48  67  99 136 179 229 271 309
#     4   9  20  36  53  74 102 140 185 225 261 307
#     4  10  20  34  51  74 103 137 177 215 256 306
#     4   9  20  37  59  87 112 134 162 203 256 314
#     4  11  21  33  51  75 103 139 182 224 272 320
#     4  10  20  35  54  80 111 139 171 212 263 316
#     4  11  20  30  44  64  93 132 177 222 266 307
#     4  10  21  37  56  79 107 137 173 217 265 315
#
# _framework density 19.079159000000001
#
# number of rings (size 3 to 8) (size 9 to 14) (size 15 to 20)
#    0.000    2.000    0.000    6.000    0.000    6.500 
#    0.000    0.000    0.000    0.750    0.000    0.000 
#    0.000    0.000    0.000    0.000    0.000    0.000 
#
# Total GULP energy -792925.316907 kJ/mol
# GULP energy per Si atom -12389.458077 kJ/mol
# Density = 1.903573 g / cm^3
# Si number density = 19.079159 Si / 1000 Ang^3
#
#
#
# Elastic Constant Matrix: (Units=GPa)
#
#
# Indices 1 2 3 4 5 6 
#
# 1 93.8232 21.3706 29.0151 0.0000 0.0000 0.0000
# 2 21.3706 67.2199 23.5042 0.0000 0.0000 0.0000
# 3 29.0151 23.5042 69.4008 0.0000 0.0000 0.0000
# 4 0.0000 0.0000 0.0000 27.2262 0.0000 0.0000
# 5 0.0000 0.0000 0.0000 0.0000 31.8162 0.0000
# 6 0.0000 0.0000 0.0000 0.0000 0.0000 30.0658
#
#
#
# Elastic Compliance Matrix: (Units=1/GPa)
#
#
# Indices 1 2 3 4 5 6 
#
# 1 0.012588 -0.002452 -0.004432 0.000000 0.000000 0.000000
# 2 -0.002452 0.017353 -0.004852 0.000000 0.000000 0.000000
# 3 -0.004432 -0.004852 0.017905 0.000000 0.000000 0.000000
# 4 0.000000 0.000000 0.000000 0.036729 0.000000 0.000000
# 5 0.000000 0.000000 0.000000 0.000000 0.031431 0.000000
# 6 0.000000 0.000000 0.000000 0.000000 0.000000 0.033260
#
#
# Mechanical properties :
#
#
# Convention : Reuss Voigt Hill
#
# Bulk Modulus (GPa) = 41.02825 42.02486 41.52656
# Shear Modulus (GPa) = 27.64541 28.25857 27.95199
#
# Velocity S-wave (km/s) = 3.81068 3.85271 3.83175
# Velocity P-wave (km/s) = 6.39630 6.47036 6.43344
#
# Compressibility (1/GPa) = 0.02437345
#
# Stress axis : x y z
#
# Youngs Moduli (GPa) = 79.44375 57.62835 55.84974
#
# Poissons Ratio (x) = 0.14131 0.24753
# Poissons Ratio (y) = 0.19480 0.27097
# Poissons Ratio (z) = 0.35211 0.27959
#
# Static dielectric constant tensor:
#      x y z
#    x 3.613150 0.000000 0.000000 
#    y 0.000000 1.427180 0.000000 
#    z 0.000000 0.000000 3.566050 
# 
# 
# High freq. dielectric constant tensor:
#      x y z
#    x 1.748080 0.000000 0.000000 
#    y 0.000000 1.699810 0.000000 
#    z 0.000000 0.000000 1.746940 
# 
# From -- ./inp_files/3737.got.cif
#   From: 2010.03.12/outbox.cif.g09.slc.cpg/sg57_2_cif.got.tgz:3737.got - 2010.04.16 15:48:40.
