data_PCOD8232860
_publ_section_title
;
Structure prediction by ZEFSAII (Michael W. Deem and Ramdas Pophale) SiO2 
 PCOD8232860
Probable space group: P B C M
;
_chemical_formula_sum "Si O2"
_cell_formula_units_Z 56
_cell_length_a 14.355213
_cell_length_b 21.947930
_cell_length_c 8.580673
_cell_angle_alpha 90.000000
_cell_angle_beta 90.000000
_cell_angle_gamma 90.000000
_cell_volume 2703.488703
_symmetry_space_group_name_H-M "P B C M"
_symmetry_group_IT_number 57
_symmetry_cell_setting 'orthorhombic'
loop_
_space_group_symop_operation_xyz
x,y,z
-x,-y,1/2+z
x,1/2-y,-z
-x,1/2+y,1/2-z
-x,-y,-z
x,y,1/2-z
-x,1/2+y,z
x,1/2-y,1/2+z
loop_
_atom_site_type_symbol
_atom_site_label
_atom_site_fract_x
_atom_site_fract_y
_atom_site_fract_z
Si Si1 0.256978 0.810022 0.427346
Si Si2 0.399201 0.510264 0.569863
Si Si3 0.953656 0.561761 0.565282
Si Si4 0.621055 0.683759 0.432584
Si Si5 0.423258 0.632419 0.070113
Si Si6 0.055260 0.817715 0.071330
Si Si7 0.257145 0.081726 0.568081
O O1 0.212567 0.750000 0.500000
O O2 0.294402 0.806684 0.250000
O O3 0.342297 0.818850 0.547786
O O4 0.160445 0.847575 0.439319
O O5 0.500000 0.500000 0.500000
O O6 0.394283 0.490735 0.750000
O O7 0.380975 0.581273 0.545185
O O8 0.324055 0.473931 0.472398
O O9 0.965166 0.559385 0.750000
O O10 0.845547 0.562953 0.513778
O O11 0.000000 0.500000 0.500000
O O12 0.995188 0.625954 0.498925
O O13 0.636775 0.750000 0.500000
O O14 0.614749 0.689983 0.250000
O O15 0.523264 0.655052 0.492800
O O16 0.707745 0.642115 0.480297
O O17 0.430752 0.611280 0.250000
O O18 0.027262 0.808388 0.250000
O O19 0.035647 0.750000 0.000000
O O20 0.261690 0.095760 0.750000
#
# Coordination Sequence:
#
# PCOD8232860 Si02
#       7
#     8   8   8   8   8   8   8
#     4  10  20  35  57  87 122 162 203 251 306 364
#     4  12  24  40  63  90 123 161 203 250 305 365
#     4  10  24  44  66  96 129 165 211 268 325 385
#     4  11  24  41  63  90 125 168 211 260 314 369
#     4  11  23  38  59  89 125 163 207 252 305 366
#     4   9  20  40  63  90 124 162 210 263 321 384
#     4  11  24  43  65  92 126 164 211 260 312 377
#
# _framework density 20.713975000000001
#
# number of rings (size 3 to 8) (size 9 to 14) (size 15 to 20)
#    0.000    1.429    1.429    3.429    2.000    5.714 
#    0.000    1.429    0.000    0.000    0.000    0.000 
#    0.000    0.000    0.000    0.000    0.000    0.000 
#
# Total GULP energy -693785.133001 kJ/mol
# GULP energy per Si atom -12389.020232 kJ/mol
# Density = 2.066683 g / cm^3
# Si number density = 20.713975 Si / 1000 Ang^3
#
#
#
# Elastic Constant Matrix: (Units=GPa)
#
#
# Indices 1 2 3 4 5 6 
#
# 1 148.0478 63.9506 29.2445 0.0000 0.0000 0.0000
# 2 63.9506 139.3956 23.7984 0.0000 0.0000 0.0000
# 3 29.2445 23.7984 47.1020 0.0000 0.0000 0.0000
# 4 0.0000 0.0000 0.0000 35.2328 0.0000 0.0000
# 5 0.0000 0.0000 0.0000 0.0000 25.8068 0.0000
# 6 0.0000 0.0000 0.0000 0.0000 0.0000 8.5184
#
#
#
# Elastic Compliance Matrix: (Units=1/GPa)
#
#
# Indices 1 2 3 4 5 6 
#
# 1 0.009017 -0.003481 -0.003839 0.000000 0.000000 0.000000
# 2 -0.003481 0.009195 -0.002484 0.000000 0.000000 0.000000
# 3 -0.003839 -0.002484 0.024870 0.000000 0.000000 0.000000
# 4 0.000000 0.000000 0.000000 0.028383 0.000000 0.000000
# 5 0.000000 0.000000 0.000000 0.000000 0.038749 0.000000
# 6 0.000000 0.000000 0.000000 0.000000 0.000000 0.117393
#
#
# Mechanical properties :
#
#
# Convention : Reuss Voigt Hill
#
# Bulk Modulus (GPa) = 42.60515 63.17026 52.88771
# Shear Modulus (GPa) = 19.60473 28.41506 24.00989
#
# Velocity S-wave (km/s) = 3.07978 3.70778 3.40827
# Velocity P-wave (km/s) = 5.76712 6.99234 6.40907
#
# Compressibility (1/GPa) = 0.02347134
#
# Stress axis : x y z
#
# Youngs Moduli (GPa) = 110.90555 108.75456 40.20972
#
# Poissons Ratio (x) = 0.37859 0.15438
# Poissons Ratio (y) = 0.38607 0.09990
# Poissons Ratio (z) = 0.42581 0.27020
#
# Static dielectric constant tensor:
#      x y z
#    x 3.717030 0.000000 0.000000 
#    y 0.000000 5.096460 0.000000 
#    z 0.000000 0.000000 3.078050 
# 
# 
# High freq. dielectric constant tensor:
#      x y z
#    x 1.819600 0.000000 0.000000 
#    y 0.000000 1.817020 0.000000 
#    z 0.000000 0.000000 1.806760 
# 
# From -- ./inp_files/5163.got.cif
#   From: 2010.03.12/outbox.cif.g09.slc.cpg/sg57_3_cif.got.tgz:5163.got - 2010.04.16 15:48:40.
