data_PCOD8232110
_publ_section_title
;
Structure prediction by ZEFSAII (Michael W. Deem and Ramdas Pophale) SiO2 
 PCOD8232110
Probable space group: P B C M
;
_chemical_formula_sum "Si O2"
_cell_formula_units_Z 56
_cell_length_a 13.128763
_cell_length_b 23.653546
_cell_length_c 9.276958
_cell_angle_alpha 90.000000
_cell_angle_beta 90.000000
_cell_angle_gamma 90.000000
_cell_volume 2880.883232
_symmetry_space_group_name_H-M "P B C M"
_symmetry_group_IT_number 57
_symmetry_cell_setting 'orthorhombic'
loop_
_space_group_symop_operation_xyz
x,y,z
-x,-y,1/2+z
x,1/2-y,-z
-x,1/2+y,1/2-z
-x,-y,-z
x,y,1/2-z
-x,1/2+y,z
x,1/2-y,1/2+z
loop_
_atom_site_type_symbol
_atom_site_label
_atom_site_fract_x
_atom_site_fract_y
_atom_site_fract_z
Si Si1 0.350570 0.613378 0.583087
Si Si2 0.634264 0.515387 0.409440
Si Si3 0.936303 0.624025 0.083639
Si Si4 0.860540 0.994260 0.910016
Si Si5 0.841748 0.393231 0.583517
Si Si6 0.571542 0.881628 0.082801
Si Si7 0.764258 0.690460 0.577619
O O1 0.319245 0.616490 0.750000
O O2 0.368183 0.548784 0.534354
O O3 0.254321 0.637878 0.493867
O O4 0.458512 0.645494 0.553579
O O5 0.586095 0.519278 0.250000
O O6 0.750710 0.536171 0.408140
O O7 0.571458 0.556458 0.512415
O O8 0.902376 0.634251 0.250000
O O9 0.936030 0.556751 0.046769
O O10 0.054312 0.643109 0.061276
O O11 0.864471 0.657513 0.974326
O O12 0.885878 0.018370 0.750000
O O13 0.862268 0.044269 0.023834
O O14 0.814024 0.398931 0.750000
O O15 0.587830 0.892580 0.250000
O O16 0.660872 0.841000 0.025648
O O17 0.762863 0.750000 0.500000
O O18 0.768651 0.697508 0.750000
#
# Coordination Sequence:
#
# PCOD8232110 Si02
#       7
#     8   8   8   8   8   8   8
#     4   9  19  34  49  72 110 148 179 214 261 318
#     4   9  16  27  47  74 106 144 177 210 261 317
#     4  10  20  36  55  76 108 143 178 225 273 318
#     4   9  17  30  48  73 109 149 181 215 265 318
#     4  10  20  31  49  79 111 145 184 220 255 310
#     4  10  20  34  53  76 103 137 179 224 267 317
#     4  11  24  40  60  84 106 134 177 228 279 326
#
# _framework density 19.438483999999999
#
# number of rings (size 3 to 8) (size 9 to 14) (size 15 to 20)
#    0.000    2.286    1.429    2.571    0.000    5.143 
#    0.000    0.000    0.000    0.857    0.000    4.000 
#    0.000    0.000    0.000    0.000    0.000    0.000 
#
# Total GULP energy -693993.304932 kJ/mol
# GULP energy per Si atom -12392.737588 kJ/mol
# Density = 1.939424 g / cm^3
# Si number density = 19.438484 Si / 1000 Ang^3
#
#
#
# Elastic Constant Matrix: (Units=GPa)
#
#
# Indices 1 2 3 4 5 6 
#
# 1 145.0571 27.3019 57.0091 0.0000 0.0000 0.0000
# 2 27.3019 36.1893 26.3398 0.0000 0.0000 0.0000
# 3 57.0091 26.3398 80.7908 0.0000 0.0000 0.0000
# 4 0.0000 0.0000 0.0000 19.5072 0.0000 0.0000
# 5 0.0000 0.0000 0.0000 0.0000 32.6998 0.0000
# 6 0.0000 0.0000 0.0000 0.0000 0.0000 10.4226
#
#
#
# Elastic Compliance Matrix: (Units=1/GPa)
#
#
# Indices 1 2 3 4 5 6 
#
# 1 0.009796 -0.003093 -0.005904 0.000000 0.000000 0.000000
# 2 -0.003093 0.037206 -0.009947 0.000000 0.000000 0.000000
# 3 -0.005904 -0.009947 0.019787 0.000000 0.000000 0.000000
# 4 0.000000 0.000000 0.000000 0.051263 0.000000 0.000000
# 5 0.000000 0.000000 0.000000 0.000000 0.030581 0.000000
# 6 0.000000 0.000000 0.000000 0.000000 0.000000 0.095946
#
#
# Mechanical properties :
#
#
# Convention : Reuss Voigt Hill
#
# Bulk Modulus (GPa) = 34.60238 53.70430 44.15334
# Shear Modulus (GPa) = 17.11724 22.61833 19.86778
#
# Velocity S-wave (km/s) = 2.97068 3.41484 3.20047
# Velocity P-wave (km/s) = 5.44116 6.57540 6.03499
#
# Compressibility (1/GPa) = 0.02889975
#
# Stress axis : x y z
#
# Youngs Moduli (GPa) = 102.07731 26.87723 50.53811
#
# Poissons Ratio (x) = 0.08314 0.29839
# Poissons Ratio (y) = 0.31576 0.50272
# Poissons Ratio (z) = 0.60269 0.26736
#
# Static dielectric constant tensor:
#      x y z
#    x 4.120080 0.000000 0.000000 
#    y 0.000000 3.021410 0.000000 
#    z 0.000000 0.000000 3.485640 
# 
# 
# High freq. dielectric constant tensor:
#      x y z
#    x 1.782280 0.000000 0.000000 
#    y 0.000000 1.693780 0.000000 
#    z 0.000000 0.000000 1.755190 
# 
# From -- ./inp_files/5123.got.cif
#   From: 2010.03.12/outbox.cif.g09.slc.cpg/sg57_3_cif.got.tgz:5123.got - 2010.04.16 15:48:40.
