data_PCOD8232127
_publ_section_title
;
Structure prediction by ZEFSAII (Michael W. Deem and Ramdas Pophale) SiO2 
 PCOD8232127
Probable space group: P B C M
;
_chemical_formula_sum "Si O2"
_cell_formula_units_Z 64
_cell_length_a 18.977612
_cell_length_b 23.233281
_cell_length_c 9.018762
_cell_angle_alpha 90.000000
_cell_angle_beta 90.000000
_cell_angle_gamma 90.000000
_cell_volume 3976.482125
_symmetry_space_group_name_H-M "P B C M"
_symmetry_group_IT_number 57
_symmetry_cell_setting 'orthorhombic'
loop_
_space_group_symop_operation_xyz
x,y,z
-x,-y,1/2+z
x,1/2-y,-z
-x,1/2+y,1/2-z
-x,-y,-z
x,y,1/2-z
-x,1/2+y,z
x,1/2-y,1/2+z
loop_
_atom_site_type_symbol
_atom_site_label
_atom_site_fract_x
_atom_site_fract_y
_atom_site_fract_z
Si Si1 0.898411 0.811186 0.076723
Si Si2 0.395561 0.516158 0.922241
Si Si3 0.029984 0.087829 0.422557
Si Si4 0.753617 0.875651 0.422583
Si Si5 0.104682 0.983026 0.578035
Si Si6 0.240198 0.002226 0.423784
Si Si7 0.473320 0.084456 0.576735
Si Si8 0.386376 0.310055 0.423319
O O1 0.914124 0.804729 0.250000
O O2 0.821554 0.836868 0.045943
O O3 0.904318 0.750000 0.000000
O O4 0.957863 0.852105 0.005170
O O5 0.405084 0.503085 0.750000
O O6 0.314251 0.529662 0.959494
O O7 0.446070 0.569582 0.970754
O O8 0.417892 0.458606 0.004646
O O9 0.048959 0.093645 0.250000
O O10 0.948483 0.069984 0.445723
O O11 0.079871 0.039711 0.492605
O O12 0.747756 0.893084 0.250000
O O13 0.758263 0.932431 0.520687
O O14 0.686411 0.839047 0.475941
O O15 0.111796 0.999498 0.750000
O O16 0.180399 0.965915 0.510287
O O17 0.223597 0.001940 0.250000
O O18 0.462371 0.076508 0.750000
O O19 0.452276 0.149127 0.530591
O O20 0.399262 0.250000 0.500000
O O21 0.383623 0.298603 0.250000
#
# Coordination Sequence:
#
# PCOD8232127 Si02
#       8
#     8   8   8   8   8   8   8   8
#     4  11  22  34  50  70  98 134 169 203 237 282
#     4   9  18  30  46  70  95 121 156 197 240 285
#     4  10  20  34  51  72  96 125 162 203 244 286
#     4  10  20  33  46  66  96 131 167 196 231 277
#     4  10  20  33  50  71  98 128 159 197 243 295
#     4  11  20  29  47  73  99 128 160 198 239 287
#     4   9  17  31  48  66  92 125 158 195 240 285
#     4  10  20  32  47  66  92 129 165 199 234 277
#
# _framework density 16.094629000000001
#
# number of rings (size 3 to 8) (size 9 to 14) (size 15 to 20)
#    0.000    2.000    2.500    1.875    0.000    3.500 
#    0.000    0.000    0.000    0.000    0.000    0.875 
#    0.000    4.000    0.000    0.000    0.000    0.000 
#
# Total GULP energy -793560.899445 kJ/mol
# GULP energy per Si atom -12399.389054 kJ/mol
# Density = 1.605800 g / cm^3
# Si number density = 16.094629 Si / 1000 Ang^3
#
#
#
# Elastic Constant Matrix: (Units=GPa)
#
#
# Indices 1 2 3 4 5 6 
#
# 1 120.9737 59.0437 53.0447 0.0000 0.0000 0.0000
# 2 59.0437 79.3546 44.1245 0.0000 0.0000 0.0000
# 3 53.0447 44.1245 75.9922 0.0000 0.0000 0.0000
# 4 0.0000 0.0000 0.0000 25.5401 0.0000 0.0000
# 5 0.0000 0.0000 0.0000 0.0000 23.1193 0.0000
# 6 0.0000 0.0000 0.0000 0.0000 0.0000 21.9195
#
#
#
# Elastic Compliance Matrix: (Units=1/GPa)
#
#
# Indices 1 2 3 4 5 6 
#
# 1 0.014471 -0.007606 -0.005685 0.000000 0.000000 0.000000
# 2 -0.007606 0.022608 -0.007818 0.000000 0.000000 0.000000
# 3 -0.005685 -0.007818 0.021667 0.000000 0.000000 0.000000
# 4 0.000000 0.000000 0.000000 0.039154 0.000000 0.000000
# 5 0.000000 0.000000 0.000000 0.000000 0.043254 0.000000
# 6 0.000000 0.000000 0.000000 0.000000 0.000000 0.045622
#
#
# Mechanical properties :
#
#
# Convention : Reuss Voigt Hill
#
# Bulk Modulus (GPa) = 60.50247 65.41626 62.95936
# Shear Modulus (GPa) = 21.32160 22.12294 21.72227
#
# Velocity S-wave (km/s) = 3.64368 3.71152 3.67776
# Velocity P-wave (km/s) = 7.44145 7.68766 7.56556
#
# Compressibility (1/GPa) = 0.01652825
#
# Stress axis : x y z
#
# Youngs Moduli (GPa) = 69.10180 44.23156 46.15346
#
# Poissons Ratio (x) = 0.33644 0.26237
# Poissons Ratio (y) = 0.52562 0.36082
# Poissons Ratio (z) = 0.39283 0.34580
#
# Static dielectric constant tensor:
#      x y z
#    x 3.405530 0.000000 0.000000 
#    y 0.000000 2.943150 0.000000 
#    z 0.000000 0.000000 3.141890 
# 
# 
# High freq. dielectric constant tensor:
#      x y z
#    x 1.620800 0.000000 0.000000 
#    y 0.000000 1.588700 0.000000 
#    z 0.000000 0.000000 1.629750 
# 
# From -- ./inp_files/7461.got.cif
#   From: 2010.03.12/outbox.cif.g09.slc.cpg/sg57_4_cif.got.tgz:7461.got - 2010.04.16 15:48:40.
