data_PCOD8232707
_publ_section_title
;
Structure prediction by ZEFSAII (Michael W. Deem and Ramdas Pophale) SiO2 
 PCOD8232707
Probable space group: P B C M
;
_chemical_formula_sum "Si O2"
_cell_formula_units_Z 64
_cell_length_a 19.402366
_cell_length_b 20.278742
_cell_length_c 8.672568
_cell_angle_alpha 90.000000
_cell_angle_beta 90.000000
_cell_angle_gamma 90.000000
_cell_volume 3412.270223
_symmetry_space_group_name_H-M "P B C M"
_symmetry_group_IT_number 57
_symmetry_cell_setting 'orthorhombic'
loop_
_space_group_symop_operation_xyz
x,y,z
-x,-y,1/2+z
x,1/2-y,-z
-x,1/2+y,1/2-z
-x,-y,-z
x,y,1/2-z
-x,1/2+y,z
x,1/2-y,1/2+z
loop_
_atom_site_type_symbol
_atom_site_label
_atom_site_fract_x
_atom_site_fract_y
_atom_site_fract_z
Si Si1 0.920286 0.573071 0.571262
Si Si2 0.079551 0.935517 0.070372
Si Si3 0.580273 0.063533 0.069917
Si Si4 0.323196 0.320063 0.068721
Si Si5 0.673914 0.318121 0.930389
Si Si6 0.421283 0.425531 0.571897
Si Si7 0.822768 0.820236 0.568506
Si Si8 0.832395 0.319307 0.932043
O O1 0.903096 0.583810 0.750000
O O2 0.896607 0.500043 0.522655
O O3 0.880307 0.626448 0.471126
O O4 0.000667 0.582327 0.534108
O O5 0.090796 0.949367 0.250000
O O6 0.125336 0.875530 0.015355
O O7 0.592682 0.049309 0.250000
O O8 0.628421 0.121811 0.005407
O O9 0.501887 0.084325 0.037713
O O10 0.601452 0.998817 0.975636
O O11 0.314888 0.312677 0.250000
O O12 0.346173 0.250000 0.000000
O O13 0.381143 0.373232 0.030961
O O14 0.250383 0.343448 0.999348
O O15 0.664255 0.312485 0.750000
O O16 0.752886 0.330673 0.976484
O O17 0.646125 0.250000 0.000000
O O18 0.403206 0.413968 0.750000
O O19 0.845510 0.750000 0.500000
O O20 0.815611 0.813010 0.750000
O O21 0.845117 0.321020 0.750000
O O22 0.858328 0.250000 0.000000
#
# Coordination Sequence:
#
# PCOD8232707 Si02
#       8
#     8   8   8   8   8   8   8   8
#     4  10  21  38  58  81 110 144 181 222 270 321
#     4  10  21  37  57  81 110 144 183 225 268 318
#     4   9  19  36  55  77 108 144 182 225 272 322
#     4  11  22  38  58  80 110 144 180 223 271 324
#     4   9  19  35  54  77 105 138 176 219 267 317
#     4  10  20  35  55  80 109 142 182 225 270 323
#     4  11  22  38  59  83 111 142 180 224 271 324
#     4  10  20  35  55  78 107 141 179 224 273 325
#
# _framework density 18.755842000000001
#
# number of rings (size 3 to 8) (size 9 to 14) (size 15 to 20)
#    0.000    2.000    0.000    4.500    0.000    5.000 
#    0.000    5.000    0.000    0.000    0.000    0.000 
#    0.000    0.000    0.000    0.000    0.000    0.000 
#
# Total GULP energy -793906.491853 kJ/mol
# GULP energy per Si atom -12404.788935 kJ/mol
# Density = 1.871315 g / cm^3
# Si number density = 18.755842 Si / 1000 Ang^3
#
#
#
# Elastic Constant Matrix: (Units=GPa)
#
#
# Indices 1 2 3 4 5 6 
#
# 1 75.1978 72.2809 38.1858 0.0000 0.0000 0.0000
# 2 72.2809 131.1510 43.4358 0.0000 0.0000 0.0000
# 3 38.1858 43.4358 98.0031 0.0000 0.0000 0.0000
# 4 0.0000 0.0000 0.0000 39.0230 0.0000 0.0000
# 5 0.0000 0.0000 0.0000 0.0000 29.3844 0.0000
# 6 0.0000 0.0000 0.0000 0.0000 0.0000 44.7860
#
#
#
# Elastic Compliance Matrix: (Units=1/GPa)
#
#
# Indices 1 2 3 4 5 6 
#
# 1 0.030363 -0.015021 -0.005173 0.000000 0.000000 0.000000
# 2 -0.015021 0.016367 -0.001401 0.000000 0.000000 0.000000
# 3 -0.005173 -0.001401 0.012841 0.000000 0.000000 0.000000
# 4 0.000000 0.000000 0.000000 0.025626 0.000000 0.000000
# 5 0.000000 0.000000 0.000000 0.000000 0.034032 0.000000
# 6 0.000000 0.000000 0.000000 0.000000 0.000000 0.022328
#
#
# Mechanical properties :
#
#
# Convention : Reuss Voigt Hill
#
# Bulk Modulus (GPa) = 61.04965 68.01744 64.53355
# Shear Modulus (GPa) = 26.28690 32.66864 29.47777
#
# Velocity S-wave (km/s) = 3.74776 4.17800 3.96872
# Velocity P-wave (km/s) = 7.16575 7.72124 7.44868
#
# Compressibility (1/GPa) = 0.01638011
#
# Stress axis : x y z
#
# Youngs Moduli (GPa) = 32.93429 61.09745 77.87753
#
# Poissons Ratio (x) = 0.91773 0.40290
# Poissons Ratio (y) = 0.49470 0.10914
# Poissons Ratio (z) = 0.17038 0.08563
#
# Static dielectric constant tensor:
#      x y z
#    x 3.436930 0.000000 0.000000 
#    y 0.000000 3.533550 0.000000 
#    z 0.000000 0.000000 3.562040 
# 
# 
# High freq. dielectric constant tensor:
#      x y z
#    x 1.724470 0.000000 0.000000 
#    y 0.000000 1.736820 0.000000 
#    z 0.000000 0.000000 1.740440 
# 
# From -- ./inp_files/7202.got.cif
#   From: 2010.03.12/outbox.cif.g09.slc.cpg/sg57_4_cif.got.tgz:7202.got - 2010.04.16 15:48:40.
