data_PCOD8232192
_publ_section_title
;
Structure prediction by ZEFSAII (Michael W. Deem and Ramdas Pophale) SiO2 
 PCOD8232192
Probable space group: P B C M
;
_chemical_formula_sum "Si O2"
_cell_formula_units_Z 56
_cell_length_a 18.824743
_cell_length_b 17.082723
_cell_length_c 8.943303
_cell_angle_alpha 90.000000
_cell_angle_beta 90.000000
_cell_angle_gamma 90.000000
_cell_volume 2875.968331
_symmetry_space_group_name_H-M "P B C M"
_symmetry_group_IT_number 57
_symmetry_cell_setting 'orthorhombic'
loop_
_space_group_symop_operation_xyz
x,y,z
-x,-y,1/2+z
x,1/2-y,-z
-x,1/2+y,1/2-z
-x,-y,-z
x,y,1/2-z
-x,1/2+y,z
x,1/2-y,1/2+z
loop_
_atom_site_type_symbol
_atom_site_label
_atom_site_fract_x
_atom_site_fract_y
_atom_site_fract_z
Si Si1 0.036367 0.574857 0.574083
Si Si2 0.091138 0.326709 0.079443
Si Si3 0.705540 0.430616 0.926451
Si Si4 0.768412 0.904344 0.420779
Si Si5 0.645569 0.672005 0.424005
Si Si6 0.576091 0.991793 0.927226
Si Si7 0.824311 0.166275 0.571224
O O1 0.033340 0.559655 0.750000
O O2 0.115710 0.601332 0.524930
O O3 0.000000 0.500000 0.500000
O O4 0.986091 0.646708 0.524481
O O5 0.088083 0.303768 0.250000
O O6 0.147976 0.395484 0.048682
O O7 0.118395 0.250000 0.000000
O O8 0.697388 0.413941 0.750000
O O9 0.750983 0.507285 0.963506
O O10 0.627950 0.442899 0.999866
O O11 0.747941 0.359822 0.004998
O O12 0.747441 0.886309 0.250000
O O13 0.725933 0.842658 0.522161
O O14 0.613370 0.750000 0.500000
O O15 0.645112 0.687158 0.250000
O O16 0.600191 0.595925 0.468978
O O17 0.573731 0.005515 0.750000
O O18 0.500000 0.000000 0.000000
O O19 0.844312 0.250000 0.500000
O O20 0.819810 0.174358 0.750000
#
# Coordination Sequence:
#
# PCOD8232192 Si02
#       7
#     8   8   8   8   8   8   8
#     4  10  22  38  56  78 106 141 186 237 289 343
#     4  10  20  33  48  72 104 137 174 217 265 318
#     4  10  20  37  61  85 111 146 185 228 279 336
#     4   9  18  32  52  77 107 142 179 219 267 324
#     4  10  20  33  52  79 111 144 180 221 267 323
#     4  10  21  38  60  87 117 149 187 231 279 337
#     4  11  23  39  59  84 114 151 196 247 298 351
#
# _framework density 19.471702000000001
#
# number of rings (size 3 to 8) (size 9 to 14) (size 15 to 20)
#    0.000    2.000    0.000    3.429    0.000    6.857 
#    0.000    0.714    0.000    1.714    0.000    0.000 
#    0.000    0.000    0.000    0.000    0.000    0.000 
#
# Total GULP energy -694244.561008 kJ/mol
# GULP energy per Si atom -12397.224304 kJ/mol
# Density = 1.942738 g / cm^3
# Si number density = 19.471702 Si / 1000 Ang^3
#
#
#
# Elastic Constant Matrix: (Units=GPa)
#
#
# Indices 1 2 3 4 5 6 
#
# 1 126.5189 38.9117 51.3011 0.0000 0.0000 0.0000
# 2 38.9117 86.3524 43.3662 0.0000 0.0000 0.0000
# 3 51.3011 43.3662 83.1545 0.0000 0.0000 0.0000
# 4 0.0000 0.0000 0.0000 35.5448 0.0000 0.0000
# 5 0.0000 0.0000 0.0000 0.0000 31.2862 0.0000
# 6 0.0000 0.0000 0.0000 0.0000 0.0000 20.7253
#
#
#
# Elastic Compliance Matrix: (Units=1/GPa)
#
#
# Indices 1 2 3 4 5 6 
#
# 1 0.010805 -0.002061 -0.005591 0.000000 0.000000 0.000000
# 2 -0.002061 0.016083 -0.007116 0.000000 0.000000 0.000000
# 3 -0.005591 -0.007116 0.019186 0.000000 0.000000 0.000000
# 4 0.000000 0.000000 0.000000 0.028134 0.000000 0.000000
# 5 0.000000 0.000000 0.000000 0.000000 0.031963 0.000000
# 6 0.000000 0.000000 0.000000 0.000000 0.000000 0.048250
#
#
# Mechanical properties :
#
#
# Convention : Reuss Voigt Hill
#
# Bulk Modulus (GPa) = 60.46713 62.57596 61.52155
# Shear Modulus (GPa) = 26.38952 28.34105 27.36529
#
# Velocity S-wave (km/s) = 3.68540 3.81924 3.75292
# Velocity P-wave (km/s) = 7.01647 7.18717 7.10233
#
# Compressibility (1/GPa) = 0.01653791
#
# Stress axis : x y z
#
# Youngs Moduli (GPa) = 92.55046 62.17841 52.12087
#
# Poissons Ratio (x) = 0.12815 0.29141
# Poissons Ratio (y) = 0.19075 0.37088
# Poissons Ratio (z) = 0.51746 0.44245
#
# Static dielectric constant tensor:
#      x y z
#    x 3.643130 0.000000 0.000000 
#    y 0.000000 3.452700 0.000000 
#    z 0.000000 0.000000 3.535450 
# 
# 
# High freq. dielectric constant tensor:
#      x y z
#    x 1.755190 0.000000 0.000000 
#    y 0.000000 1.753270 0.000000 
#    z 0.000000 0.000000 1.762400 
# 
# From -- ./inp_files/8079.got.cif
#   From: 2010.03.12/outbox.cif.g09.slc.cpg/sg57_5_cif.got.tgz:8079.got - 2010.04.16 15:48:40.
