data_PCOD8232830
_publ_section_title
;
Structure prediction by ZEFSAII (Michael W. Deem and Ramdas Pophale) SiO2 
 PCOD8232830
Probable space group: P B C M
;
_chemical_formula_sum "Si O2"
_cell_formula_units_Z 48
_cell_length_a 30.750517
_cell_length_b 9.121548
_cell_length_c 8.801842
_cell_angle_alpha 90.000000
_cell_angle_beta 90.000000
_cell_angle_gamma 90.000000
_cell_volume 2468.849055
_symmetry_space_group_name_H-M "P B C M"
_symmetry_group_IT_number 57
_symmetry_cell_setting 'orthorhombic'
loop_
_space_group_symop_operation_xyz
x,y,z
-x,-y,1/2+z
x,1/2-y,-z
-x,1/2+y,1/2-z
-x,-y,-z
x,y,1/2-z
-x,1/2+y,z
x,1/2-y,1/2+z
loop_
_atom_site_type_symbol
_atom_site_label
_atom_site_fract_x
_atom_site_fract_y
_atom_site_fract_z
Si Si1 0.538226 0.407807 0.072347
Si Si2 0.621907 0.904486 0.928129
Si Si3 0.123938 0.091733 0.571626
Si Si4 0.960838 0.410012 0.929624
Si Si5 0.794295 0.408394 0.929117
Si Si6 0.711739 0.906688 0.070079
O O1 0.529478 0.395354 0.250000
O O2 0.584332 0.480759 0.035555
O O3 0.538505 0.250000 0.000000
O O4 0.500000 0.500000 0.000000
O O5 0.629456 0.882270 0.750000
O O6 0.608157 0.750000 0.000000
O O7 0.666121 0.964641 0.003533
O O8 0.118349 0.250000 0.500000
O O9 0.126774 0.114188 0.750000
O O10 0.083441 0.991348 0.525088
O O11 0.167428 0.013396 0.509298
O O12 0.967106 0.398151 0.750000
O O13 0.959633 0.250000 0.000000
O O14 0.000000 0.500000 0.000000
O O15 0.797896 0.391462 0.750000
O O16 0.748368 0.477584 0.978489
O O17 0.799488 0.250000 0.000000
O O18 0.708221 0.889934 0.250000
O O19 0.723927 0.750000 0.000000
#
# Coordination Sequence:
#
# PCOD8232830 Si02
#       6
#     8   8   8   8   8   8
#     4  11  24  40  60  85 114 149 188 232 281 334
#     4  10  21  37  58  84 113 147 186 228 277 331
#     4  10  22  39  59  84 113 147 188 233 282 336
#     4  11  23  39  60  86 117 152 191 235 284 338
#     4  10  22  38  56  82 113 146 186 230 278 331
#     4  10  20  35  57  83 111 145 185 228 274 328
#
# _framework density 19.442257999999999
#
# number of rings (size 3 to 8) (size 9 to 14) (size 15 to 20)
#    0.000    1.667    0.000    5.000    0.000    9.333 
#    0.000    3.333    0.000    0.000    0.000    0.000 
#    0.000    0.000    0.000    0.000    0.000    0.000 
#
# Total GULP energy -595401.366331 kJ/mol
# GULP energy per Si atom -12404.195132 kJ/mol
# Density = 1.939801 g / cm^3
# Si number density = 19.442258 Si / 1000 Ang^3
#
#
#
# Elastic Constant Matrix: (Units=GPa)
#
#
# Indices 1 2 3 4 5 6 
#
# 1 159.3398 103.6131 78.5009 0.0000 0.0000 0.0000
# 2 103.6131 178.9441 69.2320 0.0000 0.0000 0.0000
# 3 78.5009 69.2320 87.0705 0.0000 0.0000 0.0000
# 4 0.0000 0.0000 0.0000 40.0557 0.0000 0.0000
# 5 0.0000 0.0000 0.0000 0.0000 30.3202 0.0000
# 6 0.0000 0.0000 0.0000 0.0000 0.0000 31.8857
#
#
#
# Elastic Compliance Matrix: (Units=1/GPa)
#
#
# Indices 1 2 3 4 5 6 
#
# 1 0.013357 -0.004441 -0.008511 0.000000 0.000000 0.000000
# 2 -0.004441 0.009548 -0.003588 0.000000 0.000000 0.000000
# 3 -0.008511 -0.003588 0.022011 0.000000 0.000000 0.000000
# 4 0.000000 0.000000 0.000000 0.024965 0.000000 0.000000
# 5 0.000000 0.000000 0.000000 0.000000 0.032981 0.000000
# 6 0.000000 0.000000 0.000000 0.000000 0.000000 0.031362
#
#
# Mechanical properties :
#
#
# Convention : Reuss Voigt Hill
#
# Bulk Modulus (GPa) = 84.48809 103.11625 93.80217
# Shear Modulus (GPa) = 29.19715 32.05289 30.62502
#
# Velocity S-wave (km/s) = 3.87943 4.06472 3.97316
# Velocity P-wave (km/s) = 7.97602 8.67073 8.33062
#
# Compressibility (1/GPa) = 0.01183599
#
# Stress axis : x y z
#
# Youngs Moduli (GPa) = 74.86790 104.73456 45.43173
#
# Poissons Ratio (x) = 0.46514 0.38667
# Poissons Ratio (y) = 0.33250 0.16300
# Poissons Ratio (z) = 0.63720 0.37577
#
# Static dielectric constant tensor:
#      x y z
#    x 4.028810 0.000000 0.000000 
#    y 0.000000 3.512840 0.000000 
#    z 0.000000 0.000000 3.577950 
# 
# 
# High freq. dielectric constant tensor:
#      x y z
#    x 1.777400 0.000000 0.000000 
#    y 0.000000 1.764550 0.000000 
#    z 0.000000 0.000000 1.764890 
# 
# From -- ./inp_files/10061.got.cif
#   From: 2010.03.12/outbox.cif.g09.slc.cpg/sg57_6_cif.got.tgz:10061.got - 2010.04.16 15:48:40.
