data_PCOD8232932
_publ_section_title
;
Structure prediction by ZEFSAII (Michael W. Deem and Ramdas Pophale) SiO2 
 PCOD8232932
Probable space group: P B C M
;
_chemical_formula_sum "Si O2"
_cell_formula_units_Z 48
_cell_length_a 10.050907
_cell_length_b 28.126775
_cell_length_c 8.334199
_cell_angle_alpha 90.000000
_cell_angle_beta 90.000000
_cell_angle_gamma 90.000000
_cell_volume 2356.074721
_symmetry_space_group_name_H-M "P B C M"
_symmetry_group_IT_number 57
_symmetry_cell_setting 'orthorhombic'
loop_
_space_group_symop_operation_xyz
x,y,z
-x,-y,1/2+z
x,1/2-y,-z
-x,1/2+y,1/2-z
-x,-y,-z
x,y,1/2-z
-x,1/2+y,z
x,1/2-y,1/2+z
loop_
_atom_site_type_symbol
_atom_site_label
_atom_site_fract_x
_atom_site_fract_y
_atom_site_fract_z
Si Si1 0.849896 0.301381 0.063127
Si Si2 0.010287 0.447425 0.064913
Si Si3 0.261806 0.397055 0.566796
Si Si4 0.237595 0.603573 0.433969
Si Si5 0.489750 0.946969 0.065136
Si Si6 0.859206 0.799522 0.937008
O O1 0.820421 0.305160 0.250000
O O2 0.805634 0.250000 0.000000
O O3 0.760568 0.340379 0.972376
O O4 0.005560 0.310981 0.031776
O O5 0.053379 0.447431 0.250000
O O6 0.118697 0.420245 0.960108
O O7 0.000000 0.500000 0.000000
O O8 0.868519 0.422118 0.047667
O O9 0.305427 0.405825 0.750000
O O10 0.369471 0.420428 0.450592
O O11 0.248560 0.340728 0.530420
O O12 0.197967 0.594969 0.250000
O O13 0.382310 0.582110 0.464406
O O14 0.447490 0.948421 0.250000
O O15 0.500000 0.000000 0.000000
O O16 0.895971 0.795693 0.750000
O O17 0.797045 0.750000 0.000000
#
# Coordination Sequence:
#
# PCOD8232932 Si02
#       6
#     8   8   8   8   8   8
#     4  11  21  36  61  93 128 164 206 254 312 372
#     4  12  24  39  61  90 122 159 204 259 313 368
#     4  11  23  41  63  91 125 163 207 256 310 367
#     4  12  24  42  64  91 125 163 209 260 313 371
#     4  12  26  45  66  90 123 166 211 257 315 379
#     4  10  20  35  60  91 127 163 203 252 307 365
#
# _framework density 20.372868
#
# number of rings (size 3 to 8) (size 9 to 14) (size 15 to 20)
#    0.000    0.667    1.667    9.000    0.000    2.000 
#    0.000    0.833    0.000    2.000    0.000    0.000 
#    0.000    0.000    0.000    0.000    0.000    0.000 
#
# Total GULP energy -595560.868709 kJ/mol
# GULP energy per Si atom -12407.518098 kJ/mol
# Density = 2.032650 g / cm^3
# Si number density = 20.372868 Si / 1000 Ang^3
#
#
#
# Elastic Constant Matrix: (Units=GPa)
#
#
# Indices 1 2 3 4 5 6 
#
# 1 80.0910 49.4048 11.3504 0.0000 0.0000 0.0000
# 2 49.4048 160.4158 37.1761 0.0000 0.0000 0.0000
# 3 11.3504 37.1761 100.9499 0.0000 0.0000 0.0000
# 4 0.0000 0.0000 0.0000 32.5384 0.0000 0.0000
# 5 0.0000 0.0000 0.0000 0.0000 31.6958 0.0000
# 6 0.0000 0.0000 0.0000 0.0000 0.0000 34.3692
#
#
#
# Elastic Compliance Matrix: (Units=1/GPa)
#
#
# Indices 1 2 3 4 5 6 
#
# 1 0.015414 -0.004751 0.000017 0.000000 0.000000 0.000000
# 2 -0.004751 0.008280 -0.002515 0.000000 0.000000 0.000000
# 3 0.000017 -0.002515 0.010830 0.000000 0.000000 0.000000
# 4 0.000000 0.000000 0.000000 0.030733 0.000000 0.000000
# 5 0.000000 0.000000 0.000000 0.000000 0.031550 0.000000
# 6 0.000000 0.000000 0.000000 0.000000 0.000000 0.029096
#
#
# Mechanical properties :
#
#
# Convention : Reuss Voigt Hill
#
# Bulk Modulus (GPa) = 49.93698 59.70214 54.81956
# Shear Modulus (GPa) = 33.99577 35.95570 34.97573
#
# Velocity S-wave (km/s) = 4.08938 4.20561 4.14790
# Velocity P-wave (km/s) = 6.84559 7.27676 7.06446
#
# Compressibility (1/GPa) = 0.02002524
#
# Stress axis : x y z
#
# Youngs Moduli (GPa) = 64.87521 120.77463 92.33422
#
# Poissons Ratio (x) = 0.57381 -0.00153
# Poissons Ratio (y) = 0.30823 0.23222
# Poissons Ratio (z) = -0.00107 0.30375
#
# Static dielectric constant tensor:
#      x y z
#    x 3.364930 0.000000 0.000000 
#    y 0.000000 3.880500 0.000000 
#    z 0.000000 0.000000 4.245640 
# 
# 
# High freq. dielectric constant tensor:
#      x y z
#    x 1.769480 0.000000 0.000000 
#    y 0.000000 1.817270 0.000000 
#    z 0.000000 0.000000 1.813660 
# 
# From -- ./inp_files/2101.got.cif
#   From: 2010.03.12/outbox.cif.g09.slc.cpg/sg57_2_cif.got.tgz:2101.got - 2010.04.16 15:48:40.
