data_PCOD8232393
_publ_section_title
;
Structure prediction by ZEFSAII (Michael W. Deem and Ramdas Pophale) SiO2 
 PCOD8232393
Probable space group: P B C M
;
_chemical_formula_sum "Si O2"
_cell_formula_units_Z 40
_cell_length_a 16.221893
_cell_length_b 14.377859
_cell_length_c 9.157550
_cell_angle_alpha 90.000000
_cell_angle_beta 90.000000
_cell_angle_gamma 90.000000
_cell_volume 2135.871158
_symmetry_space_group_name_H-M "P B C M"
_symmetry_group_IT_number 57
_symmetry_cell_setting 'orthorhombic'
loop_
_space_group_symop_operation_xyz
x,y,z
-x,-y,1/2+z
x,1/2-y,-z
-x,1/2+y,1/2-z
-x,-y,-z
x,y,1/2-z
-x,1/2+y,z
x,1/2-y,1/2+z
loop_
_atom_site_type_symbol
_atom_site_label
_atom_site_fract_x
_atom_site_fract_y
_atom_site_fract_z
Si Si1 0.612978 0.029360 0.082463
Si Si2 0.882197 0.844905 0.579796
Si Si3 0.931815 0.344023 0.919396
Si Si4 0.801522 0.004787 0.418844
Si Si5 0.485982 0.151945 0.921851
O O1 0.589116 0.050502 0.250000
O O2 0.709721 0.041337 0.055263
O O3 0.585955 0.923382 0.043668
O O4 0.570415 0.106808 0.981464
O O5 0.863219 0.750000 0.500000
O O6 0.867728 0.830661 0.750000
O O7 0.975499 0.878613 0.544742
O O8 0.815532 0.915960 0.518842
O O9 0.921205 0.323445 0.750000
O O10 0.866499 0.419158 0.974297
O O11 0.910027 0.250000 0.000000
O O12 0.816773 0.978713 0.250000
O O13 0.494953 0.170982 0.750000
O O14 0.465815 0.250000 0.000000
#
# Coordination Sequence:
#
# PCOD8232393 Si02
#       5
#     8   8   8   8   8
#     4   9  20  37  55  79 108 136 171 213 257 310
#     4  10  20  34  52  75 103 139 180 217 257 305
#     4   9  19  34  52  74 103 139 177 217 258 304
#     4  10  20  35  54  78 108 137 169 215 264 306
#     4  10  20  36  58  79 103 137 172 210 258 311
#
# _framework density 18.727722
#
# number of rings (size 3 to 8) (size 9 to 14) (size 15 to 20)
#    0.000    2.400    0.000    1.800    0.000    4.800 
#    0.000    4.000    0.000    0.000    0.000    0.000 
#    0.000    0.000    0.000    0.000    0.000    0.000 
#
# Total GULP energy -496044.026598 kJ/mol
# GULP energy per Si atom -12401.100665 kJ/mol
# Density = 1.868510 g / cm^3
# Si number density = 18.727722 Si / 1000 Ang^3
#
#
#
# Elastic Constant Matrix: (Units=GPa)
#
#
# Indices 1 2 3 4 5 6 
#
# 1 41.9255 8.6115 17.0688 0.0000 0.0000 0.0000
# 2 8.6115 64.6874 34.1332 0.0000 0.0000 0.0000
# 3 17.0688 34.1332 67.6920 0.0000 0.0000 0.0000
# 4 0.0000 0.0000 0.0000 39.8684 0.0000 0.0000
# 5 0.0000 0.0000 0.0000 0.0000 26.6218 0.0000
# 6 0.0000 0.0000 0.0000 0.0000 0.0000 25.0815
#
#
#
# Elastic Compliance Matrix: (Units=1/GPa)
#
#
# Indices 1 2 3 4 5 6 
#
# 1 0.026581 -0.000003 -0.006701 0.000000 0.000000 0.000000
# 2 -0.000003 0.021063 -0.010620 0.000000 0.000000 0.000000
# 3 -0.006701 -0.010620 0.021818 0.000000 0.000000 0.000000
# 4 0.000000 0.000000 0.000000 0.025083 0.000000 0.000000
# 5 0.000000 0.000000 0.000000 0.000000 0.037563 0.000000
# 6 0.000000 0.000000 0.000000 0.000000 0.000000 0.039870
#
#
# Mechanical properties :
#
#
# Convention : Reuss Voigt Hill
#
# Bulk Modulus (GPa) = 28.72450 32.65910 30.69180
# Shear Modulus (GPa) = 22.91163 25.94711 24.42937
#
# Velocity S-wave (km/s) = 3.50152 3.72626 3.61563
# Velocity P-wave (km/s) = 5.63194 5.99917 5.81846
#
# Compressibility (1/GPa) = 0.03481349
#
# Stress axis : x y z
#
# Youngs Moduli (GPa) = 37.62150 47.47602 45.83427
#
# Poissons Ratio (x) = 0.00012 0.30714
# Poissons Ratio (y) = 0.00010 0.48678
# Poissons Ratio (z) = 0.25210 0.50421
#
# Static dielectric constant tensor:
#      x y z
#    x 3.406010 0.000000 0.000000 
#    y 0.000000 10.822090 0.000000 
#    z 0.000000 0.000000 3.420790 
# 
# 
# High freq. dielectric constant tensor:
#      x y z
#    x 1.723220 0.000000 0.000000 
#    y 0.000000 1.726610 0.000000 
#    z 0.000000 0.000000 1.730970 
# 
# From -- ./inp_files/4253.got.cif
#   From: 2010.03.12/outbox.cif.g09.slc.cpg/sg57_3_cif.got.tgz:4253.got - 2010.04.16 15:48:40.
