data_PCOD8232107
_publ_section_title
;
Structure prediction by ZEFSAII (Michael W. Deem and Ramdas Pophale) SiO2 
 PCOD8232107
Probable space group: P B C M
;
_chemical_formula_sum "Si O2"
_cell_formula_units_Z 64
_cell_length_a 17.568921
_cell_length_b 19.838385
_cell_length_c 8.974685
_cell_angle_alpha 90.000000
_cell_angle_beta 90.000000
_cell_angle_gamma 90.000000
_cell_volume 3128.027904
_symmetry_space_group_name_H-M "P B C M"
_symmetry_group_IT_number 57
_symmetry_cell_setting 'orthorhombic'
loop_
_space_group_symop_operation_xyz
x,y,z
-x,-y,1/2+z
x,1/2-y,-z
-x,1/2+y,1/2-z
-x,-y,-z
x,y,1/2-z
-x,1/2+y,z
x,1/2-y,1/2+z
loop_
_atom_site_type_symbol
_atom_site_label
_atom_site_fract_x
_atom_site_fract_y
_atom_site_fract_z
Si Si1 0.624010 0.821556 0.575343
Si Si2 0.430546 0.035940 0.422138
Si Si3 0.077852 0.848511 0.916363
Si Si4 0.245352 0.817856 0.571406
Si Si5 0.280943 0.956546 0.426326
Si Si6 0.231172 0.320154 0.427473
Si Si7 0.931082 0.865947 0.077699
Si Si8 0.130770 0.504415 0.417920
O O1 0.597536 0.750000 0.500000
O O2 0.638731 0.807541 0.750000
O O3 0.563597 0.882608 0.552249
O O4 0.697649 0.859642 0.499106
O O5 0.437733 0.019381 0.250000
O O6 0.500000 0.000000 0.500000
O O7 0.351865 0.001782 0.478568
O O8 0.065315 0.822488 0.750000
O O9 0.156421 0.818683 0.980056
O O10 0.081610 0.928732 0.926694
O O11 0.002922 0.827016 0.007196
O O12 0.281492 0.750000 0.500000
O O13 0.252664 0.818248 0.750000
O O14 0.287116 0.883536 0.506889
O O15 0.277688 0.944808 0.250000
O O16 0.203692 0.994851 0.474925
O O17 0.253341 0.250000 0.500000
O O18 0.234015 0.321789 0.250000
O O19 0.148605 0.339593 0.489347
O O20 0.936523 0.849453 0.250000
O O21 0.928704 0.945414 0.041021
O O22 0.162553 0.492559 0.250000
#
# Coordination Sequence:
#
# PCOD8232107 Si02
#       8
#     8   8   8   8   8   8   8   8
#     4  10  20  37  60  87 116 150 190 229 268 322
#     4  10  23  40  61  91 124 153 186 225 272 328
#     4   9  19  32  47  69  99 133 174 224 281 336
#     4  10  21  38  58  81 107 143 190 239 289 344
#     4  10  20  36  58  85 112 143 184 231 280 336
#     4  10  20  33  49  72 100 136 178 220 265 317
#     4  10  20  31  46  69  99 135 179 227 279 334
#     4   9  18  33  50  72 100 133 176 225 275 333
#
# _framework density 20.460175
#
# number of rings (size 3 to 8) (size 9 to 14) (size 15 to 20)
#    0.000    2.250    0.000    4.125    0.000    6.500 
#    0.000    3.125    0.000    1.500    0.000    0.000 
#    0.000    0.000    0.000    0.000    0.000    0.000 
#
# Total GULP energy -792920.585512 kJ/mol
# GULP energy per Si atom -12389.384149 kJ/mol
# Density = 2.041361 g / cm^3
# Si number density = 20.460175 Si / 1000 Ang^3
#
#
#
# Elastic Constant Matrix: (Units=GPa)
#
#
# Indices 1 2 3 4 5 6 
#
# 1 76.9007 28.3120 37.6835 0.0000 0.0000 0.0000
# 2 28.3120 89.3935 38.3735 0.0000 0.0000 0.0000
# 3 37.6835 38.3735 84.3789 0.0000 0.0000 0.0000
# 4 0.0000 0.0000 0.0000 24.2475 0.0000 0.0000
# 5 0.0000 0.0000 0.0000 0.0000 34.9254 0.0000
# 6 0.0000 0.0000 0.0000 0.0000 0.0000 16.1546
#
#
#
# Elastic Compliance Matrix: (Units=1/GPa)
#
#
# Indices 1 2 3 4 5 6 
#
# 1 0.017142 -0.002663 -0.006445 0.000000 0.000000 0.000000
# 2 -0.002663 0.014314 -0.005320 0.000000 0.000000 0.000000
# 3 -0.006445 -0.005320 0.017149 0.000000 0.000000 0.000000
# 4 0.000000 0.000000 0.000000 0.041241 0.000000 0.000000
# 5 0.000000 0.000000 0.000000 0.000000 0.028632 0.000000
# 6 0.000000 0.000000 0.000000 0.000000 0.000000 0.061902
#
#
# Mechanical properties :
#
#
# Convention : Reuss Voigt Hill
#
# Bulk Modulus (GPa) = 50.63452 51.04570 50.84011
# Shear Modulus (GPa) = 23.16754 24.81910 23.99332
#
# Velocity S-wave (km/s) = 3.36865 3.48666 3.42816
# Velocity P-wave (km/s) = 6.31918 6.41966 6.36962
#
# Compressibility (1/GPa) = 0.01974937
#
# Stress axis : x y z
#
# Youngs Moduli (GPa) = 58.33561 69.86344 58.31198
#
# Poissons Ratio (x) = 0.18602 0.37581
# Poissons Ratio (y) = 0.15533 0.31024
# Poissons Ratio (z) = 0.37596 0.37170
#
# Static dielectric constant tensor:
#      x y z
#    x 3.590730 0.000000 0.000000 
#    y 0.000000 3.940610 0.000000 
#    z 0.000000 0.000000 3.653640 
# 
# 
# High freq. dielectric constant tensor:
#      x y z
#    x 1.777830 0.000000 0.000000 
#    y 0.000000 1.809650 0.000000 
#    z 0.000000 0.000000 1.795620 
# 
# From -- ./inp_files/7278.got.cif
#   From: 2010.03.12/outbox.cif.g09.slc.cpg/sg57_4_cif.got.tgz:7278.got - 2010.04.16 15:48:40.
