data_PCOD8232750
_publ_section_title
;
Structure prediction by ZEFSAII (Michael W. Deem and Ramdas Pophale) SiO2 
 PCOD8232750
Probable space group: P B C M
;
_chemical_formula_sum "Si O2"
_cell_formula_units_Z 48
_cell_length_a 28.582001
_cell_length_b 9.108522
_cell_length_c 9.554172
_cell_angle_alpha 90.000000
_cell_angle_beta 90.000000
_cell_angle_gamma 90.000000
_cell_volume 2487.331083
_symmetry_space_group_name_H-M "P B C M"
_symmetry_group_IT_number 57
_symmetry_cell_setting 'orthorhombic'
loop_
_space_group_symop_operation_xyz
x,y,z
-x,-y,1/2+z
x,1/2-y,-z
-x,1/2+y,1/2-z
-x,-y,-z
x,y,1/2-z
-x,1/2+y,z
x,1/2-y,1/2+z
loop_
_atom_site_type_symbol
_atom_site_label
_atom_site_fract_x
_atom_site_fract_y
_atom_site_fract_z
Si Si1 0.723017 0.601179 0.085418
Si Si2 0.534014 0.102525 0.585809
Si Si3 0.940865 0.978915 0.250000
Si Si4 0.806549 0.393077 0.092876
Si Si5 0.033625 0.351992 0.750000
Si Si6 0.893218 0.916106 0.523411
Si Si7 0.360148 0.606380 0.909104
O O1 0.726885 0.636956 0.250000
O O2 0.763853 0.491099 0.035977
O O3 0.673807 0.525562 0.045848
O O4 0.727819 0.750000 0.000000
O O5 0.530512 0.250000 0.500000
O O6 0.519145 0.119596 0.750000
O O7 0.587193 0.044650 0.575129
O O8 0.500000 0.000000 0.500000
O O9 0.966768 0.823271 0.250000
O O10 0.906486 0.997292 0.380651
O O11 0.979589 0.104784 0.250000
O O12 0.795751 0.340255 0.250000
O O13 0.852941 0.491693 0.096556
O O14 0.813218 0.250000 0.000000
O O15 0.059694 0.414255 0.885495
O O16 0.874789 0.750000 0.500000
O O17 0.350027 0.654188 0.750000
O O18 0.350393 0.750000 0.000000
#
# Coordination Sequence:
#
# PCOD8232750 Si02
#       7
#     8   8   4   8   4   8   8
#     4  10  22  40  60  86 116 149 187 232 282 340
#     4  10  20  35  55  82 115 156 198 245 296 348
#     4  10  22  34  60  84 112 152 184 226 277 330
#     4  11  24  40  60  86 115 145 185 233 279 334
#     4  10  20  38  56  84 116 146 188 230 275 324
#     4  10  21  39  59  83 114 151 187 229 278 328
#     4   9  19  36  58  83 115 150 193 241 289 342
#
# _framework density 19.297792999999999
#
# number of rings (size 3 to 8) (size 9 to 14) (size 15 to 20)
#    0.000    2.000    0.833    2.000    1.167    4.000 
#    0.000    1.667    0.000    0.000    0.000    0.000 
#    0.000    0.000    0.000    0.000    0.000    0.000 
#
# Total GULP energy -595242.816317 kJ/mol
# GULP energy per Si atom -12400.892007 kJ/mol
# Density = 1.925387 g / cm^3
# Si number density = 19.297793 Si / 1000 Ang^3
#
#
#
# Elastic Constant Matrix: (Units=GPa)
#
#
# Indices 1 2 3 4 5 6 
#
# 1 90.6868 44.3663 24.7797 0.0000 0.0000 0.0000
# 2 44.3663 84.8839 32.8274 0.0000 0.0000 0.0000
# 3 24.7797 32.8274 95.5176 0.0000 0.0000 0.0000
# 4 0.0000 0.0000 0.0000 34.5306 0.0000 0.0000
# 5 0.0000 0.0000 0.0000 0.0000 37.4848 0.0000
# 6 0.0000 0.0000 0.0000 0.0000 0.0000 36.2892
#
#
#
# Elastic Compliance Matrix: (Units=1/GPa)
#
#
# Indices 1 2 3 4 5 6 
#
# 1 0.014971 -0.007292 -0.001378 0.000000 0.000000 0.000000
# 2 -0.007292 0.017138 -0.003998 0.000000 0.000000 0.000000
# 3 -0.001378 -0.003998 0.012201 0.000000 0.000000 0.000000
# 4 0.000000 0.000000 0.000000 0.028960 0.000000 0.000000
# 5 0.000000 0.000000 0.000000 0.000000 0.026678 0.000000
# 6 0.000000 0.000000 0.000000 0.000000 0.000000 0.027556
#
#
# Mechanical properties :
#
#
# Convention : Reuss Voigt Hill
#
# Bulk Modulus (GPa) = 52.70393 52.78167 52.74280
# Shear Modulus (GPa) = 31.41399 32.93524 32.17461
#
# Velocity S-wave (km/s) = 4.03904 4.13569 4.08765
# Velocity P-wave (km/s) = 7.00871 7.08630 7.04761
#
# Compressibility (1/GPa) = 0.01897392
#
# Stress axis : x y z
#
# Youngs Moduli (GPa) = 66.79642 58.34840 81.96153
#
# Poissons Ratio (x) = 0.42548 0.11292
# Poissons Ratio (y) = 0.48708 0.32771
# Poissons Ratio (z) = 0.09203 0.23330
#
# Static dielectric constant tensor:
#      x y z
#    x 4.367860 0.000000 0.000000 
#    y 0.000000 3.318420 0.000000 
#    z 0.000000 0.000000 3.682830 
# 
# 
# High freq. dielectric constant tensor:
#      x y z
#    x 1.758240 0.000000 0.000000 
#    y 0.000000 1.741780 0.000000 
#    z 0.000000 0.000000 1.762630 
# 
# From -- ./inp_files/10101.got.cif
#   From: 2010.03.12/outbox.cif.g09.slc.cpg/sg57_6_cif.got.tgz:10101.got - 2010.04.16 15:48:40.
