data_PCOD8232205
_publ_section_title
;
Structure prediction by ZEFSAII (Michael W. Deem and Ramdas Pophale) SiO2 
 PCOD8232205
Probable space group: P B C M
;
_chemical_formula_sum "Si O2"
_cell_formula_units_Z 64
_cell_length_a 20.465205
_cell_length_b 20.500686
_cell_length_c 8.762986
_cell_angle_alpha 90.000000
_cell_angle_beta 90.000000
_cell_angle_gamma 90.000000
_cell_volume 3676.517275
_symmetry_space_group_name_H-M "P B C M"
_symmetry_group_IT_number 57
_symmetry_cell_setting 'orthorhombic'
loop_
_space_group_symop_operation_xyz
x,y,z
-x,-y,1/2+z
x,1/2-y,-z
-x,1/2+y,1/2-z
-x,-y,-z
x,y,1/2-z
-x,1/2+y,z
x,1/2-y,1/2+z
loop_
_atom_site_type_symbol
_atom_site_label
_atom_site_fract_x
_atom_site_fract_y
_atom_site_fract_z
Si Si1 0.784753 0.335226 0.420058
Si Si2 0.917181 0.314085 0.571271
Si Si3 0.057807 0.959041 0.571168
Si Si4 0.346158 0.645757 0.070134
Si Si5 0.672825 0.490952 0.073591
Si Si6 0.481645 0.683728 0.568964
Si Si7 0.541067 0.941825 0.572765
Si Si8 0.812979 0.486259 0.417292
O O1 0.789342 0.304677 0.250000
O O2 0.841488 0.307366 0.527172
O O3 0.716666 0.317310 0.500457
O O4 0.790544 0.412164 0.408968
O O5 0.953704 0.250000 0.500000
O O6 0.926669 0.311271 0.750000
O O7 0.944419 0.383966 0.508792
O O8 0.049326 0.959174 0.750000
O O9 0.126524 0.994626 0.532269
O O10 0.000000 0.000000 0.500000
O O11 0.348868 0.657097 0.250000
O O12 0.345186 0.568760 0.036115
O O13 0.408430 0.677349 0.991677
O O14 0.673454 0.466348 0.250000
O O15 0.618398 0.546281 0.051522
O O16 0.744961 0.521678 0.031825
O O17 0.512029 0.750000 0.500000
O O18 0.481434 0.686108 0.750000
O O19 0.526394 0.624618 0.513859
O O20 0.521527 0.935842 0.750000
O O21 0.500000 0.000000 0.500000
O O22 0.836284 0.510692 0.250000
#
# Coordination Sequence:
#
# PCOD8232205 Si02
#       8
#     8   8   8   8   8   8   8   8
#     4   9  17  30  47  67  96 133 170 207 248 292
#     4  10  20  33  49  72 100 133 174 212 249 295
#     4  10  20  33  51  76 105 138 173 211 252 303
#     4  11  20  31  49  72  99 132 172 213 257 304
#     4   9  18  32  52  76 104 135 170 211 256 305
#     4  12  25  40  53  70  99 133 173 220 271 325
#     4  11  21  35  56  81 105 135 174 216 263 313
#     4   8  15  29  48  72 101 133 166 205 250 296
#
# _framework density 17.407779000000001
#
# number of rings (size 3 to 8) (size 9 to 14) (size 15 to 20)
#    0.000    2.000    1.250    4.500    0.000    5.500 
#    0.000    2.500    0.000    0.000    0.000    0.875 
#    0.000    4.000    0.000    0.000    0.000    0.000 
#
# Total GULP energy -793286.855938 kJ/mol
# GULP energy per Si atom -12395.107124 kJ/mol
# Density = 1.736816 g / cm^3
# Si number density = 17.407779 Si / 1000 Ang^3
#
#
#
# Elastic Constant Matrix: (Units=GPa)
#
#
# Indices 1 2 3 4 5 6 
#
# 1 101.9004 50.3002 36.8367 0.0000 0.0000 0.0000
# 2 50.3002 91.1702 37.7707 0.0000 0.0000 0.0000
# 3 36.8367 37.7707 102.7191 0.0000 0.0000 0.0000
# 4 0.0000 0.0000 0.0000 25.6147 0.0000 0.0000
# 5 0.0000 0.0000 0.0000 0.0000 26.7741 0.0000
# 6 0.0000 0.0000 0.0000 0.0000 0.0000 4.5225
#
#
#
# Elastic Compliance Matrix: (Units=1/GPa)
#
#
# Indices 1 2 3 4 5 6 
#
# 1 0.014043 -0.006679 -0.002580 0.000000 0.000000 0.000000
# 2 -0.006679 0.016116 -0.003531 0.000000 0.000000 0.000000
# 3 -0.002580 -0.003531 0.011959 0.000000 0.000000 0.000000
# 4 0.000000 0.000000 0.000000 0.039040 0.000000 0.000000
# 5 0.000000 0.000000 0.000000 0.000000 0.037350 0.000000
# 6 0.000000 0.000000 0.000000 0.000000 0.000000 0.221118
#
#
# Mechanical properties :
#
#
# Convention : Reuss Voigt Hill
#
# Bulk Modulus (GPa) = 60.46595 60.62277 60.54436
# Shear Modulus (GPa) = 13.48731 22.77439 18.13085
#
# Velocity S-wave (km/s) = 2.78652 3.62095 3.23079
# Velocity P-wave (km/s) = 6.72037 7.23757 6.98376
#
# Compressibility (1/GPa) = 0.01653823
#
# Stress axis : x y z
#
# Youngs Moduli (GPa) = 71.20953 62.04955 83.61949
#
# Poissons Ratio (x) = 0.41442 0.21575
# Poissons Ratio (y) = 0.47560 0.29525
# Poissons Ratio (z) = 0.18373 0.21909
#
# Static dielectric constant tensor:
#      x y z
#    x 2.818360 0.000000 0.000000 
#    y 0.000000 3.319410 0.000000 
#    z 0.000000 0.000000 3.349240 
# 
# 
# High freq. dielectric constant tensor:
#      x y z
#    x 1.657010 0.000000 0.000000 
#    y 0.000000 1.645750 0.000000 
#    z 0.000000 0.000000 1.684720 
# 
# From -- ./inp_files/8594.got.cif
#   From: 2010.03.12/outbox.cif.g09.slc.cpg/sg57_5_cif.got.tgz:8594.got - 2010.04.16 15:48:40.
