data_PCOD8232241
_publ_section_title
;
Structure prediction by ZEFSAII (Michael W. Deem and Ramdas Pophale) SiO2 
 PCOD8232241
Probable space group: P B C M
;
_chemical_formula_sum "Si O2"
_cell_formula_units_Z 64
_cell_length_a 23.045645
_cell_length_b 17.098141
_cell_length_c 9.375223
_cell_angle_alpha 90.000000
_cell_angle_beta 90.000000
_cell_angle_gamma 90.000000
_cell_volume 3694.191192
_symmetry_space_group_name_H-M "P B C M"
_symmetry_group_IT_number 57
_symmetry_cell_setting 'orthorhombic'
loop_
_space_group_symop_operation_xyz
x,y,z
-x,-y,1/2+z
x,1/2-y,-z
-x,1/2+y,1/2-z
-x,-y,-z
x,y,1/2-z
-x,1/2+y,z
x,1/2-y,1/2+z
loop_
_atom_site_type_symbol
_atom_site_label
_atom_site_fract_x
_atom_site_fract_y
_atom_site_fract_z
Si Si1 0.569651 0.409406 0.586355
Si Si2 0.633960 0.960234 0.586189
Si Si3 0.684162 0.323370 0.910369
Si Si4 0.453987 0.172330 0.087724
Si Si5 0.870869 0.012523 0.083389
Si Si6 0.963271 0.563257 0.083562
Si Si7 0.064633 0.671214 0.413878
Si Si8 0.736551 0.485042 0.583606
O O1 0.566008 0.439349 0.750000
O O2 0.589550 0.480045 0.487116
O O3 0.615524 0.338545 0.574480
O O4 0.507919 0.378840 0.529344
O O5 0.642963 0.985595 0.750000
O O6 0.605804 0.874931 0.575123
O O7 0.696248 0.956098 0.506959
O O8 0.702041 0.304265 0.750000
O O9 0.719722 0.398051 0.965534
O O10 0.704611 0.250000 0.000000
O O11 0.467811 0.195474 0.250000
O O12 0.445742 0.250000 0.000000
O O13 0.885018 0.999986 0.250000
O O14 0.893768 0.098981 0.037304
O O15 0.803494 0.002160 0.049135
O O16 0.900383 0.942111 0.991888
O O17 0.958081 0.541510 0.250000
O O18 0.996793 0.646080 0.065170
O O19 0.000000 0.500000 0.000000
O O20 0.078491 0.750000 0.500000
O O21 0.077386 0.690884 0.250000
O O22 0.722168 0.497345 0.750000
#
# Coordination Sequence:
#
# PCOD8232241 Si02
#       8
#     8   8   8   8   8   8   8   8
#     4   9  18  33  50  69  95 127 160 194 240 296
#     4  10  20  33  50  74  99 124 161 205 243 286
#     4   9  17  28  43  64  92 125 158 192 232 282
#     4  10  21  34  50  74 100 124 155 199 249 300
#     4   9  18  33  51  71  95 126 166 205 239 279
#     4   9  17  30  48  71  98 127 159 194 231 272
#     4   9  18  30  46  72 104 131 154 187 231 278
#     4   9  19  35  51  67  93 130 166 200 241 287
#
# _framework density 17.324494999999999
#
# number of rings (size 3 to 8) (size 9 to 14) (size 15 to 20)
#    0.000    2.750    0.000    3.000    0.000    7.000 
#    0.000    0.000    0.000    0.750    0.000    0.000 
#    0.000    0.000    0.000    0.000    0.000    0.000 
#
# Total GULP energy -793339.506625 kJ/mol
# GULP energy per Si atom -12395.929791 kJ/mol
# Density = 1.728506 g / cm^3
# Si number density = 17.324495 Si / 1000 Ang^3
#
#
#
# Elastic Constant Matrix: (Units=GPa)
#
#
# Indices 1 2 3 4 5 6 
#
# 1 110.7878 32.1349 45.0266 0.0000 0.0000 0.0000
# 2 32.1349 51.2363 37.4230 0.0000 0.0000 0.0000
# 3 45.0266 37.4230 77.7845 0.0000 0.0000 0.0000
# 4 0.0000 0.0000 0.0000 30.5300 0.0000 0.0000
# 5 0.0000 0.0000 0.0000 0.0000 27.9422 0.0000
# 6 0.0000 0.0000 0.0000 0.0000 0.0000 14.8729
#
#
#
# Elastic Compliance Matrix: (Units=1/GPa)
#
#
# Indices 1 2 3 4 5 6 
#
# 1 0.012281 -0.003870 -0.005247 0.000000 0.000000 0.000000
# 2 -0.003870 0.031311 -0.012824 0.000000 0.000000 0.000000
# 3 -0.005247 -0.012824 0.022063 0.000000 0.000000 0.000000
# 4 0.000000 0.000000 0.000000 0.032755 0.000000 0.000000
# 5 0.000000 0.000000 0.000000 0.000000 0.035788 0.000000
# 6 0.000000 0.000000 0.000000 0.000000 0.000000 0.067236
#
#
# Mechanical properties :
#
#
# Convention : Reuss Voigt Hill
#
# Bulk Modulus (GPa) = 45.92797 52.10862 49.01829
# Shear Modulus (GPa) = 19.79603 23.01728 21.40665
#
# Velocity S-wave (km/s) = 3.38399 3.64895 3.51897
# Velocity P-wave (km/s) = 6.46812 6.92072 6.69824
#
# Compressibility (1/GPa) = 0.02177322
#
# Stress axis : x y z
#
# Youngs Moduli (GPa) = 81.42357 31.93728 45.32427
#
# Poissons Ratio (x) = 0.12360 0.23783
# Poissons Ratio (y) = 0.31512 0.58124
# Poissons Ratio (z) = 0.42725 0.40956
#
# Static dielectric constant tensor:
#      x y z
#    x 3.595620 0.000000 0.000000 
#    y 0.000000 3.025360 0.000000 
#    z 0.000000 0.000000 3.310910 
# 
# 
# High freq. dielectric constant tensor:
#      x y z
#    x 1.666820 0.000000 0.000000 
#    y 0.000000 1.639290 0.000000 
#    z 0.000000 0.000000 1.672270 
# 
# From -- ./inp_files/9546.got.cif
#   From: 2010.03.12/outbox.cif.g09.slc.cpg/sg57_5_cif.got.tgz:9546.got - 2010.04.16 15:48:40.
