data_PCOD8232644
_publ_section_title
;
Structure prediction by ZEFSAII (Michael W. Deem and Ramdas Pophale) SiO2 
 PCOD8232644
Probable space group: P B C M
;
_chemical_formula_sum "Si O2"
_cell_formula_units_Z 48
_cell_length_a 11.889282
_cell_length_b 26.071964
_cell_length_c 8.608936
_cell_angle_alpha 90.000000
_cell_angle_beta 90.000000
_cell_angle_gamma 90.000000
_cell_volume 2668.571572
_symmetry_space_group_name_H-M "P B C M"
_symmetry_group_IT_number 57
_symmetry_cell_setting 'orthorhombic'
loop_
_space_group_symop_operation_xyz
x,y,z
-x,-y,1/2+z
x,1/2-y,-z
-x,1/2+y,1/2-z
-x,-y,-z
x,y,1/2-z
-x,1/2+y,z
x,1/2-y,1/2+z
loop_
_atom_site_type_symbol
_atom_site_label
_atom_site_fract_x
_atom_site_fract_y
_atom_site_fract_z
Si Si1 0.483034 0.381275 0.568145
Si Si2 0.352539 0.539324 0.569155
Si Si3 0.671783 0.194233 0.432204
Si Si4 0.036046 0.054843 0.933351
Si Si5 0.166053 0.894847 0.933145
Si Si6 0.293082 0.435410 0.431045
O O1 0.459673 0.376924 0.750000
O O2 0.554592 0.432215 0.533381
O O3 0.556442 0.332562 0.507799
O O4 0.363214 0.384007 0.477698
O O5 0.377487 0.548320 0.750000
O O6 0.229671 0.559707 0.522605
O O7 0.354515 0.479540 0.529300
O O8 0.687506 0.250000 0.500000
O O9 0.665217 0.199100 0.250000
O O10 0.780006 0.159909 0.480095
O O11 0.018905 0.054009 0.750000
O O12 0.163283 0.069417 0.979246
O O13 0.962429 0.100570 0.010007
O O14 0.000000 0.000000 0.000000
O O15 0.176264 0.904527 0.750000
O O16 0.304781 0.447373 0.250000
#
# Coordination Sequence:
#
# PCOD8232644 Si02
#       6
#     8   8   8   8   8   8
#     4  10  21  36  52  75 106 137 174 218 267 318
#     4  11  20  31  50  74 104 143 180 215 261 310
#     4   9  20  37  59  83 105 132 168 221 277 324
#     4  11  22  34  52  76 108 148 186 221 261 311
#     4  10  20  35  53  78 110 140 179 224 265 314
#     4  11  22  34  49  73 107 144 181 218 257 309
#
# _framework density 17.987151000000001
#
# number of rings (size 3 to 8) (size 9 to 14) (size 15 to 20)
#    0.000    1.667    1.667    5.000    0.000    6.000 
#    0.000    0.000    0.000    1.000    0.000    0.000 
#    0.000    0.000    0.000    0.000    0.000    0.000 
#
# Total GULP energy -595156.523580 kJ/mol
# GULP energy per Si atom -12399.094241 kJ/mol
# Density = 1.794621 g / cm^3
# Si number density = 17.987151 Si / 1000 Ang^3
#
#
#
# Elastic Constant Matrix: (Units=GPa)
#
#
# Indices 1 2 3 4 5 6 
#
# 1 122.7728 55.5824 25.2930 0.0000 0.0000 0.0000
# 2 55.5824 98.6977 24.4017 0.0000 0.0000 0.0000
# 3 25.2930 24.4017 52.7325 0.0000 0.0000 0.0000
# 4 0.0000 0.0000 0.0000 27.8632 0.0000 0.0000
# 5 0.0000 0.0000 0.0000 0.0000 32.4490 0.0000
# 6 0.0000 0.0000 0.0000 0.0000 0.0000 16.6391
#
#
#
# Elastic Compliance Matrix: (Units=1/GPa)
#
#
# Indices 1 2 3 4 5 6 
#
# 1 0.011285 -0.005665 -0.002791 0.000000 0.000000 0.000000
# 2 -0.005665 0.014285 -0.003893 0.000000 0.000000 0.000000
# 3 -0.002791 -0.003893 0.022104 0.000000 0.000000 0.000000
# 4 0.000000 0.000000 0.000000 0.035890 0.000000 0.000000
# 5 0.000000 0.000000 0.000000 0.000000 0.030818 0.000000
# 6 0.000000 0.000000 0.000000 0.000000 0.000000 0.060099
#
#
# Mechanical properties :
#
#
# Convention : Reuss Voigt Hill
#
# Bulk Modulus (GPa) = 43.52572 53.86192 48.69382
# Shear Modulus (GPa) = 24.17363 26.65201 25.41282
#
# Velocity S-wave (km/s) = 3.66995 3.85349 3.76284
# Velocity P-wave (km/s) = 6.49683 7.05754 6.78298
#
# Compressibility (1/GPa) = 0.02297492
#
# Stress axis : x y z
#
# Youngs Moduli (GPa) = 88.61403 70.00472 45.24085
#
# Poissons Ratio (x) = 0.39658 0.12628
# Poissons Ratio (y) = 0.50200 0.17612
# Poissons Ratio (z) = 0.24735 0.27253
#
# Static dielectric constant tensor:
#      x y z
#    x 3.641320 0.000000 0.000000 
#    y 0.000000 2.205460 0.000000 
#    z 0.000000 0.000000 3.393220 
# 
# 
# High freq. dielectric constant tensor:
#      x y z
#    x 1.705020 0.000000 0.000000 
#    y 0.000000 1.657140 0.000000 
#    z 0.000000 0.000000 1.705960 
# 
# From -- ./inp_files/3118.got.cif
#   From: 2010.03.12/outbox.cif.g09.slc.cpg/sg57_2_cif.got.tgz:3118.got - 2010.04.16 15:48:40.
