data_PCOD8232532
_publ_section_title
;
Structure prediction by ZEFSAII (Michael W. Deem and Ramdas Pophale) SiO2 
 PCOD8232532
Probable space group: P B C M
;
_chemical_formula_sum "Si O2"
_cell_formula_units_Z 56
_cell_length_a 17.623239
_cell_length_b 19.088324
_cell_length_c 8.946327
_cell_angle_alpha 90.000000
_cell_angle_beta 90.000000
_cell_angle_gamma 90.000000
_cell_volume 3009.527369
_symmetry_space_group_name_H-M "P B C M"
_symmetry_group_IT_number 57
_symmetry_cell_setting 'orthorhombic'
loop_
_space_group_symop_operation_xyz
x,y,z
-x,-y,1/2+z
x,1/2-y,-z
-x,1/2+y,1/2-z
-x,-y,-z
x,y,1/2-z
-x,1/2+y,z
x,1/2-y,1/2+z
loop_
_atom_site_type_symbol
_atom_site_label
_atom_site_fract_x
_atom_site_fract_y
_atom_site_fract_z
Si Si1 0.504486 0.174824 0.426363
Si Si2 0.633388 0.413574 0.075107
Si Si3 0.907447 0.677841 0.426246
Si Si4 0.921395 0.178889 0.425123
Si Si5 0.366473 0.074214 0.424475
Si Si6 0.787405 0.080659 0.420360
Si Si7 0.211925 0.417410 0.420339
O O1 0.490532 0.250000 0.500000
O O2 0.511107 0.184764 0.250000
O O3 0.580728 0.139668 0.485934
O O4 0.435806 0.123577 0.470540
O O5 0.623049 0.399924 0.250000
O O6 0.613337 0.493973 0.031874
O O7 0.719251 0.396115 0.027986
O O8 0.880510 0.750000 0.500000
O O9 0.900182 0.685205 0.250000
O O10 0.853358 0.617017 0.482342
O O11 0.993361 0.659289 0.476886
O O12 0.893092 0.250000 0.500000
O O13 0.919659 0.190950 0.250000
O O14 0.864093 0.118097 0.475389
O O15 0.346904 0.078914 0.250000
O O16 0.294376 0.102056 0.515661
O O17 0.766485 0.101104 0.250000
O O18 0.803430 0.999141 0.434148
O O19 0.207856 0.391063 0.250000
#
# Coordination Sequence:
#
# PCOD8232532 Si02
#       7
#     8   8   8   8   8   8   8
#     4  11  23  38  56  80 109 140 175 218 265 313
#     4  10  20  36  58  82 107 139 178 218 265 318
#     4  10  20  35  54  76 105 140 178 220 266 317
#     4   9  19  35  54  76 104 140 179 219 264 314
#     4   9  20  38  58  79 106 141 180 220 263 314
#     4   9  19  36  55  78 109 142 178 219 264 314
#     4  10  20  34  55  81 108 140 177 218 265 316
#
# _framework density 18.607572999999999
#
# number of rings (size 3 to 8) (size 9 to 14) (size 15 to 20)
#    0.000    2.286    0.000    2.143    0.000    5.143 
#    0.000    2.857    0.000    0.000    0.000    0.000 
#    0.000    0.000    0.000    0.000    0.000    0.000 
#
# Total GULP energy -694572.161267 kJ/mol
# GULP energy per Si atom -12403.074308 kJ/mol
# Density = 1.856522 g / cm^3
# Si number density = 18.607573 Si / 1000 Ang^3
#
#
#
# Elastic Constant Matrix: (Units=GPa)
#
#
# Indices 1 2 3 4 5 6 
#
# 1 99.1272 51.7308 40.6003 0.0000 0.0000 0.0000
# 2 51.7308 70.1499 33.6605 0.0000 0.0000 0.0000
# 3 40.6003 33.6605 67.8307 0.0000 0.0000 0.0000
# 4 0.0000 0.0000 0.0000 32.2810 0.0000 0.0000
# 5 0.0000 0.0000 0.0000 0.0000 25.7150 0.0000
# 6 0.0000 0.0000 0.0000 0.0000 0.0000 18.3403
#
#
#
# Elastic Compliance Matrix: (Units=1/GPa)
#
#
# Indices 1 2 3 4 5 6 
#
# 1 0.017806 -0.010522 -0.005436 0.000000 0.000000 0.000000
# 2 -0.010522 0.024928 -0.006072 0.000000 0.000000 0.000000
# 3 -0.005436 -0.006072 0.021010 0.000000 0.000000 0.000000
# 4 0.000000 0.000000 0.000000 0.030978 0.000000 0.000000
# 5 0.000000 0.000000 0.000000 0.000000 0.038888 0.000000
# 6 0.000000 0.000000 0.000000 0.000000 0.000000 0.054525
#
#
# Mechanical properties :
#
#
# Convention : Reuss Voigt Hill
#
# Bulk Modulus (GPa) = 50.80666 54.34343 52.57504
# Shear Modulus (GPa) = 20.94185 22.67500 21.80843
#
# Velocity S-wave (km/s) = 3.35841 3.49462 3.42719
# Velocity P-wave (km/s) = 6.51169 6.74919 6.63150
#
# Compressibility (1/GPa) = 0.01968246
#
# Stress axis : x y z
#
# Youngs Moduli (GPa) = 56.16210 40.11517 47.59672
#
# Poissons Ratio (x) = 0.42209 0.25874
# Poissons Ratio (y) = 0.59094 0.28903
# Poissons Ratio (z) = 0.30531 0.24360
#
# Static dielectric constant tensor:
#      x y z
#    x 3.503160 0.000000 0.000000 
#    y 0.000000 3.433430 0.000000 
#    z 0.000000 0.000000 3.472520 
# 
# 
# High freq. dielectric constant tensor:
#      x y z
#    x 1.728780 0.000000 0.000000 
#    y 0.000000 1.718600 0.000000 
#    z 0.000000 0.000000 1.728860 
# 
# From -- ./inp_files/5154.got.cif
#   From: 2010.03.12/outbox.cif.g09.slc.cpg/sg57_3_cif.got.tgz:5154.got - 2010.04.16 15:48:40.
