data_PCOD8232758
_publ_section_title
;
Structure prediction by ZEFSAII (Michael W. Deem and Ramdas Pophale) SiO2 
 PCOD8232758
Probable space group: P B C M
;
_chemical_formula_sum "Si O2"
_cell_formula_units_Z 48
_cell_length_a 12.636821
_cell_length_b 23.639199
_cell_length_c 8.740259
_cell_angle_alpha 90.000000
_cell_angle_beta 90.000000
_cell_angle_gamma 90.000000
_cell_volume 2610.927982
_symmetry_space_group_name_H-M "P B C M"
_symmetry_group_IT_number 57
_symmetry_cell_setting 'orthorhombic'
loop_
_space_group_symop_operation_xyz
x,y,z
-x,-y,1/2+z
x,1/2-y,-z
-x,1/2+y,1/2-z
-x,-y,-z
x,y,1/2-z
-x,1/2+y,z
x,1/2-y,1/2+z
loop_
_atom_site_type_symbol
_atom_site_label
_atom_site_fract_x
_atom_site_fract_y
_atom_site_fract_z
Si Si1 0.884949 0.005170 0.430730
Si Si2 0.998115 0.189561 0.931839
Si Si3 0.191839 0.113219 0.931182
Si Si4 0.382513 0.810089 0.430959
Si Si5 0.803585 0.126125 0.068555
Si Si6 0.622932 0.690681 0.569669
O O1 0.897838 0.004338 0.250000
O O2 0.828821 0.062447 0.486497
O O3 0.814635 0.951783 0.487512
O O4 0.000000 0.000000 0.500000
O O5 0.991376 0.193120 0.750000
O O6 0.088349 0.146490 0.989778
O O7 0.027657 0.250000 0.000000
O O8 0.886131 0.169667 0.996639
O O9 0.194047 0.115853 0.750000
O O10 0.299099 0.141972 0.995401
O O11 0.347662 0.750000 0.500000
O O12 0.366416 0.808307 0.250000
O O13 0.312151 0.859202 0.505080
O O14 0.503152 0.824287 0.477945
O O15 0.806171 0.131841 0.250000
O O16 0.659621 0.750000 0.500000
O O17 0.633229 0.696526 0.750000
#
# Coordination Sequence:
#
# PCOD8232758 Si02
#       6
#     8   8   8   8   8   8
#     4  10  20  36  56  77 104 141 180 218 260 312
#     4  11  21  33  52  77 108 138 170 215 265 319
#     4   9  18  34  55  78 105 138 173 213 265 316
#     4  10  20  35  56  79 106 139 176 218 263 315
#     4  11  22  35  53  77 106 139 178 219 261 311
#     4   9  18  34  56  80 106 138 174 214 264 317
#
# _framework density 18.384267999999999
#
# number of rings (size 3 to 8) (size 9 to 14) (size 15 to 20)
#    0.000    2.000    1.667    2.500    0.000    1.333 
#    0.000    2.500    0.000    0.000    0.000    0.000 
#    0.000    0.000    0.000    0.000    0.000    0.000 
#
# Total GULP energy -595267.407673 kJ/mol
# GULP energy per Si atom -12401.404327 kJ/mol
# Density = 1.834242 g / cm^3
# Si number density = 18.384268 Si / 1000 Ang^3
#
#
#
# Elastic Constant Matrix: (Units=GPa)
#
#
# Indices 1 2 3 4 5 6 
#
# 1 116.5713 66.3753 24.1550 0.0000 0.0000 0.0000
# 2 66.3753 135.9634 29.2161 0.0000 0.0000 0.0000
# 3 24.1550 29.2161 46.5801 0.0000 0.0000 0.0000
# 4 0.0000 0.0000 0.0000 21.7076 0.0000 0.0000
# 5 0.0000 0.0000 0.0000 0.0000 20.9655 0.0000
# 6 0.0000 0.0000 0.0000 0.0000 0.0000 35.4175
#
#
#
# Elastic Compliance Matrix: (Units=1/GPa)
#
#
# Indices 1 2 3 4 5 6 
#
# 1 0.012234 -0.005327 -0.003003 0.000000 0.000000 0.000000
# 2 -0.005327 0.010820 -0.004024 0.000000 0.000000 0.000000
# 3 -0.003003 -0.004024 0.025550 0.000000 0.000000 0.000000
# 4 0.000000 0.000000 0.000000 0.046067 0.000000 0.000000
# 5 0.000000 0.000000 0.000000 0.000000 0.047697 0.000000
# 6 0.000000 0.000000 0.000000 0.000000 0.000000 0.028235
#
#
# Mechanical properties :
#
#
# Convention : Reuss Voigt Hill
#
# Bulk Modulus (GPa) = 41.84900 59.84528 50.84714
# Shear Modulus (GPa) = 24.59707 27.57602 26.08654
#
# Velocity S-wave (km/s) = 3.66176 3.87716 3.77100
# Velocity P-wave (km/s) = 6.37894 7.25715 6.83217
#
# Compressibility (1/GPa) = 0.02389543
#
# Stress axis : x y z
#
# Youngs Moduli (GPa) = 81.73985 92.41885 39.13952
#
# Poissons Ratio (x) = 0.49233 0.11753
# Poissons Ratio (y) = 0.43544 0.15751
# Poissons Ratio (z) = 0.24545 0.37192
#
# Static dielectric constant tensor:
#      x y z
#    x 3.461500 0.000000 0.000000 
#    y 0.000000 3.733350 0.000000 
#    z 0.000000 0.000000 3.258750 
# 
# 
# High freq. dielectric constant tensor:
#      x y z
#    x 1.715280 0.000000 0.000000 
#    y 0.000000 1.716380 0.000000 
#    z 0.000000 0.000000 1.702950 
# 
# From -- ./inp_files/3110.got.cif
#   From: 2010.03.12/outbox.cif.g09.slc.cpg/sg57_2_cif.got.tgz:3110.got - 2010.04.16 15:48:40.
