data_PCOD8232025
_publ_section_title
;
Structure prediction by ZEFSAII (Michael W. Deem and Ramdas Pophale) SiO2 
 PCOD8232025
Probable space group: P B C M
;
_chemical_formula_sum "Si O2"
_cell_formula_units_Z 36
_cell_length_a 8.130292
_cell_length_b 15.004890
_cell_length_c 15.254851
_cell_angle_alpha 90.000000
_cell_angle_beta 90.000000
_cell_angle_gamma 90.000000
_cell_volume 1861.002385
_symmetry_space_group_name_H-M "P B C M"
_symmetry_group_IT_number 57
_symmetry_cell_setting 'orthorhombic'
loop_
_space_group_symop_operation_xyz
x,y,z
-x,-y,1/2+z
x,1/2-y,-z
-x,1/2+y,1/2-z
-x,-y,-z
x,y,1/2-z
-x,1/2+y,z
x,1/2-y,1/2+z
loop_
_atom_site_type_symbol
_atom_site_label
_atom_site_fract_x
_atom_site_fract_y
_atom_site_fract_z
Si Si1 0.187291 0.819461 0.250000
Si Si2 0.394903 0.425632 0.902384
Si Si3 0.811981 0.519026 0.250000
Si Si4 0.618878 0.594136 0.902649
Si Si5 0.873704 0.921007 0.250000
Si Si6 0.394239 0.756831 0.600492
O O1 0.241303 0.764943 0.336384
O O2 0.988340 0.831751 0.250000
O O3 0.267940 0.918888 0.250000
O O4 0.244866 0.424479 0.834295
O O5 0.475374 0.522272 0.895638
O O6 0.536694 0.354735 0.878511
O O7 0.315374 0.406238 0.997374
O O8 0.010129 0.509209 0.250000
O O9 0.767138 0.574661 0.837513
O O10 0.543752 0.689859 0.879638
O O11 0.332762 0.750000 0.500000
#
# Coordination Sequence:
#
# PCOD8232025 Si02
#       6
#     4   8   4   8   4   8
#     4  10  20  38  57  82 120 152 181 235 290 347
#     4  10  20  35  63  84 110 149 204 240 275 333
#     4  10  20  36  55  84 112 160 183 233 294 339
#     4  10  19  37  57  87 114 149 191 243 281 334
#     4  10  22  36  60  80 124 160 176 230 312 342
#     4  10  20  37  63  87 110 149 199 242 283 333
#
# _framework density 19.344414
#
# number of rings (size 3 to 8) (size 9 to 14) (size 15 to 20)
#    0.667    1.333    2.222    2.000    0.000    0.889 
#    0.000    7.778    0.000    0.000    0.000    0.000 
#    0.000    0.000    0.000    0.000    0.000    0.000 
#
# Total GULP energy -446302.838645 kJ/mol
# GULP energy per Si atom -12397.301073 kJ/mol
# Density = 1.930038 g / cm^3
# Si number density = 19.344414 Si / 1000 Ang^3
#
#
#
# Elastic Constant Matrix: (Units=GPa)
#
#
# Indices 1 2 3 4 5 6 
#
# 1 70.9958 -11.1455 62.3729 0.0000 0.0000 0.0000
# 2 -11.1455 42.6353 15.1368 0.0000 0.0000 0.0000
# 3 62.3729 15.1368 135.7750 0.0000 0.0000 0.0000
# 4 0.0000 0.0000 0.0000 22.1856 0.0000 0.0000
# 5 0.0000 0.0000 0.0000 0.0000 14.5649 0.0000
# 6 0.0000 0.0000 0.0000 0.0000 0.0000 23.1357
#
#
#
# Elastic Compliance Matrix: (Units=1/GPa)
#
#
# Indices 1 2 3 4 5 6 
#
# 1 0.029118 0.012870 -0.014811 0.000000 0.000000 0.000000
# 2 0.012870 0.030110 -0.009269 0.000000 0.000000 0.000000
# 3 -0.014811 -0.009269 0.015203 0.000000 0.000000 0.000000
# 4 0.000000 0.000000 0.000000 0.045074 0.000000 0.000000
# 5 0.000000 0.000000 0.000000 0.000000 0.068658 0.000000
# 6 0.000000 0.000000 0.000000 0.000000 0.000000 0.043223
#
#
# Mechanical properties :
#
#
# Convention : Reuss Voigt Hill
#
# Bulk Modulus (GPa) = 19.22689 42.45940 30.84314
# Shear Modulus (GPa) = 18.44041 24.18005 21.31023
#
# Velocity S-wave (km/s) = 3.09085 3.53934 3.32267
# Velocity P-wave (km/s) = 4.76431 6.22088 5.54067
#
# Compressibility (1/GPa) = 0.05201050
#
# Stress axis : x y z
#
# Youngs Moduli (GPa) = 34.34278 33.21146 65.77829
#
# Poissons Ratio (x) = -0.42744 0.97426
# Poissons Ratio (y) = -0.44200 0.60972
# Poissons Ratio (z) = 0.50866 0.30785
#
# Static dielectric constant tensor:
#      x y z
#    x 3.069320 0.000000 0.000000 
#    y 0.000000 3.524850 0.000000 
#    z 0.000000 0.000000 3.752270 
# 
# 
# High freq. dielectric constant tensor:
#      x y z
#    x 1.715740 0.000000 0.000000 
#    y 0.000000 1.753010 0.000000 
#    z 0.000000 0.000000 1.770090 
# 
# From -- ./inp_files/16085.got.cif
#   From: 2010.03.12/outbox.cif.g09.slc.cpg/sg57_9_cif.got.tgz:16085.got - 2010.04.16 15:48:40.
