data_PCOD8232100
_publ_section_title
;
Structure prediction by ZEFSAII (Michael W. Deem and Ramdas Pophale) SiO2 
 PCOD8232100
Probable space group: P B C M
;
_chemical_formula_sum "Si O2"
_cell_formula_units_Z 64
_cell_length_a 15.011271
_cell_length_b 17.510633
_cell_length_c 14.214084
_cell_angle_alpha 90.000000
_cell_angle_beta 90.000000
_cell_angle_gamma 90.000000
_cell_volume 3736.269450
_symmetry_space_group_name_H-M "P B C M"
_symmetry_group_IT_number 57
_symmetry_cell_setting 'orthorhombic'
loop_
_space_group_symop_operation_xyz
x,y,z
-x,-y,1/2+z
x,1/2-y,-z
-x,1/2+y,1/2-z
-x,-y,-z
x,y,1/2-z
-x,1/2+y,z
x,1/2-y,1/2+z
loop_
_atom_site_type_symbol
_atom_site_label
_atom_site_fract_x
_atom_site_fract_y
_atom_site_fract_z
Si Si1 0.261174 0.450487 0.642244
Si Si2 0.603814 0.486294 0.000000
Si Si3 0.971337 0.339306 1.000000
Si Si4 0.164501 0.893800 0.357682
Si Si5 0.835499 0.106200 0.357682
Si Si6 0.738826 0.549513 0.642244
Si Si7 0.698264 0.165421 1.000000
Si Si8 0.179874 0.161054 0.500000
O O1 0.283189 0.431541 0.750000
O O2 0.352589 0.476533 0.592725
O O3 0.187487 0.516815 0.632186
O O4 0.222237 0.375183 0.593535
O O5 0.618158 0.395038 0.000000
O O6 0.500000 0.500000 0.000000
O O7 0.647411 0.523467 0.907275
O O8 0.930096 0.378297 0.906925
O O9 0.948126 0.250000 0.000000
O O10 0.930096 0.378297 0.093075
O O11 0.075360 0.354833 0.000000
O O12 0.158339 0.867803 0.250000
O O13 0.240953 0.844441 0.407663
O O14 0.841661 0.132197 0.250000
O O15 0.759047 0.155559 0.407663
O O16 0.812513 0.016815 0.367814
O O17 0.716811 0.568459 0.750000
O O18 0.777763 0.624817 0.593535
O O19 0.656318 0.250000 0.000000
O O20 0.202723 0.250000 0.500000
#
# Coordination Sequence:
#
# PCOD8232100 Si02
#       8
#     8   8   8   8   8   8   8   8
#     4   9  19  35  53  72  94 126 165 199 242 299
#     4   9  18  34  54  76 101 127 157 199 244 290
#     4  10  20  30  43  69 100 129 165 205 242 281
#     4   9  17  30  49  71  96 126 158 196 243 294
#     4   9  17  30  49  71  96 126 158 196 243 294
#     4   9  19  35  53  72  94 126 165 199 242 299
#     4   9  17  29  47  72 100 127 155 190 238 295
#     4  10  21  35  49  67  96 133 170 209 245 275
#
# _framework density 17.129384999999999
#
# number of rings (size 3 to 8) (size 9 to 14) (size 15 to 20)
#    0.000    2.750    0.000    3.750    0.000    6.000 
#    0.000    7.500    0.000    0.000    0.000    0.000 
#    0.000    0.000    0.000    0.000    0.000    0.000 
#
# Total GULP energy -793618.436805 kJ/mol
# GULP energy per Si atom -12400.288075 kJ/mol
# Density = 1.709040 g / cm^3
# Si number density = 17.129385 Si / 1000 Ang^3
#
#
#
# Elastic Constant Matrix: (Units=GPa)
#
#
# Indices 1 2 3 4 5 6 
#
# 1 113.3855 66.8115 60.0902 0.0000 0.0000 0.0000
# 2 66.8115 120.2099 59.4482 0.0000 0.0000 0.0000
# 3 60.0902 59.4482 172.1928 0.0000 0.0000 0.0000
# 4 0.0000 0.0000 0.0000 11.5834 0.0000 0.0000
# 5 0.0000 0.0000 0.0000 0.0000 7.9254 0.0000
# 6 0.0000 0.0000 0.0000 0.0000 0.0000 18.7082
#
#
#
# Elastic Compliance Matrix: (Units=1/GPa)
#
#
# Indices 1 2 3 4 5 6 
#
# 1 0.014059 -0.006497 -0.002663 0.000000 0.000000 0.000000
# 2 -0.006497 0.013034 -0.002233 0.000000 0.000000 0.000000
# 3 -0.002663 -0.002233 0.007508 0.000000 0.000000 0.000000
# 4 0.000000 0.000000 0.000000 0.086330 0.000000 0.000000
# 5 0.000000 0.000000 0.000000 0.000000 0.126176 0.000000
# 6 0.000000 0.000000 0.000000 0.000000 0.000000 0.053453
#
#
# Mechanical properties :
#
#
# Convention : Reuss Voigt Hill
#
# Bulk Modulus (GPa) = 84.63717 86.49868 85.56792
# Shear Modulus (GPa) = 15.27729 22.27262 18.77496
#
# Velocity S-wave (km/s) = 2.98967 3.60982 3.31428
# Velocity P-wave (km/s) = 7.83807 8.24508 8.04415
#
# Compressibility (1/GPa) = 0.01181514
#
# Stress axis : x y z
#
# Youngs Moduli (GPa) = 71.12830 76.72379 133.19805
#
# Poissons Ratio (x) = 0.49846 0.35474
# Poissons Ratio (y) = 0.46211 0.29738
# Poissons Ratio (z) = 0.18943 0.17129
#
# Static dielectric constant tensor:
#      x y z
#    x 2.879460 0.000000 0.000000 
#    y 0.000000 3.202430 0.000000 
#    z 0.000000 0.000000 3.452940 
# 
# 
# High freq. dielectric constant tensor:
#      x y z
#    x 1.633560 0.000000 0.000000 
#    y 0.000000 1.662320 0.000000 
#    z 0.000000 0.000000 1.669030 
# 
# From -- ./inp_files/18696.got.cif
#   From: 2010.03.12/outbox.cif.g09.slc.cpg/sg57_10_cif.got.tgz:18696.got - 2010.04.16 15:48:40.
