data_PCOD8232086
_publ_section_title
;
Structure prediction by ZEFSAII (Michael W. Deem and Ramdas Pophale) SiO2 
 PCOD8232086
Probable space group: P B C M
;
_chemical_formula_sum "Si O2"
_cell_formula_units_Z 48
_cell_length_a 29.475659
_cell_length_b 5.076166
_cell_length_c 14.208695
_cell_angle_alpha 90.000000
_cell_angle_beta 90.000000
_cell_angle_gamma 90.000000
_cell_volume 2125.952375
_symmetry_space_group_name_H-M "P B C M"
_symmetry_group_IT_number 57
_symmetry_cell_setting 'orthorhombic'
loop_
_space_group_symop_operation_xyz
x,y,z
-x,-y,1/2+z
x,1/2-y,-z
-x,1/2+y,1/2-z
-x,-y,-z
x,y,1/2-z
-x,1/2+y,z
x,1/2-y,1/2+z
loop_
_atom_site_type_symbol
_atom_site_label
_atom_site_fract_x
_atom_site_fract_y
_atom_site_fract_z
Si Si1 0.740222 0.092121 0.638419
Si Si2 0.315415 0.404265 0.137926
Si Si3 0.470523 0.015572 0.750000
Si Si4 0.970193 0.630075 0.750000
Si Si5 0.159286 0.837433 0.143477
Si Si6 0.585946 0.988183 0.061636
Si Si7 0.104149 0.344881 0.400088
O O1 0.742998 0.071559 0.750000
O O2 0.712923 0.345303 0.604479
O O3 0.791382 0.105300 0.598281
O O4 0.712922 0.842939 0.599145
O O5 0.322464 0.396590 0.250000
O O6 0.363607 0.402969 0.088388
O O7 0.512785 0.816198 0.750000
O O8 0.441565 0.961079 0.656787
O O9 0.939802 0.576596 0.841063
O O10 0.011875 0.428194 0.750000
O O11 0.163697 0.729414 0.250000
O O12 0.135360 0.603551 0.084912
O O13 0.131698 0.108755 0.147690
O O14 0.585014 0.250000 0.000000
O O15 0.564374 0.750000 0.000000
O O16 0.085937 0.250000 0.500000
#
# Coordination Sequence:
#
# PCOD8232086 Si02
#       7
#     8   8   4   4   8   8   8
#     4   9  19  32  63  95 128 179 229 265 314 376
#     4  10  19  39  61  94 135 178 224 273 322 384
#     4  12  28  50  76 103 136 177 226 292 360 422
#     4  12  26  46  72  95 126 167 214 272 340 406
#     4  11  20  41  66  96 135 180 223 269 323 388
#     4  12  26  45  72 104 140 182 229 282 347 417
#     4  12  25  43  68  99 133 169 216 271 333 398
#
# _framework density 22.578116000000001
#
# number of rings (size 3 to 8) (size 9 to 14) (size 15 to 20)
#    0.000    1.000    2.500    4.500    0.000    5.333 
#    0.000    8.333    0.000    0.000    0.000    0.000 
#    0.000    0.000    0.000    0.000    0.000    0.000 
#
# Total GULP energy -595488.718137 kJ/mol
# GULP energy per Si atom -12406.014961 kJ/mol
# Density = 2.252673 g / cm^3
# Si number density = 22.578116 Si / 1000 Ang^3
#
#
#
# Elastic Constant Matrix: (Units=GPa)
#
#
# Indices 1 2 3 4 5 6 
#
# 1 116.2820 40.5900 49.8088 0.0000 0.0000 0.0000
# 2 40.5900 161.9330 38.1870 0.0000 0.0000 0.0000
# 3 49.8088 38.1870 98.0383 0.0000 0.0000 0.0000
# 4 0.0000 0.0000 0.0000 1.1389 0.0000 0.0000
# 5 0.0000 0.0000 0.0000 0.0000 -5.8640 0.0000
# 6 0.0000 0.0000 0.0000 0.0000 0.0000 39.7518
#
#
#
# Elastic Compliance Matrix: (Units=1/GPa)
#
#
# Indices 1 2 3 4 5 6 
#
# 1 0.011374 -0.001639 -0.005140 0.000000 0.000000 0.000000
# 2 -0.001639 0.007036 -0.001908 0.000000 0.000000 0.000000
# 3 -0.005140 -0.001908 0.013555 0.000000 0.000000 0.000000
# 4 0.000000 0.000000 0.000000 0.878037 0.000000 0.000000
# 5 0.000000 0.000000 0.000000 0.000000 -0.170532 0.000000
# 6 0.000000 0.000000 0.000000 0.000000 0.000000 0.025156
#
#
# Mechanical properties :
#
#
# Convention : Reuss Voigt Hill
#
# Bulk Modulus (GPa) = 68.53716 70.38054 69.45885
# Shear Modulus (GPa) = 6.35435 23.51650 14.93542
#
# Velocity S-wave (km/s) = 1.67943 3.23082 2.57475
# Velocity P-wave (km/s) = 5.84655 6.71992 6.29839
#
# Compressibility (1/GPa) = 0.01459062
#
# Stress axis : x y z
#
# Youngs Moduli (GPa) = 87.92342 142.12367 73.77493
#
# Poissons Ratio (x) = 0.23291 0.37921
# Poissons Ratio (y) = 0.14408 0.14077
# Poissons Ratio (z) = 0.45193 0.27118
#
# Static dielectric constant tensor:
#      x y z
#    x 4.026260 0.000000 0.000000 
#    y 0.000000 4.116190 0.000000 
#    z 0.000000 0.000000 3.940980 
# 
# 
# High freq. dielectric constant tensor:
#      x y z
#    x 1.888340 0.000000 0.000000 
#    y 0.000000 1.903670 0.000000 
#    z 0.000000 0.000000 1.899640 
# 
# From -- ./inp_files/19610.got.cif
#   From: 2010.03.12/outbox.cif.g09.slc.cpg/sg57_10_cif.got.tgz:19610.got - 2010.04.16 15:48:40.
