data_PCOD8232309
_publ_section_title
;
Structure prediction by ZEFSAII (Michael W. Deem and Ramdas Pophale) SiO2 
 PCOD8232309
Probable space group: P B C M
;
_chemical_formula_sum "Si O2"
_cell_formula_units_Z 48
_cell_length_a 11.001536
_cell_length_b 23.079055
_cell_length_c 9.107188
_cell_angle_alpha 90.000000
_cell_angle_beta 90.000000
_cell_angle_gamma 90.000000
_cell_volume 2312.361065
_symmetry_space_group_name_H-M "P B C M"
_symmetry_group_IT_number 57
_symmetry_cell_setting 'orthorhombic'
loop_
_space_group_symop_operation_xyz
x,y,z
-x,-y,1/2+z
x,1/2-y,-z
-x,1/2+y,1/2-z
-x,-y,-z
x,y,1/2-z
-x,1/2+y,z
x,1/2-y,1/2+z
loop_
_atom_site_type_symbol
_atom_site_label
_atom_site_fract_x
_atom_site_fract_y
_atom_site_fract_z
Si Si1 0.931348 0.879321 0.084714
Si Si2 0.438211 0.401819 0.579911
Si Si3 0.798454 0.525158 0.421660
Si Si4 0.687082 0.807282 0.087074
Si Si5 0.138135 0.689994 0.079870
Si Si6 0.709032 0.080373 0.417704
O O1 0.980528 0.890806 0.250000
O O2 0.806510 0.845425 0.091232
O O3 0.906447 0.940414 0.003559
O O4 0.022816 0.840539 0.992277
O O5 0.436101 0.384874 0.750000
O O6 0.333668 0.447942 0.542071
O O7 0.420249 0.342722 0.490414
O O8 0.568869 0.427492 0.534513
O O9 0.827806 0.525824 0.250000
O O10 0.794919 0.459334 0.480277
O O11 0.643393 0.790988 0.250000
O O12 0.718734 0.750000 0.000000
O O13 0.108232 0.702726 0.250000
O O14 0.253261 0.647397 0.062955
O O15 0.169558 0.750000 0.000000
O O16 0.727754 0.060131 0.250000
#
# Coordination Sequence:
#
# PCOD8232309 Si02
#       6
#     8   8   8   8   8   8
#     4  10  21  38  60  84 112 146 185 233 285 335
#     4   9  19  36  56  81 114 149 186 230 279 331
#     4  10  20  35  60  90 116 145 184 231 281 333
#     4  10  20  33  53  81 110 143 184 232 284 334
#     4  11  24  41  60  82 111 149 190 231 276 329
#     4  10  22  39  58  82 115 152 187 227 276 331
#
# _framework density 20.758002999999999
#
# number of rings (size 3 to 8) (size 9 to 14) (size 15 to 20)
#    0.000    2.000    0.000    3.000    0.000    7.333 
#    0.000    1.667    0.000    0.000    0.000    0.000 
#    0.000    0.000    0.000    0.000    0.000    0.000 
#
# Total GULP energy -595342.906179 kJ/mol
# GULP energy per Si atom -12402.977212 kJ/mol
# Density = 2.071076 g / cm^3
# Si number density = 20.758003 Si / 1000 Ang^3
#
#
#
# Elastic Constant Matrix: (Units=GPa)
#
#
# Indices 1 2 3 4 5 6 
#
# 1 33.2319 8.6645 22.1788 0.0000 0.0000 0.0000
# 2 8.6645 90.9809 44.1834 0.0000 0.0000 0.0000
# 3 22.1788 44.1834 122.1052 0.0000 0.0000 0.0000
# 4 0.0000 0.0000 0.0000 42.7210 0.0000 0.0000
# 5 0.0000 0.0000 0.0000 0.0000 22.1978 0.0000
# 6 0.0000 0.0000 0.0000 0.0000 0.0000 22.0166
#
#
#
# Elastic Compliance Matrix: (Units=1/GPa)
#
#
# Indices 1 2 3 4 5 6 
#
# 1 0.034249 -0.000292 -0.006115 0.000000 0.000000 0.000000
# 2 -0.000292 0.013337 -0.004773 0.000000 0.000000 0.000000
# 3 -0.006115 -0.004773 0.011027 0.000000 0.000000 0.000000
# 4 0.000000 0.000000 0.000000 0.023408 0.000000 0.000000
# 5 0.000000 0.000000 0.000000 0.000000 0.045049 0.000000
# 6 0.000000 0.000000 0.000000 0.000000 0.000000 0.045420
#
#
# Mechanical properties :
#
#
# Convention : Reuss Voigt Hill
#
# Bulk Modulus (GPa) = 27.58372 44.04128 35.81250
# Shear Modulus (GPa) = 24.16211 28.80651 26.48431
#
# Velocity S-wave (km/s) = 3.41543 3.72927 3.57579
# Velocity P-wave (km/s) = 5.37314 6.30919 5.85988
#
# Compressibility (1/GPa) = 0.03625327
#
# Stress axis : x y z
#
# Youngs Moduli (GPa) = 29.19799 74.97928 90.68247
#
# Poissons Ratio (x) = 0.02189 0.55455
# Poissons Ratio (y) = 0.00852 0.43282
# Poissons Ratio (z) = 0.17855 0.35787
#
# Static dielectric constant tensor:
#      x y z
#    x 3.670690 0.000000 0.000000 
#    y 0.000000 3.747320 0.000000 
#    z 0.000000 0.000000 4.001860 
# 
# 
# High freq. dielectric constant tensor:
#      x y z
#    x 1.804490 0.000000 0.000000 
#    y 0.000000 1.814530 0.000000 
#    z 0.000000 0.000000 1.821730 
# 
# From -- ./inp_files/3147.got.cif
#   From: 2010.03.12/outbox.cif.g09.slc.cpg/sg57_2_cif.got.tgz:3147.got - 2010.04.16 15:48:40.
