data_PCOD8232142
_publ_section_title
;
Structure prediction by ZEFSAII (Michael W. Deem and Ramdas Pophale) SiO2 
 PCOD8232142
Probable space group: P B C M
;
_chemical_formula_sum "Si O2"
_cell_formula_units_Z 48
_cell_length_a 17.830248
_cell_length_b 17.326633
_cell_length_c 9.097733
_cell_angle_alpha 90.000000
_cell_angle_beta 90.000000
_cell_angle_gamma 90.000000
_cell_volume 2810.636924
_symmetry_space_group_name_H-M "P B C M"
_symmetry_group_IT_number 57
_symmetry_cell_setting 'orthorhombic'
loop_
_space_group_symop_operation_xyz
x,y,z
-x,-y,1/2+z
x,1/2-y,-z
-x,1/2+y,1/2-z
-x,-y,-z
x,y,1/2-z
-x,1/2+y,z
x,1/2-y,1/2+z
loop_
_atom_site_type_symbol
_atom_site_label
_atom_site_fract_x
_atom_site_fract_y
_atom_site_fract_z
Si Si1 0.544531 0.433370 0.079735
Si Si2 0.066374 0.329075 0.418615
Si Si3 0.828209 0.968995 0.422943
Si Si4 0.324088 0.462203 0.915802
Si Si5 0.556782 0.672472 0.421407
Si Si6 0.943845 0.442985 0.420964
O O1 0.520478 0.428763 0.250000
O O2 0.632412 0.455776 0.065979
O O3 0.500000 0.500000 0.000000
O O4 0.521942 0.354046 0.997511
O O5 0.081351 0.250000 0.500000
O O6 0.082657 0.312362 0.250000
O O7 0.125214 0.393694 0.474569
O O8 0.980027 0.357728 0.441985
O O9 0.834346 0.981855 0.250000
O O10 0.742458 0.958743 0.468051
O O11 0.862681 0.045455 0.502826
O O12 0.292462 0.455406 0.750000
O O13 0.379560 0.391270 0.948506
O O14 0.584807 0.750000 0.500000
O O15 0.541995 0.686864 0.250000
O O16 0.937948 0.464088 0.250000
O O17 0.000000 0.500000 0.500000
#
# Coordination Sequence:
#
# PCOD8232142 Si02
#       6
#     8   8   8   8   8   8
#     4   9  17  31  50  71  95 125 164 204 242 288
#     4   9  19  32  47  70  96 124 157 192 233 280
#     4  10  20  32  48  72  98 127 162 196 236 285
#     4   9  19  33  49  71  98 129 161 196 241 287
#     4  10  20  33  50  73 100 131 165 200 244 292
#     4   9  17  31  49  69  93 122 160 200 236 280
#
# _framework density 17.077978999999999
#
# number of rings (size 3 to 8) (size 9 to 14) (size 15 to 20)
#    0.000    2.667    0.000    4.000    0.000    8.667 
#    0.000    3.333    0.000    1.000    0.000    4.667 
#    0.000    0.000    0.000    0.000    0.000    0.000 
#
# Total GULP energy -594860.635756 kJ/mol
# GULP energy per Si atom -12392.929912 kJ/mol
# Density = 1.703911 g / cm^3
# Si number density = 17.077979 Si / 1000 Ang^3
#
#
#
# Elastic Constant Matrix: (Units=GPa)
#
#
# Indices 1 2 3 4 5 6 
#
# 1 86.3106 43.3685 52.3824 0.0000 0.0000 0.0000
# 2 43.3685 27.5461 28.3031 0.0000 0.0000 0.0000
# 3 52.3824 28.3031 104.9001 0.0000 0.0000 0.0000
# 4 0.0000 0.0000 0.0000 30.6977 0.0000 0.0000
# 5 0.0000 0.0000 0.0000 0.0000 32.8573 0.0000
# 6 0.0000 0.0000 0.0000 0.0000 0.0000 16.0695
#
#
#
# Elastic Compliance Matrix: (Units=1/GPa)
#
#
# Indices 1 2 3 4 5 6 
#
# 1 0.058057 -0.085251 -0.005990 0.000000 0.000000 0.000000
# 2 -0.085251 0.175409 -0.004757 0.000000 0.000000 0.000000
# 3 -0.005990 -0.004757 0.013807 0.000000 0.000000 0.000000
# 4 0.000000 0.000000 0.000000 0.032576 0.000000 0.000000
# 5 0.000000 0.000000 0.000000 0.000000 0.030435 0.000000
# 6 0.000000 0.000000 0.000000 0.000000 0.000000 0.062230
#
#
# Mechanical properties :
#
#
# Convention : Reuss Voigt Hill
#
# Bulk Modulus (GPa) = 18.08999 51.87386 34.98192
# Shear Modulus (GPa) = 8.57729 22.23842 15.40786
#
# Velocity S-wave (km/s) = 2.24351 3.61247 3.00693
# Velocity P-wave (km/s) = 4.16253 6.91669 5.70821
#
# Compressibility (1/GPa) = 0.05527921
#
# Stress axis : x y z
#
# Youngs Moduli (GPa) = 17.22438 5.70095 72.42599
#
# Poissons Ratio (x) = 0.48601 0.43380
# Poissons Ratio (y) = 1.46840 0.34450
# Poissons Ratio (z) = 0.10317 0.02712
#
# Static dielectric constant tensor:
#      x y z
#    x 3.156400 0.000000 0.000000 
#    y 0.000000 3.077500 0.000000 
#    z 0.000000 0.000000 3.390990 
# 
# 
# High freq. dielectric constant tensor:
#      x y z
#    x 1.642900 0.000000 0.000000 
#    y 0.000000 1.636310 0.000000 
#    z 0.000000 0.000000 1.675430 
# 
# From -- ./inp_files/6716.got.cif
#   From: 2010.03.12/outbox.cif.g09.slc.cpg/sg57_4_cif.got.tgz:6716.got - 2010.04.16 15:48:40.
