data_PCOD8232000
_publ_section_title
;
Structure prediction by ZEFSAII (Michael W. Deem and Ramdas Pophale) SiO2 
 PCOD8232000
Probable space group: P B C M
;
_chemical_formula_sum "Si O2"
_cell_formula_units_Z 56
_cell_length_a 14.651202
_cell_length_b 8.605671
_cell_length_c 21.522516
_cell_angle_alpha 90.000000
_cell_angle_beta 90.000000
_cell_angle_gamma 90.000000
_cell_volume 2713.632514
_symmetry_space_group_name_H-M "P B C M"
_symmetry_group_IT_number 57
_symmetry_cell_setting 'orthorhombic'
loop_
_space_group_symop_operation_xyz
x,y,z
-x,-y,1/2+z
x,1/2-y,-z
-x,1/2+y,1/2-z
-x,-y,-z
x,y,1/2-z
-x,1/2+y,z
x,1/2-y,1/2+z
loop_
_atom_site_type_symbol
_atom_site_label
_atom_site_fract_x
_atom_site_fract_y
_atom_site_fract_z
Si Si1 0.448809 0.844400 0.321073
Si Si2 0.122646 0.863469 0.176168
Si Si3 0.397890 0.065665 0.500101
Si Si4 0.379494 0.980913 0.867031
Si Si5 0.223509 0.334433 0.179338
Si Si6 0.941581 0.030195 0.176874
Si Si7 0.705341 0.523266 0.125337
O O1 0.469635 0.804430 0.250000
O O2 0.411748 0.692990 0.355494
O O3 0.541110 0.894708 0.354320
O O4 0.374717 0.982340 0.325814
O O5 0.144032 0.863566 0.250000
O O6 0.086090 0.698560 0.150976
O O7 0.211900 0.903716 0.136443
O O8 0.045629 0.991352 0.159611
O O9 0.402164 0.250000 0.500000
O O10 0.336860 0.003537 0.443106
O O11 0.500000 0.000000 0.500000
O O12 0.348673 0.000880 0.561703
O O13 0.293921 0.020899 0.822994
O O14 0.213811 0.273348 0.250000
O O15 0.126679 0.395178 0.152664
O O16 0.259960 0.197464 0.135877
O O17 0.928611 0.035361 0.250000
#
# Coordination Sequence:
#
# PCOD8232000 Si02
#       7
#     8   8   8   8   8   8   8
#     4  12  24  39  60  93 127 161 201 264 333 390
#     4  10  19  36  60  96 131 168 210 262 330 393
#     4  12  25  47  65  87 120 171 230 268 312 377
#     4  12  24  41  61  86 123 166 214 263 316 381
#     4  11  21  37  59  91 126 165 206 259 325 385
#     4   9  19  35  61  93 136 173 207 255 324 406
#     4  12  24  38  63  90 127 168 214 267 312 379
#
# _framework density 20.636545000000002
#
# number of rings (size 3 to 8) (size 9 to 14) (size 15 to 20)
#    0.000    0.857    2.857    6.000    0.000    3.429 
#    0.000    0.000    0.000    0.857    0.000    0.000 
#    0.000    0.000    0.000    0.000    0.000    0.000 
#
# Total GULP energy -694547.475973 kJ/mol
# GULP energy per Si atom -12402.633500 kJ/mol
# Density = 2.058958 g / cm^3
# Si number density = 20.636545 Si / 1000 Ang^3
#
#
#
# Elastic Constant Matrix: (Units=GPa)
#
#
# Indices 1 2 3 4 5 6 
#
# 1 100.9893 11.8468 48.9969 0.0000 0.0000 0.0000
# 2 11.8468 78.8764 39.5427 0.0000 0.0000 0.0000
# 3 48.9969 39.5427 102.5548 0.0000 0.0000 0.0000
# 4 0.0000 0.0000 0.0000 28.0314 0.0000 0.0000
# 5 0.0000 0.0000 0.0000 0.0000 27.0283 0.0000
# 6 0.0000 0.0000 0.0000 0.0000 0.0000 39.0326
#
#
#
# Elastic Compliance Matrix: (Units=1/GPa)
#
#
# Indices 1 2 3 4 5 6 
#
# 1 0.013021 0.001442 -0.006777 0.000000 0.000000 0.000000
# 2 0.001442 0.015876 -0.006810 0.000000 0.000000 0.000000
# 3 -0.006777 -0.006810 0.015614 0.000000 0.000000 0.000000
# 4 0.000000 0.000000 0.000000 0.035674 0.000000 0.000000
# 5 0.000000 0.000000 0.000000 0.000000 0.036998 0.000000
# 6 0.000000 0.000000 0.000000 0.000000 0.000000 0.025620
#
#
# Mechanical properties :
#
#
# Convention : Reuss Voigt Hill
#
# Bulk Modulus (GPa) = 49.45462 53.68813 51.57138
# Shear Modulus (GPa) = 28.76322 30.95409 29.85865
#
# Velocity S-wave (km/s) = 3.73741 3.87714 3.80792
# Velocity P-wave (km/s) = 6.53000 6.79084 6.66170
#
# Compressibility (1/GPa) = 0.02022056
#
# Stress axis : x y z
#
# Youngs Moduli (GPa) = 76.80029 62.98989 64.04363
#
# Poissons Ratio (x) = -0.09081 0.43401
# Poissons Ratio (y) = -0.11072 0.43614
# Poissons Ratio (z) = 0.52046 0.42896
#
# Static dielectric constant tensor:
#      x y z
#    x 3.937110 0.000000 0.000000 
#    y 0.000000 3.913250 0.000000 
#    z 0.000000 0.000000 3.587890 
# 
# 
# High freq. dielectric constant tensor:
#      x y z
#    x 1.814920 0.000000 0.000000 
#    y 0.000000 1.824450 0.000000 
#    z 0.000000 0.000000 1.771280 
# 
# From -- ./inp_files/25375.got.cif
#   From: 2010.03.12/outbox.cif.g09.slc.cpg/sg57_13_cif.got.tgz:25375.got - 2010.04.16 15:48:40.
