data_PCOD8232383
_publ_section_title
;
Structure prediction by ZEFSAII (Michael W. Deem and Ramdas Pophale) SiO2 
 PCOD8232383
Probable space group: P B C M
;
_chemical_formula_sum "Si O2"
_cell_formula_units_Z 64
_cell_length_a 20.365073
_cell_length_b 20.078683
_cell_length_c 9.255063
_cell_angle_alpha 90.000000
_cell_angle_beta 90.000000
_cell_angle_gamma 90.000000
_cell_volume 3784.430847
_symmetry_space_group_name_H-M "P B C M"
_symmetry_group_IT_number 57
_symmetry_cell_setting 'orthorhombic'
loop_
_space_group_symop_operation_xyz
x,y,z
-x,-y,1/2+z
x,1/2-y,-z
-x,1/2+y,1/2-z
-x,-y,-z
x,y,1/2-z
-x,1/2+y,z
x,1/2-y,1/2+z
loop_
_atom_site_type_symbol
_atom_site_label
_atom_site_fract_x
_atom_site_fract_y
_atom_site_fract_z
Si Si1 0.705979 0.454091 0.081020
Si Si2 0.025939 0.936573 0.582849
Si Si3 0.555198 0.913248 0.912695
Si Si4 0.820941 0.613786 0.585601
Si Si5 0.827973 0.458889 0.583556
Si Si6 0.322389 0.411027 0.083422
Si Si7 0.932243 0.817059 0.920749
Si Si8 0.565837 0.072100 0.910259
O O1 0.713962 0.471831 0.250000
O O2 0.641761 0.406684 0.058496
O O3 0.773132 0.422367 0.017347
O O4 0.695155 0.519350 0.987522
O O5 0.014795 0.952279 0.750000
O O6 0.102711 0.923938 0.549838
O O7 0.986509 0.871344 0.534812
O O8 0.000000 0.000000 0.500000
O O9 0.557593 0.886353 0.750000
O O10 0.563298 0.992328 0.921572
O O11 0.614932 0.878800 0.001344
O O12 0.484496 0.893131 0.979435
O O13 0.844266 0.626936 0.750000
O O14 0.833993 0.536945 0.544504
O O15 0.743655 0.633271 0.569698
O O16 0.860929 0.660175 0.476720
O O17 0.806946 0.450215 0.750000
O O18 0.341812 0.422367 0.250000
O O19 0.928360 0.805443 0.750000
O O20 0.954036 0.750000 0.000000
O O21 0.544823 0.094508 0.750000
#
# Coordination Sequence:
#
# PCOD8232383 Si02
#       8
#     8   8   8   8   8   8   8   8
#     4   9  16  24  35  54  78 106 144 183 221 268
#     4  10  20  34  52  74  95 122 157 195 240 288
#     4   9  15  21  31  48  69  99 142 184 217 260
#     4   9  17  30  47  65  88 117 149 189 233 278
#     4   9  17  29  45  65  90 115 145 188 235 279
#     4   9  16  25  37  53  77 108 140 180 227 267
#     4  11  23  36  52  72  96 126 158 194 239 288
#     4   8  14  22  30  43  69 104 139 177 218 262
#
# _framework density 16.911393
#
# number of rings (size 3 to 8) (size 9 to 14) (size 15 to 20)
#    0.000    2.750    1.250    3.000    0.000    7.000 
#    0.000    0.000    0.000    0.000    0.000    0.000 
#    0.000    0.000    0.000    1.125    0.000   20.000 
#
# Total GULP energy -793163.412039 kJ/mol
# GULP energy per Si atom -12393.178313 kJ/mol
# Density = 1.687290 g / cm^3
# Si number density = 16.911393 Si / 1000 Ang^3
#
#
#
# Elastic Constant Matrix: (Units=GPa)
#
#
# Indices 1 2 3 4 5 6 
#
# 1 140.9614 38.0886 75.3372 0.0000 0.0000 0.0000
# 2 38.0886 41.7622 32.9766 0.0000 0.0000 0.0000
# 3 75.3372 32.9766 115.3828 0.0000 0.0000 0.0000
# 4 0.0000 0.0000 0.0000 13.4384 0.0000 0.0000
# 5 0.0000 0.0000 0.0000 0.0000 34.8174 0.0000
# 6 0.0000 0.0000 0.0000 0.0000 0.0000 8.1617
#
#
#
# Elastic Compliance Matrix: (Units=1/GPa)
#
#
# Indices 1 2 3 4 5 6 
#
# 1 0.012006 -0.006147 -0.006082 0.000000 0.000000 0.000000
# 2 -0.006147 0.034071 -0.005724 0.000000 0.000000 0.000000
# 3 -0.006082 -0.005724 0.014274 0.000000 0.000000 0.000000
# 4 0.000000 0.000000 0.000000 0.074414 0.000000 0.000000
# 5 0.000000 0.000000 0.000000 0.000000 0.028721 0.000000
# 6 0.000000 0.000000 0.000000 0.000000 0.000000 0.122523
#
#
# Mechanical properties :
#
#
# Convention : Reuss Voigt Hill
#
# Bulk Modulus (GPa) = 40.90880 65.65682 53.28281
# Shear Modulus (GPa) = 15.14860 21.39711 18.27285
#
# Velocity S-wave (km/s) = 2.99618 3.56089 3.29067
# Velocity P-wave (km/s) = 6.01764 7.47094 6.78332
#
# Compressibility (1/GPa) = 0.02444462
#
# Stress axis : x y z
#
# Youngs Moduli (GPa) = 83.29387 29.35020 70.05781
#
# Poissons Ratio (x) = 0.18042 0.42610
# Poissons Ratio (y) = 0.51201 0.40101
# Poissons Ratio (z) = 0.50660 0.16800
#
# Static dielectric constant tensor:
#      x y z
#    x 3.853230 0.000000 0.000000 
#    y 0.000000 2.491880 0.000000 
#    z 0.000000 0.000000 3.321750 
# 
# 
# High freq. dielectric constant tensor:
#      x y z
#    x 1.675490 0.000000 0.000000 
#    y 0.000000 1.560550 0.000000 
#    z 0.000000 0.000000 1.664820 
# 
# From -- ./inp_files/8718.got.cif
#   From: 2010.03.12/outbox.cif.g09.slc.cpg/sg57_5_cif.got.tgz:8718.got - 2010.04.16 15:48:40.
