data_PCOD8232130
_publ_section_title
;
Structure prediction by ZEFSAII (Michael W. Deem and Ramdas Pophale) SiO2 
 PCOD8232130
Probable space group: P B C M
;
_chemical_formula_sum "Si O2"
_cell_formula_units_Z 56
_cell_length_a 17.180987
_cell_length_b 19.533179
_cell_length_c 9.677814
_cell_angle_alpha 90.000000
_cell_angle_beta 90.000000
_cell_angle_gamma 90.000000
_cell_volume 3247.867550
_symmetry_space_group_name_H-M "P B C M"
_symmetry_group_IT_number 57
_symmetry_cell_setting 'orthorhombic'
loop_
_space_group_symop_operation_xyz
x,y,z
-x,-y,1/2+z
x,1/2-y,-z
-x,1/2+y,1/2-z
-x,-y,-z
x,y,1/2-z
-x,1/2+y,z
x,1/2-y,1/2+z
loop_
_atom_site_type_symbol
_atom_site_label
_atom_site_fract_x
_atom_site_fract_y
_atom_site_fract_z
Si Si1 0.685765 0.577481 0.909989
Si Si2 0.282595 0.946478 0.411003
Si Si3 0.558010 0.686236 0.908778
Si Si4 0.378626 0.814450 0.410172
Si Si5 0.053785 0.413390 0.407834
Si Si6 0.182630 0.185418 0.592162
Si Si7 0.891703 0.035384 0.908264
O O1 0.687204 0.555295 0.750000
O O2 0.607834 0.619450 0.946326
O O3 0.760211 0.623554 0.946956
O O4 0.685681 0.510272 0.003093
O O5 0.296885 0.962364 0.250000
O O6 0.328944 0.879484 0.458496
O O7 0.191592 0.931398 0.442452
O O8 0.571383 0.707327 0.750000
O O9 0.468575 0.668263 0.939706
O O10 0.586774 0.750000 0.000000
O O11 0.350822 0.750000 0.500000
O O12 0.364080 0.796988 0.250000
O O13 0.069252 0.435574 0.250000
O O14 0.093894 0.339884 0.435492
O O15 0.096567 0.468698 0.500876
O O16 0.961084 0.409919 0.439265
O O17 0.202622 0.250000 0.500000
O O18 0.195197 0.207907 0.750000
O O19 0.895075 0.011154 0.750000
#
# Coordination Sequence:
#
# PCOD8232130 Si02
#       7
#     8   8   8   8   8   8   8
#     4  10  20  33  49  73 102 131 166 205 248 294
#     4  10  20  33  51  76 103 129 162 206 250 296
#     4   9  18  33  52  72  98 133 170 206 244 292
#     4   9  19  36  54  73  98 129 166 206 250 297
#     4   9  17  31  49  69  94 125 162 202 241 285
#     4  10  20  32  47  69 100 133 163 202 246 292
#     4   9  17  30  50  72  94 124 160 199 243 289
#
# _framework density 17.242082
#
# number of rings (size 3 to 8) (size 9 to 14) (size 15 to 20)
#    0.000    2.571    1.429    0.429    0.000    2.857 
#    0.000    0.714    0.000    0.000    0.000    0.000 
#    0.000    0.000    0.000    0.000    0.000    0.000 
#
# Total GULP energy -694352.716157 kJ/mol
# GULP energy per Si atom -12399.155646 kJ/mol
# Density = 1.720284 g / cm^3
# Si number density = 17.242082 Si / 1000 Ang^3
#
#
#
# Elastic Constant Matrix: (Units=GPa)
#
#
# Indices 1 2 3 4 5 6 
#
# 1 105.6166 71.0124 47.2526 0.0000 0.0000 0.0000
# 2 71.0124 128.6390 67.5656 0.0000 0.0000 0.0000
# 3 47.2526 67.5656 67.5393 0.0000 0.0000 0.0000
# 4 0.0000 0.0000 0.0000 33.8545 0.0000 0.0000
# 5 0.0000 0.0000 0.0000 0.0000 21.2885 0.0000
# 6 0.0000 0.0000 0.0000 0.0000 0.0000 18.1915
#
#
#
# Elastic Compliance Matrix: (Units=1/GPa)
#
#
# Indices 1 2 3 4 5 6 
#
# 1 0.015792 -0.006141 -0.004905 0.000000 0.000000 0.000000
# 2 -0.006141 0.018769 -0.014480 0.000000 0.000000 0.000000
# 3 -0.004905 -0.014480 0.032723 0.000000 0.000000 0.000000
# 4 0.000000 0.000000 0.000000 0.029538 0.000000 0.000000
# 5 0.000000 0.000000 0.000000 0.000000 0.046974 0.000000
# 6 0.000000 0.000000 0.000000 0.000000 0.000000 0.054971
#
#
# Mechanical properties :
#
#
# Convention : Reuss Voigt Hill
#
# Bulk Modulus (GPa) = 61.60523 74.82846 68.21684
# Shear Modulus (GPa) = 19.59025 22.39786 20.99406
#
# Velocity S-wave (km/s) = 3.37440 3.60811 3.49321
# Velocity P-wave (km/s) = 7.14067 7.80070 7.47797
#
# Compressibility (1/GPa) = 0.01623239
#
# Stress axis : x y z
#
# Youngs Moduli (GPa) = 63.32410 53.27865 30.55959
#
# Poissons Ratio (x) = 0.32721 0.14988
# Poissons Ratio (y) = 0.38890 0.44250
# Poissons Ratio (z) = 0.31057 0.77146
#
# Static dielectric constant tensor:
#      x y z
#    x 3.492180 0.000000 0.000000 
#    y 0.000000 2.991870 0.000000 
#    z 0.000000 0.000000 3.206270 
# 
# 
# High freq. dielectric constant tensor:
#      x y z
#    x 1.678230 0.000000 0.000000 
#    y 0.000000 1.641610 0.000000 
#    z 0.000000 0.000000 1.667070 
# 
# From -- ./inp_files/7041.got.cif
#   From: 2010.03.12/outbox.cif.g09.slc.cpg/sg57_4_cif.got.tgz:7041.got - 2010.04.16 15:48:40.
