data_PCOD8232443
_publ_section_title
;
Structure prediction by ZEFSAII (Michael W. Deem and Ramdas Pophale) SiO2 
 PCOD8232443
Probable space group: P B C M
;
_chemical_formula_sum "Si O2"
_cell_formula_units_Z 48
_cell_length_a 21.175348
_cell_length_b 14.063132
_cell_length_c 8.864832
_cell_angle_alpha 90.000000
_cell_angle_beta 90.000000
_cell_angle_gamma 90.000000
_cell_volume 2639.873516
_symmetry_space_group_name_H-M "P B C M"
_symmetry_group_IT_number 57
_symmetry_cell_setting 'orthorhombic'
loop_
_space_group_symop_operation_xyz
x,y,z
-x,-y,1/2+z
x,1/2-y,-z
-x,1/2+y,1/2-z
-x,-y,-z
x,y,1/2-z
-x,1/2+y,z
x,1/2-y,1/2+z
loop_
_atom_site_type_symbol
_atom_site_label
_atom_site_fract_x
_atom_site_fract_y
_atom_site_fract_z
Si Si1 0.593976 0.483961 0.426087
Si Si2 0.500018 0.350536 0.573249
Si Si3 0.832219 0.649445 0.422533
Si Si4 0.739071 0.489268 0.071577
Si Si5 0.834220 0.353054 0.929538
Si Si6 0.932203 0.492980 0.426248
O O1 0.586723 0.462978 0.250000
O O2 0.565823 0.393395 0.513229
O O3 0.557136 0.579559 0.472472
O O4 0.666234 0.497438 0.473757
O O5 0.485001 0.250000 0.500000
O O6 0.505712 0.336497 0.750000
O O7 0.835092 0.750000 0.500000
O O8 0.820387 0.671561 0.250000
O O9 0.773942 0.585553 0.483018
O O10 0.897617 0.593867 0.449586
O O11 0.749575 0.473746 0.250000
O O12 0.768896 0.400347 0.984220
O O13 0.835783 0.347749 0.750000
O O14 0.838421 0.250000 0.000000
O O15 0.894117 0.411154 0.988984
O O16 0.937104 0.467014 0.250000
O O17 0.000000 0.500000 0.500000
#
# Coordination Sequence:
#
# PCOD8232443 Si02
#       6
#     8   8   8   8   8   8
#     4   9  19  36  56  76 103 139 177 219 265 314
#     4  10  20  34  53  78 107 139 176 218 264 315
#     4   9  19  34  53  77 106 137 170 211 258 309
#     4   9  19  37  56  77 106 138 175 221 268 314
#     4  11  22  37  57  81 108 141 179 221 269 320
#     4  10  21  38  57  80 110 143 180 223 267 314
#
# _framework density 18.182690000000001
#
# number of rings (size 3 to 8) (size 9 to 14) (size 15 to 20)
#    0.000    2.333    0.000    3.500    0.000    6.667 
#    0.000    1.667    0.000    0.000    0.000    0.000 
#    0.000    0.000    0.000    0.000    0.000    0.000 
#
# Total GULP energy -595283.538658 kJ/mol
# GULP energy per Si atom -12401.740389 kJ/mol
# Density = 1.814131 g / cm^3
# Si number density = 18.182690 Si / 1000 Ang^3
#
#
#
# Elastic Constant Matrix: (Units=GPa)
#
#
# Indices 1 2 3 4 5 6 
#
# 1 137.6326 43.9381 48.1493 0.0000 0.0000 0.0000
# 2 43.9381 126.4434 54.3429 0.0000 0.0000 0.0000
# 3 48.1493 54.3429 91.6427 0.0000 0.0000 0.0000
# 4 0.0000 0.0000 0.0000 38.1763 0.0000 0.0000
# 5 0.0000 0.0000 0.0000 0.0000 30.7768 0.0000
# 6 0.0000 0.0000 0.0000 0.0000 0.0000 12.5892
#
#
#
# Elastic Compliance Matrix: (Units=1/GPa)
#
#
# Indices 1 2 3 4 5 6 
#
# 1 0.009106 -0.001487 -0.003902 0.000000 0.000000 0.000000
# 2 -0.001487 0.010856 -0.005656 0.000000 0.000000 0.000000
# 3 -0.003902 -0.005656 0.016316 0.000000 0.000000 0.000000
# 4 0.000000 0.000000 0.000000 0.026194 0.000000 0.000000
# 5 0.000000 0.000000 0.000000 0.000000 0.032492 0.000000
# 6 0.000000 0.000000 0.000000 0.000000 0.000000 0.079433
#
#
# Mechanical properties :
#
#
# Convention : Reuss Voigt Hill
#
# Bulk Modulus (GPa) = 70.48745 72.06437 71.27591
# Shear Modulus (GPa) = 24.84865 30.26104 27.55484
#
# Velocity S-wave (km/s) = 3.70078 4.08398 3.89709
# Velocity P-wave (km/s) = 7.55721 7.87135 7.71588
#
# Compressibility (1/GPa) = 0.01418692
#
# Stress axis : x y z
#
# Youngs Moduli (GPa) = 109.82225 92.11138 61.28785
#
# Poissons Ratio (x) = 0.13697 0.23917
# Poissons Ratio (y) = 0.16330 0.34667
# Poissons Ratio (z) = 0.42857 0.52102
#
# Static dielectric constant tensor:
#      x y z
#    x 3.469570 0.000000 0.000000 
#    y 0.000000 3.458970 0.000000 
#    z 0.000000 0.000000 3.326990 
# 
# 
# High freq. dielectric constant tensor:
#      x y z
#    x 1.708310 0.000000 0.000000 
#    y 0.000000 1.707990 0.000000 
#    z 0.000000 0.000000 1.709560 
# 
# From -- ./inp_files/7869.got.cif
#   From: 2010.03.12/outbox.cif.g09.slc.cpg/sg57_4_cif.got.tgz:7869.got - 2010.04.16 15:48:40.
