data_PCOD8232292
_publ_section_title
;
Structure prediction by ZEFSAII (Michael W. Deem and Ramdas Pophale) SiO2 
 PCOD8232292
Probable space group: P B C M
;
_chemical_formula_sum "Si O2"
_cell_formula_units_Z 48
_cell_length_a 6.890902
_cell_length_b 25.155705
_cell_length_c 13.426631
_cell_angle_alpha 90.000000
_cell_angle_beta 90.000000
_cell_angle_gamma 90.000000
_cell_volume 2327.446036
_symmetry_space_group_name_H-M "P B C M"
_symmetry_group_IT_number 57
_symmetry_cell_setting 'orthorhombic'
loop_
_space_group_symop_operation_xyz
x,y,z
-x,-y,1/2+z
x,1/2-y,-z
-x,1/2+y,1/2-z
-x,-y,-z
x,y,1/2-z
-x,1/2+y,z
x,1/2-y,1/2+z
loop_
_atom_site_type_symbol
_atom_site_label
_atom_site_fract_x
_atom_site_fract_y
_atom_site_fract_z
Si Si1 0.593231 0.409899 0.638229
Si Si2 0.486543 0.707976 0.133995
Si Si3 0.107822 0.765517 0.137964
Si Si4 0.903631 0.496691 0.862025
Si Si5 0.218671 0.062439 0.466103
Si Si6 0.885696 0.682110 0.455502
O O1 0.510186 0.417662 0.750000
O O2 0.626495 0.347788 0.616123
O O3 0.792012 0.441158 0.623826
O O4 0.443099 0.435723 0.561109
O O5 0.553276 0.712237 0.250000
O O6 0.336933 0.756812 0.109999
O O7 0.671013 0.708265 0.059488
O O8 0.088178 0.788533 0.250000
O O9 0.987201 0.802155 0.061143
O O10 0.015579 0.706328 0.133266
O O11 0.913993 0.516544 0.750000
O O12 0.118777 0.484256 0.901623
O O13 0.803040 0.545820 0.918849
O O14 0.119689 0.119177 0.445904
#
# Coordination Sequence:
#
# PCOD8232292 Si02
#       6
#     8   8   8   8   8   8
#     4   9  17  31  54  80 104 134 175 220 263 310
#     4   9  18  34  56  81 107 137 178 225 270 319
#     4  10  21  36  55  79 107 140 181 228 273 320
#     4  10  20  33  52  78 107 140 177 217 261 312
#     4  10  20  34  52  78 110 141 174 216 265 318
#     4  10  21  35  55  80 108 143 180 222 273 326
#
# _framework density 20.623464999999999
#
# number of rings (size 3 to 8) (size 9 to 14) (size 15 to 20)
#    0.000    2.333    0.000    2.500    0.000    6.667 
#    0.000    0.000    0.000    1.000    0.000   23.333 
#    0.000    0.000    0.000    0.000    0.000    0.000 
#
# Total GULP energy -594762.261714 kJ/mol
# GULP energy per Si atom -12390.880452 kJ/mol
# Density = 2.057653 g / cm^3
# Si number density = 20.623465 Si / 1000 Ang^3
#
#
#
# Elastic Constant Matrix: (Units=GPa)
#
#
# Indices 1 2 3 4 5 6 
#
# 1 67.4814 -2.2868 16.1980 0.0000 0.0000 0.0000
# 2 -2.2868 27.8478 -3.0393 0.0000 0.0000 0.0000
# 3 16.1980 -3.0393 65.8018 0.0000 0.0000 0.0000
# 4 0.0000 0.0000 0.0000 31.4758 0.0000 0.0000
# 5 0.0000 0.0000 0.0000 0.0000 31.8033 0.0000
# 6 0.0000 0.0000 0.0000 0.0000 0.0000 26.1074
#
#
#
# Elastic Compliance Matrix: (Units=1/GPa)
#
#
# Indices 1 2 3 4 5 6 
#
# 1 0.015771 0.000876 -0.003842 0.000000 0.000000 0.000000
# 2 0.000876 0.036140 0.001454 0.000000 0.000000 0.000000
# 3 -0.003842 0.001454 0.016210 0.000000 0.000000 0.000000
# 4 0.000000 0.000000 0.000000 0.031770 0.000000 0.000000
# 5 0.000000 0.000000 0.000000 0.000000 0.031443 0.000000
# 6 0.000000 0.000000 0.000000 0.000000 0.000000 0.038303
#
#
# Mechanical properties :
#
#
# Convention : Reuss Voigt Hill
#
# Bulk Modulus (GPa) = 15.36188 20.31943 17.84066
# Shear Modulus (GPa) = 25.72531 27.89457 26.80994
#
# Velocity S-wave (km/s) = 3.53566 3.68171 3.60942
# Velocity P-wave (km/s) = 4.91251 5.28652 5.10294
#
# Compressibility (1/GPa) = 0.06509619
#
# Stress axis : x y z
#
# Youngs Moduli (GPa) = 63.40858 27.67014 61.69033
#
# Poissons Ratio (x) = -0.02423 0.23700
# Poissons Ratio (y) = -0.05553 -0.08968
# Poissons Ratio (z) = 0.24360 -0.04022
#
# Static dielectric constant tensor:
#      x y z
#    x 3.703640 0.000000 0.000000 
#    y 0.000000 3.468360 0.000000 
#    z 0.000000 0.000000 3.680090 
# 
# 
# High freq. dielectric constant tensor:
#      x y z
#    x 1.812840 0.000000 0.000000 
#    y 0.000000 1.781960 0.000000 
#    z 0.000000 0.000000 1.802970 
# 
# From -- ./inp_files/15215.got.cif
#   From: 2010.03.12/outbox.cif.g09.slc.cpg/sg57_8_cif.got.tgz:15215.got - 2010.04.16 15:48:40.
