data_PCOD8232988
_publ_section_title
;
Structure prediction by ZEFSAII (Michael W. Deem and Ramdas Pophale) SiO2 
 PCOD8232988
Probable space group: P B C M
;
_chemical_formula_sum "Si O2"
_cell_formula_units_Z 64
_cell_length_a 19.033954
_cell_length_b 9.585538
_cell_length_c 18.138091
_cell_angle_alpha 90.000000
_cell_angle_beta 90.000000
_cell_angle_gamma 90.000000
_cell_volume 3309.307207
_symmetry_space_group_name_H-M "P B C M"
_symmetry_group_IT_number 57
_symmetry_cell_setting 'orthorhombic'
loop_
_space_group_symop_operation_xyz
x,y,z
-x,-y,1/2+z
x,1/2-y,-z
-x,1/2+y,1/2-z
-x,-y,-z
x,y,1/2-z
-x,1/2+y,z
x,1/2-y,1/2+z
loop_
_atom_site_type_symbol
_atom_site_label
_atom_site_fract_x
_atom_site_fract_y
_atom_site_fract_z
Si Si1 0.423432 0.245683 0.166330
Si Si2 0.346124 0.522341 0.336294
Si Si3 0.649343 0.033496 0.834105
Si Si4 0.062672 0.379953 0.162051
Si Si5 0.811545 0.067640 0.163467
Si Si6 0.931450 0.562240 0.337780
Si Si7 0.197797 0.619295 0.662099
Si Si8 0.565330 0.250125 0.086983
O O1 0.450917 0.260564 0.250000
O O2 0.388251 0.386970 0.138033
O O3 0.362024 0.131666 0.161396
O O4 0.489084 0.205282 0.115837
O O5 0.356675 0.554522 0.250000
O O6 0.264292 0.503174 0.355063
O O7 0.374374 0.649158 0.383744
O O8 0.642655 0.087677 0.750000
O O9 0.725861 0.070426 0.866732
O O10 0.586708 0.098436 0.882720
O O11 0.064103 0.374557 0.250000
O O12 0.130373 0.462775 0.130100
O O13 0.061945 0.220718 0.131328
O O14 0.995074 0.465441 0.133585
O O15 0.824098 0.077674 0.250000
O O16 0.818810 0.225173 0.131448
O O17 0.932018 0.566571 0.250000
O O18 0.859863 0.490669 0.367247
O O19 0.197980 0.620002 0.750000
O O20 0.563590 0.250000 0.000000
#
# Coordination Sequence:
#
# PCOD8232988 Si02
#       8
#     8   8   8   8   8   8   8   8
#     4  10  22  36  56  80 105 136 178 224 275 326
#     4  10  20  36  56  79 106 139 179 225 272 320
#     4  10  20  36  56  79 106 139 179 225 272 320
#     4   9  16  24  37  62 100 140 173 204 249 309
#     4   9  16  27  45  66  94 134 174 212 256 306
#     4   9  16  24  37  62 100 140 173 204 249 309
#     4   9  16  27  45  66  94 134 174 212 256 306
#     4  12  24  38  56  78 105 140 180 220 273 328
#
# _framework density 19.339393999999999
#
# number of rings (size 3 to 8) (size 9 to 14) (size 15 to 20)
#    0.000    2.250    1.250    2.625    1.750    7.000 
#    0.000    0.000    0.000    0.000    0.000    0.000 
#    0.000    1.000    0.000    0.000    0.000    0.250 
#
# Total GULP energy -793518.464950 kJ/mol
# GULP energy per Si atom -12398.726015 kJ/mol
# Density = 1.929538 g / cm^3
# Si number density = 19.339394 Si / 1000 Ang^3
#
#
#
# Elastic Constant Matrix: (Units=GPa)
#
#
# Indices 1 2 3 4 5 6 
#
# 1 136.7592 57.4711 25.8684 0.0000 0.0000 0.0000
# 2 57.4711 114.2358 19.2741 0.0000 0.0000 0.0000
# 3 25.8684 19.2741 40.0668 0.0000 0.0000 0.0000
# 4 0.0000 0.0000 0.0000 1.5631 0.0000 0.0000
# 5 0.0000 0.0000 0.0000 0.0000 0.9176 0.0000
# 6 0.0000 0.0000 0.0000 0.0000 0.0000 41.4548
#
#
#
# Elastic Compliance Matrix: (Units=1/GPa)
#
#
# Indices 1 2 3 4 5 6 
#
# 1 0.009926 -0.004258 -0.004360 0.000000 0.000000 0.000000
# 2 -0.004258 0.011354 -0.002712 0.000000 0.000000 0.000000
# 3 -0.004360 -0.002712 0.029078 0.000000 0.000000 0.000000
# 4 0.000000 0.000000 0.000000 0.639751 0.000000 0.000000
# 5 0.000000 0.000000 0.000000 0.000000 1.089758 0.000000
# 6 0.000000 0.000000 0.000000 0.000000 0.000000 0.024123
#
#
# Mechanical properties :
#
#
# Convention : Reuss Voigt Hill
#
# Bulk Modulus (GPa) = 36.10582 55.14321 45.62451
# Shear Modulus (GPa) = 2.72348 21.35033 12.03691
#
# Velocity S-wave (km/s) = 1.18799 3.32623 2.49751
# Velocity P-wave (km/s) = 4.53782 6.58233 5.65327
#
# Compressibility (1/GPa) = 0.02769636
#
# Stress axis : x y z
#
# Youngs Moduli (GPa) = 100.74215 88.07676 34.38987
#
# Poissons Ratio (x) = 0.37505 0.14995
# Poissons Ratio (y) = 0.42898 0.09328
# Poissons Ratio (z) = 0.43927 0.23891
#
# Static dielectric constant tensor:
#      x y z
#    x 3.675570 0.000000 0.000000 
#    y 0.000000 3.758750 0.000000 
#    z 0.000000 0.000000 1.507120 
# 
# 
# High freq. dielectric constant tensor:
#      x y z
#    x 1.766380 0.000000 0.000000 
#    y 0.000000 1.768930 0.000000 
#    z 0.000000 0.000000 1.672360 
# 
# From -- ./inp_files/25621.got.cif
#   From: 2010.03.12/outbox.cif.g09.slc.cpg/sg57_13_cif.got.tgz:25621.got - 2010.04.16 15:48:40.
