data_PCOD8232144
_publ_section_title
;
Structure prediction by ZEFSAII (Michael W. Deem and Ramdas Pophale) SiO2 
 PCOD8232144
Probable space group: P B C M
;
_chemical_formula_sum "Si O2"
_cell_formula_units_Z 64
_cell_length_a 20.901624
_cell_length_b 18.627242
_cell_length_c 8.906046
_cell_angle_alpha 90.000000
_cell_angle_beta 90.000000
_cell_angle_gamma 90.000000
_cell_volume 3467.476462
_symmetry_space_group_name_H-M "P B C M"
_symmetry_group_IT_number 57
_symmetry_cell_setting 'orthorhombic'
loop_
_space_group_symop_operation_xyz
x,y,z
-x,-y,1/2+z
x,1/2-y,-z
-x,1/2+y,1/2-z
-x,-y,-z
x,y,1/2-z
-x,1/2+y,z
x,1/2-y,1/2+z
loop_
_atom_site_type_symbol
_atom_site_label
_atom_site_fract_x
_atom_site_fract_y
_atom_site_fract_z
Si Si1 0.129412 0.328516 0.071759
Si Si2 0.628942 0.588880 0.920118
Si Si3 0.864008 0.173275 0.075940
Si Si4 0.634392 0.417826 0.583056
Si Si5 0.504578 0.577023 0.073581
Si Si6 0.241181 0.918731 0.420022
Si Si7 0.242848 0.088574 0.422888
Si Si8 0.005103 0.173045 0.425471
O O1 0.126592 0.322474 0.250000
O O2 0.137209 0.250000 0.000000
O O3 0.188135 0.377373 0.023941
O O4 0.064049 0.366885 0.009236
O O5 0.633411 0.617629 0.750000
O O6 0.627762 0.503274 0.925171
O O7 0.563632 0.619456 0.996354
O O8 0.689461 0.617307 0.014577
O O9 0.852925 0.186800 0.250000
O O10 0.934886 0.138806 0.047305
O O11 0.854048 0.250000 0.000000
O O12 0.813868 0.115538 0.019129
O O13 0.655549 0.394799 0.750000
O O14 0.564299 0.383993 0.544969
O O15 0.688831 0.389981 0.469995
O O16 0.518160 0.568607 0.250000
O O17 0.500000 0.500000 0.000000
O O18 0.230525 0.894770 0.250000
O O19 0.237530 0.003546 0.441265
O O20 0.235831 0.112255 0.250000
O O21 0.001343 0.250000 0.500000
O O22 0.021406 0.178950 0.250000
#
# Coordination Sequence:
#
# PCOD8232144 Si02
#       8
#     8   8   8   8   8   8   8   8
#     4  11  21  34  54  77 100 128 162 202 244 290
#     4   9  16  26  41  63  91 124 160 199 243 291
#     4  10  20  34  54  76 100 128 162 202 243 290
#     4   8  15  26  40  60  90 125 160 197 240 287
#     4   9  15  23  37  59  87 121 159 200 242 286
#     4  10  20  32  49  72 100 132 165 202 247 293
#     4  10  20  34  50  71 101 134 166 203 245 293
#     4   9  17  31  51  74  97 124 158 199 243 286
#
# _framework density 18.457228000000001
#
# number of rings (size 3 to 8) (size 9 to 14) (size 15 to 20)
#    0.000    2.500    0.000    4.875    0.000    6.500 
#    0.000    0.625    0.000    0.000    0.000    0.875 
#    0.000    6.000    0.000    0.000    0.000    0.000 
#
# Total GULP energy -793122.685746 kJ/mol
# GULP energy per Si atom -12392.541965 kJ/mol
# Density = 1.841522 g / cm^3
# Si number density = 18.457228 Si / 1000 Ang^3
#
#
#
# Elastic Constant Matrix: (Units=GPa)
#
#
# Indices 1 2 3 4 5 6 
#
# 1 172.1106 26.5848 78.5840 0.0000 0.0000 0.0000
# 2 26.5848 16.3508 23.4800 0.0000 0.0000 0.0000
# 3 78.5840 23.4800 140.5832 0.0000 0.0000 0.0000
# 4 0.0000 0.0000 0.0000 20.1724 0.0000 0.0000
# 5 0.0000 0.0000 0.0000 0.0000 37.4545 0.0000
# 6 0.0000 0.0000 0.0000 0.0000 0.0000 -21.2394
#
#
#
# Elastic Compliance Matrix: (Units=1/GPa)
#
#
# Indices 1 2 3 4 5 6 
#
# 1 0.008802 -0.009532 -0.003328 0.000000 0.000000 0.000000
# 2 -0.009532 0.090778 -0.009833 0.000000 0.000000 0.000000
# 3 -0.003328 -0.009833 0.010616 0.000000 0.000000 0.000000
# 4 0.000000 0.000000 0.000000 0.049573 0.000000 0.000000
# 5 0.000000 0.000000 0.000000 0.000000 0.026699 0.000000
# 6 0.000000 0.000000 0.000000 0.000000 0.000000 -0.047082
#
#
# Mechanical properties :
#
#
# Convention : Reuss Voigt Hill
#
# Bulk Modulus (GPa) = 15.42999 65.14915 40.28957
# Shear Modulus (GPa) = 24.22762 20.63722 22.43242
#
# Velocity S-wave (km/s) = 3.62696 3.34744 3.49000
# Velocity P-wave (km/s) = 5.09095 7.09327 6.17383
#
# Compressibility (1/GPa) = 0.06480887
#
# Stress axis : x y z
#
# Youngs Moduli (GPa) = 113.60739 11.01589 94.19703
#
# Poissons Ratio (x) = 0.10500 0.31352
# Poissons Ratio (y) = 1.08292 0.92627
# Poissons Ratio (z) = 0.37812 0.10832
#
# Static dielectric constant tensor:
#      x y z
#    x 4.176630 0.000000 0.000000 
#    y 0.000000 2.727680 0.000000 
#    z 0.000000 0.000000 3.601990 
# 
# 
# High freq. dielectric constant tensor:
#      x y z
#    x 1.745510 0.000000 0.000000 
#    y 0.000000 1.638440 0.000000 
#    z 0.000000 0.000000 1.734920 
# 
# From -- ./inp_files/8669.got.cif
#   From: 2010.03.12/outbox.cif.g09.slc.cpg/sg57_5_cif.got.tgz:8669.got - 2010.04.16 15:48:40.
