data_PCOD8232746
_publ_section_title
;
Structure prediction by ZEFSAII (Michael W. Deem and Ramdas Pophale) SiO2 
 PCOD8232746
Probable space group: P B C M
;
_chemical_formula_sum "Si O2"
_cell_formula_units_Z 56
_cell_length_a 21.226216
_cell_length_b 15.503816
_cell_length_c 8.852563
_cell_angle_alpha 90.000000
_cell_angle_beta 90.000000
_cell_angle_gamma 90.000000
_cell_volume 2913.266474
_symmetry_space_group_name_H-M "P B C M"
_symmetry_group_IT_number 57
_symmetry_cell_setting 'orthorhombic'
loop_
_space_group_symop_operation_xyz
x,y,z
-x,-y,1/2+z
x,1/2-y,-z
-x,1/2+y,1/2-z
-x,-y,-z
x,y,1/2-z
-x,1/2+y,z
x,1/2-y,1/2+z
loop_
_atom_site_type_symbol
_atom_site_label
_atom_site_fract_x
_atom_site_fract_y
_atom_site_fract_z
Si Si1 0.370100 0.161722 0.070092
Si Si2 0.930545 0.161813 0.927340
Si Si3 0.853061 0.996706 0.929229
Si Si4 0.290421 0.500853 0.570910
Si Si5 0.925398 0.839075 0.071721
Si Si6 0.494545 0.093241 0.927610
Si Si7 0.631220 0.338592 0.073980
O O1 0.372811 0.168008 0.250000
O O2 0.324162 0.085890 0.012808
O O3 0.343193 0.250000 0.000000
O O4 0.439818 0.146578 0.007336
O O5 0.924565 0.172713 0.750000
O O6 0.002402 0.143911 0.976867
O O7 0.888477 0.082604 0.985672
O O8 0.904964 0.250000 0.000000
O O9 0.858634 0.985494 0.750000
O O10 0.781284 0.002995 0.984984
O O11 0.883348 0.915081 0.008269
O O12 0.294253 0.502970 0.750000
O O13 0.327276 0.583474 0.504389
O O14 0.917757 0.833505 0.250000
O O15 0.901069 0.750000 0.000000
O O16 0.481515 0.083936 0.750000
O O17 0.558274 0.144862 0.960827
O O18 0.500000 0.000000 0.000000
O O19 0.644422 0.331291 0.250000
O O20 0.653765 0.250000 0.000000
#
# Coordination Sequence:
#
# PCOD8232746 Si02
#       7
#     8   8   8   8   8   8   8
#     4  11  22  39  59  82 111 146 187 231 281 335
#     4   9  19  34  55  83 113 146 182 225 277 329
#     4  10  20  36  58  81 109 148 188 227 278 329
#     4   9  20  39  57  76 111 151 184 226 276 328
#     4  10  20  35  55  82 114 144 181 229 277 329
#     4  11  21  36  60  86 114 145 181 229 283 333
#     4  10  21  38  57  81 110 144 180 221 274 326
#
# _framework density 19.222408999999999
#
# number of rings (size 3 to 8) (size 9 to 14) (size 15 to 20)
#    0.000    2.000    1.429    2.143    0.000    4.571 
#    0.000    3.571    0.000    0.000    0.000    0.000 
#    0.000    0.000    0.000    0.000    0.000    0.000 
#
# Total GULP energy -694580.232260 kJ/mol
# GULP energy per Si atom -12403.218433 kJ/mol
# Density = 1.917866 g / cm^3
# Si number density = 19.222409 Si / 1000 Ang^3
#
#
#
# Elastic Constant Matrix: (Units=GPa)
#
#
# Indices 1 2 3 4 5 6 
#
# 1 124.5459 88.3511 40.2598 0.0000 0.0000 0.0000
# 2 88.3511 195.8298 49.5556 0.0000 0.0000 0.0000
# 3 40.2598 49.5556 53.5711 0.0000 0.0000 0.0000
# 4 0.0000 0.0000 0.0000 39.0795 0.0000 0.0000
# 5 0.0000 0.0000 0.0000 0.0000 22.4401 0.0000
# 6 0.0000 0.0000 0.0000 0.0000 0.0000 -14.1818
#
#
#
# Elastic Compliance Matrix: (Units=1/GPa)
#
#
# Indices 1 2 3 4 5 6 
#
# 1 0.013008 -0.004433 -0.005676 0.000000 0.000000 0.000000
# 2 -0.004433 0.008178 -0.004233 0.000000 0.000000 0.000000
# 3 -0.005676 -0.004233 0.026848 0.000000 0.000000 0.000000
# 4 0.000000 0.000000 0.000000 0.025589 0.000000 0.000000
# 5 0.000000 0.000000 0.000000 0.000000 0.044563 0.000000
# 6 0.000000 0.000000 0.000000 0.000000 0.000000 -0.070513
#
#
# Mechanical properties :
#
#
# Convention : Reuss Voigt Hill
#
# Bulk Modulus (GPa) = 51.67757 81.14222 66.40990
# Shear Modulus (GPa) = 60.38176 22.51959 41.45068
#
# Velocity S-wave (km/s) = 5.61074 3.42647 4.64871
# Velocity P-wave (km/s) = 8.30158 7.61303 7.96475
#
# Compressibility (1/GPa) = 0.01935075
#
# Stress axis : x y z
#
# Youngs Moduli (GPa) = 76.87427 122.28539 37.24641
#
# Poissons Ratio (x) = 0.54204 0.21140
# Poissons Ratio (y) = 0.34075 0.15768
# Poissons Ratio (z) = 0.43631 0.51769
#
# Static dielectric constant tensor:
#      x y z
#    x 3.667200 0.000000 0.000000 
#    y 0.000000 3.997410 0.000000 
#    z 0.000000 0.000000 3.365060 
# 
# 
# High freq. dielectric constant tensor:
#      x y z
#    x 1.744690 0.000000 0.000000 
#    y 0.000000 1.765630 0.000000 
#    z 0.000000 0.000000 1.733640 
# 
# From -- ./inp_files/8015.got.cif
#   From: 2010.03.12/outbox.cif.g09.slc.cpg/sg57_5_cif.got.tgz:8015.got - 2010.04.16 15:48:40.
