data_PCOD8232193
_publ_section_title
;
Structure prediction by ZEFSAII (Michael W. Deem and Ramdas Pophale) SiO2 
 PCOD8232193
Probable space group: P B C M
;
_chemical_formula_sum "Si O2"
_cell_formula_units_Z 64
_cell_length_a 21.236224
_cell_length_b 19.554569
_cell_length_c 9.106718
_cell_angle_alpha 90.000000
_cell_angle_beta 90.000000
_cell_angle_gamma 90.000000
_cell_volume 3781.703140
_symmetry_space_group_name_H-M "P B C M"
_symmetry_group_IT_number 57
_symmetry_cell_setting 'orthorhombic'
loop_
_space_group_symop_operation_xyz
x,y,z
-x,-y,1/2+z
x,1/2-y,-z
-x,1/2+y,1/2-z
-x,-y,-z
x,y,1/2-z
-x,1/2+y,z
x,1/2-y,1/2+z
loop_
_atom_site_type_symbol
_atom_site_label
_atom_site_fract_x
_atom_site_fract_y
_atom_site_fract_z
Si Si1 0.559264 0.035089 0.422871
Si Si2 0.008387 0.395918 0.088490
Si Si3 0.619652 0.684706 0.420675
Si Si4 0.131690 0.321743 0.074507
Si Si5 0.188060 0.450728 0.579231
Si Si6 0.476270 0.815727 0.579672
Si Si7 0.088556 0.532282 0.412748
Si Si8 0.668053 0.540339 0.418717
O O1 0.552076 0.022426 0.250000
O O2 0.561140 0.115606 0.460424
O O3 0.500000 0.000000 0.500000
O O4 0.625627 0.007066 0.479073
O O5 0.983086 0.375777 0.250000
O O6 0.059065 0.339755 0.033796
O O7 0.042473 0.468439 0.098687
O O8 0.949196 0.402309 0.978441
O O9 0.650283 0.750000 0.500000
O O10 0.623637 0.699294 0.250000
O O11 0.548017 0.673414 0.473523
O O12 0.659177 0.618756 0.466669
O O13 0.141195 0.318671 0.250000
O O14 0.149669 0.250000 0.000000
O O15 0.176816 0.380543 0.009501
O O16 0.171982 0.437659 0.750000
O O17 0.146471 0.513058 0.517770
O O18 0.259100 0.476997 0.558465
O O19 0.445630 0.750000 0.500000
O O20 0.473569 0.799661 0.750000
O O21 0.113032 0.551990 0.250000
O O22 0.646492 0.530281 0.250000
#
# Coordination Sequence:
#
# PCOD8232193 Si02
#       8
#     8   8   8   8   8   8   8   8
#     4  11  21  34  53  76 101 129 163 209 261 310
#     4   8  15  27  44  67  92 121 156 195 237 280
#     4   9  17  31  46  64  93 123 160 202 240 292
#     4  10  20  33  49  70 100 135 172 208 242 287
#     4  10  20  33  49  67  95 133 169 206 247 293
#     4   9  18  32  50  72  97 123 154 195 243 300
#     4   9  16  27  45  68  93 119 153 198 241 283
#     4  10  21  36  50  70  99 132 171 213 255 305
#
# _framework density 16.923591999999999
#
# number of rings (size 3 to 8) (size 9 to 14) (size 15 to 20)
#    0.000    2.500    1.250    2.250    0.000    6.500 
#    0.000    1.250    0.000    0.000    0.000    0.875 
#    0.000    6.000    0.000    0.000    0.000    0.000 
#
# Total GULP energy -793447.022513 kJ/mol
# GULP energy per Si atom -12397.609727 kJ/mol
# Density = 1.688507 g / cm^3
# Si number density = 16.923592 Si / 1000 Ang^3
#
#
#
# Elastic Constant Matrix: (Units=GPa)
#
#
# Indices 1 2 3 4 5 6 
#
# 1 76.1044 35.5237 46.2398 0.0000 0.0000 0.0000
# 2 35.5237 63.0951 43.9225 0.0000 0.0000 0.0000
# 3 46.2398 43.9225 95.1577 0.0000 0.0000 0.0000
# 4 0.0000 0.0000 0.0000 27.8424 0.0000 0.0000
# 5 0.0000 0.0000 0.0000 0.0000 24.3979 0.0000
# 6 0.0000 0.0000 0.0000 0.0000 0.0000 19.4039
#
#
#
# Elastic Compliance Matrix: (Units=1/GPa)
#
#
# Indices 1 2 3 4 5 6 
#
# 1 0.020433 -0.006767 -0.006806 0.000000 0.000000 0.000000
# 2 -0.006767 0.025594 -0.008525 0.000000 0.000000 0.000000
# 3 -0.006806 -0.008525 0.017751 0.000000 0.000000 0.000000
# 4 0.000000 0.000000 0.000000 0.035916 0.000000 0.000000
# 5 0.000000 0.000000 0.000000 0.000000 0.040987 0.000000
# 6 0.000000 0.000000 0.000000 0.000000 0.000000 0.051536
#
#
# Mechanical properties :
#
#
# Convention : Reuss Voigt Hill
#
# Bulk Modulus (GPa) = 51.06591 53.96995 52.51793
# Shear Modulus (GPa) = 20.58113 21.57358 21.07736
#
# Velocity S-wave (km/s) = 3.49108 3.57426 3.53291
# Velocity P-wave (km/s) = 6.81836 6.99952 6.90954
#
# Compressibility (1/GPa) = 0.01958254
#
# Stress axis : x y z
#
# Youngs Moduli (GPa) = 48.93926 39.07237 56.33454
#
# Poissons Ratio (x) = 0.26439 0.38341
# Poissons Ratio (y) = 0.33115 0.48027
# Poissons Ratio (z) = 0.33308 0.33310
#
# Static dielectric constant tensor:
#      x y z
#    x 3.014900 0.000000 0.000000 
#    y 0.000000 3.100100 0.000000 
#    z 0.000000 0.000000 3.297310 
# 
# 
# High freq. dielectric constant tensor:
#      x y z
#    x 1.628070 0.000000 0.000000 
#    y 0.000000 1.629580 0.000000 
#    z 0.000000 0.000000 1.663500 
# 
# From -- ./inp_files/8465.got.cif
#   From: 2010.03.12/outbox.cif.g09.slc.cpg/sg57_5_cif.got.tgz:8465.got - 2010.04.16 15:48:40.
