data_PCOD8232296
_publ_section_title
;
Structure prediction by ZEFSAII (Michael W. Deem and Ramdas Pophale) SiO2 
 PCOD8232296
Probable space group: P B C M
;
_chemical_formula_sum "Si O2"
_cell_formula_units_Z 64
_cell_length_a 11.341635
_cell_length_b 33.617034
_cell_length_c 8.831387
_cell_angle_alpha 90.000000
_cell_angle_beta 90.000000
_cell_angle_gamma 90.000000
_cell_volume 3367.161727
_symmetry_space_group_name_H-M "P B C M"
_symmetry_group_IT_number 57
_symmetry_cell_setting 'orthorhombic'
loop_
_space_group_symop_operation_xyz
x,y,z
-x,-y,1/2+z
x,1/2-y,-z
-x,1/2+y,1/2-z
-x,-y,-z
x,y,1/2-z
-x,1/2+y,z
x,1/2-y,1/2+z
loop_
_atom_site_type_symbol
_atom_site_label
_atom_site_fract_x
_atom_site_fract_y
_atom_site_fract_z
Si Si1 0.736425 0.208236 0.570435
Si Si2 0.744930 0.976149 0.571800
Si Si3 0.379346 0.100375 0.070355
Si Si4 0.982531 0.560361 0.421161
Si Si5 0.774266 0.063231 0.573926
Si Si6 0.854352 0.642746 0.080315
Si Si7 0.371676 0.631363 0.070691
Si Si8 0.004041 0.209583 0.573671
O O1 0.693561 0.250000 0.500000
O O2 0.722815 0.210154 0.750000
O O3 0.654913 0.173344 0.506237
O O4 0.871052 0.199402 0.519158
O O5 0.753683 0.968645 0.750000
O O6 0.650273 0.944193 0.506105
O O7 0.877256 0.967120 0.511532
O O8 0.707364 0.021497 0.534612
O O9 0.387573 0.098493 0.250000
O O10 0.275464 0.130420 0.021333
O O11 0.503094 0.115977 0.005101
O O12 0.019955 0.547977 0.250000
O O13 0.940754 0.605610 0.420334
O O14 0.089412 0.556334 0.537318
O O15 0.759842 0.074376 0.750000
O O16 0.725070 0.098516 0.471696
O O17 0.846616 0.660469 0.250000
O O18 0.905528 0.675208 0.967699
O O19 0.372310 0.637190 0.250000
O O20 0.049944 0.250000 0.500000
O O21 0.004319 0.216271 0.750000
#
# Coordination Sequence:
#
# PCOD8232296 Si02
#       8
#     8   8   8   8   8   8   8   8
#     4  10  21  38  59  83 111 138 167 206 255 308
#     4   8  16  32  52  74 102 137 175 217 266 313
#     4   8  17  35  55  73  97 135 180 221 258 299
#     4   9  17  31  52  75 100 133 172 213 261 319
#     4  11  21  31  48  76 109 140 172 216 265 311
#     4   9  17  32  54  75  97 129 169 211 256 305
#     4  11  22  36  55  77 103 138 181 221 257 303
#     4  10  20  33  52  79 108 134 160 197 248 306
#
# _framework density 19.007106
#
# number of rings (size 3 to 8) (size 9 to 14) (size 15 to 20)
#    0.000    2.500    0.000    4.125    0.000    4.500 
#    0.000    2.500    0.000    5.250    0.000    0.000 
#    0.000    0.000    0.000    0.000    0.000    0.000 
#
# Total GULP energy -793459.903401 kJ/mol
# GULP energy per Si atom -12397.810991 kJ/mol
# Density = 1.896384 g / cm^3
# Si number density = 19.007106 Si / 1000 Ang^3
#
#
#
# Elastic Constant Matrix: (Units=GPa)
#
#
# Indices 1 2 3 4 5 6 
#
# 1 68.3359 50.9032 18.6232 0.0000 0.0000 0.0000
# 2 50.9032 122.9351 33.1779 0.0000 0.0000 0.0000
# 3 18.6232 33.1779 50.7728 0.0000 0.0000 0.0000
# 4 0.0000 0.0000 0.0000 27.4989 0.0000 0.0000
# 5 0.0000 0.0000 0.0000 0.0000 19.3356 0.0000
# 6 0.0000 0.0000 0.0000 0.0000 0.0000 22.9305
#
#
#
# Elastic Compliance Matrix: (Units=1/GPa)
#
#
# Indices 1 2 3 4 5 6 
#
# 1 0.021419 -0.008193 -0.002502 0.000000 0.000000 0.000000
# 2 -0.008193 0.013010 -0.005496 0.000000 0.000000 0.000000
# 3 -0.002502 -0.005496 0.024205 0.000000 0.000000 0.000000
# 4 0.000000 0.000000 0.000000 0.036365 0.000000 0.000000
# 5 0.000000 0.000000 0.000000 0.000000 0.051718 0.000000
# 6 0.000000 0.000000 0.000000 0.000000 0.000000 0.043610
#
#
# Mechanical properties :
#
#
# Convention : Reuss Voigt Hill
#
# Bulk Modulus (GPa) = 38.09517 49.71693 43.90605
# Shear Modulus (GPa) = 21.60183 23.24229 22.42206
#
# Velocity S-wave (km/s) = 3.37488 3.50068 3.43835
# Velocity P-wave (km/s) = 5.93907 6.52330 6.23803
#
# Compressibility (1/GPa) = 0.02625005
#
# Stress axis : x y z
#
# Youngs Moduli (GPa) = 46.68795 76.86157 41.31363
#
# Poissons Ratio (x) = 0.62976 0.10337
# Poissons Ratio (y) = 0.38254 0.22708
# Poissons Ratio (z) = 0.11682 0.42247
#
# Static dielectric constant tensor:
#      x y z
#    x 3.556740 0.000000 0.000000 
#    y 0.000000 3.594670 0.000000 
#    z 0.000000 0.000000 3.234420 
# 
# 
# High freq. dielectric constant tensor:
#      x y z
#    x 1.725720 0.000000 0.000000 
#    y 0.000000 1.746870 0.000000 
#    z 0.000000 0.000000 1.718210 
# 
# From -- ./inp_files/3864.got.cif
#   From: 2010.03.12/outbox.cif.g09.slc.cpg/sg57_2_cif.got.tgz:3864.got - 2010.04.16 15:48:40.
