data_PCOD8232384
_publ_section_title
;
Structure prediction by ZEFSAII (Michael W. Deem and Ramdas Pophale) SiO2 
 PCOD8232384
Probable space group: P B C M
;
_chemical_formula_sum "Si O2"
_cell_formula_units_Z 56
_cell_length_a 19.237655
_cell_length_b 18.258527
_cell_length_c 9.113881
_cell_angle_alpha 90.000000
_cell_angle_beta 90.000000
_cell_angle_gamma 90.000000
_cell_volume 3201.262032
_symmetry_space_group_name_H-M "P B C M"
_symmetry_group_IT_number 57
_symmetry_cell_setting 'orthorhombic'
loop_
_space_group_symop_operation_xyz
x,y,z
-x,-y,1/2+z
x,1/2-y,-z
-x,1/2+y,1/2-z
-x,-y,-z
x,y,1/2-z
-x,1/2+y,z
x,1/2-y,1/2+z
loop_
_atom_site_type_symbol
_atom_site_label
_atom_site_fract_x
_atom_site_fract_y
_atom_site_fract_z
Si Si1 0.590433 0.827188 0.421343
Si Si2 0.929514 0.524062 0.924562
Si Si3 0.441084 0.825394 0.080552
Si Si4 0.863177 0.823894 0.081544
Si Si5 0.798466 0.036622 0.923655
Si Si6 0.290471 0.673365 0.921300
Si Si7 0.726593 0.908349 0.421379
O O1 0.598610 0.750000 0.500000
O O2 0.599861 0.811595 0.250000
O O3 0.514755 0.866095 0.455825
O O4 0.651091 0.881364 0.473769
O O5 0.933196 0.513558 0.750000
O O6 0.912375 0.608276 0.966524
O O7 0.870130 0.471576 0.989162
O O8 0.000000 0.500000 0.000000
O O9 0.439768 0.806519 0.250000
O O10 0.366983 0.862090 0.036702
O O11 0.445735 0.750000 0.000000
O O12 0.874979 0.806533 0.250000
O O13 0.783174 0.844705 0.048747
O O14 0.885124 0.750000 0.000000
O O15 0.810548 0.027941 0.750000
O O16 0.768574 0.116062 0.966247
O O17 0.742646 0.977470 0.977451
O O18 0.287304 0.689798 0.750000
O O19 0.276220 0.750000 0.000000
O O20 0.729214 0.931290 0.250000
#
# Coordination Sequence:
#
# PCOD8232384 Si02
#       7
#     8   8   8   8   8   8   8
#     4   9  16  26  43  66  94 128 167 208 250 293
#     4  10  21  38  58  80 105 133 163 196 237 290
#     4   8  14  26  43  64  91 124 161 205 252 294
#     4   9  18  31  49  74 102 129 162 199 234 278
#     4  10  20  34  52  74  98 127 162 200 242 292
#     4   9  18  32  51  73  96 124 164 210 253 295
#     4   9  18  31  45  67  99 133 166 202 244 292
#
# _framework density 17.493100999999999
#
# number of rings (size 3 to 8) (size 9 to 14) (size 15 to 20)
#    0.000    2.857    0.000    2.143    0.000    4.571 
#    0.000    1.429    0.000    0.000    0.000    0.000 
#    0.000    0.000    0.000    0.000    0.000    0.000 
#
# Total GULP energy -693806.264418 kJ/mol
# GULP energy per Si atom -12389.397579 kJ/mol
# Density = 1.745329 g / cm^3
# Si number density = 17.493101 Si / 1000 Ang^3
#
#
#
# Elastic Constant Matrix: (Units=GPa)
#
#
# Indices 1 2 3 4 5 6 
#
# 1 155.1634 80.8563 55.2244 0.0000 0.0000 0.0000
# 2 80.8563 96.8120 44.2919 0.0000 0.0000 0.0000
# 3 55.2244 44.2919 55.4477 0.0000 0.0000 0.0000
# 4 0.0000 0.0000 0.0000 28.9831 0.0000 0.0000
# 5 0.0000 0.0000 0.0000 0.0000 24.8066 0.0000
# 6 0.0000 0.0000 0.0000 0.0000 0.0000 19.4569
#
#
#
# Elastic Compliance Matrix: (Units=1/GPa)
#
#
# Indices 1 2 3 4 5 6 
#
# 1 0.012790 -0.007650 -0.006628 0.000000 0.000000 0.000000
# 2 -0.007650 0.020854 -0.009039 0.000000 0.000000 0.000000
# 3 -0.006628 -0.009039 0.031857 0.000000 0.000000 0.000000
# 4 0.000000 0.000000 0.000000 0.034503 0.000000 0.000000
# 5 0.000000 0.000000 0.000000 0.000000 0.040312 0.000000
# 6 0.000000 0.000000 0.000000 0.000000 0.000000 0.051396
#
#
# Mechanical properties :
#
#
# Convention : Reuss Voigt Hill
#
# Bulk Modulus (GPa) = 53.00265 74.24094 63.62180
# Shear Modulus (GPa) = 20.43873 23.11935 21.77904
#
# Velocity S-wave (km/s) = 3.42188 3.63936 3.53229
# Velocity P-wave (km/s) = 6.78065 7.75836 7.28593
#
# Compressibility (1/GPa) = 0.01886698
#
# Stress axis : x y z
#
# Youngs Moduli (GPa) = 78.18505 47.95280 31.39064
#
# Poissons Ratio (x) = 0.36684 0.20805
# Poissons Ratio (y) = 0.59811 0.28374
# Poissons Ratio (z) = 0.51820 0.43345
#
# Static dielectric constant tensor:
#      x y z
#    x 3.676630 0.000000 0.000000 
#    y 0.000000 2.982340 0.000000 
#    z 0.000000 0.000000 3.214440 
# 
# 
# High freq. dielectric constant tensor:
#      x y z
#    x 1.686750 0.000000 0.000000 
#    y 0.000000 1.646090 0.000000 
#    z 0.000000 0.000000 1.679040 
# 
# From -- ./inp_files/8050.got.cif
#   From: 2010.03.12/outbox.cif.g09.slc.cpg/sg57_5_cif.got.tgz:8050.got - 2010.04.16 15:48:40.
