data_PCOD8232648
_publ_section_title
;
Structure prediction by ZEFSAII (Michael W. Deem and Ramdas Pophale) SiO2 
 PCOD8232648
Probable space group: P B C M
;
_chemical_formula_sum "Si O2"
_cell_formula_units_Z 64
_cell_length_a 20.023462
_cell_length_b 20.022219
_cell_length_c 8.866468
_cell_angle_alpha 90.000000
_cell_angle_beta 90.000000
_cell_angle_gamma 90.000000
_cell_volume 3554.692405
_symmetry_space_group_name_H-M "P B C M"
_symmetry_group_IT_number 57
_symmetry_cell_setting 'orthorhombic'
loop_
_space_group_symop_operation_xyz
x,y,z
-x,-y,1/2+z
x,1/2-y,-z
-x,1/2+y,1/2-z
-x,-y,-z
x,y,1/2-z
-x,1/2+y,z
x,1/2-y,1/2+z
loop_
_atom_site_type_symbol
_atom_site_label
_atom_site_fract_x
_atom_site_fract_y
_atom_site_fract_z
Si Si1 0.151011 0.411404 0.928554
Si Si2 0.477944 0.932289 0.074357
Si Si3 0.382852 0.100456 0.923526
Si Si4 0.339114 0.965205 0.071994
Si Si5 0.192998 0.942451 0.071326
Si Si6 0.044624 0.319255 0.427890
Si Si7 0.109070 0.681529 0.572491
Si Si8 0.258266 0.180486 0.925323
O O1 0.148542 0.401002 0.750000
O O2 0.155267 0.489304 0.973708
O O3 0.084864 0.381072 0.003156
O O4 0.216717 0.377021 0.994181
O O5 0.473048 0.945646 0.250000
O O6 0.538824 0.880538 0.037368
O O7 0.401406 0.915938 0.020995
O O8 0.500000 0.000000 0.000000
O O9 0.377945 0.077143 0.750000
O O10 0.336919 0.165241 0.950842
O O11 0.355289 0.040325 0.023344
O O12 0.330206 0.966288 0.250000
O O13 0.268520 0.940749 0.002622
O O14 0.195354 0.936357 0.250000
O O15 0.152088 0.879728 0.004788
O O16 0.070741 0.250000 0.500000
O O17 0.056469 0.315776 0.250000
O O18 0.967771 0.331224 0.471287
O O19 0.135557 0.750000 0.500000
O O20 0.117832 0.687834 0.750000
O O21 0.238952 0.183135 0.750000
O O22 0.239560 0.250000 0.000000
#
# Coordination Sequence:
#
# PCOD8232648 Si02
#       8
#     8   8   8   8   8   8   8   8
#     4  11  21  34  52  74 102 131 164 205 249 299
#     4   8  14  24  42  67  92 120 155 194 236 282
#     4   9  17  29  44  66  96 125 159 207 249 281
#     4   9  15  27  48  72  97 127 160 193 239 296
#     4   9  18  32  52  77 104 132 161 201 249 296
#     4  10  20  35  54  74  99 132 169 206 244 290
#     4   9  19  37  57  76  99 128 164 203 245 297
#     4  11  22  34  48  67  97 136 175 211 250 297
#
# _framework density 18.004370000000002
#
# number of rings (size 3 to 8) (size 9 to 14) (size 15 to 20)
#    0.000    2.500    1.250    1.500    0.000    1.500 
#    0.000    1.875    0.000    0.750    0.000    0.000 
#    0.000    0.000    0.000    0.000    0.000    0.000 
#
# Total GULP energy -792949.408340 kJ/mol
# GULP energy per Si atom -12389.834505 kJ/mol
# Density = 1.796339 g / cm^3
# Si number density = 18.004370 Si / 1000 Ang^3
#
#
#
# Elastic Constant Matrix: (Units=GPa)
#
#
# Indices 1 2 3 4 5 6 
#
# 1 134.1039 69.9827 29.9963 0.0000 0.0000 0.0000
# 2 69.9827 111.4716 28.8384 0.0000 0.0000 0.0000
# 3 29.9963 28.8384 42.3414 0.0000 0.0000 0.0000
# 4 0.0000 0.0000 0.0000 19.5721 0.0000 0.0000
# 5 0.0000 0.0000 0.0000 0.0000 18.4572 0.0000
# 6 0.0000 0.0000 0.0000 0.0000 0.0000 21.7680
#
#
#
# Elastic Compliance Matrix: (Units=1/GPa)
#
#
# Indices 1 2 3 4 5 6 
#
# 1 0.011612 -0.006266 -0.003959 0.000000 0.000000 0.000000
# 2 -0.006266 0.014271 -0.005281 0.000000 0.000000 0.000000
# 3 -0.003959 -0.005281 0.030019 0.000000 0.000000 0.000000
# 4 0.000000 0.000000 0.000000 0.051093 0.000000 0.000000
# 5 0.000000 0.000000 0.000000 0.000000 0.054179 0.000000
# 6 0.000000 0.000000 0.000000 0.000000 0.000000 0.045939
#
#
# Mechanical properties :
#
#
# Convention : Reuss Voigt Hill
#
# Bulk Modulus (GPa) = 40.17549 60.61686 50.39617
# Shear Modulus (GPa) = 20.29038 22.56609 21.42823
#
# Velocity S-wave (km/s) = 3.36068 3.54413 3.45362
# Velocity P-wave (km/s) = 6.11732 7.10555 6.62987
#
# Compressibility (1/GPa) = 0.02489080
#
# Stress axis : x y z
#
# Youngs Moduli (GPa) = 86.11435 70.07213 33.31252
#
# Poissons Ratio (x) = 0.43909 0.13188
# Poissons Ratio (y) = 0.53961 0.17591
# Poissons Ratio (z) = 0.34091 0.37003
#
# Static dielectric constant tensor:
#      x y z
#    x 3.999700 0.000000 0.000000 
#    y 0.000000 3.142920 0.000000 
#    z 0.000000 0.000000 2.713580 
# 
# 
# High freq. dielectric constant tensor:
#      x y z
#    x 1.717970 0.000000 0.000000 
#    y 0.000000 1.660680 0.000000 
#    z 0.000000 0.000000 1.687830 
# 
# From -- ./inp_files/8505.got.cif
#   From: 2010.03.12/outbox.cif.g09.slc.cpg/sg57_5_cif.got.tgz:8505.got - 2010.04.16 15:48:40.
