data_PCOD8232151
_publ_section_title
;
Structure prediction by ZEFSAII (Michael W. Deem and Ramdas Pophale) SiO2 
 PCOD8232151
Probable space group: P B C M
;
_chemical_formula_sum "Si O2"
_cell_formula_units_Z 48
_cell_length_a 14.918114
_cell_length_b 20.385530
_cell_length_c 8.955140
_cell_angle_alpha 90.000000
_cell_angle_beta 90.000000
_cell_angle_gamma 90.000000
_cell_volume 2723.380406
_symmetry_space_group_name_H-M "P B C M"
_symmetry_group_IT_number 57
_symmetry_cell_setting 'orthorhombic'
loop_
_space_group_symop_operation_xyz
x,y,z
-x,-y,1/2+z
x,1/2-y,-z
-x,1/2+y,1/2-z
-x,-y,-z
x,y,1/2-z
-x,1/2+y,z
x,1/2-y,1/2+z
loop_
_atom_site_type_symbol
_atom_site_label
_atom_site_fract_x
_atom_site_fract_y
_atom_site_fract_z
Si Si1 0.119704 0.814192 0.424466
Si Si2 0.743706 0.010938 0.417860
Si Si3 0.079188 0.959906 0.074018
Si Si4 0.501449 0.184993 0.424995
Si Si5 0.562631 0.945920 0.426092
Si Si6 0.703964 0.341256 0.917181
O O1 0.073193 0.750000 0.500000
O O2 0.106809 0.807336 0.250000
O O3 0.077390 0.883465 0.480931
O O4 0.225090 0.813175 0.464618
O O5 0.779645 0.998734 0.250000
O O6 0.827561 0.005726 0.529160
O O7 0.695607 0.080823 0.430332
O O8 0.667372 0.958955 0.461475
O O9 0.068721 0.963423 0.250000
O O10 0.000000 0.000000 0.000000
O O11 0.459892 0.250000 0.500000
O O12 0.479511 0.182275 0.250000
O O13 0.456254 0.124388 0.505942
O O14 0.607386 0.186975 0.456088
O O15 0.543853 0.946807 0.250000
O O16 0.500000 0.000000 0.500000
O O17 0.735210 0.321213 0.750000
#
# Coordination Sequence:
#
# PCOD8232151 Si02
#       6
#     8   8   8   8   8   8
#     4  10  20  32  49  76 106 138 173 209 258 318
#     4   9  18  34  54  78 106 138 176 219 266 315
#     4  10  21  36  56  82 108 138 176 218 268 321
#     4  11  22  35  49  73 106 145 187 228 274 321
#     4  11  21  35  55  79 107 143 184 226 268 318
#     4   9  17  31  49  72 104 139 174 212 259 313
#
# _framework density 17.625156
#
# number of rings (size 3 to 8) (size 9 to 14) (size 15 to 20)
#    0.000    2.000    1.667    2.500    0.000    6.000 
#    0.000    0.000    0.000    1.000    0.000    4.667 
#    0.000    0.000    0.000    0.000    0.000    0.000 
#
# Total GULP energy -595153.622019 kJ/mol
# GULP energy per Si atom -12399.033792 kJ/mol
# Density = 1.758504 g / cm^3
# Si number density = 17.625156 Si / 1000 Ang^3
#
#
#
# Elastic Constant Matrix: (Units=GPa)
#
#
# Indices 1 2 3 4 5 6 
#
# 1 71.3275 60.0353 51.3195 0.0000 0.0000 0.0000
# 2 60.0353 140.7988 62.8975 0.0000 0.0000 0.0000
# 3 51.3195 62.8975 93.0489 0.0000 0.0000 0.0000
# 4 0.0000 0.0000 0.0000 32.7487 0.0000 0.0000
# 5 0.0000 0.0000 0.0000 0.0000 28.1277 0.0000
# 6 0.0000 0.0000 0.0000 0.0000 0.0000 21.3444
#
#
#
# Elastic Compliance Matrix: (Units=1/GPa)
#
#
# Indices 1 2 3 4 5 6 
#
# 1 0.027407 -0.007068 -0.010338 0.000000 0.000000 0.000000
# 2 -0.007068 0.011997 -0.004212 0.000000 0.000000 0.000000
# 3 -0.010338 -0.004212 0.019296 0.000000 0.000000 0.000000
# 4 0.000000 0.000000 0.000000 0.030536 0.000000 0.000000
# 5 0.000000 0.000000 0.000000 0.000000 0.035552 0.000000
# 6 0.000000 0.000000 0.000000 0.000000 0.000000 0.046851
#
#
# Mechanical properties :
#
#
# Convention : Reuss Voigt Hill
#
# Bulk Modulus (GPa) = 64.66313 72.63111 68.64712
# Shear Modulus (GPa) = 22.72427 25.17236 23.94832
#
# Velocity S-wave (km/s) = 3.59459 3.78326 3.69013
# Velocity P-wave (km/s) = 7.34818 7.77061 7.56234
#
# Compressibility (1/GPa) = 0.01546476
#
# Stress axis : x y z
#
# Youngs Moduli (GPa) = 36.48709 83.35139 51.82454
#
# Poissons Ratio (x) = 0.58911 0.53578
# Poissons Ratio (y) = 0.25788 0.21827
# Poissons Ratio (z) = 0.37721 0.35105
#
# Static dielectric constant tensor:
#      x y z
#    x 3.023760 0.000000 0.000000 
#    y 0.000000 3.307730 0.000000 
#    z 0.000000 0.000000 3.350360 
# 
# 
# High freq. dielectric constant tensor:
#      x y z
#    x 1.646630 0.000000 0.000000 
#    y 0.000000 1.688110 0.000000 
#    z 0.000000 0.000000 1.691710 
# 
# From -- ./inp_files/4854.got.cif
#   From: 2010.03.12/outbox.cif.g09.slc.cpg/sg57_3_cif.got.tgz:4854.got - 2010.04.16 15:48:40.
