data_PCOD8232661
_publ_section_title
;
Structure prediction by ZEFSAII (Michael W. Deem and Ramdas Pophale) SiO2 
 PCOD8232661
Probable space group: P B C M
;
_chemical_formula_sum "Si O2"
_cell_formula_units_Z 48
_cell_length_a 30.560262
_cell_length_b 9.468703
_cell_length_c 8.552527
_cell_angle_alpha 90.000000
_cell_angle_beta 90.000000
_cell_angle_gamma 90.000000
_cell_volume 2474.810908
_symmetry_space_group_name_H-M "P B C M"
_symmetry_group_IT_number 57
_symmetry_cell_setting 'orthorhombic'
loop_
_space_group_symop_operation_xyz
x,y,z
-x,-y,1/2+z
x,1/2-y,-z
-x,1/2+y,1/2-z
-x,-y,-z
x,y,1/2-z
-x,1/2+y,z
x,1/2-y,1/2+z
loop_
_atom_site_type_symbol
_atom_site_label
_atom_site_fract_x
_atom_site_fract_y
_atom_site_fract_z
Si Si1 0.291213 0.898399 0.934205
Si Si2 0.118306 0.408139 0.935467
Si Si3 0.634084 0.902484 0.434491
Si Si4 0.960205 0.408851 0.564301
Si Si5 0.537325 0.903156 0.066336
Si Si6 0.808040 0.403679 0.564246
O O1 0.294133 0.894092 0.750000
O O2 0.241877 0.936783 0.985305
O O3 0.326908 0.004294 0.006599
O O4 0.305654 0.750000 0.000000
O O5 0.112344 0.404694 0.750000
O O6 0.112430 0.250000 0.000000
O O7 0.083770 0.514382 0.011524
O O8 0.165289 0.470632 0.982510
O O9 0.642456 0.750000 0.500000
O O10 0.637725 0.897340 0.250000
O O11 0.585763 0.958509 0.484010
O O12 0.962103 0.250000 0.500000
O O13 0.962554 0.402250 0.750000
O O14 0.000000 0.500000 0.500000
O O15 0.533091 0.896921 0.250000
O O16 0.528912 0.750000 0.000000
O O17 0.500000 0.000000 0.000000
O O18 0.822552 0.250000 0.500000
O O19 0.815349 0.406127 0.750000
#
# Coordination Sequence:
#
# PCOD8232661 Si02
#       6
#     8   8   8   8   8   8
#     4   9  19  35  55  80 110 142 182 226 273 327
#     4  12  25  42  62  88 120 156 196 240 287 339
#     4   9  19  35  53  76 105 139 177 221 270 327
#     4  12  25  44  67  94 125 160 199 241 289 341
#     4  10  20  35  54  76 105 139 179 223 273 328
#     4  10  20  37  59  84 114 150 189 233 281 334
#
# _framework density 19.395420999999999
#
# number of rings (size 3 to 8) (size 9 to 14) (size 15 to 20)
#    0.000    1.667    0.000    5.000    0.000    3.333 
#    0.000    3.333    0.000    0.000    0.000    0.000 
#    0.000    0.000    0.000    0.000    0.000    0.000 
#
# Total GULP energy -595149.636729 kJ/mol
# GULP energy per Si atom -12398.950765 kJ/mol
# Density = 1.935128 g / cm^3
# Si number density = 19.395421 Si / 1000 Ang^3
#
#
#
# Elastic Constant Matrix: (Units=GPa)
#
#
# Indices 1 2 3 4 5 6 
#
# 1 144.8120 96.7719 44.6044 0.0000 0.0000 0.0000
# 2 96.7719 145.2273 59.0185 0.0000 0.0000 0.0000
# 3 44.6044 59.0185 92.4285 0.0000 0.0000 0.0000
# 4 0.0000 0.0000 0.0000 37.7614 0.0000 0.0000
# 5 0.0000 0.0000 0.0000 0.0000 -52.3285 0.0000
# 6 0.0000 0.0000 0.0000 0.0000 0.0000 46.7113
#
#
#
# Elastic Compliance Matrix: (Units=1/GPa)
#
#
# Indices 1 2 3 4 5 6 
#
# 1 0.012512 -0.007945 -0.000965 0.000000 0.000000 0.000000
# 2 -0.007945 0.014344 -0.005325 0.000000 0.000000 0.000000
# 3 -0.000965 -0.005325 0.014685 0.000000 0.000000 0.000000
# 4 0.000000 0.000000 0.000000 0.026482 0.000000 0.000000
# 5 0.000000 0.000000 0.000000 0.000000 -0.019110 0.000000
# 6 0.000000 0.000000 0.000000 0.000000 0.000000 0.021408
#
#
# Mechanical properties :
#
#
# Convention : Reuss Voigt Hill
#
# Bulk Modulus (GPa) = 76.50470 87.02861 81.76666
# Shear Modulus (GPa) = 48.47369 18.56703 33.52036
#
# Velocity S-wave (km/s) = 5.00466 3.09737 4.16175
# Velocity P-wave (km/s) = 8.53966 7.59998 8.08349
#
# Compressibility (1/GPa) = 0.01307109
#
# Stress axis : x y z
#
# Youngs Moduli (GPa) = 79.92127 69.71472 68.09742
#
# Poissons Ratio (x) = 0.55392 0.06570
# Poissons Ratio (y) = 0.63501 0.36261
# Poissons Ratio (z) = 0.07711 0.37122
#
# Static dielectric constant tensor:
#      x y z
#    x 4.041140 0.000000 0.000000 
#    y 0.000000 3.659620 0.000000 
#    z 0.000000 0.000000 3.647580 
# 
# 
# High freq. dielectric constant tensor:
#      x y z
#    x 1.774110 0.000000 0.000000 
#    y 0.000000 1.756650 0.000000 
#    z 0.000000 0.000000 1.764280 
# 
# From -- ./inp_files/9987.got.cif
#   From: 2010.03.12/outbox.cif.g09.slc.cpg/sg57_5_cif.got.tgz:9987.got - 2010.04.16 15:48:40.
