data_PCOD8232909
_publ_section_title
;
Structure prediction by ZEFSAII (Michael W. Deem and Ramdas Pophale) SiO2 
 PCOD8232909
Probable space group: P B C M
;
_chemical_formula_sum "Si O2"
_cell_formula_units_Z 64
_cell_length_a 12.207023
_cell_length_b 19.178031
_cell_length_c 13.594525
_cell_angle_alpha 90.000000
_cell_angle_beta 90.000000
_cell_angle_gamma 90.000000
_cell_volume 3182.568917
_symmetry_space_group_name_H-M "P B C M"
_symmetry_group_IT_number 57
_symmetry_cell_setting 'orthorhombic'
loop_
_space_group_symop_operation_xyz
x,y,z
-x,-y,1/2+z
x,1/2-y,-z
-x,1/2+y,1/2-z
-x,-y,-z
x,y,1/2-z
-x,1/2+y,z
x,1/2-y,1/2+z
loop_
_atom_site_type_symbol
_atom_site_label
_atom_site_fract_x
_atom_site_fract_y
_atom_site_fract_z
Si Si1 0.023074 0.824003 0.974639
Si Si2 0.256356 0.435223 0.474348
Si Si3 0.454607 0.354262 0.533723
Si Si4 0.040621 0.420250 0.138464
Si Si5 0.455080 0.726174 0.863413
Si Si6 0.381465 0.946633 0.637262
Si Si7 0.759655 0.310137 0.859790
Si Si8 0.092014 0.057239 0.362017
O O1 0.035643 0.870046 0.073311
O O2 0.964316 0.750000 0.000000
O O3 0.142650 0.804342 0.936032
O O4 0.953302 0.867198 0.894700
O O5 0.328021 0.368718 0.507806
O O6 0.166573 0.412086 0.394192
O O7 0.338810 0.489735 0.426912
O O8 0.194413 0.465515 0.570528
O O9 0.522402 0.340343 0.432481
O O10 0.460573 0.287538 0.605822
O O11 0.505007 0.421017 0.589410
O O12 0.028258 0.395445 0.250000
O O13 0.004512 0.500603 0.125105
O O14 0.474473 0.706185 0.750000
O O15 0.331408 0.751774 0.883291
O O16 0.402365 0.969755 0.750000
O O17 0.292100 0.886232 0.632646
O O18 0.805818 0.298513 0.750000
O O19 0.132325 0.061502 0.250000
#
# Coordination Sequence:
#
# PCOD8232909 Si02
#       8
#     8   8   8   8   8   8   8   8
#     4  11  22  34  60  89 121 151 190 251 305 353
#     4  11  21  37  60  88 114 154 197 248 293 350
#     4  10  21  36  58  85 119 149 199 245 293 347
#     4  10  22  42  62  84 118 160 204 247 300 365
#     4   9  20  39  58  80 117 160 196 235 288 355
#     4  10  20  35  59  87 118 154 194 240 288 352
#     4   9  18  34  58  85 112 151 190 226 289 355
#     4  10  22  42  63  85 118 159 203 248 302 365
#
# _framework density 20.109541
#
# number of rings (size 3 to 8) (size 9 to 14) (size 15 to 20)
#    0.000    2.000    0.000    5.250    3.500    5.000 
#    9.000    0.625    0.000    0.000    0.000    0.000 
#    0.000    0.000    0.000    0.000    0.000    0.000 
#
# Total GULP energy -793591.742413 kJ/mol
# GULP energy per Si atom -12399.870975 kJ/mol
# Density = 2.006377 g / cm^3
# Si number density = 20.109541 Si / 1000 Ang^3
#
#
#
# Elastic Constant Matrix: (Units=GPa)
#
#
# Indices 1 2 3 4 5 6 
#
# 1 90.5981 31.9125 46.6255 0.0000 0.0000 0.0000
# 2 31.9125 69.4576 34.9301 0.0000 0.0000 0.0000
# 3 46.6255 34.9301 154.9449 0.0000 0.0000 0.0000
# 4 0.0000 0.0000 0.0000 26.0777 0.0000 0.0000
# 5 0.0000 0.0000 0.0000 0.0000 25.5670 0.0000
# 6 0.0000 0.0000 0.0000 0.0000 0.0000 19.7139
#
#
#
# Elastic Compliance Matrix: (Units=1/GPa)
#
#
# Indices 1 2 3 4 5 6 
#
# 1 0.014465 -0.005027 -0.003220 0.000000 0.000000 0.000000
# 2 -0.005027 0.017985 -0.002542 0.000000 0.000000 0.000000
# 3 -0.003220 -0.002542 0.007996 0.000000 0.000000 0.000000
# 4 0.000000 0.000000 0.000000 0.038347 0.000000 0.000000
# 5 0.000000 0.000000 0.000000 0.000000 0.039113 0.000000
# 6 0.000000 0.000000 0.000000 0.000000 0.000000 0.050726
#
#
# Mechanical properties :
#
#
# Convention : Reuss Voigt Hill
#
# Bulk Modulus (GPa) = 52.99553 60.21519 56.60536
# Shear Modulus (GPa) = 25.44547 27.70722 26.57635
#
# Velocity S-wave (km/s) = 3.56103 3.71592 3.63930
# Velocity P-wave (km/s) = 6.58168 6.95840 6.77266
#
# Compressibility (1/GPa) = 0.01886952
#
# Stress axis : x y z
#
# Youngs Moduli (GPa) = 69.13026 55.60119 125.06638
#
# Poissons Ratio (x) = 0.27951 0.40267
# Poissons Ratio (y) = 0.34752 0.31789
# Poissons Ratio (z) = 0.22257 0.14133
#
# Static dielectric constant tensor:
#      x y z
#    x 3.463320 0.000000 0.000000 
#    y 0.000000 3.562700 0.000000 
#    z 0.000000 0.000000 3.900660 
# 
# 
# High freq. dielectric constant tensor:
#      x y z
#    x 1.767610 0.000000 0.000000 
#    y 0.000000 1.770260 0.000000 
#    z 0.000000 0.000000 1.803180 
# 
# From -- ./inp_files/17945.got.cif
#   From: 2010.03.12/outbox.cif.g09.slc.cpg/sg57_9_cif.got.tgz:17945.got - 2010.04.16 15:48:40.
