data_PCOD8232514
_publ_section_title
;
Structure prediction by ZEFSAII (Michael W. Deem and Ramdas Pophale) SiO2 
 PCOD8232514
Probable space group: P B C M
;
_chemical_formula_sum "Si O2"
_cell_formula_units_Z 40
_cell_length_a 26.071558
_cell_length_b 9.179714
_cell_length_c 8.795772
_cell_angle_alpha 90.000000
_cell_angle_beta 90.000000
_cell_angle_gamma 90.000000
_cell_volume 2105.087240
_symmetry_space_group_name_H-M "P B C M"
_symmetry_group_IT_number 57
_symmetry_cell_setting 'orthorhombic'
loop_
_space_group_symop_operation_xyz
x,y,z
-x,-y,1/2+z
x,1/2-y,-z
-x,1/2+y,1/2-z
-x,-y,-z
x,y,1/2-z
-x,1/2+y,z
x,1/2-y,1/2+z
loop_
_atom_site_type_symbol
_atom_site_label
_atom_site_fract_x
_atom_site_fract_y
_atom_site_fract_z
Si Si1 0.645110 0.908695 0.928414
Si Si2 0.954195 0.091501 0.430799
Si Si3 0.745609 0.908197 0.428498
Si Si4 0.454361 0.908674 0.070705
Si Si5 0.858039 0.906682 0.427497
O O1 0.650636 0.888504 0.750000
O O2 0.598462 0.012595 0.972770
O O3 0.635785 0.750000 0.000000
O O4 0.696943 0.987794 0.993427
O O5 0.956531 0.250000 0.500000
O O6 0.959432 0.098342 0.250000
O O7 0.900741 0.019433 0.484342
O O8 0.000000 0.000000 0.500000
O O9 0.746054 0.750000 0.500000
O O10 0.735769 0.900483 0.250000
O O11 0.801750 0.975887 0.466225
O O12 0.462435 0.897137 0.250000
O O13 0.453829 0.750000 0.000000
O O14 0.500000 0.000000 0.000000
O O15 0.867407 0.750000 0.500000
O O16 0.863036 0.879320 0.250000
#
# Coordination Sequence:
#
# PCOD8232514 Si02
#       5
#     8   8   8   8   8
#     4  10  20  34  54  82 111 142 179 221 266 316
#     4  11  23  39  57  80 109 142 181 225 273 326
#     4   9  16  29  51  78 107 141 178 218 262 313
#     4  11  24  40  59  82 110 143 182 225 273 325
#     4   9  19  34  54  80 109 140 178 221 266 316
#
# _framework density 19.001587000000001
#
# number of rings (size 3 to 8) (size 9 to 14) (size 15 to 20)
#    0.000    2.000    0.000    4.800    0.000    8.800 
#    0.000    1.000    0.000    4.800    0.000    0.000 
#    0.000    0.000    0.000    0.000    0.000    0.000 
#
# Total GULP energy -495823.062960 kJ/mol
# GULP energy per Si atom -12395.576574 kJ/mol
# Density = 1.895834 g / cm^3
# Si number density = 19.001587 Si / 1000 Ang^3
#
#
#
# Elastic Constant Matrix: (Units=GPa)
#
#
# Indices 1 2 3 4 5 6 
#
# 1 216.3089 94.5597 80.5870 0.0000 0.0000 0.0000
# 2 94.5597 125.2724 51.1484 0.0000 0.0000 0.0000
# 3 80.5870 51.1484 87.5537 0.0000 0.0000 0.0000
# 4 0.0000 0.0000 0.0000 29.9395 0.0000 0.0000
# 5 0.0000 0.0000 0.0000 0.0000 31.2158 0.0000
# 6 0.0000 0.0000 0.0000 0.0000 0.0000 29.1274
#
#
#
# Elastic Compliance Matrix: (Units=1/GPa)
#
#
# Indices 1 2 3 4 5 6 
#
# 1 0.008439 -0.004200 -0.005313 0.000000 0.000000 0.000000
# 2 -0.004200 0.012574 -0.003479 0.000000 0.000000 0.000000
# 3 -0.005313 -0.003479 0.018345 0.000000 0.000000 0.000000
# 4 0.000000 0.000000 0.000000 0.033401 0.000000 0.000000
# 5 0.000000 0.000000 0.000000 0.000000 0.032035 0.000000
# 6 0.000000 0.000000 0.000000 0.000000 0.000000 0.034332
#
#
# Mechanical properties :
#
#
# Convention : Reuss Voigt Hill
#
# Bulk Modulus (GPa) = 74.78875 97.96944 86.37910
# Shear Modulus (GPa) = 29.48657 31.57919 30.53288
#
# Velocity S-wave (km/s) = 3.94356 4.08109 4.01291
# Velocity P-wave (km/s) = 7.75759 8.59521 8.18712
#
# Compressibility (1/GPa) = 0.01337099
#
# Stress axis : x y z
#
# Youngs Moduli (GPa) = 118.50046 79.53020 54.51117
#
# Poissons Ratio (x) = 0.33406 0.28964
# Poissons Ratio (y) = 0.49775 0.18967
# Poissons Ratio (z) = 0.62965 0.27672
#
# Static dielectric constant tensor:
#      x y z
#    x 4.583090 0.000000 0.000000 
#    y 0.000000 3.270960 0.000000 
#    z 0.000000 0.000000 3.616490 
# 
# 
# High freq. dielectric constant tensor:
#      x y z
#    x 1.769720 0.000000 0.000000 
#    y 0.000000 1.708260 0.000000 
#    z 0.000000 0.000000 1.752220 
# 
# From -- ./inp_files/9626.got.cif
#   From: 2010.03.12/outbox.cif.g09.slc.cpg/sg57_5_cif.got.tgz:9626.got - 2010.04.16 15:48:40.
