data_PCOD8232506
_publ_section_title
;
Structure prediction by ZEFSAII (Michael W. Deem and Ramdas Pophale) SiO2 
 PCOD8232506
Probable space group: P B C M
;
_chemical_formula_sum "Si O2"
_cell_formula_units_Z 64
_cell_length_a 23.535860
_cell_length_b 14.717859
_cell_length_c 9.542459
_cell_angle_alpha 90.000000
_cell_angle_beta 90.000000
_cell_angle_gamma 90.000000
_cell_volume 3305.483645
_symmetry_space_group_name_H-M "P B C M"
_symmetry_group_IT_number 57
_symmetry_cell_setting 'orthorhombic'
loop_
_space_group_symop_operation_xyz
x,y,z
-x,-y,1/2+z
x,1/2-y,-z
-x,1/2+y,1/2-z
-x,-y,-z
x,y,1/2-z
-x,1/2+y,z
x,1/2-y,1/2+z
loop_
_atom_site_type_symbol
_atom_site_label
_atom_site_fract_x
_atom_site_fract_y
_atom_site_fract_z
Si Si1 0.877084 0.970032 0.410037
Si Si2 0.250845 0.471687 0.412025
Si Si3 0.443312 0.488361 0.087052
Si Si4 0.048590 0.161407 0.415114
Si Si5 0.738522 0.171151 0.405313
Si Si6 0.082313 0.666392 0.091247
Si Si7 0.393442 0.825268 0.901579
Si Si8 0.649334 0.656999 0.584143
O O1 0.897371 0.949718 0.250000
O O2 0.812946 0.934044 0.432607
O O3 0.917122 0.923303 0.523440
O O4 0.878867 0.078426 0.437100
O O5 0.267059 0.485421 0.250000
O O6 0.254691 0.572489 0.479621
O O7 0.296290 0.400325 0.473750
O O8 0.459317 0.488534 0.250000
O O9 0.403160 0.572677 0.044643
O O10 0.408481 0.397466 0.049391
O O11 0.500000 0.500000 0.000000
O O12 0.068962 0.250000 0.500000
O O13 0.061691 0.173036 0.250000
O O14 0.982725 0.141597 0.445346
O O15 0.767463 0.250000 0.500000
O O16 0.767438 0.172445 0.250000
O O17 0.672748 0.194308 0.389471
O O18 0.086473 0.699414 0.250000
O O19 0.105110 0.750000 0.000000
O O20 0.422559 0.813361 0.750000
O O21 0.422907 0.750000 0.000000
O O22 0.647262 0.750000 0.500000
O O23 0.655047 0.676299 0.750000
#
# Coordination Sequence:
#
# PCOD8232506 Si02
#       8
#     8   8   8   8   8   8   8   8
#     4  10  20  34  54  81 109 141 182 228 275 325
#     4   9  18  35  57  77 106 146 181 216 267 324
#     4  10  21  37  57  80 109 141 175 215 263 315
#     4  10  20  35  54  76 105 142 182 228 277 328
#     4   9  16  30  52  76 101 133 169 206 253 310
#     4   9  19  34  53  78 109 145 183 222 273 331
#     4   9  17  31  52  76 102 133 166 203 249 306
#     4  10  21  40  61  80 106 145 185 222 265 315
#
# _framework density 19.361764999999998
#
# number of rings (size 3 to 8) (size 9 to 14) (size 15 to 20)
#    0.000    2.500    1.250    0.750    0.000    3.500 
#    0.000    5.625    0.000    0.000    0.000    0.000 
#    0.000    0.000    0.000    0.000    0.000    0.000 
#
# Total GULP energy -793391.002111 kJ/mol
# GULP energy per Si atom -12396.734408 kJ/mol
# Density = 1.931770 g / cm^3
# Si number density = 19.361765 Si / 1000 Ang^3
#
#
#
# Elastic Constant Matrix: (Units=GPa)
#
#
# Indices 1 2 3 4 5 6 
#
# 1 80.7595 35.5743 34.6359 0.0000 0.0000 0.0000
# 2 35.5743 127.2741 55.9303 0.0000 0.0000 0.0000
# 3 34.6359 55.9303 74.7846 0.0000 0.0000 0.0000
# 4 0.0000 0.0000 0.0000 40.1630 0.0000 0.0000
# 5 0.0000 0.0000 0.0000 0.0000 13.5229 0.0000
# 6 0.0000 0.0000 0.0000 0.0000 0.0000 12.8003
#
#
#
# Elastic Compliance Matrix: (Units=1/GPa)
#
#
# Indices 1 2 3 4 5 6 
#
# 1 0.015717 -0.001779 -0.005949 0.000000 0.000000 0.000000
# 2 -0.001779 0.011905 -0.008080 0.000000 0.000000 0.000000
# 3 -0.005949 -0.008080 0.022170 0.000000 0.000000 0.000000
# 4 0.000000 0.000000 0.000000 0.024899 0.000000 0.000000
# 5 0.000000 0.000000 0.000000 0.000000 0.073949 0.000000
# 6 0.000000 0.000000 0.000000 0.000000 0.000000 0.078123
#
#
# Mechanical properties :
#
#
# Convention : Reuss Voigt Hill
#
# Bulk Modulus (GPa) = 55.01489 59.45548 57.23519
# Shear Modulus (GPa) = 18.90816 23.74242 21.32529
#
# Velocity S-wave (km/s) = 3.12841 3.50559 3.32235
# Velocity P-wave (km/s) = 6.44400 6.86730 6.65902
#
# Compressibility (1/GPa) = 0.01817690
#
# Stress axis : x y z
#
# Youngs Moduli (GPa) = 63.62365 83.99962 45.10686
#
# Poissons Ratio (x) = 0.14943 0.26834
# Poissons Ratio (y) = 0.11318 0.36444
# Poissons Ratio (z) = 0.37850 0.67868
#
# Static dielectric constant tensor:
#      x y z
#    x 3.399890 0.000000 0.000000 
#    y 0.000000 3.581290 0.000000 
#    z 0.000000 0.000000 3.545310 
# 
# 
# High freq. dielectric constant tensor:
#      x y z
#    x 1.746780 0.000000 0.000000 
#    y 0.000000 1.756540 0.000000 
#    z 0.000000 0.000000 1.733070 
# 
# From -- ./inp_files/9434.got.cif
#   From: 2010.03.12/outbox.cif.g09.slc.cpg/sg57_5_cif.got.tgz:9434.got - 2010.04.16 15:48:40.
