data_PCOD8232450
_publ_section_title
;
Structure prediction by ZEFSAII (Michael W. Deem and Ramdas Pophale) SiO2 
 PCOD8232450
Probable space group: P B C M
;
_chemical_formula_sum "Si O2"
_cell_formula_units_Z 64
_cell_length_a 19.387529
_cell_length_b 18.061846
_cell_length_c 9.515413
_cell_angle_alpha 90.000000
_cell_angle_beta 90.000000
_cell_angle_gamma 90.000000
_cell_volume 3332.055590
_symmetry_space_group_name_H-M "P B C M"
_symmetry_group_IT_number 57
_symmetry_cell_setting 'orthorhombic'
loop_
_space_group_symop_operation_xyz
x,y,z
-x,-y,1/2+z
x,1/2-y,-z
-x,1/2+y,1/2-z
-x,-y,-z
x,y,1/2-z
-x,1/2+y,z
x,1/2-y,1/2+z
loop_
_atom_site_type_symbol
_atom_site_label
_atom_site_fract_x
_atom_site_fract_y
_atom_site_fract_z
Si Si1 0.310186 0.077053 0.406522
Si Si2 0.072789 0.191047 0.598857
Si Si3 0.408678 0.822536 0.915138
Si Si4 0.772038 0.681217 0.914862
Si Si5 0.844757 0.327985 0.083555
Si Si6 0.434334 0.320822 0.910310
Si Si7 0.698345 0.402660 0.408049
Si Si8 0.032351 0.563988 0.905285
O O1 0.288851 0.105074 0.250000
O O2 0.261777 0.106840 0.528975
O O3 0.387726 0.106598 0.438658
O O4 0.299563 0.990358 0.412760
O O5 0.034220 0.250000 0.500000
O O6 0.079157 0.229879 0.750000
O O7 0.148519 0.172874 0.541663
O O8 0.032059 0.116672 0.609928
O O9 0.394938 0.811592 0.750000
O O10 0.487575 0.844263 0.948278
O O11 0.387077 0.750000 0.000000
O O12 0.359190 0.885050 0.976479
O O13 0.758484 0.690662 0.750000
O O14 0.738812 0.750000 0.000000
O O15 0.854400 0.311872 0.250000
O O16 0.771024 0.365057 0.049975
O O17 0.902621 0.388612 0.033966
O O18 0.852401 0.250000 0.000000
O O19 0.430288 0.294241 0.750000
O O20 0.409688 0.250000 0.000000
O O21 0.677914 0.376641 0.250000
O O22 0.052157 0.532559 0.750000
O O23 0.000000 0.500000 0.000000
#
# Coordination Sequence:
#
# PCOD8232450 Si02
#       8
#     8   8   8   8   8   8   8   8
#     4  10  21  36  54  78 113 151 186 229 280 334
#     4   9  19  35  54  78 107 140 181 227 271 324
#     4  10  20  36  58  82 108 141 185 233 281 336
#     4  10  20  34  53  78 108 143 184 228 274 330
#     4  10  22  40  61  85 113 148 191 234 277 330
#     4   9  19  35  55  80 109 144 186 231 279 334
#     4  10  22  38  56  82 115 149 186 232 284 334
#     4  10  22  38  57  84 115 145 181 227 277 330
#
# _framework density 19.207363000000001
#
# number of rings (size 3 to 8) (size 9 to 14) (size 15 to 20)
#    0.000    2.250    0.000    1.875    1.750    6.000 
#    0.000    0.000    0.000    0.000    0.000    0.000 
#    0.000    0.000    0.000    0.000    0.000    0.000 
#
# Total GULP energy -793155.784766 kJ/mol
# GULP energy per Si atom -12393.059137 kJ/mol
# Density = 1.916365 g / cm^3
# Si number density = 19.207363 Si / 1000 Ang^3
#
#
#
# Elastic Constant Matrix: (Units=GPa)
#
#
# Indices 1 2 3 4 5 6 
#
# 1 91.3399 48.5315 45.0502 0.0000 0.0000 0.0000
# 2 48.5315 93.8338 49.3314 0.0000 0.0000 0.0000
# 3 45.0502 49.3314 93.1069 0.0000 0.0000 0.0000
# 4 0.0000 0.0000 0.0000 36.1806 0.0000 0.0000
# 5 0.0000 0.0000 0.0000 0.0000 25.9253 0.0000
# 6 0.0000 0.0000 0.0000 0.0000 0.0000 -12.7622
#
#
#
# Elastic Compliance Matrix: (Units=1/GPa)
#
#
# Indices 1 2 3 4 5 6 
#
# 1 0.016513 -0.006016 -0.004803 0.000000 0.000000 0.000000
# 2 -0.006016 0.016964 -0.006077 0.000000 0.000000 0.000000
# 3 -0.004803 -0.006077 0.016284 0.000000 0.000000 0.000000
# 4 0.000000 0.000000 0.000000 0.027639 0.000000 0.000000
# 5 0.000000 0.000000 0.000000 0.000000 0.038572 0.000000
# 6 0.000000 0.000000 0.000000 0.000000 0.000000 -0.078357
#
#
# Mechanical properties :
#
#
# Convention : Reuss Voigt Hill
#
# Bulk Modulus (GPa) = 62.61886 62.67853 62.64869
# Shear Modulus (GPa) = 65.16367 18.89325 42.02846
#
# Velocity S-wave (km/s) = 5.83096 3.13972 4.68283
# Velocity P-wave (km/s) = 8.83208 6.77105 7.86933
#
# Compressibility (1/GPa) = 0.01596963
#
# Stress axis : x y z
#
# Youngs Moduli (GPa) = 60.55750 58.95006 61.41032
#
# Poissons Ratio (x) = 0.35464 0.29493
# Poissons Ratio (y) = 0.36431 0.37319
# Poissons Ratio (z) = 0.29083 0.35824
#
# Static dielectric constant tensor:
#      x y z
#    x 3.621210 0.000000 0.000000 
#    y 0.000000 3.339460 0.000000 
#    z 0.000000 0.000000 3.903040 
# 
# 
# High freq. dielectric constant tensor:
#      x y z
#    x 1.756400 0.000000 0.000000 
#    y 0.000000 1.736790 0.000000 
#    z 0.000000 0.000000 1.750740 
# 
# From -- ./inp_files/8522.got.cif
#   From: 2010.03.12/outbox.cif.g09.slc.cpg/sg57_5_cif.got.tgz:8522.got - 2010.04.16 15:48:40.
