data_PCOD8232262
_publ_section_title
;
Structure prediction by ZEFSAII (Michael W. Deem and Ramdas Pophale) SiO2 
 PCOD8232262
Probable space group: P B C M
;
_chemical_formula_sum "Si O2"
_cell_formula_units_Z 64
_cell_length_a 8.699360
_cell_length_b 17.147962
_cell_length_c 22.423779
_cell_angle_alpha 90.000000
_cell_angle_beta 90.000000
_cell_angle_gamma 90.000000
_cell_volume 3345.096264
_symmetry_space_group_name_H-M "P B C M"
_symmetry_group_IT_number 57
_symmetry_cell_setting 'orthorhombic'
loop_
_space_group_symop_operation_xyz
x,y,z
-x,-y,1/2+z
x,1/2-y,-z
-x,1/2+y,1/2-z
-x,-y,-z
x,y,1/2-z
-x,1/2+y,z
x,1/2-y,1/2+z
loop_
_atom_site_type_symbol
_atom_site_label
_atom_site_fract_x
_atom_site_fract_y
_atom_site_fract_z
Si Si1 0.687309 0.839171 0.411647
Si Si2 0.438741 0.047538 0.090279
Si Si3 0.010313 0.773913 0.406124
Si Si4 0.853241 0.148876 0.021746
Si Si5 0.487826 0.576029 0.817027
Si Si6 0.736235 0.213811 0.817253
Si Si7 0.269996 0.010970 0.981580
Si Si8 0.446720 0.711107 0.079432
O O1 0.624849 0.881817 0.352861
O O2 0.760563 0.902006 0.457341
O O3 0.550746 0.786160 0.441340
O O4 0.830147 0.784738 0.395136
O O5 0.437485 0.140811 0.095199
O O6 0.443045 0.007360 0.154872
O O7 0.583238 0.020813 0.052235
O O8 0.291798 0.017585 0.052927
O O9 0.090883 0.828770 0.455762
O O10 0.033983 0.684638 0.428170
O O11 0.091446 0.790486 0.343060
O O12 0.679961 0.184908 0.030234
O O13 0.861367 0.054706 0.028873
O O14 0.547372 0.562041 0.750000
O O15 0.334724 0.627627 0.817860
O O16 0.740938 0.247275 0.750000
O O17 0.636305 0.271015 0.858164
#
# Coordination Sequence:
#
# PCOD8232262 Si02
#       8
#     8   8   8   8   8   8   8   8
#     4  10  21  34  52  81 107 134 175 224 272 313
#     4   9  17  29  51  79 100 128 170 218 266 310
#     4  10  20  33  51  76 106 138 178 220 266 318
#     4   9  19  35  51  71 104 144 176 211 259 325
#     4   9  18  34  54  75 100 132 173 217 260 312
#     4   9  18  33  52  71  96 136 177 210 257 321
#     4   9  18  32  50  74 105 137 173 212 265 323
#     4   9  19  34  53  75 102 135 174 220 263 311
#
# _framework density 19.132483000000001
#
# number of rings (size 3 to 8) (size 9 to 14) (size 15 to 20)
#    0.000    2.750    0.000    0.750    0.000   15.000 
#    0.000    1.250    0.000    0.000    0.000    5.250 
#    0.000    0.000    0.000    0.000    0.000    0.000 
#
# Total GULP energy -793099.156512 kJ/mol
# GULP energy per Si atom -12392.174320 kJ/mol
# Density = 1.908894 g / cm^3
# Si number density = 19.132483 Si / 1000 Ang^3
#
#
#
# Elastic Constant Matrix: (Units=GPa)
#
#
# Indices 1 2 3 4 5 6 
#
# 1 69.2336 22.8319 20.0998 0.0000 0.0000 0.0000
# 2 22.8319 96.1412 18.9520 0.0000 0.0000 0.0000
# 3 20.0998 18.9520 90.2685 0.0000 0.0000 0.0000
# 4 0.0000 0.0000 0.0000 20.3215 0.0000 0.0000
# 5 0.0000 0.0000 0.0000 0.0000 14.8613 0.0000
# 6 0.0000 0.0000 0.0000 0.0000 0.0000 21.9605
#
#
#
# Elastic Compliance Matrix: (Units=1/GPa)
#
#
# Indices 1 2 3 4 5 6 
#
# 1 0.016394 -0.003311 -0.002955 0.000000 0.000000 0.000000
# 2 -0.003311 0.011519 -0.001681 0.000000 0.000000 0.000000
# 3 -0.002955 -0.001681 0.012089 0.000000 0.000000 0.000000
# 4 0.000000 0.000000 0.000000 0.049209 0.000000 0.000000
# 5 0.000000 0.000000 0.000000 0.000000 0.067289 0.000000
# 6 0.000000 0.000000 0.000000 0.000000 0.000000 0.045536
#
#
# Mechanical properties :
#
#
# Convention : Reuss Voigt Hill
#
# Bulk Modulus (GPa) = 41.48103 42.15675 41.81889
# Shear Modulus (GPa) = 22.12721 24.34595 23.23658
#
# Velocity S-wave (km/s) = 3.40446 3.57107 3.48876
# Velocity P-wave (km/s) = 6.09769 6.25183 6.17524
#
# Compressibility (1/GPa) = 0.02410740
#
# Stress axis : x y z
#
# Youngs Moduli (GPa) = 60.99936 86.81300 82.71928
#
# Poissons Ratio (x) = 0.28741 0.24446
# Poissons Ratio (y) = 0.20195 0.13907
# Poissons Ratio (z) = 0.18027 0.14596
#
# Static dielectric constant tensor:
#      x y z
#    x 3.278520 0.000000 0.000000 
#    y 0.000000 3.870940 0.000000 
#    z 0.000000 0.000000 3.442820 
# 
# 
# High freq. dielectric constant tensor:
#      x y z
#    x 1.722620 0.000000 0.000000 
#    y 0.000000 1.748120 0.000000 
#    z 0.000000 0.000000 1.725140 
# 
# From -- ./inp_files/26953.got.cif
#   From: 2010.03.12/outbox.cif.g09.slc.cpg/sg57_14_cif.got.tgz:26953.got - 2010.04.16 15:48:40.
