data_PCOD8232764
_publ_section_title
;
Structure prediction by ZEFSAII (Michael W. Deem and Ramdas Pophale) SiO2 
 PCOD8232764
Probable space group: P B C M
;
_chemical_formula_sum "Si O2"
_cell_formula_units_Z 40
_cell_length_a 15.507200
_cell_length_b 13.420450
_cell_length_c 9.352932
_cell_angle_alpha 90.000000
_cell_angle_beta 90.000000
_cell_angle_gamma 90.000000
_cell_volume 1946.472370
_symmetry_space_group_name_H-M "P B C M"
_symmetry_group_IT_number 57
_symmetry_cell_setting 'orthorhombic'
loop_
_space_group_symop_operation_xyz
x,y,z
-x,-y,1/2+z
x,1/2-y,-z
-x,1/2+y,1/2-z
-x,-y,-z
x,y,1/2-z
-x,1/2+y,z
x,1/2-y,1/2+z
loop_
_atom_site_type_symbol
_atom_site_label
_atom_site_fract_x
_atom_site_fract_y
_atom_site_fract_z
Si Si1 0.309997 0.058458 0.416180
Si Si2 0.963357 0.347384 0.417021
Si Si3 0.536949 0.908648 0.088183
Si Si4 0.644328 0.160775 0.909116
Si Si5 0.886256 0.942886 0.914020
O O1 0.335315 0.068107 0.250000
O O2 0.375100 0.128262 0.508701
O O3 0.211803 0.089404 0.444394
O O4 0.324026 0.945064 0.470029
O O5 0.928193 0.250000 0.500000
O O6 0.973884 0.322492 0.250000
O O7 0.897468 0.438744 0.442863
O O8 0.056430 0.377453 0.480046
O O9 0.560130 0.940424 0.250000
O O10 0.460241 0.827703 0.089587
O O11 0.500000 0.000000 0.000000
O O12 0.681215 0.172700 0.750000
O O13 0.685446 0.250000 0.000000
O O14 0.912335 0.919786 0.750000
#
# Coordination Sequence:
#
# PCOD8232764 Si02
#       5
#     8   8   8   8   8
#     4   9  18  33  51  72  98 127 162 207 255 301
#     4  10  20  35  56  80 107 139 175 215 262 317
#     4   9  17  30  47  67  92 125 163 199 238 287
#     4   9  18  30  45  68  97 127 161 200 243 293
#     4   9  19  36  56  78 106 139 174 215 265 319
#
# _framework density 20.549996
#
# number of rings (size 3 to 8) (size 9 to 14) (size 15 to 20)
#    0.000    2.800    0.000    2.400    0.000    6.400 
#    0.000    1.000    0.000    2.400    0.000    0.000 
#    0.000    0.000    0.000    0.000    0.000    0.000 
#
# Total GULP energy -495766.857535 kJ/mol
# GULP energy per Si atom -12394.171438 kJ/mol
# Density = 2.050322 g / cm^3
# Si number density = 20.549996 Si / 1000 Ang^3
#
#
#
# Elastic Constant Matrix: (Units=GPa)
#
#
# Indices 1 2 3 4 5 6 
#
# 1 61.6962 -20.0862 17.8120 0.0000 0.0000 0.0000
# 2 -20.0862 28.9979 11.0538 0.0000 0.0000 0.0000
# 3 17.8120 11.0538 95.1065 0.0000 0.0000 0.0000
# 4 0.0000 0.0000 0.0000 32.4281 0.0000 0.0000
# 5 0.0000 0.0000 0.0000 0.0000 30.6163 0.0000
# 6 0.0000 0.0000 0.0000 0.0000 0.0000 11.2577
#
#
#
# Elastic Compliance Matrix: (Units=1/GPa)
#
#
# Indices 1 2 3 4 5 6 
#
# 1 0.024602 0.019669 -0.006894 0.000000 0.000000 0.000000
# 2 0.019669 0.051809 -0.009705 0.000000 0.000000 0.000000
# 3 -0.006894 -0.009705 0.012934 0.000000 0.000000 0.000000
# 4 0.000000 0.000000 0.000000 0.030837 0.000000 0.000000
# 5 0.000000 0.000000 0.000000 0.000000 0.032662 0.000000
# 6 0.000000 0.000000 0.000000 0.000000 0.000000 0.088828
#
#
# Mechanical properties :
#
#
# Convention : Reuss Voigt Hill
#
# Bulk Modulus (GPa) = 10.47275 22.59553 16.53414
# Shear Modulus (GPa) = 18.70127 26.66182 22.68155
#
# Velocity S-wave (km/s) = 3.01996 3.60587 3.32584
# Velocity P-wave (km/s) = 4.15541 5.32500 4.77615
#
# Compressibility (1/GPa) = 0.09548591
#
# Stress axis : x y z
#
# Youngs Moduli (GPa) = 40.64648 19.30156 77.31791
#
# Poissons Ratio (x) = -0.37965 0.53301
# Poissons Ratio (y) = -0.79949 0.75039
# Poissons Ratio (z) = 0.28021 0.18733
#
# Static dielectric constant tensor:
#      x y z
#    x 3.876510 0.000000 0.000000 
#    y 0.000000 3.400320 0.000000 
#    z 0.000000 0.000000 3.849070 
# 
# 
# High freq. dielectric constant tensor:
#      x y z
#    x 1.795940 0.000000 0.000000 
#    y 0.000000 1.773340 0.000000 
#    z 0.000000 0.000000 1.804980 
# 
# From -- ./inp_files/4279.got.cif
#   From: 2010.03.12/outbox.cif.g09.slc.cpg/sg57_3_cif.got.tgz:4279.got - 2010.04.16 15:48:40.
