data_PCOD8232817
_publ_section_title
;
Structure prediction by ZEFSAII (Michael W. Deem and Ramdas Pophale) SiO2 
 PCOD8232817
Probable space group: P B C M
;
_chemical_formula_sum "Si O2"
_cell_formula_units_Z 64
_cell_length_a 12.429352
_cell_length_b 29.109298
_cell_length_c 8.881977
_cell_angle_alpha 90.000000
_cell_angle_beta 90.000000
_cell_angle_gamma 90.000000
_cell_volume 3213.585534
_symmetry_space_group_name_H-M "P B C M"
_symmetry_group_IT_number 57
_symmetry_cell_setting 'orthorhombic'
loop_
_space_group_symop_operation_xyz
x,y,z
-x,-y,1/2+z
x,1/2-y,-z
-x,1/2+y,1/2-z
-x,-y,-z
x,y,1/2-z
-x,1/2+y,z
x,1/2-y,1/2+z
loop_
_atom_site_type_symbol
_atom_site_label
_atom_site_fract_x
_atom_site_fract_y
_atom_site_fract_z
Si Si1 0.174767 0.317316 0.580644
Si Si2 0.932189 0.203874 0.426053
Si Si3 0.685946 0.067813 0.076053
Si Si4 0.893740 0.580829 0.077502
Si Si5 0.478300 0.392354 0.071392
Si Si6 0.296253 0.463013 0.422787
Si Si7 0.109184 0.891094 0.071973
Si Si8 0.386512 0.295195 0.074790
O O1 0.210654 0.304566 0.750000
O O2 0.170418 0.371846 0.560445
O O3 0.260074 0.296826 0.464727
O O4 0.059316 0.296144 0.542567
O O5 0.883180 0.250000 0.500000
O O6 0.905606 0.202627 0.250000
O O7 0.878701 0.159512 0.501265
O O8 0.707482 0.080106 0.250000
O O9 0.658712 0.014160 0.055712
O O10 0.587077 0.097168 0.015577
O O11 0.789777 0.079061 0.977744
O O12 0.924502 0.570635 0.250000
O O13 0.814484 0.541649 0.015720
O O14 0.003370 0.582188 0.983407
O O15 0.496969 0.395683 0.250000
O O16 0.387061 0.428066 0.017880
O O17 0.444667 0.341356 0.018681
O O18 0.268899 0.451894 0.250000
O O19 0.104923 0.886205 0.250000
O O20 0.399906 0.289806 0.250000
O O21 0.439821 0.250000 0.000000
#
# Coordination Sequence:
#
# PCOD8232817 Si02
#       8
#     8   8   8   8   8   8   8   8
#     4   9  18  32  52  82 119 154 189 233 285 343
#     4  10  20  35  56  86 119 154 200 247 295 355
#     4  11  24  41  63  88 116 154 200 252 301 356
#     4  10  20  35  59  90 123 156 194 242 293 354
#     4  10  22  41  62  87 120 156 197 245 295 355
#     4  10  21  39  63  92 122 153 194 243 302 364
#     4  11  23  40  61  84 119 162 201 248 301 355
#     4  11  22  35  56  84 119 156 193 238 288 348
#
# _framework density 19.91545
#
# number of rings (size 3 to 8) (size 9 to 14) (size 15 to 20)
#    0.000    1.750    1.250    4.125    0.000    6.500 
#    0.000    0.625    0.000    1.500    0.000    0.000 
#    0.000    0.000    0.000    0.000    0.000    0.000 
#
# Total GULP energy -793848.999006 kJ/mol
# GULP energy per Si atom -12403.890609 kJ/mol
# Density = 1.987012 g / cm^3
# Si number density = 19.915450 Si / 1000 Ang^3
#
#
#
# Elastic Constant Matrix: (Units=GPa)
#
#
# Indices 1 2 3 4 5 6 
#
# 1 82.7118 42.3878 34.4951 0.0000 0.0000 0.0000
# 2 42.3878 106.8771 41.9007 0.0000 0.0000 0.0000
# 3 34.4951 41.9007 98.2489 0.0000 0.0000 0.0000
# 4 0.0000 0.0000 0.0000 32.4463 0.0000 0.0000
# 5 0.0000 0.0000 0.0000 0.0000 33.4042 0.0000
# 6 0.0000 0.0000 0.0000 0.0000 0.0000 15.7360
#
#
#
# Elastic Compliance Matrix: (Units=1/GPa)
#
#
# Indices 1 2 3 4 5 6 
#
# 1 0.016130 -0.005016 -0.003524 0.000000 0.000000 0.000000
# 2 -0.005016 0.012795 -0.003696 0.000000 0.000000 0.000000
# 3 -0.003524 -0.003696 0.012992 0.000000 0.000000 0.000000
# 4 0.000000 0.000000 0.000000 0.030820 0.000000 0.000000
# 5 0.000000 0.000000 0.000000 0.000000 0.029936 0.000000
# 6 0.000000 0.000000 0.000000 0.000000 0.000000 0.063549
#
#
# Mechanical properties :
#
#
# Convention : Reuss Voigt Hill
#
# Bulk Modulus (GPa) = 57.32118 58.37834 57.84976
# Shear Modulus (GPa) = 25.44422 27.58758 26.51590
#
# Velocity S-wave (km/s) = 3.57825 3.72591 3.65283
# Velocity P-wave (km/s) = 6.77618 6.92002 6.84847
#
# Compressibility (1/GPa) = 0.01744556
#
# Stress axis : x y z
#
# Youngs Moduli (GPa) = 61.99473 78.15795 76.97235
#
# Poissons Ratio (x) = 0.39202 0.27127
# Poissons Ratio (y) = 0.31095 0.28446
# Poissons Ratio (z) = 0.21849 0.28884
#
# Static dielectric constant tensor:
#      x y z
#    x 3.386580 0.000000 0.000000 
#    y 0.000000 3.788320 0.000000 
#    z 0.000000 0.000000 3.597810 
# 
# 
# High freq. dielectric constant tensor:
#      x y z
#    x 1.756170 0.000000 0.000000 
#    y 0.000000 1.786400 0.000000 
#    z 0.000000 0.000000 1.781470 
# 
# From -- ./inp_files/3903.got.cif
#   From: 2010.03.12/outbox.cif.g09.slc.cpg/sg57_2_cif.got.tgz:3903.got - 2010.04.16 15:48:40.
