data_PCOD8232896
_publ_section_title
;
Structure prediction by ZEFSAII (Michael W. Deem and Ramdas Pophale) SiO2 
 PCOD8232896
Probable space group: P B C M
;
_chemical_formula_sum "Si O2"
_cell_formula_units_Z 64
_cell_length_a 23.999658
_cell_length_b 15.271428
_cell_length_c 8.445250
_cell_angle_alpha 90.000000
_cell_angle_beta 90.000000
_cell_angle_gamma 90.000000
_cell_volume 3095.260548
_symmetry_space_group_name_H-M "P B C M"
_symmetry_group_IT_number 57
_symmetry_cell_setting 'orthorhombic'
loop_
_space_group_symop_operation_xyz
x,y,z
-x,-y,1/2+z
x,1/2-y,-z
-x,1/2+y,1/2-z
-x,-y,-z
x,y,1/2-z
-x,1/2+y,z
x,1/2-y,1/2+z
loop_
_atom_site_type_symbol
_atom_site_label
_atom_site_fract_x
_atom_site_fract_y
_atom_site_fract_z
Si Si1 0.384236 0.402701 0.432718
Si Si2 0.397594 0.916606 0.068008
Si Si3 0.716830 0.341947 0.062452
Si Si4 0.497640 0.339607 0.933672
Si Si5 0.205806 0.995058 0.438024
Si Si6 0.274016 0.161833 0.062702
Si Si7 0.996235 0.850799 0.063271
Si Si8 0.080344 0.498234 0.562248
O O1 0.381473 0.431072 0.250000
O O2 0.376837 0.484538 0.549819
O O3 0.442967 0.356570 0.463996
O O4 0.333844 0.338929 0.475985
O O5 0.412302 0.896701 0.250000
O O6 0.346945 0.856303 0.005186
O O7 0.453219 0.909300 0.962317
O O8 0.718148 0.346275 0.250000
O O9 0.758519 0.414525 0.991489
O O10 0.739010 0.250000 0.000000
O O11 0.481837 0.337099 0.750000
O O12 0.523809 0.250000 0.000000
O O13 0.204997 0.990822 0.250000
O O14 0.142973 0.990841 0.502994
O O15 0.235088 0.083381 0.496964
O O16 0.281991 0.160891 0.250000
O O17 0.244389 0.250000 0.000000
O O18 0.995257 0.841872 0.250000
O O19 0.047809 0.913252 0.007056
O O20 0.999251 0.750000 0.000000
O O21 0.942340 0.905989 0.007239
O O22 0.077620 0.489387 0.750000
#
# Coordination Sequence:
#
# PCOD8232896 Si02
#       8
#     8   8   8   8   8   8   8   8
#     4  12  24  40  61  86 114 149 194 243 299 363
#     4  11  22  40  62  85 115 152 192 241 301 361
#     4  10  21  38  60  86 117 155 195 240 295 354
#     4  12  25  41  59  84 115 149 192 242 298 362
#     4   9  19  39  62  85 119 160 199 245 301 352
#     4  11  22  40  62  86 117 155 197 246 301 361
#     4  10  20  35  58  89 125 163 203 247 298 351
#     4   9  19  37  61  87 119 161 206 251 297 349
#
# _framework density 20.676773000000001
#
# number of rings (size 3 to 8) (size 9 to 14) (size 15 to 20)
#    0.000    1.500    1.250    4.500    0.000    3.500 
#    0.000    3.125    0.000    0.000    0.000    0.000 
#    0.000    0.000    0.000    0.000    0.000    0.000 
#
# Total GULP energy -793541.068614 kJ/mol
# GULP energy per Si atom -12399.079197 kJ/mol
# Density = 2.062971 g / cm^3
# Si number density = 20.676773 Si / 1000 Ang^3
#
#
#
# Elastic Constant Matrix: (Units=GPa)
#
#
# Indices 1 2 3 4 5 6 
#
# 1 147.3978 60.6522 31.3742 0.0000 0.0000 0.0000
# 2 60.6522 157.1258 23.9807 0.0000 0.0000 0.0000
# 3 31.3742 23.9807 58.9727 0.0000 0.0000 0.0000
# 4 0.0000 0.0000 0.0000 34.6976 0.0000 0.0000
# 5 0.0000 0.0000 0.0000 0.0000 20.8656 0.0000
# 6 0.0000 0.0000 0.0000 0.0000 0.0000 15.1804
#
#
#
# Elastic Compliance Matrix: (Units=1/GPa)
#
#
# Indices 1 2 3 4 5 6 
#
# 1 0.008685 -0.002822 -0.003473 0.000000 0.000000 0.000000
# 2 -0.002822 0.007703 -0.001631 0.000000 0.000000 0.000000
# 3 -0.003473 -0.001631 0.019468 0.000000 0.000000 0.000000
# 4 0.000000 0.000000 0.000000 0.028820 0.000000 0.000000
# 5 0.000000 0.000000 0.000000 0.000000 0.047926 0.000000
# 6 0.000000 0.000000 0.000000 0.000000 0.000000 0.065874
#
#
# Mechanical properties :
#
#
# Convention : Reuss Voigt Hill
#
# Bulk Modulus (GPa) = 49.99116 66.16781 58.07949
# Shear Modulus (GPa) = 24.87619 30.64801 27.76210
#
# Velocity S-wave (km/s) = 3.47233 3.85417 3.66822
# Velocity P-wave (km/s) = 6.34871 7.20255 6.78906
#
# Compressibility (1/GPa) = 0.02000354
#
# Stress axis : x y z
#
# Youngs Moduli (GPa) = 115.14156 129.82459 51.36729
#
# Poissons Ratio (x) = 0.36643 0.17839
# Poissons Ratio (y) = 0.32498 0.08376
# Poissons Ratio (z) = 0.39986 0.21170
#
# Static dielectric constant tensor:
#      x y z
#    x 3.842060 0.000000 0.000000 
#    y 0.000000 4.405590 0.000000 
#    z 0.000000 0.000000 3.472770 
# 
# 
# High freq. dielectric constant tensor:
#      x y z
#    x 1.805890 0.000000 0.000000 
#    y 0.000000 1.821240 0.000000 
#    z 0.000000 0.000000 1.796010 
# 
# From -- ./inp_files/9350.got.cif
#   From: 2010.03.12/outbox.cif.g09.slc.cpg/sg57_5_cif.got.tgz:9350.got - 2010.04.16 15:48:40.
