data_PCOD8232859
_publ_section_title
;
Structure prediction by ZEFSAII (Michael W. Deem and Ramdas Pophale) SiO2 
 PCOD8232859
Probable space group: P B C M
;
_chemical_formula_sum "Si O2"
_cell_formula_units_Z 64
_cell_length_a 23.357177
_cell_length_b 15.494796
_cell_length_c 8.862257
_cell_angle_alpha 90.000000
_cell_angle_beta 90.000000
_cell_angle_gamma 90.000000
_cell_volume 3207.381019
_symmetry_space_group_name_H-M "P B C M"
_symmetry_group_IT_number 57
_symmetry_cell_setting 'orthorhombic'
loop_
_space_group_symop_operation_xyz
x,y,z
-x,-y,1/2+z
x,1/2-y,-z
-x,1/2+y,1/2-z
-x,-y,-z
x,y,1/2-z
-x,1/2+y,z
x,1/2-y,1/2+z
loop_
_atom_site_type_symbol
_atom_site_label
_atom_site_fract_x
_atom_site_fract_y
_atom_site_fract_z
Si Si1 0.058363 0.161689 0.927440
Si Si2 0.669926 0.664338 0.427024
Si Si3 0.072331 0.838632 0.427575
Si Si4 0.131152 0.999228 0.926196
Si Si5 0.736165 0.989753 0.075944
Si Si6 0.566085 0.413294 0.074091
Si Si7 0.563288 0.596456 0.575530
Si Si8 0.327819 0.835594 0.927606
O O1 0.064007 0.172160 0.750000
O O2 0.993114 0.143990 0.977951
O O3 0.096414 0.082214 0.986148
O O4 0.081652 0.250000 0.000000
O O5 0.697993 0.750000 0.500000
O O6 0.672218 0.674153 0.250000
O O7 0.704367 0.579852 0.474618
O O8 0.603990 0.659355 0.480969
O O9 0.094970 0.750000 0.500000
O O10 0.077839 0.830158 0.250000
O O11 0.111464 0.915865 0.483677
O O12 0.119689 0.983254 0.750000
O O13 0.197189 0.015150 0.961655
O O14 0.723747 0.968293 0.250000
O O15 0.713357 0.084533 0.034009
O O16 0.577428 0.433132 0.250000
O O17 0.502366 0.375524 0.049675
O O18 0.574181 0.499539 0.978606
O O19 0.610809 0.344932 0.009190
O O20 0.580972 0.601326 0.750000
O O21 0.336671 0.823952 0.750000
O O22 0.299175 0.750000 0.000000
#
# Coordination Sequence:
#
# PCOD8232859 Si02
#       8
#     8   8   8   8   8   8   8   8
#     4   9  19  35  57  86 121 157 193 238 290 346
#     4  12  25  41  64  88 116 155 198 244 295 353
#     4  10  20  35  57  87 121 157 196 239 289 345
#     4  10  21  38  60  86 118 155 195 243 295 346
#     4  10  23  43  62  84 117 155 197 248 298 345
#     4  10  20  35  59  89 119 152 189 234 292 355
#     4  10  20  36  59  88 121 152 187 235 292 353
#     4  11  23  39  61  84 114 153 195 245 296 352
#
# _framework density 19.953975
#
# number of rings (size 3 to 8) (size 9 to 14) (size 15 to 20)
#    0.000    1.750    1.250    3.000    0.000    5.000 
#    0.000    2.500    0.000    0.000    0.000    0.000 
#    0.000    0.000    0.000    0.000    0.000    0.000 
#
# Total GULP energy -793885.537447 kJ/mol
# GULP energy per Si atom -12404.461523 kJ/mol
# Density = 1.990856 g / cm^3
# Si number density = 19.953975 Si / 1000 Ang^3
#
#
#
# Elastic Constant Matrix: (Units=GPa)
#
#
# Indices 1 2 3 4 5 6 
#
# 1 70.2537 35.1563 41.4456 0.0000 0.0000 0.0000
# 2 35.1563 115.4349 54.7412 0.0000 0.0000 0.0000
# 3 41.4456 54.7412 104.7274 0.0000 0.0000 0.0000
# 4 0.0000 0.0000 0.0000 39.3082 0.0000 0.0000
# 5 0.0000 0.0000 0.0000 0.0000 23.2071 0.0000
# 6 0.0000 0.0000 0.0000 0.0000 0.0000 9.2053
#
#
#
# Elastic Compliance Matrix: (Units=1/GPa)
#
#
# Indices 1 2 3 4 5 6 
#
# 1 0.019322 -0.003003 -0.006077 0.000000 0.000000 0.000000
# 2 -0.003003 0.011985 -0.005076 0.000000 0.000000 0.000000
# 3 -0.006077 -0.005076 0.014607 0.000000 0.000000 0.000000
# 4 0.000000 0.000000 0.000000 0.025440 0.000000 0.000000
# 5 0.000000 0.000000 0.000000 0.000000 0.043090 0.000000
# 6 0.000000 0.000000 0.000000 0.000000 0.000000 0.108634
#
#
# Mechanical properties :
#
#
# Convention : Reuss Voigt Hill
#
# Bulk Modulus (GPa) = 56.81295 61.45580 59.13437
# Shear Modulus (GPa) = 19.43591 24.94898 22.19245
#
# Velocity S-wave (km/s) = 3.12434 3.53983 3.33856
# Velocity P-wave (km/s) = 6.44586 6.89731 6.67540
#
# Compressibility (1/GPa) = 0.01760162
#
# Stress axis : x y z
#
# Youngs Moduli (GPa) = 51.75491 83.44100 68.46126
#
# Poissons Ratio (x) = 0.25055 0.41604
# Poissons Ratio (y) = 0.15541 0.34751
# Poissons Ratio (z) = 0.31452 0.42355
#
# Static dielectric constant tensor:
#      x y z
#    x 3.674000 0.000000 0.000000 
#    y 0.000000 3.681970 0.000000 
#    z 0.000000 0.000000 3.597230 
# 
# 
# High freq. dielectric constant tensor:
#      x y z
#    x 1.772620 0.000000 0.000000 
#    y 0.000000 1.785060 0.000000 
#    z 0.000000 0.000000 1.781930 
# 
# From -- ./inp_files/9407.got.cif
#   From: 2010.03.12/outbox.cif.g09.slc.cpg/sg57_5_cif.got.tgz:9407.got - 2010.04.16 15:48:40.
