data_PCOD8232453
_publ_section_title
;
Structure prediction by ZEFSAII (Michael W. Deem and Ramdas Pophale) SiO2 
 PCOD8232453
Probable space group: P B C M
;
_chemical_formula_sum "Si O2"
_cell_formula_units_Z 56
_cell_length_a 16.224745
_cell_length_b 19.192784
_cell_length_c 9.271504
_cell_angle_alpha 90.000000
_cell_angle_beta 90.000000
_cell_angle_gamma 90.000000
_cell_volume 2887.128046
_symmetry_space_group_name_H-M "P B C M"
_symmetry_group_IT_number 57
_symmetry_cell_setting 'orthorhombic'
loop_
_space_group_symop_operation_xyz
x,y,z
-x,-y,1/2+z
x,1/2-y,-z
-x,1/2+y,1/2-z
-x,-y,-z
x,y,1/2-z
-x,1/2+y,z
x,1/2-y,1/2+z
loop_
_atom_site_type_symbol
_atom_site_label
_atom_site_fract_x
_atom_site_fract_y
_atom_site_fract_z
Si Si1 0.143707 0.175338 0.922840
Si Si2 0.564868 0.954954 0.586546
Si Si3 0.815532 0.422456 0.411307
Si Si4 0.476420 0.813580 0.588185
Si Si5 0.748350 0.569253 0.082403
Si Si6 0.000287 0.428829 0.413511
Si Si7 0.709115 0.181154 0.080495
O O1 0.150891 0.184822 0.750000
O O2 0.063721 0.129958 0.969244
O O3 0.137071 0.250000 0.000000
O O4 0.223441 0.134225 0.984164
O O5 0.559861 0.981666 0.750000
O O6 0.539969 0.875232 0.571407
O O7 0.658674 0.958853 0.529810
O O8 0.500000 0.000000 0.500000
O O9 0.781519 0.406618 0.250000
O O10 0.811977 0.505636 0.439534
O O11 0.761440 0.384539 0.530347
O O12 0.909127 0.396143 0.425414
O O13 0.514153 0.750000 0.500000
O O14 0.468448 0.786943 0.750000
O O15 0.385069 0.834679 0.534191
O O16 0.743936 0.593184 0.250000
O O17 0.022990 0.448437 0.250000
O O18 0.000000 0.500000 0.500000
O O19 0.720912 0.191167 0.250000
O O20 0.741633 0.250000 0.000000
#
# Coordination Sequence:
#
# PCOD8232453 Si02
#       7
#     8   8   8   8   8   8   8
#     4  11  24  41  62  88 119 156 199 244 294 351
#     4  10  21  36  56  85 117 150 192 239 289 343
#     4  10  20  35  57  84 115 147 185 230 281 342
#     4   9  19  35  53  75 106 143 186 231 277 335
#     4  10  21  38  60  85 117 155 192 240 295 346
#     4  10  21  38  61  87 115 150 192 235 285 346
#     4  10  20  34  53  78 110 147 186 233 284 336
#
# _framework density 19.396436999999999
#
# number of rings (size 3 to 8) (size 9 to 14) (size 15 to 20)
#    0.000    2.000    1.429    1.714    0.000    4.571 
#    0.000    2.857    0.000    0.000    0.000    0.000 
#    0.000    0.000    0.000    0.000    0.000    0.000 
#
# Total GULP energy -694398.988915 kJ/mol
# GULP energy per Si atom -12399.981945 kJ/mol
# Density = 1.935229 g / cm^3
# Si number density = 19.396437 Si / 1000 Ang^3
#
#
#
# Elastic Constant Matrix: (Units=GPa)
#
#
# Indices 1 2 3 4 5 6 
#
# 1 103.6480 43.3744 40.1909 0.0000 0.0000 0.0000
# 2 43.3744 91.4715 52.0902 0.0000 0.0000 0.0000
# 3 40.1909 52.0902 84.4186 0.0000 0.0000 0.0000
# 4 0.0000 0.0000 0.0000 39.7210 0.0000 0.0000
# 5 0.0000 0.0000 0.0000 0.0000 26.4963 0.0000
# 6 0.0000 0.0000 0.0000 0.0000 0.0000 22.8825
#
#
#
# Elastic Compliance Matrix: (Units=1/GPa)
#
#
# Indices 1 2 3 4 5 6 
#
# 1 0.012707 -0.003978 -0.003595 0.000000 0.000000 0.000000
# 2 -0.003978 0.018101 -0.009275 0.000000 0.000000 0.000000
# 3 -0.003595 -0.009275 0.019280 0.000000 0.000000 0.000000
# 4 0.000000 0.000000 0.000000 0.025176 0.000000 0.000000
# 5 0.000000 0.000000 0.000000 0.000000 0.037741 0.000000
# 6 0.000000 0.000000 0.000000 0.000000 0.000000 0.043702
#
#
# Mechanical properties :
#
#
# Convention : Reuss Voigt Hill
#
# Bulk Modulus (GPa) = 61.00656 61.20547 61.10601
# Shear Modulus (GPa) = 25.52771 27.41213 26.46992
#
# Velocity S-wave (km/s) = 3.63175 3.76341 3.69816
# Velocity P-wave (km/s) = 7.00763 7.10689 7.05743
#
# Compressibility (1/GPa) = 0.01639168
#
# Stress axis : x y z
#
# Youngs Moduli (GPa) = 78.69811 55.24699 51.86656
#
# Poissons Ratio (x) = 0.21978 0.18645
# Poissons Ratio (y) = 0.31308 0.48106
# Poissons Ratio (z) = 0.28291 0.51241
#
# Static dielectric constant tensor:
#      x y z
#    x 3.634430 0.000000 0.000000 
#    y 0.000000 3.365070 0.000000 
#    z 0.000000 0.000000 3.581090 
# 
# 
# High freq. dielectric constant tensor:
#      x y z
#    x 1.759620 0.000000 0.000000 
#    y 0.000000 1.749780 0.000000 
#    z 0.000000 0.000000 1.753390 
# 
# From -- ./inp_files/5152.got.cif
#   From: 2010.03.12/outbox.cif.g09.slc.cpg/sg57_3_cif.got.tgz:5152.got - 2010.04.16 15:48:40.
