data_PCOD8232747
_publ_section_title
;
Structure prediction by ZEFSAII (Michael W. Deem and Ramdas Pophale) SiO2 
 PCOD8232747
Probable space group: P B C M
;
_chemical_formula_sum "Si O2"
_cell_formula_units_Z 56
_cell_length_a 21.228928
_cell_length_b 15.500776
_cell_length_c 8.836050
_cell_angle_alpha 90.000000
_cell_angle_beta 90.000000
_cell_angle_gamma 90.000000
_cell_volume 2907.633535
_symmetry_space_group_name_H-M "P B C M"
_symmetry_group_IT_number 57
_symmetry_cell_setting 'orthorhombic'
loop_
_space_group_symop_operation_xyz
x,y,z
-x,-y,1/2+z
x,1/2-y,-z
-x,1/2+y,1/2-z
-x,-y,-z
x,y,1/2-z
-x,1/2+y,z
x,1/2-y,1/2+z
loop_
_atom_site_type_symbol
_atom_site_label
_atom_site_fract_x
_atom_site_fract_y
_atom_site_fract_z
Si Si1 0.853079 0.501398 0.929533
Si Si2 0.290319 0.997485 0.929413
Si Si3 0.067241 0.661553 0.427821
Si Si4 0.497384 0.593746 0.928557
Si Si5 0.923252 0.660757 0.071393
Si Si6 0.373140 0.661980 0.069664
Si Si7 0.634272 0.839072 0.072974
O O1 0.858724 0.512227 0.750000
O O2 0.781405 0.491281 0.984478
O O3 0.890696 0.417488 0.987274
O O4 0.880829 0.585053 0.007874
O O5 0.294505 0.998653 0.750000
O O6 0.322676 0.083963 0.994699
O O7 0.328286 0.914604 0.989469
O O8 0.092672 0.750000 0.500000
O O9 0.073413 0.671810 0.250000
O O10 0.995421 0.643608 0.477569
O O11 0.485917 0.585751 0.750000
O O12 0.561908 0.642562 0.966305
O O13 0.500000 0.500000 0.000000
O O14 0.443033 0.648829 0.006367
O O15 0.915871 0.666173 0.250000
O O16 0.899024 0.750000 0.000000
O O17 0.375465 0.667428 0.250000
O O18 0.345491 0.750000 0.000000
O O19 0.645322 0.831598 0.250000
O O20 0.656665 0.750000 0.000000
#
# Coordination Sequence:
#
# PCOD8232747 Si02
#       7
#     8   8   8   8   8   8   8
#     4  10  20  36  58  81 109 148 189 228 278 329
#     4   9  20  39  57  76 111 151 184 226 276 328
#     4   9  19  34  55  83 112 145 182 226 279 330
#     4  11  21  36  60  86 113 144 182 230 285 335
#     4  10  20  35  55  82 114 144 181 229 278 330
#     4  11  22  39  59  83 114 148 187 231 281 335
#     4  10  21  38  57  80 107 142 180 222 275 326
#
# _framework density 19.259647999999999
#
# number of rings (size 3 to 8) (size 9 to 14) (size 15 to 20)
#    0.000    2.000    1.429    2.143    0.000    4.571 
#    0.000    3.571    0.000    0.000    0.000    0.000 
#    0.000    0.000    0.000    0.000    0.000    0.000 
#
# Total GULP energy -694581.932813 kJ/mol
# GULP energy per Si atom -12403.248800 kJ/mol
# Density = 1.921581 g / cm^3
# Si number density = 19.259648 Si / 1000 Ang^3
#
#
#
# Elastic Constant Matrix: (Units=GPa)
#
#
# Indices 1 2 3 4 5 6 
#
# 1 119.1917 79.5112 33.9414 0.0000 0.0000 0.0000
# 2 79.5112 182.9259 39.5065 0.0000 0.0000 0.0000
# 3 33.9414 39.5065 47.1360 0.0000 0.0000 0.0000
# 4 0.0000 0.0000 0.0000 39.0915 0.0000 0.0000
# 5 0.0000 0.0000 0.0000 0.0000 21.1559 0.0000
# 6 0.0000 0.0000 0.0000 0.0000 0.0000 5.0715
#
#
#
# Elastic Compliance Matrix: (Units=1/GPa)
#
#
# Indices 1 2 3 4 5 6 
#
# 1 0.012929 -0.004407 -0.005616 0.000000 0.000000 0.000000
# 2 -0.004407 0.008177 -0.003680 0.000000 0.000000 0.000000
# 3 -0.005616 -0.003680 0.028344 0.000000 0.000000 0.000000
# 4 0.000000 0.000000 0.000000 0.025581 0.000000 0.000000
# 5 0.000000 0.000000 0.000000 0.000000 0.047268 0.000000
# 6 0.000000 0.000000 0.000000 0.000000 0.000000 0.197180
#
#
# Mechanical properties :
#
#
# Convention : Reuss Voigt Hill
#
# Bulk Modulus (GPa) = 45.36550 72.79688 59.08119
# Shear Modulus (GPa) = 14.11501 26.15008 20.13254
#
# Velocity S-wave (km/s) = 2.71011 3.68878 3.23665
# Velocity P-wave (km/s) = 5.77917 7.48482 6.68660
#
# Compressibility (1/GPa) = 0.02204318
#
# Stress axis : x y z
#
# Youngs Moduli (GPa) = 77.34650 122.29462 35.28100
#
# Poissons Ratio (x) = 0.53892 0.19815
# Poissons Ratio (y) = 0.34085 0.12984
# Poissons Ratio (z) = 0.43440 0.45007
#
# Static dielectric constant tensor:
#      x y z
#    x 3.694920 0.000000 0.000000 
#    y 0.000000 3.670470 0.000000 
#    z 0.000000 0.000000 3.354330 
# 
# 
# High freq. dielectric constant tensor:
#      x y z
#    x 1.746300 0.000000 0.000000 
#    y 0.000000 1.767240 0.000000 
#    z 0.000000 0.000000 1.734740 
# 
# From -- ./inp_files/8019.got.cif
#   From: 2010.03.12/outbox.cif.g09.slc.cpg/sg57_5_cif.got.tgz:8019.got - 2010.04.16 15:48:40.
