data_PCOD8232040
_publ_section_title
;
Structure prediction by ZEFSAII (Michael W. Deem and Ramdas Pophale) SiO2 
 PCOD8232040
Probable space group: P B C M
;
_chemical_formula_sum "Si O2"
_cell_formula_units_Z 48
_cell_length_a 15.289969
_cell_length_b 8.818644
_cell_length_c 16.357766
_cell_angle_alpha 90.000000
_cell_angle_beta 90.000000
_cell_angle_gamma 90.000000
_cell_volume 2205.628714
_symmetry_space_group_name_H-M "P B C M"
_symmetry_group_IT_number 57
_symmetry_cell_setting 'orthorhombic'
loop_
_space_group_symop_operation_xyz
x,y,z
-x,-y,1/2+z
x,1/2-y,-z
-x,1/2+y,1/2-z
-x,-y,-z
x,y,1/2-z
-x,1/2+y,z
x,1/2-y,1/2+z
loop_
_atom_site_type_symbol
_atom_site_label
_atom_site_fract_x
_atom_site_fract_y
_atom_site_fract_z
Si Si1 0.912929 0.120690 0.656384
Si Si2 0.238366 0.119083 0.844156
Si Si3 0.245800 0.789832 0.907891
Si Si4 0.581842 0.355368 0.347300
Si Si5 0.923097 0.791544 0.906909
Si Si6 0.405240 0.197898 0.346935
O O1 0.933438 0.078809 0.750000
O O2 0.817248 0.194977 0.651677
O O3 0.981495 0.241371 0.621906
O O4 0.917705 0.971578 0.601425
O O5 0.255428 0.075278 0.750000
O O6 0.149353 0.213408 0.850204
O O7 0.317922 0.220308 0.879420
O O8 0.231089 0.968019 0.896988
O O9 0.345250 0.749802 0.887656
O O10 0.220843 0.750000 0.000000
O O11 0.590033 0.345905 0.250000
O O12 0.488930 0.291550 0.377960
O O13 0.591778 0.526444 0.380638
O O14 0.904726 0.750000 0.000000
O O15 0.404487 0.191610 0.250000
#
# Coordination Sequence:
#
# PCOD8232040 Si02
#       6
#     8   8   8   8   8   8
#     4  12  24  42  66  92 121 163 211 253 297 364
#     4  11  22  40  63  90 122 164 210 253 300 366
#     4  12  25  41  60  89 124 162 204 258 317 366
#     4  10  19  37  61  88 119 158 204 254 307 370
#     4  12  25  43  65  95 130 162 197 252 313 364
#     4   9  19  35  62  92 120 155 204 256 304 360
#
# _framework density 21.762502999999999
#
# number of rings (size 3 to 8) (size 9 to 14) (size 15 to 20)
#    0.000    1.000    0.000    8.000    0.000    4.000 
#    0.000    4.167    0.000    0.000    0.000    0.000 
#    0.000    0.000    0.000    0.000    0.000    0.000 
#
# Total GULP energy -595627.359359 kJ/mol
# GULP energy per Si atom -12408.903320 kJ/mol
# Density = 2.171297 g / cm^3
# Si number density = 21.762503 Si / 1000 Ang^3
#
#
#
# Elastic Constant Matrix: (Units=GPa)
#
#
# Indices 1 2 3 4 5 6 
#
# 1 106.3533 23.7627 13.1430 0.0000 0.0000 0.0000
# 2 23.7627 94.4740 6.3202 0.0000 0.0000 0.0000
# 3 13.1430 6.3202 52.7107 0.0000 0.0000 0.0000
# 4 0.0000 0.0000 0.0000 31.6905 0.0000 0.0000
# 5 0.0000 0.0000 0.0000 0.0000 11.9101 0.0000
# 6 0.0000 0.0000 0.0000 0.0000 0.0000 40.4864
#
#
#
# Elastic Compliance Matrix: (Units=1/GPa)
#
#
# Indices 1 2 3 4 5 6 
#
# 1 0.010222 -0.002420 -0.002259 0.000000 0.000000 0.000000
# 2 -0.002420 0.011243 -0.000745 0.000000 0.000000 0.000000
# 3 -0.002259 -0.000745 0.019624 0.000000 0.000000 0.000000
# 4 0.000000 0.000000 0.000000 0.031555 0.000000 0.000000
# 5 0.000000 0.000000 0.000000 0.000000 0.083962 0.000000
# 6 0.000000 0.000000 0.000000 0.000000 0.000000 0.024700
#
#
# Mechanical properties :
#
#
# Convention : Reuss Voigt Hill
#
# Bulk Modulus (GPa) = 33.06567 37.77666 35.42117
# Shear Modulus (GPa) = 24.72373 30.83822 27.78097
#
# Velocity S-wave (km/s) = 3.37422 3.76844 3.57676
# Velocity P-wave (km/s) = 5.51429 6.02753 5.77661
#
# Compressibility (1/GPa) = 0.03024284
#
# Stress axis : x y z
#
# Youngs Moduli (GPa) = 97.82360 88.94049 50.95809
#
# Poissons Ratio (x) = 0.21525 0.11510
# Poissons Ratio (y) = 0.23674 0.03795
# Poissons Ratio (z) = 0.22096 0.06623
#
# Static dielectric constant tensor:
#      x y z
#    x 4.059210 0.000000 0.000000 
#    y 0.000000 4.014080 0.000000 
#    z 0.000000 0.000000 3.658890 
# 
# 
# High freq. dielectric constant tensor:
#      x y z
#    x 1.871090 0.000000 0.000000 
#    y 0.000000 1.869760 0.000000 
#    z 0.000000 0.000000 1.837480 
# 
# From -- ./inp_files/22442.got.cif
#   From: 2010.03.12/outbox.cif.g09.slc.cpg/sg57_12_cif.got.tgz:22442.got - 2010.04.16 15:48:40.
