data_PCOD8232858
_publ_section_title
;
Structure prediction by ZEFSAII (Michael W. Deem and Ramdas Pophale) SiO2 
 PCOD8232858
Probable space group: P B C M
;
_chemical_formula_sum "Si O2"
_cell_formula_units_Z 40
_cell_length_a 24.120448
_cell_length_b 8.569578
_cell_length_c 9.294476
_cell_angle_alpha 90.000000
_cell_angle_beta 90.000000
_cell_angle_gamma 90.000000
_cell_volume 1921.187341
_symmetry_space_group_name_H-M "P B C M"
_symmetry_group_IT_number 57
_symmetry_cell_setting 'orthorhombic'
loop_
_space_group_symop_operation_xyz
x,y,z
-x,-y,1/2+z
x,1/2-y,-z
-x,1/2+y,1/2-z
-x,-y,-z
x,y,1/2-z
-x,1/2+y,z
x,1/2-y,1/2+z
loop_
_atom_site_type_symbol
_atom_site_label
_atom_site_fract_x
_atom_site_fract_y
_atom_site_fract_z
Si Si1 0.768743 0.908885 0.913727
Si Si2 0.547419 0.910134 0.418000
Si Si3 0.879446 0.066338 0.977569
Si Si4 0.042223 0.067697 0.250000
Si Si5 0.668748 0.914399 0.417984
Si Si6 0.924793 0.928046 0.250000
O O1 0.750662 0.870361 0.750000
O O2 0.782728 0.750000 0.000000
O O3 0.718819 0.003055 0.998200
O O4 0.821848 0.020619 0.903519
O O5 0.552890 0.750000 0.500000
O O6 0.531741 0.886705 0.250000
O O7 0.607788 0.995031 0.432223
O O8 0.500000 0.000000 0.500000
O O9 0.883976 0.964754 0.120166
O O10 0.881201 0.250000 0.000000
O O11 0.932985 0.018096 0.887258
O O12 0.055604 0.250417 0.250000
O O13 0.976309 0.047234 0.250000
O O14 0.667652 0.750000 0.500000
O O15 0.683257 0.894252 0.250000
#
# Coordination Sequence:
#
# PCOD8232858 Si02
#       6
#     8   8   8   4   8   4
#     4  11  22  38  62  90 120 156 205 253 306 371
#     4  10  20  35  57  86 122 163 209 261 314 376
#     4  12  26  43  63  93 128 164 203 252 311 371
#     4  12  24  48  64 100 122 160 209 248 309 372
#     4   9  18  33  56  87 119 157 206 255 307 366
#     4  12  26  42  74  90 128 164 201 256 303 368
#
# _framework density 20.820457999999999
#
# number of rings (size 3 to 8) (size 9 to 14) (size 15 to 20)
#    0.000    1.200    1.000    7.200    2.800    2.400 
#    0.000    1.000    0.000    2.400    0.000    0.000 
#    0.000    0.000    0.000    0.000    0.000    0.000 
#
# Total GULP energy -495665.267226 kJ/mol
# GULP energy per Si atom -12391.631681 kJ/mol
# Density = 2.077307 g / cm^3
# Si number density = 20.820458 Si / 1000 Ang^3
#
#
#
# Elastic Constant Matrix: (Units=GPa)
#
#
# Indices 1 2 3 4 5 6 
#
# 1 124.7570 19.6855 44.0798 0.0000 0.0000 0.0000
# 2 19.6855 88.7830 22.6516 0.0000 0.0000 0.0000
# 3 44.0798 22.6516 166.6009 0.0000 0.0000 0.0000
# 4 0.0000 0.0000 0.0000 26.4928 0.0000 0.0000
# 5 0.0000 0.0000 0.0000 0.0000 39.4649 0.0000
# 6 0.0000 0.0000 0.0000 0.0000 0.0000 26.4766
#
#
#
# Elastic Compliance Matrix: (Units=1/GPa)
#
#
# Indices 1 2 3 4 5 6 
#
# 1 0.009017 -0.001441 -0.002190 0.000000 0.000000 0.000000
# 2 -0.001441 0.011898 -0.001237 0.000000 0.000000 0.000000
# 3 -0.002190 -0.001237 0.006750 0.000000 0.000000 0.000000
# 4 0.000000 0.000000 0.000000 0.037746 0.000000 0.000000
# 5 0.000000 0.000000 0.000000 0.000000 0.025339 0.000000
# 6 0.000000 0.000000 0.000000 0.000000 0.000000 0.037769
#
#
# Mechanical properties :
#
#
# Convention : Reuss Voigt Hill
#
# Bulk Modulus (GPa) = 55.76940 61.44165 58.60552
# Shear Modulus (GPa) = 34.66688 38.06845 36.36767
#
# Velocity S-wave (km/s) = 4.08492 4.28064 4.18392
# Velocity P-wave (km/s) = 7.00662 7.34888 7.17979
#
# Compressibility (1/GPa) = 0.01793098
#
# Stress axis : x y z
#
# Youngs Moduli (GPa) = 110.90670 84.04550 148.15077
#
# Poissons Ratio (x) = 0.12107 0.32442
# Poissons Ratio (y) = 0.15976 0.18320
# Poissons Ratio (z) = 0.24286 0.10393
#
# Static dielectric constant tensor:
#      x y z
#    x 4.953560 0.000000 0.000000 
#    y 0.000000 3.379900 0.000000 
#    z 0.000000 0.000000 4.071670 
# 
# 
# High freq. dielectric constant tensor:
#      x y z
#    x 1.840050 0.000000 0.000000 
#    y 0.000000 1.769740 0.000000 
#    z 0.000000 0.000000 1.840200 
# 
# From -- ./inp_files/9006.got.cif
#   From: 2010.03.12/outbox.cif.g09.slc.cpg/sg57_5_cif.got.tgz:9006.got - 2010.04.16 15:48:40.
