data_PCOD8232491
_publ_section_title
;
Structure prediction by ZEFSAII (Michael W. Deem and Ramdas Pophale) SiO2 
 PCOD8232491
Probable space group: P B C M
;
_chemical_formula_sum "Si O2"
_cell_formula_units_Z 40
_cell_length_a 25.884898
_cell_length_b 9.121810
_cell_length_c 8.757829
_cell_angle_alpha 90.000000
_cell_angle_beta 90.000000
_cell_angle_gamma 90.000000
_cell_volume 2067.873373
_symmetry_space_group_name_H-M "P B C M"
_symmetry_group_IT_number 57
_symmetry_cell_setting 'orthorhombic'
loop_
_space_group_symop_operation_xyz
x,y,z
-x,-y,1/2+z
x,1/2-y,-z
-x,1/2+y,1/2-z
-x,-y,-z
x,y,1/2-z
-x,1/2+y,z
x,1/2-y,1/2+z
loop_
_atom_site_type_symbol
_atom_site_label
_atom_site_fract_x
_atom_site_fract_y
_atom_site_fract_z
Si Si1 0.045784 0.908743 0.427306
Si Si2 0.544784 0.407613 0.073277
Si Si3 0.760013 0.412234 0.930748
Si Si4 0.657583 0.408304 0.072205
Si Si5 0.851972 0.592694 0.071636
O O1 0.049733 0.750000 0.500000
O O2 0.034025 0.890246 0.250000
O O3 0.098881 0.991728 0.458766
O O4 0.000000 0.000000 0.500000
O O5 0.532754 0.389157 0.250000
O O6 0.601367 0.484951 0.048553
O O7 0.544249 0.250000 0.000000
O O8 0.500000 0.500000 0.000000
O O9 0.761915 0.400265 0.750000
O O10 0.767311 0.250000 0.000000
O O11 0.705432 0.485535 0.985123
O O12 0.803945 0.520142 0.987593
O O13 0.671697 0.395776 0.250000
O O14 0.652188 0.250000 0.000000
O O15 0.839710 0.609139 0.250000
O O16 0.863639 0.750000 0.000000
#
# Coordination Sequence:
#
# PCOD8232491 Si02
#       5
#     8   8   8   8   8
#     4  11  24  41  64  91 121 155 193 236 282 332
#     4  10  20  34  54  79 109 144 183 228 278 332
#     4  11  21  35  58  85 112 145 185 232 280 331
#     4   9  17  31  52  78 107 141 182 228 277 332
#     4  11  24  41  60  85 117 153 190 232 281 335
#
# _framework density 19.343544000000001
#
# number of rings (size 3 to 8) (size 9 to 14) (size 15 to 20)
#    0.000    1.600    0.000    6.600    0.000    8.800 
#    0.000    1.000    0.000    4.800    0.000    0.000 
#    0.000    0.000    0.000    0.000    0.000    0.000 
#
# Total GULP energy -495873.888186 kJ/mol
# GULP energy per Si atom -12396.847205 kJ/mol
# Density = 1.929952 g / cm^3
# Si number density = 19.343544 Si / 1000 Ang^3
#
#
#
# Elastic Constant Matrix: (Units=GPa)
#
#
# Indices 1 2 3 4 5 6 
#
# 1 155.0397 60.3193 101.3414 0.0000 0.0000 0.0000
# 2 60.3193 103.9987 70.3847 0.0000 0.0000 0.0000
# 3 101.3414 70.3847 173.6344 0.0000 0.0000 0.0000
# 4 0.0000 0.0000 0.0000 33.7689 0.0000 0.0000
# 5 0.0000 0.0000 0.0000 0.0000 35.2107 0.0000
# 6 0.0000 0.0000 0.0000 0.0000 0.0000 45.9096
#
#
#
# Elastic Compliance Matrix: (Units=1/GPa)
#
#
# Indices 1 2 3 4 5 6 
#
# 1 0.010991 -0.002802 -0.005279 0.000000 0.000000 0.000000
# 2 -0.002802 0.013965 -0.004026 0.000000 0.000000 0.000000
# 3 -0.005279 -0.004026 0.010472 0.000000 0.000000 0.000000
# 4 0.000000 0.000000 0.000000 0.029613 0.000000 0.000000
# 5 0.000000 0.000000 0.000000 0.000000 0.028400 0.000000
# 6 0.000000 0.000000 0.000000 0.000000 0.000000 0.021782
#
#
# Mechanical properties :
#
#
# Convention : Reuss Voigt Hill
#
# Bulk Modulus (GPa) = 89.16614 99.64040 94.40327
# Shear Modulus (GPa) = 34.92255 36.35302 35.63779
#
# Velocity S-wave (km/s) = 4.25359 4.33983 4.29693
# Velocity P-wave (km/s) = 8.38571 8.75985 8.57482
#
# Compressibility (1/GPa) = 0.01121502
#
# Stress axis : x y z
#
# Youngs Moduli (GPa) = 90.98718 71.60742 95.49250
#
# Poissons Ratio (x) = 0.20064 0.50409
# Poissons Ratio (y) = 0.25494 0.38441
# Poissons Ratio (z) = 0.48031 0.28826
#
# Static dielectric constant tensor:
#      x y z
#    x 4.407570 0.000000 0.000000 
#    y 0.000000 3.290040 0.000000 
#    z 0.000000 0.000000 3.798070 
# 
# 
# High freq. dielectric constant tensor:
#      x y z
#    x 1.781330 0.000000 0.000000 
#    y 0.000000 1.723820 0.000000 
#    z 0.000000 0.000000 1.775980 
# 
# From -- ./inp_files/8921.got.cif
#   From: 2010.03.12/outbox.cif.g09.slc.cpg/sg57_5_cif.got.tgz:8921.got - 2010.04.16 15:48:40.
