data_PCOD8232953
_publ_section_title
;
Structure prediction by ZEFSAII (Michael W. Deem and Ramdas Pophale) SiO2 
 PCOD8232953
Probable space group: P B C M
;
_chemical_formula_sum "Si O2"
_cell_formula_units_Z 40
_cell_length_a 25.882799
_cell_length_b 9.825030
_cell_length_c 8.575263
_cell_angle_alpha 90.000000
_cell_angle_beta 90.000000
_cell_angle_gamma 90.000000
_cell_volume 2180.683178
_symmetry_space_group_name_H-M "P B C M"
_symmetry_group_IT_number 57
_symmetry_cell_setting 'orthorhombic'
loop_
_space_group_symop_operation_xyz
x,y,z
-x,-y,1/2+z
x,1/2-y,-z
-x,1/2+y,1/2-z
-x,-y,-z
x,y,1/2-z
-x,1/2+y,z
x,1/2-y,1/2+z
loop_
_atom_site_type_symbol
_atom_site_label
_atom_site_fract_x
_atom_site_fract_y
_atom_site_fract_z
Si Si1 0.352545 0.600768 0.932849
Si Si2 0.957794 0.898556 0.435276
Si Si3 0.543278 0.402221 0.566519
Si Si4 0.152175 0.397480 0.564150
Si Si5 0.760589 0.399101 0.432514
O O1 0.364381 0.603749 0.750000
O O2 0.296259 0.535634 0.970269
O O3 0.348719 0.750000 0.000000
O O4 0.401276 0.530317 0.018387
O O5 0.970709 0.750000 0.500000
O O6 0.958527 0.895784 0.250000
O O7 0.902078 0.948537 0.495065
O O8 0.000000 0.000000 0.500000
O O9 0.537316 0.250000 0.500000
O O10 0.500000 0.500000 0.500000
O O11 0.538162 0.395216 0.750000
O O12 0.166760 0.250000 0.500000
O O13 0.148624 0.392466 0.750000
O O14 0.196130 0.499553 0.501411
O O15 0.768970 0.250000 0.500000
O O16 0.767011 0.382899 0.250000
#
# Coordination Sequence:
#
# PCOD8232953 Si02
#       5
#     8   8   8   8   8
#     4   9  16  30  50  74 102 135 171 213 259 308
#     4  11  22  38  58  81 107 140 177 218 263 313
#     4  11  21  35  54  78 105 138 175 217 264 315
#     4  10  20  36  54  77 107 141 175 212 258 312
#     4   9  19  33  53  78 105 134 172 216 258 304
#
# _framework density 18.342876
#
# number of rings (size 3 to 8) (size 9 to 14) (size 15 to 20)
#    0.000    2.000    0.000    7.200    0.000    3.200 
#    0.000    3.000    0.000    2.400    0.000    0.000 
#    0.000    0.000    0.000    0.000    0.000    0.000 
#
# Total GULP energy -495790.416308 kJ/mol
# GULP energy per Si atom -12394.760408 kJ/mol
# Density = 1.830113 g / cm^3
# Si number density = 18.342876 Si / 1000 Ang^3
#
#
#
# Elastic Constant Matrix: (Units=GPa)
#
#
# Indices 1 2 3 4 5 6 
#
# 1 196.3225 96.0096 69.1796 0.0000 0.0000 0.0000
# 2 96.0096 82.7649 43.5199 0.0000 0.0000 0.0000
# 3 69.1796 43.5199 130.6953 0.0000 0.0000 0.0000
# 4 0.0000 0.0000 0.0000 28.7115 0.0000 0.0000
# 5 0.0000 0.0000 0.0000 0.0000 32.9646 0.0000
# 6 0.0000 0.0000 0.0000 0.0000 0.0000 36.3000
#
#
#
# Elastic Compliance Matrix: (Units=1/GPa)
#
#
# Indices 1 2 3 4 5 6 
#
# 1 0.012239 -0.013081 -0.002122 0.000000 0.000000 0.000000
# 2 -0.013081 0.028629 -0.002609 0.000000 0.000000 0.000000
# 3 -0.002122 -0.002609 0.009643 0.000000 0.000000 0.000000
# 4 0.000000 0.000000 0.000000 0.034829 0.000000 0.000000
# 5 0.000000 0.000000 0.000000 0.000000 0.030336 0.000000
# 6 0.000000 0.000000 0.000000 0.000000 0.000000 0.027548
#
#
# Mechanical properties :
#
#
# Convention : Reuss Voigt Hill
#
# Bulk Modulus (GPa) = 67.17640 91.91120 79.54380
# Shear Modulus (GPa) = 27.20174 33.00014 30.10094
#
# Velocity S-wave (km/s) = 3.85510 4.24615 4.05534
# Velocity P-wave (km/s) = 7.51783 8.61718 8.08621
#
# Compressibility (1/GPa) = 0.01488618
#
# Stress axis : x y z
#
# Youngs Moduli (GPa) = 81.70679 34.92952 103.69701
#
# Poissons Ratio (x) = 0.45693 0.22008
# Poissons Ratio (y) = 1.06885 0.27053
# Poissons Ratio (z) = 0.17341 0.09113
#
# Static dielectric constant tensor:
#      x y z
#    x 4.386440 0.000000 0.000000 
#    y 0.000000 3.155370 0.000000 
#    z 0.000000 0.000000 3.517940 
# 
# 
# High freq. dielectric constant tensor:
#      x y z
#    x 1.734630 0.000000 0.000000 
#    y 0.000000 1.680240 0.000000 
#    z 0.000000 0.000000 1.728140 
# 
# From -- ./inp_files/9829.got.cif
#   From: 2010.03.12/outbox.cif.g09.slc.cpg/sg57_5_cif.got.tgz:9829.got - 2010.04.16 15:48:40.
