data_PCOD8232280
_publ_section_title
;
Structure prediction by ZEFSAII (Michael W. Deem and Ramdas Pophale) SiO2 
 PCOD8232280
Probable space group: P B C M
;
_chemical_formula_sum "Si O2"
_cell_formula_units_Z 64
_cell_length_a 25.073330
_cell_length_b 14.829301
_cell_length_c 8.958872
_cell_angle_alpha 90.000000
_cell_angle_beta 90.000000
_cell_angle_gamma 90.000000
_cell_volume 3331.087408
_symmetry_space_group_name_H-M "P B C M"
_symmetry_group_IT_number 57
_symmetry_cell_setting 'orthorhombic'
loop_
_space_group_symop_operation_xyz
x,y,z
-x,-y,1/2+z
x,1/2-y,-z
-x,1/2+y,1/2-z
-x,-y,-z
x,y,1/2-z
-x,1/2+y,z
x,1/2-y,1/2+z
loop_
_atom_site_type_symbol
_atom_site_label
_atom_site_fract_x
_atom_site_fract_y
_atom_site_fract_z
Si Si1 0.651038 0.091342 0.917127
Si Si2 0.188929 0.002817 0.073502
Si Si3 0.708212 0.599821 0.087391
Si Si4 0.012166 0.649916 0.573686
Si Si5 0.921639 0.504492 0.925355
Si Si6 0.248975 0.839848 0.572388
Si Si7 0.555590 0.015124 0.079645
Si Si8 0.383130 0.329956 0.086066
O O1 0.645021 0.132183 0.750000
O O2 0.677874 0.994746 0.906809
O O3 0.689736 0.152006 0.017960
O O4 0.592374 0.087565 0.993305
O O5 0.185215 0.981855 0.250000
O O6 0.230159 0.084713 0.042288
O O7 0.132856 0.032365 0.005712
O O8 0.210035 0.916659 0.985725
O O9 0.705053 0.645488 0.250000
O O10 0.677864 0.662072 0.970392
O O11 0.008089 0.750000 0.500000
O O12 0.023600 0.661392 0.750000
O O13 0.958878 0.591388 0.545548
O O14 0.058519 0.589658 0.498344
O O15 0.913860 0.487084 0.750000
O O16 0.224807 0.750000 0.500000
O O17 0.247801 0.836777 0.750000
O O18 0.547019 0.047096 0.250000
O O19 0.584714 0.920496 0.072260
O O20 0.500000 0.000000 0.000000
O O21 0.378654 0.293494 0.250000
O O22 0.413742 0.250000 0.000000
#
# Coordination Sequence:
#
# PCOD8232280 Si02
#       8
#     8   8   8   8   8   8   8   8
#     4   9  17  32  52  73  98 131 169 208 253 310
#     4  10  20  35  55  80 109 141 177 219 267 318
#     4   8  16  31  51  73  99 131 164 200 247 301
#     4  10  21  38  60  84 112 148 191 236 282 335
#     4  10  21  37  58  85 115 149 188 232 282 333
#     4  11  21  34  52  76 107 141 178 220 266 320
#     4  10  20  34  53  77 101 132 172 215 262 314
#     4  10  20  33  52  76 102 131 167 209 255 305
#
# _framework density 19.212944
#
# number of rings (size 3 to 8) (size 9 to 14) (size 15 to 20)
#    0.000    2.250    0.000    4.125    0.000    7.000 
#    0.000    3.750    0.000    3.000    0.000    0.000 
#    0.000    0.000    0.000    0.000    0.000    0.000 
#
# Total GULP energy -793194.139396 kJ/mol
# GULP energy per Si atom -12393.658428 kJ/mol
# Density = 1.916921 g / cm^3
# Si number density = 19.212944 Si / 1000 Ang^3
#
#
#
# Elastic Constant Matrix: (Units=GPa)
#
#
# Indices 1 2 3 4 5 6 
#
# 1 107.9008 3.8491 49.1518 0.0000 0.0000 0.0000
# 2 3.8491 58.2942 33.4132 0.0000 0.0000 0.0000
# 3 49.1518 33.4132 159.4172 0.0000 0.0000 0.0000
# 4 0.0000 0.0000 0.0000 31.5419 0.0000 0.0000
# 5 0.0000 0.0000 0.0000 0.0000 32.5290 0.0000
# 6 0.0000 0.0000 0.0000 0.0000 0.0000 4.2207
#
#
#
# Elastic Compliance Matrix: (Units=1/GPa)
#
#
# Indices 1 2 3 4 5 6 
#
# 1 0.010877 0.001368 -0.003641 0.000000 0.000000 0.000000
# 2 0.001368 0.019669 -0.004544 0.000000 0.000000 0.000000
# 3 -0.003641 -0.004544 0.008348 0.000000 0.000000 0.000000
# 4 0.000000 0.000000 0.000000 0.031704 0.000000 0.000000
# 5 0.000000 0.000000 0.000000 0.000000 0.030742 0.000000
# 6 0.000000 0.000000 0.000000 0.000000 0.000000 0.236926
#
#
# Mechanical properties :
#
#
# Convention : Reuss Voigt Hill
#
# Bulk Modulus (GPa) = 39.58682 55.38226 47.48454
# Shear Modulus (GPa) = 13.87659 29.60488 21.74074
#
# Velocity S-wave (km/s) = 2.69039 3.92967 3.36753
# Velocity P-wave (km/s) = 5.50454 7.03404 6.31576
#
# Compressibility (1/GPa) = 0.02526093
#
# Stress axis : x y z
#
# Youngs Moduli (GPa) = 91.93443 50.84194 119.79211
#
# Poissons Ratio (x) = -0.06958 0.43611
# Poissons Ratio (y) = -0.12581 0.54439
# Poissons Ratio (z) = 0.33469 0.23105
#
# Static dielectric constant tensor:
#      x y z
#    x 3.096600 0.000000 0.000000 
#    y 0.000000 3.412920 0.000000 
#    z 0.000000 0.000000 3.818230 
# 
# 
# High freq. dielectric constant tensor:
#      x y z
#    x 1.740390 0.000000 0.000000 
#    y 0.000000 1.730820 0.000000 
#    z 0.000000 0.000000 1.767010 
# 
# From -- ./inp_files/9275.got.cif
#   From: 2010.03.12/outbox.cif.g09.slc.cpg/sg57_5_cif.got.tgz:9275.got - 2010.04.16 15:48:40.
