data_PCOD8232805
_publ_section_title
;
Structure prediction by ZEFSAII (Michael W. Deem and Ramdas Pophale) SiO2 
 PCOD8232805
Probable space group: P B C M
;
_chemical_formula_sum "Si O2"
_cell_formula_units_Z 60
_cell_length_a 29.837198
_cell_length_b 5.260736
_cell_length_c 18.301813
_cell_angle_alpha 90.000000
_cell_angle_beta 90.000000
_cell_angle_gamma 90.000000
_cell_volume 2872.755455
_symmetry_space_group_name_H-M "P B C M"
_symmetry_group_IT_number 57
_symmetry_cell_setting 'orthorhombic'
loop_
_space_group_symop_operation_xyz
x,y,z
-x,-y,1/2+z
x,1/2-y,-z
-x,1/2+y,1/2-z
-x,-y,-z
x,y,1/2-z
-x,1/2+y,z
x,1/2-y,1/2+z
loop_
_atom_site_type_symbol
_atom_site_label
_atom_site_fract_x
_atom_site_fract_y
_atom_site_fract_z
Si Si1 0.373504 0.825889 0.624592
Si Si2 0.327773 0.300082 0.829808
Si Si3 0.108764 0.533534 0.334541
Si Si4 0.683190 0.250000 0.000000
Si Si5 0.250933 0.112873 0.073458
Si Si6 0.019144 0.997938 0.583918
Si Si7 0.527502 0.174985 0.335432
Si Si8 0.834282 0.968133 0.666974
O O1 0.355885 0.542024 0.641408
O O2 0.350827 0.921411 0.548256
O O3 0.426913 0.813465 0.618565
O O4 0.359488 0.052190 0.679249
O O5 0.310389 0.376126 0.750000
O O6 0.282851 0.215913 0.874950
O O7 0.090377 0.525898 0.250000
O O8 0.071944 0.507812 0.399306
O O9 0.142500 0.301973 0.347314
O O10 0.132334 0.801136 0.350406
O O11 0.715810 0.113549 0.944127
O O12 0.207837 0.004248 0.114222
O O13 0.234568 0.250000 0.000000
O O14 0.999039 0.750180 0.623512
O O15 0.000000 0.000000 0.500000
O O16 0.539855 0.182505 0.250000
O O17 0.498080 0.418363 0.357062
O O18 0.817386 0.987417 0.750000
#
# Coordination Sequence:
#
# PCOD8232805 Si02
#       8
#     8   8   8   4   8   8   8   8
#     4  11  22  39  61  85 124 157 200 249 309 364
#     4  11  22  37  63  90 118 158 207 254 301 358
#     4  10  22  42  64  91 123 164 205 254 309 364
#     4  10  24  42  60  88 126 164 204 252 300 378
#     4  11  23  42  60  92 124 164 203 250 308 363
#     4  10  21  39  60  90 127 158 203 255 302 358
#     4  10  20  35  56  84 115 148 194 250 304 361
#     4  10  23  42  65  91 126 163 209 255 303 363
#
# _framework density 20.885871000000002
#
# number of rings (size 3 to 8) (size 9 to 14) (size 15 to 20)
#    0.000    1.600    1.333    3.200    1.867    1.600 
#    7.200    3.333    0.000    0.000    0.000    0.000 
#    0.000    0.000    0.000    0.000    0.000    0.000 
#
# Total GULP energy -743343.536713 kJ/mol
# GULP energy per Si atom -12389.058945 kJ/mol
# Density = 2.083833 g / cm^3
# Si number density = 20.885871 Si / 1000 Ang^3
#
#
#
# Elastic Constant Matrix: (Units=GPa)
#
#
# Indices 1 2 3 4 5 6 
#
# 1 142.7940 37.8800 74.8023 0.0000 0.0000 0.0000
# 2 37.8800 127.8768 16.2143 0.0000 0.0000 0.0000
# 3 74.8023 16.2143 88.8422 0.0000 0.0000 0.0000
# 4 0.0000 0.0000 0.0000 9.8147 0.0000 0.0000
# 5 0.0000 0.0000 0.0000 0.0000 44.4038 0.0000
# 6 0.0000 0.0000 0.0000 0.0000 0.0000 32.2370
#
#
#
# Elastic Compliance Matrix: (Units=1/GPa)
#
#
# Indices 1 2 3 4 5 6 
#
# 1 0.013313 -0.002582 -0.010738 0.000000 0.000000 0.000000
# 2 -0.002582 0.008506 0.000622 0.000000 0.000000 0.000000
# 3 -0.010738 0.000622 0.020183 0.000000 0.000000 0.000000
# 4 0.000000 0.000000 0.000000 0.101888 0.000000 0.000000
# 5 0.000000 0.000000 0.000000 0.000000 0.022521 0.000000
# 6 0.000000 0.000000 0.000000 0.000000 0.000000 0.031020
#
#
# Mechanical properties :
#
#
# Convention : Reuss Voigt Hill
#
# Bulk Modulus (GPa) = 60.21991 68.58958 64.40475
# Shear Modulus (GPa) = 21.89489 32.66552 27.28021
#
# Velocity S-wave (km/s) = 3.24128 3.95904 3.61800
# Velocity P-wave (km/s) = 6.55006 7.33554 6.95390
#
# Compressibility (1/GPa) = 0.01660580
#
# Stress axis : x y z
#
# Youngs Moduli (GPa) = 75.11380 117.56287 49.54548
#
# Poissons Ratio (x) = 0.30356 0.53202
# Poissons Ratio (y) = 0.19395 -0.03080
# Poissons Ratio (z) = 0.80657 -0.07308
#
# Static dielectric constant tensor:
#      x y z
#    x 3.648150 0.000000 0.000000 
#    y 0.000000 4.139060 0.000000 
#    z 0.000000 0.000000 4.179680 
# 
# 
# High freq. dielectric constant tensor:
#      x y z
#    x 1.815620 0.000000 0.000000 
#    y 0.000000 1.832670 0.000000 
#    z 0.000000 0.000000 1.806670 
# 
# From -- ./inp_files/23158.got.cif
#   From: 2010.03.12/outbox.cif.g09.slc.cpg/sg57_12_cif.got.tgz:23158.got - 2010.04.16 15:48:40.
