data_PCOD8232188
_publ_section_title
;
Structure prediction by ZEFSAII (Michael W. Deem and Ramdas Pophale) SiO2 
 PCOD8232188
Probable space group: P B C M
;
_chemical_formula_sum "Si O2"
_cell_formula_units_Z 56
_cell_length_a 19.003129
_cell_length_b 18.645899
_cell_length_c 9.243197
_cell_angle_alpha 90.000000
_cell_angle_beta 90.000000
_cell_angle_gamma 90.000000
_cell_volume 3275.145912
_symmetry_space_group_name_H-M "P B C M"
_symmetry_group_IT_number 57
_symmetry_cell_setting 'orthorhombic'
loop_
_space_group_symop_operation_xyz
x,y,z
-x,-y,1/2+z
x,1/2-y,-z
-x,1/2+y,1/2-z
-x,-y,-z
x,y,1/2-z
-x,1/2+y,z
x,1/2-y,1/2+z
loop_
_atom_site_type_symbol
_atom_site_label
_atom_site_fract_x
_atom_site_fract_y
_atom_site_fract_z
Si Si1 0.378189 0.683634 0.080202
Si Si2 0.963591 0.674995 0.579309
Si Si3 0.861643 0.947459 0.415190
Si Si4 0.748624 0.134902 0.916460
Si Si5 0.283972 0.498736 0.086053
Si Si6 0.898461 0.409001 0.082493
Si Si7 0.434387 0.528211 0.086018
O O1 0.378225 0.696892 0.250000
O O2 0.414928 0.608999 0.036393
O O3 0.417678 0.750000 0.000000
O O4 0.297681 0.684887 0.021047
O O5 0.956014 0.750000 0.500000
O O6 0.964833 0.689413 0.750000
O O7 0.897583 0.625673 0.530251
O O8 0.033806 0.634134 0.527149
O O9 0.883818 0.960593 0.250000
O O10 0.776054 0.937456 0.428672
O O11 0.890723 0.016470 0.498444
O O12 0.727094 0.148429 0.750000
O O13 0.832192 0.144856 0.941946
O O14 0.733160 0.053228 0.958772
O O15 0.279354 0.533082 0.250000
O O16 0.365929 0.475763 0.064326
O O17 0.905461 0.429866 0.250000
O O18 0.459271 0.529186 0.250000
O O19 0.500000 0.500000 0.000000
#
# Coordination Sequence:
#
# PCOD8232188 Si02
#       7
#     8   8   8   8   8   8   8
#     4  10  20  33  48  69  97 129 162 194 229 277
#     4  10  21  34  46  65  93 125 160 200 244 287
#     4   9  17  31  52  71  89 119 160 200 239 282
#     4   9  16  27  44  67  94 122 150 185 226 273
#     4   8  15  29  47  69  93 117 148 187 228 273
#     4   9  18  31  47  70  97 122 156 197 237 282
#     4   9  18  31  49  73  99 124 153 189 231 278
#
# _framework density 17.098475000000001
#
# number of rings (size 3 to 8) (size 9 to 14) (size 15 to 20)
#    0.000    2.857    0.000    2.143    0.000    5.143 
#    0.000    1.429    0.000    0.857    0.000    4.000 
#    0.000    0.000    0.000    0.000    0.000    0.000 
#
# Total GULP energy -693744.553053 kJ/mol
# GULP energy per Si atom -12388.295590 kJ/mol
# Density = 1.705956 g / cm^3
# Si number density = 17.098475 Si / 1000 Ang^3
#
#
#
# Elastic Constant Matrix: (Units=GPa)
#
#
# Indices 1 2 3 4 5 6 
#
# 1 137.8767 67.0747 44.9669 0.0000 0.0000 0.0000
# 2 67.0747 99.4066 44.3163 0.0000 0.0000 0.0000
# 3 44.9669 44.3163 60.8615 0.0000 0.0000 0.0000
# 4 0.0000 0.0000 0.0000 28.8922 0.0000 0.0000
# 5 0.0000 0.0000 0.0000 0.0000 25.3109 0.0000
# 6 0.0000 0.0000 0.0000 0.0000 0.0000 17.0288
#
#
#
# Elastic Compliance Matrix: (Units=1/GPa)
#
#
# Indices 1 2 3 4 5 6 
#
# 1 0.011481 -0.005871 -0.004208 0.000000 0.000000 0.000000
# 2 -0.005871 0.017897 -0.008694 0.000000 0.000000 0.000000
# 3 -0.004208 -0.008694 0.025870 0.000000 0.000000 0.000000
# 4 0.000000 0.000000 0.000000 0.034611 0.000000 0.000000
# 5 0.000000 0.000000 0.000000 0.000000 0.039509 0.000000
# 6 0.000000 0.000000 0.000000 0.000000 0.000000 0.058724
#
#
# Mechanical properties :
#
#
# Convention : Reuss Voigt Hill
#
# Bulk Modulus (GPa) = 56.48823 67.87338 62.18080
# Shear Modulus (GPa) = 21.59458 23.69884 22.64671
#
# Velocity S-wave (km/s) = 3.55766 3.72697 3.64330
# Velocity P-wave (km/s) = 7.06998 7.63558 7.35822
#
# Compressibility (1/GPa) = 0.01770280
#
# Stress axis : x y z
#
# Youngs Moduli (GPa) = 87.09709 55.87491 38.65472
#
# Poissons Ratio (x) = 0.32806 0.16265
# Poissons Ratio (y) = 0.51137 0.33606
# Poissons Ratio (z) = 0.36649 0.48577
#
# Static dielectric constant tensor:
#      x y z
#    x 3.401690 0.000000 0.000000 
#    y 0.000000 3.007040 0.000000 
#    z 0.000000 0.000000 3.227870 
# 
# 
# High freq. dielectric constant tensor:
#      x y z
#    x 1.658650 0.000000 0.000000 
#    y 0.000000 1.626010 0.000000 
#    z 0.000000 0.000000 1.663890 
# 
# From -- ./inp_files/8338.got.cif
#   From: 2010.03.12/outbox.cif.g09.slc.cpg/sg57_5_cif.got.tgz:8338.got - 2010.04.16 15:48:40.
