data_PCOD8232009
_publ_section_title
;
Structure prediction by ZEFSAII (Michael W. Deem and Ramdas Pophale) SiO2 
 PCOD8232009
Probable space group: P B C M
;
_chemical_formula_sum "Si O2"
_cell_formula_units_Z 64
_cell_length_a 9.510471
_cell_length_b 23.694038
_cell_length_c 13.772902
_cell_angle_alpha 90.000000
_cell_angle_beta 90.000000
_cell_angle_gamma 90.000000
_cell_volume 3103.605863
_symmetry_space_group_name_H-M "P B C M"
_symmetry_group_IT_number 57
_symmetry_cell_setting 'orthorhombic'
loop_
_space_group_symop_operation_xyz
x,y,z
-x,-y,1/2+z
x,1/2-y,-z
-x,1/2+y,1/2-z
-x,-y,-z
x,y,1/2-z
-x,1/2+y,z
x,1/2-y,1/2+z
loop_
_atom_site_type_symbol
_atom_site_label
_atom_site_fract_x
_atom_site_fract_y
_atom_site_fract_z
Si Si1 0.050354 0.221300 0.863980
Si Si2 0.260671 0.385074 0.860775
Si Si3 0.508651 0.974661 0.604825
Si Si4 0.358483 0.307902 0.136507
Si Si5 0.006018 0.840542 0.547394
Si Si6 0.492337 0.699962 0.137691
Si Si7 0.549808 0.094321 0.645058
Si Si8 0.302129 0.885184 0.548186
O O1 0.026605 0.206564 0.750000
O O2 0.207177 0.208783 0.905663
O O3 0.007186 0.286124 0.881982
O O4 0.965233 0.179323 0.935670
O O5 0.205495 0.382912 0.750000
O O6 0.343662 0.443341 0.877854
O O7 0.362730 0.332869 0.881869
O O8 0.129680 0.380185 0.934663
O O9 0.378019 0.931277 0.619370
O O10 0.500000 0.000000 0.500000
O O11 0.501471 0.030367 0.670668
O O12 0.335870 0.302231 0.250000
O O13 0.479046 0.263923 0.103510
O O14 0.413927 0.370090 0.106094
O O15 0.138203 0.880574 0.573278
O O16 0.446804 0.695516 0.250000
O O17 0.368874 0.675848 0.070775
O O18 0.599757 0.119709 0.750000
O O19 0.672503 0.098096 0.564841
#
# Coordination Sequence:
#
# PCOD8232009 Si02
#       8
#     8   8   8   8   8   8   8   8
#     4  10  22  38  56  85 129 167 202 242 297 377
#     4  10  19  36  62  87 117 158 205 250 302 364
#     4   9  20  39  63  87 115 153 203 260 307 354
#     4   9  18  33  58  89 112 151 202 244 295 359
#     4  11  23  36  60  91 122 167 202 243 306 367
#     4   9  18  34  58  88 118 149 192 250 304 349
#     4  10  21  38  62  86 119 159 202 251 304 363
#     4  10  23  38  56  93 123 153 199 252 308 357
#
# _framework density 20.621175999999998
#
# number of rings (size 3 to 8) (size 9 to 14) (size 15 to 20)
#    0.000    2.250    1.250    0.750    5.250    4.500 
#    0.000    3.750    0.000    0.000    0.000    0.000 
#    0.000    0.000    0.000    0.000    0.000    0.000 
#
# Total GULP energy -792990.566529 kJ/mol
# GULP energy per Si atom -12390.477602 kJ/mol
# Density = 2.057424 g / cm^3
# Si number density = 20.621176 Si / 1000 Ang^3
#
#
#
# Elastic Constant Matrix: (Units=GPa)
#
#
# Indices 1 2 3 4 5 6 
#
# 1 106.9680 58.1411 31.4348 0.0000 0.0000 0.0000
# 2 58.1411 119.6186 5.9995 0.0000 0.0000 0.0000
# 3 31.4348 5.9995 74.8819 0.0000 0.0000 0.0000
# 4 0.0000 0.0000 0.0000 22.4144 0.0000 0.0000
# 5 0.0000 0.0000 0.0000 0.0000 19.4576 0.0000
# 6 0.0000 0.0000 0.0000 0.0000 0.0000 22.3867
#
#
#
# Elastic Compliance Matrix: (Units=1/GPa)
#
#
# Indices 1 2 3 4 5 6 
#
# 1 0.014749 -0.006886 -0.005640 0.000000 0.000000 0.000000
# 2 -0.006886 0.011608 0.001961 0.000000 0.000000 0.000000
# 3 -0.005640 0.001961 0.015565 0.000000 0.000000 0.000000
# 4 0.000000 0.000000 0.000000 0.044614 0.000000 0.000000
# 5 0.000000 0.000000 0.000000 0.000000 0.051394 0.000000
# 6 0.000000 0.000000 0.000000 0.000000 0.000000 0.044669
#
#
# Mechanical properties :
#
#
# Convention : Reuss Voigt Hill
#
# Bulk Modulus (GPa) = 48.09539 54.73545 51.41542
# Shear Modulus (GPa) = 23.73499 26.57795 25.15647
#
# Velocity S-wave (km/s) = 3.39632 3.59397 3.49654
# Velocity P-wave (km/s) = 6.22526 6.61991 6.42562
#
# Compressibility (1/GPa) = 0.02079201
#
# Stress axis : x y z
#
# Youngs Moduli (GPa) = 67.80317 86.14437 64.24771
#
# Poissons Ratio (x) = 0.59317 0.36233
# Poissons Ratio (y) = 0.46688 -0.12596
# Poissons Ratio (z) = 0.38239 -0.16889
#
# Static dielectric constant tensor:
#      x y z
#    x 3.461270 0.000000 0.000000 
#    y 0.000000 3.671960 0.000000 
#    z 0.000000 0.000000 3.885970 
# 
# 
# High freq. dielectric constant tensor:
#      x y z
#    x 1.770960 0.000000 0.000000 
#    y 0.000000 1.800620 0.000000 
#    z 0.000000 0.000000 1.821320 
# 
# From -- ./inp_files/16977.got.cif
#   From: 2010.03.12/outbox.cif.g09.slc.cpg/sg57_9_cif.got.tgz:16977.got - 2010.04.16 15:48:40.
