data_PCOD8232737
_publ_section_title
;
Structure prediction by ZEFSAII (Michael W. Deem and Ramdas Pophale) SiO2 
 PCOD8232737
Probable space group: P B C M
;
_chemical_formula_sum "Si O2"
_cell_formula_units_Z 64
_cell_length_a 25.951163
_cell_length_b 14.803540
_cell_length_c 8.943679
_cell_angle_alpha 90.000000
_cell_angle_beta 90.000000
_cell_angle_gamma 90.000000
_cell_volume 3435.884929
_symmetry_space_group_name_H-M "P B C M"
_symmetry_group_IT_number 57
_symmetry_cell_setting 'orthorhombic'
loop_
_space_group_symop_operation_xyz
x,y,z
-x,-y,1/2+z
x,1/2-y,-z
-x,1/2+y,1/2-z
-x,-y,-z
x,y,1/2-z
-x,1/2+y,z
x,1/2-y,1/2+z
loop_
_atom_site_type_symbol
_atom_site_label
_atom_site_fract_x
_atom_site_fract_y
_atom_site_fract_z
Si Si1 0.240398 0.345114 0.077512
Si Si2 0.497225 0.650638 0.426547
Si Si3 0.241566 0.658845 0.574112
Si Si4 0.875077 0.158830 0.925610
Si Si5 0.426520 0.508661 0.575367
Si Si6 0.944573 0.993123 0.572396
Si Si7 0.124877 0.153686 0.575622
Si Si8 0.691878 0.508493 0.425639
O O1 0.252659 0.331422 0.250000
O O2 0.182801 0.385322 0.053515
O O3 0.245305 0.250000 0.000000
O O4 0.283684 0.407612 0.008501
O O5 0.503105 0.750000 0.500000
O O6 0.491663 0.665036 0.250000
O O7 0.447728 0.595933 0.486976
O O8 0.545916 0.586267 0.466964
O O9 0.262111 0.750000 0.500000
O O10 0.244661 0.670900 0.750000
O O11 0.183217 0.637265 0.521846
O O12 0.278853 0.580349 0.517133
O O13 0.877589 0.171884 0.750000
O O14 0.911894 0.079295 0.980167
O O15 0.895832 0.250000 0.000000
O O16 0.433579 0.529420 0.750000
O O17 0.367448 0.498302 0.528789
O O18 0.949122 0.986322 0.750000
O O19 0.916185 0.906193 0.509888
O O20 0.000000 0.000000 0.500000
O O21 0.121128 0.250000 0.500000
O O22 0.110523 0.160351 0.750000
O O23 0.699393 0.522368 0.250000
#
# Coordination Sequence:
#
# PCOD8232737 Si02
#       8
#     8   8   8   8   8   8   8   8
#     4  10  21  36  56  82 111 144 183 223 267 324
#     4  10  20  36  58  79 104 141 184 230 276 324
#     4   9  18  33  53  77 105 138 174 212 256 310
#     4   9  19  35  55  77 102 136 175 213 257 310
#     4   9  20  37  55  80 110 142 183 226 271 323
#     4  11  23  38  56  80 109 140 178 225 277 332
#     4  10  21  38  59  82 108 142 183 226 272 324
#     4  10  20  35  55  80 114 147 176 219 271 321
#
# _framework density 18.626935
#
# number of rings (size 3 to 8) (size 9 to 14) (size 15 to 20)
#    0.000    2.250    0.000    2.250    0.000    6.500 
#    0.000    6.250    0.000    0.000    0.000    0.000 
#    0.000    0.000    0.000    0.000    0.000    0.000 
#
# Total GULP energy -793651.595481 kJ/mol
# GULP energy per Si atom -12400.806179 kJ/mol
# Density = 1.858454 g / cm^3
# Si number density = 18.626935 Si / 1000 Ang^3
#
#
#
# Elastic Constant Matrix: (Units=GPa)
#
#
# Indices 1 2 3 4 5 6 
#
# 1 136.0139 72.7411 50.3167 0.0000 0.0000 0.0000
# 2 72.7411 120.1353 47.6913 0.0000 0.0000 0.0000
# 3 50.3167 47.6913 65.5697 0.0000 0.0000 0.0000
# 4 0.0000 0.0000 0.0000 39.1857 0.0000 0.0000
# 5 0.0000 0.0000 0.0000 0.0000 22.2961 0.0000
# 6 0.0000 0.0000 0.0000 0.0000 0.0000 -180.2375
#
#
#
# Elastic Compliance Matrix: (Units=1/GPa)
#
#
# Indices 1 2 3 4 5 6 
#
# 1 0.012178 -0.005151 -0.005599 0.000000 0.000000 0.000000
# 2 -0.005151 0.013882 -0.006144 0.000000 0.000000 0.000000
# 3 -0.005599 -0.006144 0.024016 0.000000 0.000000 0.000000
# 4 0.000000 0.000000 0.000000 0.025520 0.000000 0.000000
# 5 0.000000 0.000000 0.000000 0.000000 0.044851 0.000000
# 6 0.000000 0.000000 0.000000 0.000000 0.000000 -0.005548
#
#
# Mechanical properties :
#
#
# Convention : Reuss Voigt Hill
#
# Bulk Modulus (GPa) = 61.39287 73.69078 67.54183
# Shear Modulus (GPa) = 32.44321 -13.68647 9.37837
#
# Velocity S-wave (km/s) = 4.17794 -2.71360 2.24628
# Velocity P-wave (km/s) = 7.50362 5.46160 6.56252
#
# Compressibility (1/GPa) = 0.01628854
#
# Stress axis : x y z
#
# Youngs Moduli (GPa) = 82.11330 72.03540 41.63921
#
# Poissons Ratio (x) = 0.37108 0.23312
# Poissons Ratio (y) = 0.42300 0.25583
# Poissons Ratio (z) = 0.45972 0.44258
#
# Static dielectric constant tensor:
#      x y z
#    x 3.618040 0.000000 0.000000 
#    y 0.000000 3.451820 0.000000 
#    z 0.000000 0.000000 3.366180 
# 
# 
# High freq. dielectric constant tensor:
#      x y z
#    x 1.723870 0.000000 0.000000 
#    y 0.000000 1.729720 0.000000 
#    z 0.000000 0.000000 1.726960 
# 
# From -- ./inp_files/9302.got.cif
#   From: 2010.03.12/outbox.cif.g09.slc.cpg/sg57_5_cif.got.tgz:9302.got - 2010.04.16 15:48:40.
