data_PCOD8232486
_publ_section_title
;
Structure prediction by ZEFSAII (Michael W. Deem and Ramdas Pophale) SiO2 
 PCOD8232486
Probable space group: P B C M
;
_chemical_formula_sum "Si O2"
_cell_formula_units_Z 56
_cell_length_a 31.867875
_cell_length_b 5.128903
_cell_length_c 16.713687
_cell_angle_alpha 90.000000
_cell_angle_beta 90.000000
_cell_angle_gamma 90.000000
_cell_volume 2731.806005
_symmetry_space_group_name_H-M "P B C M"
_symmetry_group_IT_number 57
_symmetry_cell_setting 'orthorhombic'
loop_
_space_group_symop_operation_xyz
x,y,z
-x,-y,1/2+z
x,1/2-y,-z
-x,1/2+y,1/2-z
-x,-y,-z
x,y,1/2-z
-x,1/2+y,z
x,1/2-y,1/2+z
loop_
_atom_site_type_symbol
_atom_site_label
_atom_site_fract_x
_atom_site_fract_y
_atom_site_fract_z
Si Si1 0.249774 0.506250 0.552352
Si Si2 0.830554 0.549951 0.155048
Si Si3 0.381642 0.353462 0.157435
Si Si4 0.341065 0.844603 0.411442
Si Si5 0.024688 0.557100 0.154495
Si Si6 0.880956 0.450514 0.654890
Si Si7 0.524016 0.936331 0.154770
O O1 0.259165 0.250000 0.500000
O O2 0.215545 0.438020 0.618583
O O3 0.291951 0.591386 0.597974
O O4 0.233577 0.750000 0.500000
O O5 0.825557 0.551400 0.250000
O O6 0.855699 0.299270 0.123870
O O7 0.856792 0.796078 0.123367
O O8 0.381834 0.271180 0.250000
O O9 0.352061 0.606160 0.147455
O O10 0.427976 0.424979 0.126015
O O11 0.366650 0.105190 0.107294
O O12 0.352437 0.750000 0.500000
O O13 0.025769 0.556647 0.250000
O O14 0.071918 0.553396 0.120008
O O15 0.999371 0.309444 0.121686
O O16 0.883084 0.451481 0.750000
O O17 0.522297 0.937384 0.250000
O O18 0.497756 0.694230 0.119859
#
# Coordination Sequence:
#
# PCOD8232486 Si02
#       7
#     8   8   8   8   8   8   8
#     4  11  23  41  60  80 108 145 188 225 268 336
#     4  10  20  34  54  79 108 140 173 222 280 321
#     4  11  22  37  62  92 116 147 197 244 276 327
#     4  11  23  41  60  82 117 157 187 229 296 349
#     4   9  15  23  38  62  97 140 175 204 250 317
#     4   9  17  29  45  71 107 140 172 215 271 323
#     4   9  17  31  53  82 115 148 184 230 280 325
#
# _framework density 20.499261000000001
#
# number of rings (size 3 to 8) (size 9 to 14) (size 15 to 20)
#    0.000    2.000    0.000    5.143    0.000    6.857 
#    0.000    1.429    0.000    8.571    0.000    0.000 
#    0.000   40.000    0.000    0.000    0.000    0.000 
#
# Total GULP energy -694522.495064 kJ/mol
# GULP energy per Si atom -12402.187412 kJ/mol
# Density = 2.045260 g / cm^3
# Si number density = 20.499261 Si / 1000 Ang^3
#
#
#
# Elastic Constant Matrix: (Units=GPa)
#
#
# Indices 1 2 3 4 5 6 
#
# 1 175.8141 79.1640 39.2042 0.0000 0.0000 0.0000
# 2 79.1640 178.3606 19.2678 0.0000 0.0000 0.0000
# 3 39.2042 19.2678 24.9983 0.0000 0.0000 0.0000
# 4 0.0000 0.0000 0.0000 21.5923 0.0000 0.0000
# 5 0.0000 0.0000 0.0000 0.0000 6.2712 0.0000
# 6 0.0000 0.0000 0.0000 0.0000 0.0000 41.9801
#
#
#
# Elastic Compliance Matrix: (Units=1/GPa)
#
#
# Indices 1 2 3 4 5 6 
#
# 1 0.010032 -0.003003 -0.013419 0.000000 0.000000 0.000000
# 2 -0.003003 0.007015 -0.000697 0.000000 0.000000 0.000000
# 3 -0.013419 -0.000697 0.061584 0.000000 0.000000 0.000000
# 4 0.000000 0.000000 0.000000 0.046313 0.000000 0.000000
# 5 0.000000 0.000000 0.000000 0.000000 0.159459 0.000000
# 6 0.000000 0.000000 0.000000 0.000000 0.000000 0.023821
#
#
# Mechanical properties :
#
#
# Convention : Reuss Voigt Hill
#
# Bulk Modulus (GPa) = 22.52579 72.71611 47.62095
# Shear Modulus (GPa) = 13.99547 30.07120 22.03333
#
# Velocity S-wave (km/s) = 2.61575 3.83422 3.28203
# Velocity P-wave (km/s) = 4.48723 7.42639 6.13541
#
# Compressibility (1/GPa) = 0.04439356
#
# Stress axis : x y z
#
# Youngs Moduli (GPa) = 99.67899 142.55484 16.23800
#
# Poissons Ratio (x) = 0.42811 0.21789
# Poissons Ratio (y) = 0.29935 0.01132
# Poissons Ratio (z) = 1.33754 0.09937
#
# Static dielectric constant tensor:
#      x y z
#    x 3.858760 0.000000 0.000000 
#    y 0.000000 4.016360 0.000000 
#    z 0.000000 0.000000 3.205060 
# 
# 
# High freq. dielectric constant tensor:
#      x y z
#    x 1.816220 0.000000 0.000000 
#    y 0.000000 1.824190 0.000000 
#    z 0.000000 0.000000 1.752170 
# 
# From -- ./inp_files/19630.got.cif
#   From: 2010.03.12/outbox.cif.g09.slc.cpg/sg57_10_cif.got.tgz:19630.got - 2010.04.16 15:48:40.
