data_PCOD8232137
_publ_section_title
;
Structure prediction by ZEFSAII (Michael W. Deem and Ramdas Pophale) SiO2 
 PCOD8232137
Probable space group: P B C M
;
_chemical_formula_sum "Si O2"
_cell_formula_units_Z 40
_cell_length_a 13.871132
_cell_length_b 18.465390
_cell_length_c 9.040162
_cell_angle_alpha 90.000000
_cell_angle_beta 90.000000
_cell_angle_gamma 90.000000
_cell_volume 2315.509688
_symmetry_space_group_name_H-M "P B C M"
_symmetry_group_IT_number 57
_symmetry_cell_setting 'orthorhombic'
loop_
_space_group_symop_operation_xyz
x,y,z
-x,-y,1/2+z
x,1/2-y,-z
-x,1/2+y,1/2-z
-x,-y,-z
x,y,1/2-z
-x,1/2+y,z
x,1/2-y,1/2+z
loop_
_atom_site_type_symbol
_atom_site_label
_atom_site_fract_x
_atom_site_fract_y
_atom_site_fract_z
Si Si1 0.771832 0.526637 0.586846
Si Si2 0.322838 0.680151 0.575364
Si Si3 0.596399 0.024906 0.922653
Si Si4 0.029116 0.074103 0.575779
Si Si5 0.860713 0.131878 0.416748
O O1 0.728547 0.541751 0.750000
O O2 0.684181 0.527637 0.471206
O O3 0.855327 0.586048 0.549192
O O4 0.825278 0.450203 0.585865
O O5 0.374653 0.750000 0.500000
O O6 0.318068 0.690205 0.750000
O O7 0.381703 0.607899 0.532084
O O8 0.215037 0.678407 0.510147
O O9 0.582891 0.016053 0.750000
O O10 0.500000 0.000000 0.000000
O O11 0.005474 0.070779 0.750000
O O12 0.965165 0.136934 0.498236
O O13 0.000000 0.000000 0.500000
O O14 0.869350 0.162661 0.250000
#
# Coordination Sequence:
#
# PCOD8232137 Si02
#       5
#     8   8   8   8   8
#     4   8  15  26  40  60  88 119 150 186 229 272
#     4  10  20  33  49  70  95 125 159 196 240 293
#     4  10  20  32  48  69  94 124 160 203 250 296
#     4   9  15  23  37  59  87 118 148 179 216 262
#     4   9  16  26  41  62  89 120 150 184 224 271
#
# _framework density 17.274815
#
# number of rings (size 3 to 8) (size 9 to 14) (size 15 to 20)
#    0.000    2.800    0.000    3.600    0.000    8.000 
#    0.000    0.000    0.000    0.000    0.000    1.400 
#    0.000    6.400    0.000    0.000    0.000    0.000 
#
# Total GULP energy -495647.226174 kJ/mol
# GULP energy per Si atom -12391.180654 kJ/mol
# Density = 1.723550 g / cm^3
# Si number density = 17.274815 Si / 1000 Ang^3
#
#
#
# Elastic Constant Matrix: (Units=GPa)
#
#
# Indices 1 2 3 4 5 6 
#
# 1 122.5622 38.9221 67.0288 0.0000 0.0000 0.0000
# 2 38.9221 46.5583 36.7668 0.0000 0.0000 0.0000
# 3 67.0288 36.7668 113.9179 0.0000 0.0000 0.0000
# 4 0.0000 0.0000 0.0000 20.7945 0.0000 0.0000
# 5 0.0000 0.0000 0.0000 0.0000 34.3444 0.0000
# 6 0.0000 0.0000 0.0000 0.0000 0.0000 13.3479
#
#
#
# Elastic Compliance Matrix: (Units=1/GPa)
#
#
# Indices 1 2 3 4 5 6 
#
# 1 0.013422 -0.006689 -0.005738 0.000000 0.000000 0.000000
# 2 -0.006689 0.032158 -0.006444 0.000000 0.000000 0.000000
# 3 -0.005738 -0.006444 0.014234 0.000000 0.000000 0.000000
# 4 0.000000 0.000000 0.000000 0.048090 0.000000 0.000000
# 5 0.000000 0.000000 0.000000 0.000000 0.029117 0.000000
# 6 0.000000 0.000000 0.000000 0.000000 0.000000 0.074918
#
#
# Mechanical properties :
#
#
# Convention : Reuss Voigt Hill
#
# Bulk Modulus (GPa) = 45.30384 63.16377 54.23380
# Shear Modulus (GPa) = 19.45238 23.05206 21.25222
#
# Velocity S-wave (km/s) = 3.35931 3.65695 3.51129
# Velocity P-wave (km/s) = 6.42876 7.38068 6.92111
#
# Compressibility (1/GPa) = 0.02207318
#
# Stress axis : x y z
#
# Youngs Moduli (GPa) = 74.50684 31.09598 70.25243
#
# Poissons Ratio (x) = 0.20799 0.40314
# Poissons Ratio (y) = 0.49835 0.45267
# Poissons Ratio (z) = 0.42755 0.20037
#
# Static dielectric constant tensor:
#      x y z
#    x 3.662910 0.000000 0.000000 
#    y 0.000000 3.796160 0.000000 
#    z 0.000000 0.000000 3.428460 
# 
# 
# High freq. dielectric constant tensor:
#      x y z
#    x 1.658020 0.000000 0.000000 
#    y 0.000000 1.614150 0.000000 
#    z 0.000000 0.000000 1.684240 
# 
# From -- ./inp_files/2900.got.cif
#   From: 2010.03.12/outbox.cif.g09.slc.cpg/sg57_2_cif.got.tgz:2900.got - 2010.04.16 15:48:40.
