data_PCOD8232531
_publ_section_title
;
Structure prediction by ZEFSAII (Michael W. Deem and Ramdas Pophale) SiO2 
 PCOD8232531
Probable space group: P B C M
;
_chemical_formula_sum "Si O2"
_cell_formula_units_Z 48
_cell_length_a 9.605780
_cell_length_b 30.669343
_cell_length_c 8.920841
_cell_angle_alpha 90.000000
_cell_angle_beta 90.000000
_cell_angle_gamma 90.000000
_cell_volume 2628.106179
_symmetry_space_group_name_H-M "P B C M"
_symmetry_group_IT_number 57
_symmetry_cell_setting 'orthorhombic'
loop_
_space_group_symop_operation_xyz
x,y,z
-x,-y,1/2+z
x,1/2-y,-z
-x,1/2+y,1/2-z
-x,-y,-z
x,y,1/2-z
-x,1/2+y,z
x,1/2-y,1/2+z
loop_
_atom_site_type_symbol
_atom_site_label
_atom_site_fract_x
_atom_site_fract_y
_atom_site_fract_z
Si Si1 0.361845 0.482522 0.576883
Si Si2 0.708356 0.607660 0.927126
Si Si3 0.011504 0.636779 0.575878
Si Si4 0.250256 0.927306 0.420136
Si Si5 0.556797 0.363020 0.574801
Si Si6 0.793992 0.296725 0.573667
O O1 0.500000 0.500000 0.500000
O O2 0.392590 0.471652 0.750000
O O3 0.303696 0.440041 0.496992
O O4 0.244962 0.520494 0.560531
O O5 0.697074 0.603115 0.750000
O O6 0.854751 0.628257 0.977127
O O7 0.589251 0.640188 0.987687
O O8 0.018350 0.649073 0.750000
O O9 0.100090 0.593034 0.540767
O O10 0.070847 0.677587 0.484088
O O11 0.293565 0.914973 0.250000
O O12 0.368060 0.908042 0.529627
O O13 0.526236 0.363553 0.750000
O O14 0.653917 0.322549 0.527584
O O15 0.785746 0.250000 0.500000
O O16 0.807105 0.291604 0.750000
#
# Coordination Sequence:
#
# PCOD8232531 Si02
#       6
#     8   8   8   8   8   8
#     4  11  21  32  51  78 109 146 192 236 275 319
#     4  11  22  35  53  79 112 149 184 224 276 322
#     4   9  20  38  57  79 110 147 185 225 273 328
#     4   9  18  34  54  75 103 144 189 229 271 318
#     4  10  20  34  55  81 108 139 180 225 267 318
#     4  10  21  38  62  88 109 136 175 219 270 330
#
# _framework density 18.264102000000001
#
# number of rings (size 3 to 8) (size 9 to 14) (size 15 to 20)
#    0.000    2.000    1.667    2.000    0.000    4.667 
#    0.000    0.833    0.000    2.000    0.000    0.000 
#    0.000    0.000    0.000    0.000    0.000    0.000 
#
# Total GULP energy -595274.614145 kJ/mol
# GULP energy per Si atom -12401.554461 kJ/mol
# Density = 1.822253 g / cm^3
# Si number density = 18.264102 Si / 1000 Ang^3
#
#
#
# Elastic Constant Matrix: (Units=GPa)
#
#
# Indices 1 2 3 4 5 6 
#
# 1 146.7901 68.0199 60.7080 0.0000 0.0000 0.0000
# 2 68.0199 132.3294 55.0682 0.0000 0.0000 0.0000
# 3 60.7080 55.0682 88.3300 0.0000 0.0000 0.0000
# 4 0.0000 0.0000 0.0000 31.0318 0.0000 0.0000
# 5 0.0000 0.0000 0.0000 0.0000 27.3160 0.0000
# 6 0.0000 0.0000 0.0000 0.0000 0.0000 17.1544
#
#
#
# Elastic Compliance Matrix: (Units=1/GPa)
#
#
# Indices 1 2 3 4 5 6 
#
# 1 0.010441 -0.003215 -0.005172 0.000000 0.000000 0.000000
# 2 -0.003215 0.011194 -0.004769 0.000000 0.000000 0.000000
# 3 -0.005172 -0.004769 0.017849 0.000000 0.000000 0.000000
# 4 0.000000 0.000000 0.000000 0.032225 0.000000 0.000000
# 5 0.000000 0.000000 0.000000 0.000000 0.036609 0.000000
# 6 0.000000 0.000000 0.000000 0.000000 0.000000 0.058294
#
#
# Mechanical properties :
#
#
# Convention : Reuss Voigt Hill
#
# Bulk Modulus (GPa) = 75.91615 81.67130 78.79373
# Shear Modulus (GPa) = 25.34029 27.34400 26.34215
#
# Velocity S-wave (km/s) = 3.72887 3.87349 3.80187
# Velocity P-wave (km/s) = 7.75856 8.05104 7.90615
#
# Compressibility (1/GPa) = 0.01317243
#
# Stress axis : x y z
#
# Youngs Moduli (GPa) = 95.77671 89.33319 56.02520
#
# Poissons Ratio (x) = 0.28717 0.28975
# Poissons Ratio (y) = 0.30789 0.26721
# Poissons Ratio (z) = 0.49534 0.42607
#
# Static dielectric constant tensor:
#      x y z
#    x 3.313040 0.000000 0.000000 
#    y 0.000000 3.255370 0.000000 
#    z 0.000000 0.000000 3.493050 
# 
# 
# High freq. dielectric constant tensor:
#      x y z
#    x 1.703140 0.000000 0.000000 
#    y 0.000000 1.698170 0.000000 
#    z 0.000000 0.000000 1.718590 
# 
# From -- ./inp_files/2022.got.cif
#   From: 2010.03.12/outbox.cif.g09.slc.cpg/sg57_2_cif.got.tgz:2022.got - 2010.04.16 15:48:40.
