data_PCOD8232734
_publ_section_title
;
Structure prediction by ZEFSAII (Michael W. Deem and Ramdas Pophale) SiO2 
 PCOD8232734
Probable space group: P B C M
;
_chemical_formula_sum "Si O2"
_cell_formula_units_Z 48
_cell_length_a 15.204483
_cell_length_b 9.241119
_cell_length_c 16.642837
_cell_angle_alpha 90.000000
_cell_angle_beta 90.000000
_cell_angle_gamma 90.000000
_cell_volume 2338.425724
_symmetry_space_group_name_H-M "P B C M"
_symmetry_group_IT_number 57
_symmetry_cell_setting 'orthorhombic'
loop_
_space_group_symop_operation_xyz
x,y,z
-x,-y,1/2+z
x,1/2-y,-z
-x,1/2+y,1/2-z
-x,-y,-z
x,y,1/2-z
-x,1/2+y,z
x,1/2-y,1/2+z
loop_
_atom_site_type_symbol
_atom_site_label
_atom_site_fract_x
_atom_site_fract_y
_atom_site_fract_z
Si Si1 0.954932 0.727426 0.909291
Si Si2 0.716290 0.465977 0.842064
Si Si3 0.541112 0.526788 0.912993
Si Si4 0.591837 0.829228 0.658631
Si Si5 0.237481 0.228555 0.093762
Si Si6 0.094504 0.924919 0.657941
O O1 0.864093 0.817390 0.893167
O O2 0.940524 0.557140 0.895900
O O3 0.031362 0.787270 0.852239
O O4 0.986618 0.750000 0.000000
O O5 0.687990 0.435547 0.750000
O O6 0.632885 0.436893 0.900569
O O7 0.745218 0.631388 0.852011
O O8 0.805138 0.377113 0.865930
O O9 0.471736 0.466268 0.848577
O O10 0.557369 0.696199 0.896617
O O11 0.500000 0.500000 0.000000
O O12 0.596095 0.776329 0.750000
O O13 0.688694 0.882616 0.627146
O O14 0.255654 0.250000 0.000000
O O15 0.094532 0.976430 0.750000
#
# Coordination Sequence:
#
# PCOD8232734 Si02
#       6
#     8   8   8   8   8   8
#     4  10  20  35  55  80 110 141 178 221 264 312
#     4   9  18  34  53  74 104 144 178 209 263 332
#     4  11  21  36  56  78 105 139 180 222 265 320
#     4  11  21  35  55  80 108 140 177 221 268 317
#     4   9  17  31  52  76 103 138 178 218 261 314
#     4  10  20  35  57  80 106 142 183 221 263 315
#
# _framework density 20.526630000000001
#
# number of rings (size 3 to 8) (size 9 to 14) (size 15 to 20)
#    0.000    2.000    0.000    6.500    0.000    2.000 
#    0.000    3.333    0.000    4.000    0.000    0.000 
#    0.000    0.000    0.000    0.000    0.000    0.000 
#
# Total GULP energy -594806.480200 kJ/mol
# GULP energy per Si atom -12391.801671 kJ/mol
# Density = 2.047991 g / cm^3
# Si number density = 20.526630 Si / 1000 Ang^3
#
#
#
# Elastic Constant Matrix: (Units=GPa)
#
#
# Indices 1 2 3 4 5 6 
#
# 1 166.7760 21.1148 45.5237 0.0000 0.0000 0.0000
# 2 21.1148 24.4668 6.6073 0.0000 0.0000 0.0000
# 3 45.5237 6.6073 104.8246 0.0000 0.0000 0.0000
# 4 0.0000 0.0000 0.0000 24.0101 0.0000 0.0000
# 5 0.0000 0.0000 0.0000 0.0000 37.7593 0.0000
# 6 0.0000 0.0000 0.0000 0.0000 0.0000 30.3208
#
#
#
# Elastic Compliance Matrix: (Units=1/GPa)
#
#
# Indices 1 2 3 4 5 6 
#
# 1 0.007510 -0.005697 -0.002902 0.000000 0.000000 0.000000
# 2 -0.005697 0.045901 -0.000419 0.000000 0.000000 0.000000
# 3 -0.002902 -0.000419 0.010827 0.000000 0.000000 0.000000
# 4 0.000000 0.000000 0.000000 0.041649 0.000000 0.000000
# 5 0.000000 0.000000 0.000000 0.000000 0.026484 0.000000
# 6 0.000000 0.000000 0.000000 0.000000 0.000000 0.032981
#
#
# Mechanical properties :
#
#
# Convention : Reuss Voigt Hill
#
# Bulk Modulus (GPa) = 21.64463 49.17323 35.40893
# Shear Modulus (GPa) = 25.15247 33.27282 29.21265
#
# Velocity S-wave (km/s) = 3.50431 4.03048 3.77657
# Velocity P-wave (km/s) = 5.19048 6.75778 6.02531
#
# Compressibility (1/GPa) = 0.04620083
#
# Stress axis : x y z
#
# Youngs Moduli (GPa) = 133.16427 21.78583 92.36569
#
# Poissons Ratio (x) = 0.12411 0.26806
# Poissons Ratio (y) = 0.75863 0.03872
# Poissons Ratio (z) = 0.38647 0.00913
#
# Static dielectric constant tensor:
#      x y z
#    x 4.587020 0.000000 0.000000 
#    y 0.000000 3.175500 0.000000 
#    z 0.000000 0.000000 3.682710 
# 
# 
# High freq. dielectric constant tensor:
#      x y z
#    x 1.831030 0.000000 0.000000 
#    y 0.000000 1.740400 0.000000 
#    z 0.000000 0.000000 1.809210 
# 
# From -- ./inp_files/18401.got.cif
#   From: 2010.03.12/outbox.cif.g09.slc.cpg/sg57_10_cif.got.tgz:18401.got - 2010.04.16 15:48:40.
