data_PCOD8232957
_publ_section_title
;
Structure prediction by ZEFSAII (Michael W. Deem and Ramdas Pophale) SiO2 
 PCOD8232957
Probable space group: P B C M
;
_chemical_formula_sum "Si O2"
_cell_formula_units_Z 40
_cell_length_a 9.716842
_cell_length_b 25.581782
_cell_length_c 8.846612
_cell_angle_alpha 90.000000
_cell_angle_beta 90.000000
_cell_angle_gamma 90.000000
_cell_volume 2199.038915
_symmetry_space_group_name_H-M "P B C M"
_symmetry_group_IT_number 57
_symmetry_cell_setting 'orthorhombic'
loop_
_space_group_symop_operation_xyz
x,y,z
-x,-y,1/2+z
x,1/2-y,-z
-x,1/2+y,1/2-z
-x,-y,-z
x,y,1/2-z
-x,1/2+y,z
x,1/2-y,1/2+z
loop_
_atom_site_type_symbol
_atom_site_label
_atom_site_fract_x
_atom_site_fract_y
_atom_site_fract_z
Si Si1 0.327960 0.603560 0.426177
Si Si2 0.872735 0.304910 0.929990
Si Si3 0.163020 0.195443 0.571339
Si Si4 0.352990 0.113321 0.423725
Si Si5 0.353742 0.997875 0.076234
O O1 0.310705 0.594869 0.250000
O O2 0.238146 0.652324 0.482228
O O3 0.486479 0.613752 0.469671
O O4 0.269348 0.550244 0.502917
O O5 0.883260 0.299912 0.750000
O O6 0.824560 0.250000 0.000000
O O7 0.019549 0.321902 0.996607
O O8 0.213093 0.250000 0.500000
O O9 0.144526 0.201849 0.750000
O O10 0.276599 0.152109 0.536262
O O11 0.335425 0.131629 0.250000
O O12 0.286166 0.055319 0.445208
O O13 0.375145 0.984958 0.250000
O O14 0.500000 0.000000 0.000000
#
# Coordination Sequence:
#
# PCOD8232957 Si02
#       5
#     8   8   8   8   8
#     4   9  19  34  54  79 106 134 168 210 255 300
#     4  10  20  36  55  75 102 136 170 210 257 305
#     4  11  22  36  54  75 100 135 173 210 254 305
#     4   9  18  34  53  77 106 134 167 209 252 297
#     4   9  17  30  51  76 105 137 168 205 252 301
#
# _framework density 18.189765999999999
#
# number of rings (size 3 to 8) (size 9 to 14) (size 15 to 20)
#    0.000    2.400    0.000    5.400    0.000    6.400 
#    0.000    3.000    0.000    0.000    0.000    0.000 
#    0.000    0.000    0.000    0.000    0.000    0.000 
#
# Total GULP energy -495860.643143 kJ/mol
# GULP energy per Si atom -12396.516079 kJ/mol
# Density = 1.814836 g / cm^3
# Si number density = 18.189766 Si / 1000 Ang^3
#
#
#
# Elastic Constant Matrix: (Units=GPa)
#
#
# Indices 1 2 3 4 5 6 
#
# 1 60.2628 63.5024 32.2509 0.0000 0.0000 0.0000
# 2 63.5024 138.7022 59.0381 0.0000 0.0000 0.0000
# 3 32.2509 59.0381 90.3426 0.0000 0.0000 0.0000
# 4 0.0000 0.0000 0.0000 37.5182 0.0000 0.0000
# 5 0.0000 0.0000 0.0000 0.0000 25.9987 0.0000
# 6 0.0000 0.0000 0.0000 0.0000 0.0000 6.5758
#
#
#
# Elastic Compliance Matrix: (Units=1/GPa)
#
#
# Indices 1 2 3 4 5 6 
#
# 1 0.032498 -0.013771 -0.002602 0.000000 0.000000 0.000000
# 2 -0.013771 0.015823 -0.005424 0.000000 0.000000 0.000000
# 3 -0.002602 -0.005424 0.015543 0.000000 0.000000 0.000000
# 4 0.000000 0.000000 0.000000 0.026654 0.000000 0.000000
# 5 0.000000 0.000000 0.000000 0.000000 0.038463 0.000000
# 6 0.000000 0.000000 0.000000 0.000000 0.000000 0.152073
#
#
# Mechanical properties :
#
#
# Convention : Reuss Voigt Hill
#
# Bulk Modulus (GPa) = 49.33628 66.54337 57.93982
# Shear Modulus (GPa) = 15.08725 22.98626 19.03675
#
# Velocity S-wave (km/s) = 2.88312 3.55870 3.23857
# Velocity P-wave (km/s) = 6.18588 7.31766 6.77544
#
# Compressibility (1/GPa) = 0.02026906
#
# Stress axis : x y z
#
# Youngs Moduli (GPa) = 30.77122 63.19737 64.33909
#
# Poissons Ratio (x) = 0.87030 0.16741
# Poissons Ratio (y) = 0.42375 0.34900
# Poissons Ratio (z) = 0.08006 0.34281
#
# Static dielectric constant tensor:
#      x y z
#    x 3.153540 0.000000 0.000000 
#    y 0.000000 3.813980 0.000000 
#    z 0.000000 0.000000 3.487090 
# 
# 
# High freq. dielectric constant tensor:
#      x y z
#    x 1.672360 0.000000 0.000000 
#    y 0.000000 1.720480 0.000000 
#    z 0.000000 0.000000 1.713760 
# 
# From -- ./inp_files/1745.got.cif
#   From: 2010.03.12/outbox.cif.g09.slc.cpg/sg57_1_cif.got.tgz:1745.got - 2010.04.16 15:48:40.
