data_PCOD8232312
_publ_section_title
;
Structure prediction by ZEFSAII (Michael W. Deem and Ramdas Pophale) SiO2 
 PCOD8232312
Probable space group: P B C M
;
_chemical_formula_sum "Si O2"
_cell_formula_units_Z 56
_cell_length_a 15.336853
_cell_length_b 23.011618
_cell_length_c 8.702896
_cell_angle_alpha 90.000000
_cell_angle_beta 90.000000
_cell_angle_gamma 90.000000
_cell_volume 3071.476555
_symmetry_space_group_name_H-M "P B C M"
_symmetry_group_IT_number 57
_symmetry_cell_setting 'orthorhombic'
loop_
_space_group_symop_operation_xyz
x,y,z
-x,-y,1/2+z
x,1/2-y,-z
-x,1/2+y,1/2-z
-x,-y,-z
x,y,1/2-z
-x,1/2+y,z
x,1/2-y,1/2+z
loop_
_atom_site_type_symbol
_atom_site_label
_atom_site_fract_x
_atom_site_fract_y
_atom_site_fract_z
Si Si1 0.687489 0.185977 0.568836
Si Si2 0.999372 0.188649 0.068550
Si Si3 0.323033 0.186108 0.429570
Si Si4 0.851493 0.111099 0.931962
Si Si5 0.515520 0.312836 0.572066
Si Si6 0.904443 0.996572 0.069293
Si Si7 0.160749 0.369436 0.429946
O O1 0.699484 0.250000 0.500000
O O2 0.686311 0.190954 0.750000
O O3 0.766910 0.146186 0.511779
O O4 0.597110 0.155435 0.511224
O O5 0.991231 0.191240 0.250000
O O6 0.968915 0.250000 0.000000
O O7 0.938238 0.138481 0.002854
O O8 0.098045 0.174949 0.019499
O O9 0.314484 0.250000 0.500000
O O10 0.300302 0.190219 0.250000
O O11 0.420290 0.158627 0.453804
O O12 0.258895 0.142269 0.515727
O O13 0.861121 0.111056 0.750000
O O14 0.843242 0.045596 0.993713
O O15 0.509408 0.250000 0.500000
O O16 0.538705 0.307766 0.750000
O O17 0.910386 0.006521 0.250000
O O18 0.861445 0.935331 0.026886
O O19 0.000000 0.000000 0.000000
O O20 0.150488 0.357477 0.250000
#
# Coordination Sequence:
#
# PCOD8232312 Si02
#       7
#     8   8   8   8   8   8   8
#     4  10  20  33  53  81 112 145 178 220 269 323
#     4  12  24  37  55  78 109 145 178 219 272 324
#     4  10  20  34  54  82 113 145 180 220 271 324
#     4  11  23  38  56  80 110 142 183 227 270 324
#     4   9  17  30  51  78 109 143 178 218 263 322
#     4  11  23  39  60  80 104 141 186 231 274 320
#     4  11  23  38  56  79 108 141 181 226 270 323
#
# _framework density 18.232274
#
# number of rings (size 3 to 8) (size 9 to 14) (size 15 to 20)
#    0.000    1.429    1.429    5.571    0.000    6.857 
#    0.000    0.000    0.000    0.857    0.000    0.000 
#    0.000    0.000    0.000    0.000    0.000    0.000 
#
# Total GULP energy -694457.509035 kJ/mol
# GULP energy per Si atom -12401.026947 kJ/mol
# Density = 1.819078 g / cm^3
# Si number density = 18.232274 Si / 1000 Ang^3
#
#
#
# Elastic Constant Matrix: (Units=GPa)
#
#
# Indices 1 2 3 4 5 6 
#
# 1 120.3551 40.8773 33.5489 0.0000 0.0000 0.0000
# 2 40.8773 85.3883 37.6025 0.0000 0.0000 0.0000
# 3 33.5489 37.6025 89.9999 0.0000 0.0000 0.0000
# 4 0.0000 0.0000 0.0000 29.5823 0.0000 0.0000
# 5 0.0000 0.0000 0.0000 0.0000 32.9431 0.0000
# 6 0.0000 0.0000 0.0000 0.0000 0.0000 16.9377
#
#
#
# Elastic Compliance Matrix: (Units=1/GPa)
#
#
# Indices 1 2 3 4 5 6 
#
# 1 0.010257 -0.003954 -0.002171 0.000000 0.000000 0.000000
# 2 -0.003954 0.015876 -0.005159 0.000000 0.000000 0.000000
# 3 -0.002171 -0.005159 0.014076 0.000000 0.000000 0.000000
# 4 0.000000 0.000000 0.000000 0.033804 0.000000 0.000000
# 5 0.000000 0.000000 0.000000 0.000000 0.030355 0.000000
# 6 0.000000 0.000000 0.000000 0.000000 0.000000 0.059040
#
#
# Mechanical properties :
#
#
# Convention : Reuss Voigt Hill
#
# Bulk Modulus (GPa) = 56.68985 57.75563 57.22274
# Shear Modulus (GPa) = 26.06101 28.14026 27.10064
#
# Velocity S-wave (km/s) = 3.78483 3.93291 3.85958
# Velocity P-wave (km/s) = 7.08947 7.23673 7.16347
#
# Compressibility (1/GPa) = 0.01763984
#
# Stress axis : x y z
#
# Youngs Moduli (GPa) = 97.49473 62.98809 71.04239
#
# Poissons Ratio (x) = 0.24905 0.15426
# Poissons Ratio (y) = 0.38549 0.36652
# Poissons Ratio (z) = 0.21170 0.32497
#
# Static dielectric constant tensor:
#      x y z
#    x 3.906870 0.000000 0.000000 
#    y 0.000000 3.311590 0.000000 
#    z 0.000000 0.000000 3.522240 
# 
# 
# High freq. dielectric constant tensor:
#      x y z
#    x 1.716970 0.000000 0.000000 
#    y 0.000000 1.678750 0.000000 
#    z 0.000000 0.000000 1.726910 
# 
# From -- ./inp_files/5233.got.cif
#   From: 2010.03.12/outbox.cif.g09.slc.cpg/sg57_3_cif.got.tgz:5233.got - 2010.04.16 15:48:40.
