data_PCOD8232183
_publ_section_title
;
Structure prediction by ZEFSAII (Michael W. Deem and Ramdas Pophale) SiO2 
 PCOD8232183
Probable space group: P B C M
;
_chemical_formula_sum "Si O2"
_cell_formula_units_Z 64
_cell_length_a 21.528145
_cell_length_b 19.493654
_cell_length_c 9.065928
_cell_angle_alpha 90.000000
_cell_angle_beta 90.000000
_cell_angle_gamma 90.000000
_cell_volume 3804.627379
_symmetry_space_group_name_H-M "P B C M"
_symmetry_group_IT_number 57
_symmetry_cell_setting 'orthorhombic'
loop_
_space_group_symop_operation_xyz
x,y,z
-x,-y,1/2+z
x,1/2-y,-z
-x,1/2+y,1/2-z
-x,-y,-z
x,y,1/2-z
-x,1/2+y,z
x,1/2-y,1/2+z
loop_
_atom_site_type_symbol
_atom_site_label
_atom_site_fract_x
_atom_site_fract_y
_atom_site_fract_z
Si Si1 0.919976 0.018618 0.082696
Si Si2 0.973307 0.606342 0.418164
Si Si3 0.618825 0.815965 0.921680
Si Si4 0.795906 0.955470 0.417288
Si Si5 0.559189 0.034317 0.076063
Si Si6 0.478047 0.816194 0.579026
Si Si7 0.127572 0.181016 0.922596
Si Si8 0.328908 0.460284 0.576749
O O1 0.936266 0.992234 0.250000
O O2 0.951674 0.094328 0.059942
O O3 0.845207 0.018167 0.067919
O O4 0.945101 0.967566 0.958314
O O5 0.957191 0.625274 0.250000
O O6 0.942688 0.664916 0.520042
O O7 0.620647 0.801847 0.750000
O O8 0.548497 0.827901 0.977524
O O9 0.658805 0.881591 0.965679
O O10 0.648984 0.750000 0.000000
O O11 0.770718 0.950119 0.250000
O O12 0.827708 0.882887 0.462716
O O13 0.740826 0.975948 0.526820
O O14 0.554708 0.019655 0.250000
O O15 0.560174 0.115478 0.042335
O O16 0.500000 0.000000 0.000000
O O17 0.623232 0.007327 0.010842
O O18 0.447803 0.750000 0.500000
O O19 0.477664 0.799624 0.750000
O O20 0.124367 0.194145 0.750000
O O21 0.153016 0.250000 0.000000
O O22 0.337282 0.473986 0.750000
#
# Coordination Sequence:
#
# PCOD8232183 Si02
#       8
#     8   8   8   8   8   8   8   8
#     4   8  15  28  45  66  93 121 153 195 239 286
#     4   9  15  25  45  70  93 120 155 196 242 282
#     4   9  18  32  46  65  93 123 160 201 241 292
#     4   9  19  34  48  66  94 130 168 203 244 291
#     4  11  21  35  54  76 102 130 163 207 261 311
#     4   9  18  33  51  73  98 123 154 194 243 300
#     4  10  20  33  48  68  99 135 172 208 243 289
#     4  11  22  35  49  71 100 131 172 214 253 303
#
# _framework density 16.821621
#
# number of rings (size 3 to 8) (size 9 to 14) (size 15 to 20)
#    0.000    2.500    1.250    2.250    0.000    5.500 
#    0.000    2.500    0.000    0.000    0.000    0.875 
#    0.000    4.000    0.000    0.000    0.000    0.000 
#
# Total GULP energy -793180.495808 kJ/mol
# GULP energy per Si atom -12393.445247 kJ/mol
# Density = 1.678333 g / cm^3
# Si number density = 16.821621 Si / 1000 Ang^3
#
#
#
# Elastic Constant Matrix: (Units=GPa)
#
#
# Indices 1 2 3 4 5 6 
#
# 1 95.5504 43.2450 42.4091 0.0000 0.0000 0.0000
# 2 43.2450 61.0225 40.5029 0.0000 0.0000 0.0000
# 3 42.4091 40.5029 74.7366 0.0000 0.0000 0.0000
# 4 0.0000 0.0000 0.0000 28.0228 0.0000 0.0000
# 5 0.0000 0.0000 0.0000 0.0000 25.8270 0.0000
# 6 0.0000 0.0000 0.0000 0.0000 0.0000 19.3251
#
#
#
# Elastic Compliance Matrix: (Units=1/GPa)
#
#
# Indices 1 2 3 4 5 6 
#
# 1 0.016399 -0.008504 -0.004697 0.000000 0.000000 0.000000
# 2 -0.008504 0.030004 -0.011435 0.000000 0.000000 0.000000
# 3 -0.004697 -0.011435 0.022242 0.000000 0.000000 0.000000
# 4 0.000000 0.000000 0.000000 0.035685 0.000000 0.000000
# 5 0.000000 0.000000 0.000000 0.000000 0.038719 0.000000
# 6 0.000000 0.000000 0.000000 0.000000 0.000000 0.051746
#
#
# Mechanical properties :
#
#
# Convention : Reuss Voigt Hill
#
# Bulk Modulus (GPa) = 51.61562 53.73598 52.67580
# Shear Modulus (GPa) = 19.95805 21.64513 20.80159
#
# Velocity S-wave (km/s) = 3.44823 3.59101 3.52035
# Velocity P-wave (km/s) = 6.82674 7.01483 6.92142
#
# Compressibility (1/GPa) = 0.01937398
#
# Stress axis : x y z
#
# Youngs Moduli (GPa) = 60.97827 33.32930 44.95901
#
# Poissons Ratio (x) = 0.28344 0.21117
# Poissons Ratio (y) = 0.51857 0.51409
# Poissons Ratio (z) = 0.28641 0.38111
#
# Static dielectric constant tensor:
#      x y z
#    x 3.125480 0.000000 0.000000 
#    y 0.000000 3.140640 0.000000 
#    z 0.000000 0.000000 3.213340 
# 
# 
# High freq. dielectric constant tensor:
#      x y z
#    x 1.628300 0.000000 0.000000 
#    y 0.000000 1.623850 0.000000 
#    z 0.000000 0.000000 1.659040 
# 
# From -- ./inp_files/8600.got.cif
#   From: 2010.03.12/outbox.cif.g09.slc.cpg/sg57_5_cif.got.tgz:8600.got - 2010.04.16 15:48:40.
