data_PCOD8232668
_publ_section_title
;
Structure prediction by ZEFSAII (Michael W. Deem and Ramdas Pophale) SiO2 
 PCOD8232668
Probable space group: P B C M
;
_chemical_formula_sum "Si O2"
_cell_formula_units_Z 48
_cell_length_a 7.475412
_cell_length_b 27.413457
_cell_length_c 11.606457
_cell_angle_alpha 90.000000
_cell_angle_beta 90.000000
_cell_angle_gamma 90.000000
_cell_volume 2378.475084
_symmetry_space_group_name_H-M "P B C M"
_symmetry_group_IT_number 57
_symmetry_cell_setting 'orthorhombic'
loop_
_space_group_symop_operation_xyz
x,y,z
-x,-y,1/2+z
x,1/2-y,-z
-x,1/2+y,1/2-z
-x,-y,-z
x,y,1/2-z
-x,1/2+y,z
x,1/2-y,1/2+z
loop_
_atom_site_type_symbol
_atom_site_label
_atom_site_fract_x
_atom_site_fract_y
_atom_site_fract_z
Si Si1 0.303895 0.467228 0.379994
Si Si2 0.314135 0.279534 0.620396
Si Si3 0.978422 0.889152 0.379955
Si Si4 0.683389 0.444318 0.458546
Si Si5 0.938307 0.301932 0.951580
Si Si6 0.396556 0.858566 0.875629
O O1 0.242966 0.479976 0.250000
O O2 0.196540 0.419066 0.422407
O O3 0.518399 0.460102 0.378222
O O4 0.247834 0.511080 0.463675
O O5 0.346708 0.250000 0.500000
O O6 0.363036 0.256354 0.750000
O O7 0.106537 0.293331 0.631192
O O8 0.426066 0.328062 0.601798
O O9 0.950994 0.871829 0.250000
O O10 0.002016 0.839423 0.449222
O O11 0.150397 0.924716 0.385645
O O12 0.604249 0.401666 0.535425
O O13 0.775363 0.323659 0.880507
O O14 0.872007 0.250000 0.000000
O O15 0.401157 0.882760 0.750000
#
# Coordination Sequence:
#
# PCOD8232668 Si02
#       6
#     8   8   8   8   8   8
#     4  10  20  35  56  80 108 143 181 225 277 333
#     4  10  21  37  56  80 110 145 187 234 283 338
#     4  10  21  36  55  81 112 145 184 231 281 334
#     4  10  20  35  54  79 109 141 181 225 274 333
#     4  10  21  36  55  79 108 144 184 228 278 332
#     4  10  20  35  54  77 107 142 181 225 274 330
#
# _framework density 20.180997999999999
#
# number of rings (size 3 to 8) (size 9 to 14) (size 15 to 20)
#    0.000    2.000    0.000    3.500    0.000    3.333 
#    0.000    5.833    0.000   16.000    0.000    0.000 
#    0.000    0.000    0.000    0.000    0.000    0.000 
#
# Total GULP energy -594875.979316 kJ/mol
# GULP energy per Si atom -12393.249569 kJ/mol
# Density = 2.013507 g / cm^3
# Si number density = 20.180998 Si / 1000 Ang^3
#
#
#
# Elastic Constant Matrix: (Units=GPa)
#
#
# Indices 1 2 3 4 5 6 
#
# 1 33.3472 -2.3409 -3.3475 0.0000 0.0000 0.0000
# 2 -2.3409 80.6098 26.9073 0.0000 0.0000 0.0000
# 3 -3.3475 26.9073 91.9266 0.0000 0.0000 0.0000
# 4 0.0000 0.0000 0.0000 4.3403 0.0000 0.0000
# 5 0.0000 0.0000 0.0000 0.0000 8.9895 0.0000
# 6 0.0000 0.0000 0.0000 0.0000 0.0000 110.9394
#
#
#
# Elastic Compliance Matrix: (Units=1/GPa)
#
#
# Indices 1 2 3 4 5 6 
#
# 1 0.030121 0.000564 0.000932 0.000000 0.000000 0.000000
# 2 0.000564 0.013759 -0.004007 0.000000 0.000000 0.000000
# 3 0.000932 -0.004007 0.012085 0.000000 0.000000 0.000000
# 4 0.000000 0.000000 0.000000 0.230398 0.000000 0.000000
# 5 0.000000 0.000000 0.000000 0.000000 0.111241 0.000000
# 6 0.000000 0.000000 0.000000 0.000000 0.000000 0.009014
#
#
# Mechanical properties :
#
#
# Convention : Reuss Voigt Hill
#
# Bulk Modulus (GPa) = 19.63007 27.59126 23.61067
# Shear Modulus (GPa) = 11.66530 37.16483 24.41506
#
# Velocity S-wave (km/s) = 2.40684 4.29601 3.48200
# Velocity P-wave (km/s) = 4.17995 6.18944 5.28116
#
# Compressibility (1/GPa) = 0.05094225
#
# Stress axis : x y z
#
# Youngs Moduli (GPa) = 33.19979 72.67817 82.74717
#
# Poissons Ratio (x) = -0.04097 -0.07711
# Poissons Ratio (y) = -0.01871 0.33156
# Poissons Ratio (z) = -0.03094 0.29121
#
# Static dielectric constant tensor:
#      x y z
#    x 3.751480 0.000000 0.000000 
#    y 0.000000 3.526750 0.000000 
#    z 0.000000 0.000000 3.614840 
# 
# 
# High freq. dielectric constant tensor:
#      x y z
#    x 1.798090 0.000000 0.000000 
#    y 0.000000 1.781830 0.000000 
#    z 0.000000 0.000000 1.791710 
# 
# From -- ./inp_files/11969.got.cif
#   From: 2010.03.12/outbox.cif.g09.slc.cpg/sg57_6_cif.got.tgz:11969.got - 2010.04.16 15:48:40.
