data_PCOD8232741
_publ_section_title
;
Structure prediction by ZEFSAII (Michael W. Deem and Ramdas Pophale) SiO2 
 PCOD8232741
Probable space group: P B C M
;
_chemical_formula_sum "Si O2"
_cell_formula_units_Z 64
_cell_length_a 14.270835
_cell_length_b 25.668635
_cell_length_c 8.797081
_cell_angle_alpha 90.000000
_cell_angle_beta 90.000000
_cell_angle_gamma 90.000000
_cell_volume 3222.483855
_symmetry_space_group_name_H-M "P B C M"
_symmetry_group_IT_number 57
_symmetry_cell_setting 'orthorhombic'
loop_
_space_group_symop_operation_xyz
x,y,z
-x,-y,1/2+z
x,1/2-y,-z
-x,1/2+y,1/2-z
-x,-y,-z
x,y,1/2-z
-x,1/2+y,z
x,1/2-y,1/2+z
loop_
_atom_site_type_symbol
_atom_site_label
_atom_site_fract_x
_atom_site_fract_y
_atom_site_fract_z
Si Si1 0.615536 0.899775 0.930033
Si Si2 0.904573 0.980604 0.427274
Si Si3 0.085299 0.139701 0.927601
Si Si4 0.258520 0.194781 0.069444
Si Si5 0.402817 0.903993 0.569375
Si Si6 0.922329 0.195755 0.429858
Si Si7 0.284962 0.996087 0.430319
Si Si8 0.291291 0.696781 0.072036
O O1 0.615908 0.900295 0.750000
O O2 0.665224 0.847221 0.989077
O O3 0.509367 0.902083 0.989485
O O4 0.671969 0.949687 0.991683
O O5 0.908339 0.992975 0.250000
O O6 0.888815 0.919811 0.461323
O O7 0.818094 0.011963 0.499900
O O8 0.000000 0.000000 0.500000
O O9 0.086089 0.152450 0.750000
O O10 0.156738 0.177864 0.011926
O O11 0.982468 0.149513 0.996467
O O12 0.256189 0.198880 0.250000
O O13 0.287750 0.250000 0.000000
O O14 0.395005 0.911949 0.750000
O O15 0.352530 0.950832 0.485307
O O16 0.355094 0.850504 0.515444
O O17 0.958010 0.250000 0.500000
O O18 0.935814 0.196619 0.250000
O O19 0.815243 0.185449 0.478371
O O20 0.277042 0.995172 0.250000
O O21 0.298267 0.703955 0.250000
O O22 0.329642 0.750000 0.000000
#
# Coordination Sequence:
#
# PCOD8232741 Si02
#       8
#     8   8   8   8   8   8   8   8
#     4   9  20  39  62  86 120 159 200 251 306 356
#     4  11  25  42  62  90 123 159 197 244 299 360
#     4  11  23  39  59  86 116 153 196 244 295 356
#     4  11  22  39  61  88 122 163 204 254 307 365
#     4  10  21  39  62  90 119 157 202 250 305 361
#     4  10  20  35  55  81 112 151 192 236 286 346
#     4  11  22  40  63  91 121 159 203 246 299 361
#     4   9  20  37  58  84 117 154 193 238 295 352
#
# _framework density 19.860458000000001
#
# number of rings (size 3 to 8) (size 9 to 14) (size 15 to 20)
#    0.000    1.750    1.250    2.625    1.750    3.000 
#    0.000    1.875    0.000    0.000    0.000    0.000 
#    0.000    0.000    0.000    0.000    0.000    0.000 
#
# Total GULP energy -793909.582800 kJ/mol
# GULP energy per Si atom -12404.837231 kJ/mol
# Density = 1.981525 g / cm^3
# Si number density = 19.860458 Si / 1000 Ang^3
#
#
#
# Elastic Constant Matrix: (Units=GPa)
#
#
# Indices 1 2 3 4 5 6 
#
# 1 147.0162 70.8888 41.8996 0.0000 0.0000 0.0000
# 2 70.8888 130.5155 48.8303 0.0000 0.0000 0.0000
# 3 41.8996 48.8303 75.8080 0.0000 0.0000 0.0000
# 4 0.0000 0.0000 0.0000 33.1367 0.0000 0.0000
# 5 0.0000 0.0000 0.0000 0.0000 24.0340 0.0000
# 6 0.0000 0.0000 0.0000 0.0000 0.0000 35.2987
#
#
#
# Elastic Compliance Matrix: (Units=1/GPa)
#
#
# Indices 1 2 3 4 5 6 
#
# 1 0.009578 -0.004245 -0.002560 0.000000 0.000000 0.000000
# 2 -0.004245 0.011976 -0.005368 0.000000 0.000000 0.000000
# 3 -0.002560 -0.005368 0.018064 0.000000 0.000000 0.000000
# 4 0.000000 0.000000 0.000000 0.030178 0.000000 0.000000
# 5 0.000000 0.000000 0.000000 0.000000 0.041608 0.000000
# 6 0.000000 0.000000 0.000000 0.000000 0.000000 0.028330
#
#
# Mechanical properties :
#
#
# Convention : Reuss Voigt Hill
#
# Bulk Modulus (GPa) = 65.47557 75.17523 70.32540
# Shear Modulus (GPa) = 29.55631 31.27528 30.41580
#
# Velocity S-wave (km/s) = 3.86190 3.97262 3.91765
# Velocity P-wave (km/s) = 7.27496 7.67959 7.48002
#
# Compressibility (1/GPa) = 0.01527287
#
# Stress axis : x y z
#
# Youngs Moduli (GPa) = 104.40358 83.50268 55.35974
#
# Poissons Ratio (x) = 0.35444 0.14171
# Poissons Ratio (y) = 0.44315 0.29716
# Poissons Ratio (z) = 0.26726 0.44823
#
# Static dielectric constant tensor:
#      x y z
#    x 3.754130 0.000000 0.000000 
#    y 0.000000 3.759780 0.000000 
#    z 0.000000 0.000000 3.495510 
# 
# 
# High freq. dielectric constant tensor:
#      x y z
#    x 1.783510 0.000000 0.000000 
#    y 0.000000 1.781860 0.000000 
#    z 0.000000 0.000000 1.767760 
# 
# From -- ./inp_files/5715.got.cif
#   From: 2010.03.12/outbox.cif.g09.slc.cpg/sg57_3_cif.got.tgz:5715.got - 2010.04.16 15:48:40.
