data_PCOD8232170
_publ_section_title
;
Structure prediction by ZEFSAII (Michael W. Deem and Ramdas Pophale) SiO2 
 PCOD8232170
Probable space group: P B C M
;
_chemical_formula_sum "Si O2"
_cell_formula_units_Z 64
_cell_length_a 21.454318
_cell_length_b 20.127226
_cell_length_c 8.880476
_cell_angle_alpha 90.000000
_cell_angle_beta 90.000000
_cell_angle_gamma 90.000000
_cell_volume 3834.730799
_symmetry_space_group_name_H-M "P B C M"
_symmetry_group_IT_number 57
_symmetry_cell_setting 'orthorhombic'
loop_
_space_group_symop_operation_xyz
x,y,z
-x,-y,1/2+z
x,1/2-y,-z
-x,1/2+y,1/2-z
-x,-y,-z
x,y,1/2-z
-x,1/2+y,z
x,1/2-y,1/2+z
loop_
_atom_site_type_symbol
_atom_site_label
_atom_site_fract_x
_atom_site_fract_y
_atom_site_fract_z
Si Si1 0.086806 0.970824 0.415391
Si Si2 0.810285 0.950687 0.073151
Si Si3 0.547446 0.949843 0.572443
Si Si4 0.130177 0.177753 0.430348
Si Si5 0.538978 0.687458 0.915430
Si Si6 0.008996 0.396560 0.584961
Si Si7 0.312596 0.053359 0.425501
Si Si8 0.316684 0.311782 0.083170
O O1 0.113839 0.953497 0.250000
O O2 0.050847 0.905023 0.476405
O O3 0.141817 0.991787 0.527248
O O4 0.040021 0.031715 0.400283
O O5 0.813033 0.940225 0.250000
O O6 0.823306 0.878854 0.995238
O O7 0.742756 0.979997 0.022094
O O8 0.540150 0.949650 0.750000
O O9 0.528816 0.877740 0.513719
O O10 0.618165 0.971257 0.526848
O O11 0.500000 0.000000 0.500000
O O12 0.145060 0.250000 0.500000
O O13 0.137322 0.178943 0.250000
O O14 0.059510 0.156546 0.477363
O O15 0.508171 0.678035 0.750000
O O16 0.611172 0.703773 0.892146
O O17 0.506999 0.750000 0.000000
O O18 0.985835 0.373618 0.750000
O O19 0.300441 0.041508 0.250000
O O20 0.307756 0.130418 0.464285
O O21 0.286975 0.325938 0.250000
O O22 0.283185 0.250000 0.000000
#
# Coordination Sequence:
#
# PCOD8232170 Si02
#       8
#     8   8   8   8   8   8   8   8
#     4   9  16  27  44  64  85 110 143 183 223 262
#     4  11  21  32  46  63  86 117 152 190 231 274
#     4  10  20  33  50  70  94 124 157 197 245 295
#     4  10  20  33  47  65  92 124 158 193 227 266
#     4   9  16  27  44  65  90 117 148 185 225 272
#     4   8  15  27  43  63  86 113 145 182 221 259
#     4  10  20  33  46  62  86 116 151 190 231 275
#     4   9  16  26  40  58  79 107 143 180 216 255
#
# _framework density 16.689568000000001
#
# number of rings (size 3 to 8) (size 9 to 14) (size 15 to 20)
#    0.000    2.500    0.000    4.125    0.000    8.500 
#    0.000    2.500    0.000    0.000    0.000    0.000 
#    0.000    1.000    0.000    7.000    0.000    5.000 
#
# Total GULP energy -793036.084543 kJ/mol
# GULP energy per Si atom -12391.188821 kJ/mol
# Density = 1.665158 g / cm^3
# Si number density = 16.689568 Si / 1000 Ang^3
#
#
#
# Elastic Constant Matrix: (Units=GPa)
#
#
# Indices 1 2 3 4 5 6 
#
# 1 85.3920 38.4018 49.6970 0.0000 0.0000 0.0000
# 2 38.4018 44.4429 32.5233 0.0000 0.0000 0.0000
# 3 49.6970 32.5233 108.4064 0.0000 0.0000 0.0000
# 4 0.0000 0.0000 0.0000 22.2863 0.0000 0.0000
# 5 0.0000 0.0000 0.0000 0.0000 23.4049 0.0000
# 6 0.0000 0.0000 0.0000 0.0000 0.0000 13.1113
#
#
#
# Elastic Compliance Matrix: (Units=1/GPa)
#
#
# Indices 1 2 3 4 5 6 
#
# 1 0.021414 -0.014503 -0.005466 0.000000 0.000000 0.000000
# 2 -0.014503 0.038653 -0.004948 0.000000 0.000000 0.000000
# 3 -0.005466 -0.004948 0.013215 0.000000 0.000000 0.000000
# 4 0.000000 0.000000 0.000000 0.044871 0.000000 0.000000
# 5 0.000000 0.000000 0.000000 0.000000 0.042726 0.000000
# 6 0.000000 0.000000 0.000000 0.000000 0.000000 0.076270
#
#
# Mechanical properties :
#
#
# Convention : Reuss Voigt Hill
#
# Bulk Modulus (GPa) = 42.64671 53.27615 47.96143
# Shear Modulus (GPa) = 16.96075 19.60179 18.28127
#
# Velocity S-wave (km/s) = 3.19132 3.43081 3.31323
# Velocity P-wave (km/s) = 6.26001 6.90544 6.59063
#
# Compressibility (1/GPa) = 0.02344847
#
# Stress axis : x y z
#
# Youngs Moduli (GPa) = 46.69847 25.87091 75.67420
#
# Poissons Ratio (x) = 0.37522 0.41361
# Poissons Ratio (y) = 0.67729 0.37441
# Poissons Ratio (z) = 0.25524 0.12800
#
# Static dielectric constant tensor:
#      x y z
#    x 3.178170 0.000000 0.000000 
#    y 0.000000 2.867280 0.000000 
#    z 0.000000 0.000000 3.459810 
# 
# 
# High freq. dielectric constant tensor:
#      x y z
#    x 1.617440 0.000000 0.000000 
#    y 0.000000 1.596270 0.000000 
#    z 0.000000 0.000000 1.664540 
# 
# From -- ./inp_files/8700.got.cif
#   From: 2010.03.12/outbox.cif.g09.slc.cpg/sg57_5_cif.got.tgz:8700.got - 2010.04.16 15:48:40.
