data_PCOD8232578
_publ_section_title
;
Structure prediction by ZEFSAII (Michael W. Deem and Ramdas Pophale) SiO2 
 PCOD8232578
Probable space group: P B C M
;
_chemical_formula_sum "Si O2"
_cell_formula_units_Z 48
_cell_length_a 14.931826
_cell_length_b 18.444606
_cell_length_c 9.207037
_cell_angle_alpha 90.000000
_cell_angle_beta 90.000000
_cell_angle_gamma 90.000000
_cell_volume 2535.725228
_symmetry_space_group_name_H-M "P B C M"
_symmetry_group_IT_number 57
_symmetry_cell_setting 'orthorhombic'
loop_
_space_group_symop_operation_xyz
x,y,z
-x,-y,1/2+z
x,1/2-y,-z
-x,1/2+y,1/2-z
-x,-y,-z
x,y,1/2-z
-x,1/2+y,z
x,1/2-y,1/2+z
loop_
_atom_site_type_symbol
_atom_site_label
_atom_site_fract_x
_atom_site_fract_y
_atom_site_fract_z
Si Si1 0.851996 0.554894 0.082564
Si Si2 0.657923 0.098695 0.581850
Si Si3 0.647201 0.567054 0.414917
Si Si4 0.988232 0.676378 0.418440
Si Si5 0.164867 0.591946 0.080780
Si Si6 0.476286 0.175633 0.579461
O O1 0.871773 0.535232 0.250000
O O2 0.751678 0.585076 0.064511
O O3 0.920193 0.615173 0.023433
O O4 0.867089 0.482838 0.990016
O O5 0.685511 0.104220 0.750000
O O6 0.743446 0.122106 0.487887
O O7 0.577166 0.151914 0.541220
O O8 0.628695 0.016687 0.545690
O O9 0.616520 0.583776 0.250000
O O10 0.592061 0.614759 0.526903
O O11 0.966841 0.750000 0.500000
O O12 0.970400 0.690128 0.250000
O O13 0.089766 0.652174 0.448429
O O14 0.180104 0.577943 0.250000
O O15 0.453676 0.250000 0.500000
O O16 0.463086 0.186141 0.750000
#
# Coordination Sequence:
#
# PCOD8232578 Si02
#       6
#     8   8   8   8   8   8
#     4   9  19  37  58  80 108 140 176 219 265 315
#     4   9  20  38  58  79 105 140 178 218 267 316
#     4   9  18  35  58  81 105 135 174 221 267 312
#     4  10  22  37  53  78 111 145 180 218 263 315
#     4  10  20  34  56  84 108 136 178 223 265 312
#     4  11  23  37  54  78 109 144 178 215 264 318
#
# _framework density 18.929497000000001
#
# number of rings (size 3 to 8) (size 9 to 14) (size 15 to 20)
#    0.000    2.333    0.000    3.000    0.000    7.333 
#    0.000    5.000    0.000    0.000    0.000    0.000 
#    0.000    0.000    0.000    0.000    0.000    0.000 
#
# Total GULP energy -595387.320709 kJ/mol
# GULP energy per Si atom -12403.902515 kJ/mol
# Density = 1.888641 g / cm^3
# Si number density = 18.929497 Si / 1000 Ang^3
#
#
#
# Elastic Constant Matrix: (Units=GPa)
#
#
# Indices 1 2 3 4 5 6 
#
# 1 46.9967 7.3607 28.7375 0.0000 0.0000 0.0000
# 2 7.3607 39.0825 23.2095 0.0000 0.0000 0.0000
# 3 28.7375 23.2095 69.0826 0.0000 0.0000 0.0000
# 4 0.0000 0.0000 0.0000 32.8723 0.0000 0.0000
# 5 0.0000 0.0000 0.0000 0.0000 31.8913 0.0000
# 6 0.0000 0.0000 0.0000 0.0000 0.0000 16.5362
#
#
#
# Elastic Compliance Matrix: (Units=1/GPa)
#
#
# Indices 1 2 3 4 5 6 
#
# 1 0.028675 0.002103 -0.012635 0.000000 0.000000 0.000000
# 2 0.002103 0.032119 -0.011666 0.000000 0.000000 0.000000
# 3 -0.012635 -0.011666 0.023651 0.000000 0.000000 0.000000
# 4 0.000000 0.000000 0.000000 0.030421 0.000000 0.000000
# 5 0.000000 0.000000 0.000000 0.000000 0.031357 0.000000
# 6 0.000000 0.000000 0.000000 0.000000 0.000000 0.060474
#
#
# Mechanical properties :
#
#
# Convention : Reuss Voigt Hill
#
# Bulk Modulus (GPa) = 24.96958 30.41969 27.69464
# Shear Modulus (GPa) = 18.90794 22.65022 20.77908
#
# Velocity S-wave (km/s) = 3.16391 3.46288 3.31676
# Velocity P-wave (km/s) = 5.15427 5.66512 5.41572
#
# Compressibility (1/GPa) = 0.04004872
#
# Stress axis : x y z
#
# Youngs Moduli (GPa) = 34.87407 31.13465 42.28225
#
# Poissons Ratio (x) = -0.06547 0.53423
# Poissons Ratio (y) = -0.07333 0.49325
# Poissons Ratio (z) = 0.44063 0.36320
#
# Static dielectric constant tensor:
#      x y z
#    x 3.558750 0.000000 0.000000 
#    y 0.000000 3.364110 0.000000 
#    z 0.000000 0.000000 3.432150 
# 
# 
# High freq. dielectric constant tensor:
#      x y z
#    x 1.744020 0.000000 0.000000 
#    y 0.000000 1.728680 0.000000 
#    z 0.000000 0.000000 1.735960 
# 
# From -- ./inp_files/4541.got.cif
#   From: 2010.03.12/outbox.cif.g09.slc.cpg/sg57_3_cif.got.tgz:4541.got - 2010.04.16 15:48:40.
