data_PCOD8232014
_publ_section_title
;
Structure prediction by ZEFSAII (Michael W. Deem and Ramdas Pophale) SiO2 
 PCOD8232014
Probable space group: P B C M
;
_chemical_formula_sum "Si O2"
_cell_formula_units_Z 64
_cell_length_a 11.821356
_cell_length_b 16.416709
_cell_length_c 14.689839
_cell_angle_alpha 90.000000
_cell_angle_beta 90.000000
_cell_angle_gamma 90.000000
_cell_volume 2850.824171
_symmetry_space_group_name_H-M "P B C M"
_symmetry_group_IT_number 57
_symmetry_cell_setting 'orthorhombic'
loop_
_space_group_symop_operation_xyz
x,y,z
-x,-y,1/2+z
x,1/2-y,-z
-x,1/2+y,1/2-z
-x,-y,-z
x,y,1/2-z
-x,1/2+y,z
x,1/2-y,1/2+z
loop_
_atom_site_type_symbol
_atom_site_label
_atom_site_fract_x
_atom_site_fract_y
_atom_site_fract_z
Si Si1 0.352864 0.429850 0.150139
Si Si2 0.726560 0.133812 0.643028
Si Si3 0.489047 0.909731 0.651735
Si Si4 0.968667 0.878848 0.641369
Si Si5 0.741097 0.953177 0.644995
Si Si6 0.032652 0.800224 0.357424
Si Si7 0.484646 0.834385 0.470183
Si Si8 0.901748 0.539727 0.642494
O O1 0.340238 0.386766 0.250000
O O2 0.444197 0.500069 0.162342
O O3 0.404177 0.374128 0.072434
O O4 0.230711 0.460624 0.116398
O O5 0.704546 0.130030 0.750000
O O6 0.836116 0.186658 0.618682
O O7 0.616947 0.176280 0.600418
O O8 0.739307 0.043154 0.600614
O O9 0.465611 0.864760 0.750000
O O10 0.622614 0.908471 0.630907
O O11 0.431497 0.873173 0.562354
O O12 0.977689 0.873676 0.750000
O O13 0.001104 0.789194 0.600865
O O14 0.842042 0.898037 0.604735
O O15 0.046300 0.954311 0.604804
O O16 0.770089 0.966993 0.750000
O O17 0.011650 0.798412 0.250000
O O18 0.960888 0.877536 0.397818
O O19 0.536397 0.750000 0.500000
O O20 0.921134 0.540143 0.750000
#
# Coordination Sequence:
#
# PCOD8232014 Si02
#       8
#     8   8   8   8   8   8   8   8
#     4  10  21  39  64  91 127 168 209 256 316 380
#     4  10  19  36  63  91 124 168 212 258 320 382
#     4  10  22  41  65  91 117 161 220 272 316 375
#     4   9  16  28  52  90 125 160 212 261 310 372
#     4   9  16  31  60  90 117 158 215 263 309 377
#     4   9  17  30  54  89 127 163 206 261 309 369
#     4  12  26  40  60  91 128 168 208 265 319 386
#     4   9  17  31  54  87 125 164 202 249 310 373
#
# _framework density 22.449648
#
# number of rings (size 3 to 8) (size 9 to 14) (size 15 to 20)
#    0.000    2.250    2.500    0.750    0.000    3.000 
#    0.000    5.000    0.000    5.250    0.000    0.000 
#    0.000    0.000    0.000    0.000    0.000    0.000 
#
# Total GULP energy -793024.338740 kJ/mol
# GULP energy per Si atom -12391.005293 kJ/mol
# Density = 2.239855 g / cm^3
# Si number density = 22.449648 Si / 1000 Ang^3
#
#
#
# Elastic Constant Matrix: (Units=GPa)
#
#
# Indices 1 2 3 4 5 6 
#
# 1 126.8348 33.0832 29.4499 0.0000 0.0000 0.0000
# 2 33.0832 123.1056 27.9471 0.0000 0.0000 0.0000
# 3 29.4499 27.9471 57.3311 0.0000 0.0000 0.0000
# 4 0.0000 0.0000 0.0000 35.9122 0.0000 0.0000
# 5 0.0000 0.0000 0.0000 0.0000 11.8436 0.0000
# 6 0.0000 0.0000 0.0000 0.0000 0.0000 71.8430
#
#
#
# Elastic Compliance Matrix: (Units=1/GPa)
#
#
# Indices 1 2 3 4 5 6 
#
# 1 0.009216 -0.001576 -0.003966 0.000000 0.000000 0.000000
# 2 -0.001576 0.009404 -0.003774 0.000000 0.000000 0.000000
# 3 -0.003966 -0.003774 0.021319 0.000000 0.000000 0.000000
# 4 0.000000 0.000000 0.000000 0.027846 0.000000 0.000000
# 5 0.000000 0.000000 0.000000 0.000000 0.084434 0.000000
# 6 0.000000 0.000000 0.000000 0.000000 0.000000 0.013919
#
#
# Mechanical properties :
#
#
# Convention : Reuss Voigt Hill
#
# Bulk Modulus (GPa) = 46.93391 54.24801 50.59096
# Shear Modulus (GPa) = 26.05892 38.37251 32.21571
#
# Velocity S-wave (km/s) = 3.41071 4.13882 3.79228
# Velocity P-wave (km/s) = 6.03840 6.85977 6.46215
#
# Compressibility (1/GPa) = 0.02130656
#
# Stress axis : x y z
#
# Youngs Moduli (GPa) = 108.50352 106.34271 46.90556
#
# Poissons Ratio (x) = 0.16765 0.18602
# Poissons Ratio (y) = 0.17105 0.17703
# Poissons Ratio (z) = 0.43030 0.40135
#
# Static dielectric constant tensor:
#      x y z
#    x 3.948030 0.000000 0.000000 
#    y 0.000000 4.194660 0.000000 
#    z 0.000000 0.000000 4.110330 
# 
# 
# High freq. dielectric constant tensor:
#      x y z
#    x 1.886150 0.000000 0.000000 
#    y 0.000000 1.870710 0.000000 
#    z 0.000000 0.000000 1.867830 
# 
# From -- ./inp_files/17977.got.cif
#   From: 2010.03.12/outbox.cif.g09.slc.cpg/sg57_9_cif.got.tgz:17977.got - 2010.04.16 15:48:40.
