data_PCOD8232003
_publ_section_title
;
Structure prediction by ZEFSAII (Michael W. Deem and Ramdas Pophale) SiO2 
 PCOD8232003
Probable space group: P B C M
;
_chemical_formula_sum "Si O2"
_cell_formula_units_Z 24
_cell_length_a 9.350777
_cell_length_b 8.499855
_cell_length_c 15.023964
_cell_angle_alpha 90.000000
_cell_angle_beta 90.000000
_cell_angle_gamma 90.000000
_cell_volume 1194.108394
_symmetry_space_group_name_H-M "P B C M"
_symmetry_group_IT_number 57
_symmetry_cell_setting 'orthorhombic'
loop_
_space_group_symop_operation_xyz
x,y,z
-x,-y,1/2+z
x,1/2-y,-z
-x,1/2+y,1/2-z
-x,-y,-z
x,y,1/2-z
-x,1/2+y,z
x,1/2-y,1/2+z
loop_
_atom_site_type_symbol
_atom_site_label
_atom_site_fract_x
_atom_site_fract_y
_atom_site_fract_z
Si Si1 0.657816 0.935271 0.992125
Si Si2 0.150874 0.906732 0.348866
Si Si3 0.091253 0.930348 0.582732
O O1 0.726090 0.993445 0.898716
O O2 0.654993 0.750000 0.000000
O O3 0.500000 0.000000 0.000000
O O4 0.749966 0.997707 0.076223
O O5 0.205727 0.859528 0.250000
O O6 0.111326 0.756922 0.410381
O O7 0.004854 0.008900 0.334873
O O8 0.000000 0.000000 0.500000
#
# Coordination Sequence:
#
# PCOD8232003 Si02
#       3
#     8   8   8
#     4  11  22  40  62  83 115 159 202 243 298 373
#     4  11  22  38  60  91 122 153 199 256 301 346
#     4  10  19  36  61  86 118 158 198 239 296 367
#
# _framework density 20.098678
#
# number of rings (size 3 to 8) (size 9 to 14) (size 15 to 20)
#    0.000    1.333    0.000   11.000    0.000    0.000 
#    0.000   10.000    0.000    0.000    0.000    0.000 
#    0.000    0.000    0.000    0.000    0.000    0.000 
#
# Total GULP energy -297318.659844 kJ/mol
# GULP energy per Si atom -12388.277493 kJ/mol
# Density = 2.005293 g / cm^3
# Si number density = 20.098678 Si / 1000 Ang^3
#
#
#
# Elastic Constant Matrix: (Units=GPa)
#
#
# Indices 1 2 3 4 5 6 
#
# 1 183.7940 74.1276 39.9908 0.0000 0.0000 0.0000
# 2 74.1276 188.2617 43.1224 0.0000 0.0000 0.0000
# 3 39.9908 43.1224 115.0237 0.0000 0.0000 0.0000
# 4 0.0000 0.0000 0.0000 21.6934 0.0000 0.0000
# 5 0.0000 0.0000 0.0000 0.0000 12.0315 0.0000
# 6 0.0000 0.0000 0.0000 0.0000 0.0000 38.5035
#
#
#
# Elastic Compliance Matrix: (Units=1/GPa)
#
#
# Indices 1 2 3 4 5 6 
#
# 1 0.006686 -0.002297 -0.001463 0.000000 0.000000 0.000000
# 2 -0.002297 0.006600 -0.001676 0.000000 0.000000 0.000000
# 3 -0.001463 -0.001676 0.009831 0.000000 0.000000 0.000000
# 4 0.000000 0.000000 0.000000 0.046097 0.000000 0.000000
# 5 0.000000 0.000000 0.000000 0.000000 0.083115 0.000000
# 6 0.000000 0.000000 0.000000 0.000000 0.000000 0.025972
#
#
# Mechanical properties :
#
#
# Convention : Reuss Voigt Hill
#
# Bulk Modulus (GPa) = 81.67075 89.06235 85.36655
# Shear Modulus (GPa) = 25.87266 36.43493 31.15380
#
# Velocity S-wave (km/s) = 3.59176 4.26232 3.94133
# Velocity P-wave (km/s) = 7.61079 8.28444 7.95475
#
# Compressibility (1/GPa) = 0.01224429
#
# Stress axis : x y z
#
# Youngs Moduli (GPa) = 149.57030 151.51152 101.72133
#
# Poissons Ratio (x) = 0.34808 0.14884
# Poissons Ratio (y) = 0.34362 0.17045
# Poissons Ratio (z) = 0.21885 0.25388
#
# Static dielectric constant tensor:
#      x y z
#    x 3.949640 0.000000 0.000000 
#    y 0.000000 3.891350 0.000000 
#    z 0.000000 0.000000 4.074110 
# 
# 
# High freq. dielectric constant tensor:
#      x y z
#    x 1.783670 0.000000 0.000000 
#    y 0.000000 1.806080 0.000000 
#    z 0.000000 0.000000 1.767670 
# 
# From -- ./inp_files/15357.got.cif
#   From: 2010.03.12/outbox.cif.g09.slc.cpg/sg57_8_cif.got.tgz:15357.got - 2010.04.16 15:48:40.
