data_PCOD8232408
_publ_section_title
;
Structure prediction by ZEFSAII (Michael W. Deem and Ramdas Pophale) SiO2 
 PCOD8232408
Probable space group: P B C M
;
_chemical_formula_sum "Si O2"
_cell_formula_units_Z 48
_cell_length_a 15.472115
_cell_length_b 19.240758
_cell_length_c 8.733936
_cell_angle_alpha 90.000000
_cell_angle_beta 90.000000
_cell_angle_gamma 90.000000
_cell_volume 2600.051003
_symmetry_space_group_name_H-M "P B C M"
_symmetry_group_IT_number 57
_symmetry_cell_setting 'orthorhombic'
loop_
_space_group_symop_operation_xyz
x,y,z
-x,-y,1/2+z
x,1/2-y,-z
-x,1/2+y,1/2-z
-x,-y,-z
x,y,1/2-z
-x,1/2+y,z
x,1/2-y,1/2+z
loop_
_atom_site_type_symbol
_atom_site_label
_atom_site_fract_x
_atom_site_fract_y
_atom_site_fract_z
Si Si1 0.598578 0.921016 0.576370
Si Si2 0.769928 0.917126 0.075319
Si Si3 0.586054 0.065028 0.074211
Si Si4 0.226651 0.918537 0.922691
Si Si5 0.091908 0.677094 0.929078
Si Si6 0.089771 0.176561 0.429991
O O1 0.628485 0.908405 0.750000
O O2 0.673538 0.889675 0.468411
O O3 0.501639 0.888967 0.547262
O O4 0.587098 0.002894 0.547276
O O5 0.788432 0.896822 0.250000
O O6 0.775856 0.999184 0.046493
O O7 0.839925 0.881359 0.967883
O O8 0.586055 0.035752 0.250000
O O9 0.674671 0.108805 0.051117
O O10 0.195887 0.901980 0.750000
O O11 0.164075 0.880778 0.040843
O O12 0.078395 0.686676 0.750000
O O13 0.122633 0.750000 0.000000
O O14 0.001837 0.652295 0.001938
O O15 0.119094 0.250000 0.500000
O O16 0.080241 0.184865 0.250000
#
# Coordination Sequence:
#
# PCOD8232408 Si02
#       6
#     8   8   8   8   8   8
#     4   9  15  25  44  71 101 134 171 208 249 297
#     4  10  20  34  52  77 108 138 169 209 255 300
#     4   8  15  27  44  68 101 137 169 206 250 297
#     4   9  18  33  52  76 106 137 170 210 253 295
#     4  11  22  37  56  76 100 132 170 209 253 306
#     4  11  22  38  58  77 100 132 170 209 252 305
#
# _framework density 18.461176999999999
#
# number of rings (size 3 to 8) (size 9 to 14) (size 15 to 20)
#    0.000    2.333    0.000    6.000    0.000    4.667 
#    0.000    0.000    0.000    1.000    0.000    4.667 
#    0.000    0.000    0.000    0.000    0.000    0.000 
#
# Total GULP energy -594923.607403 kJ/mol
# GULP energy per Si atom -12394.241821 kJ/mol
# Density = 1.841916 g / cm^3
# Si number density = 18.461177 Si / 1000 Ang^3
#
#
#
# Elastic Constant Matrix: (Units=GPa)
#
#
# Indices 1 2 3 4 5 6 
#
# 1 142.6043 47.9696 50.9633 0.0000 0.0000 0.0000
# 2 47.9696 39.6479 28.1053 0.0000 0.0000 0.0000
# 3 50.9633 28.1053 116.3439 0.0000 0.0000 0.0000
# 4 0.0000 0.0000 0.0000 23.1686 0.0000 0.0000
# 5 0.0000 0.0000 0.0000 0.0000 32.7133 0.0000
# 6 0.0000 0.0000 0.0000 0.0000 0.0000 -0.9173
#
#
#
# Elastic Compliance Matrix: (Units=1/GPa)
#
#
# Indices 1 2 3 4 5 6 
#
# 1 0.012257 -0.013302 -0.002156 0.000000 0.000000 0.000000
# 2 -0.013302 0.044869 -0.005012 0.000000 0.000000 0.000000
# 3 -0.002156 -0.005012 0.010750 0.000000 0.000000 0.000000
# 4 0.000000 0.000000 0.000000 0.043162 0.000000 0.000000
# 5 0.000000 0.000000 0.000000 0.000000 0.030569 0.000000
# 6 0.000000 0.000000 0.000000 0.000000 0.000000 -1.090108
#
#
# Mechanical properties :
#
#
# Convention : Reuss Voigt Hill
#
# Bulk Modulus (GPa) = 37.12417 61.40806 49.26612
# Shear Modulus (GPa) = -5.56432 22.43011 8.43289
#
# Velocity S-wave (km/s) = -1.73799 3.48945 2.13958
# Velocity P-wave (km/s) = 4.01566 7.04064 5.73132
#
# Compressibility (1/GPa) = 0.02693663
#
# Stress axis : x y z
#
# Youngs Moduli (GPa) = 81.58352 22.28718 93.01989
#
# Poissons Ratio (x) = 0.29646 0.20054
# Poissons Ratio (y) = 1.08521 0.46624
# Poissons Ratio (z) = 0.17588 0.11171
#
# Static dielectric constant tensor:
#      x y z
#    x 3.800120 0.000000 0.000000 
#    y 0.000000 2.873130 0.000000 
#    z 0.000000 0.000000 3.443020 
# 
# 
# High freq. dielectric constant tensor:
#      x y z
#    x 1.740150 0.000000 0.000000 
#    y 0.000000 1.654420 0.000000 
#    z 0.000000 0.000000 1.727740 
# 
# From -- ./inp_files/4842.got.cif
#   From: 2010.03.12/outbox.cif.g09.slc.cpg/sg57_3_cif.got.tgz:4842.got - 2010.04.16 15:48:40.
