data_PCOD8232555
_publ_section_title
;
Structure prediction by ZEFSAII (Michael W. Deem and Ramdas Pophale) SiO2 
 PCOD8232555
Probable space group: P B C M
;
_chemical_formula_sum "Si O2"
_cell_formula_units_Z 40
_cell_length_a 13.541628
_cell_length_b 18.165147
_cell_length_c 8.667234
_cell_angle_alpha 90.000000
_cell_angle_beta 90.000000
_cell_angle_gamma 90.000000
_cell_volume 2132.015304
_symmetry_space_group_name_H-M "P B C M"
_symmetry_group_IT_number 57
_symmetry_cell_setting 'orthorhombic'
loop_
_space_group_symop_operation_xyz
x,y,z
-x,-y,1/2+z
x,1/2-y,-z
-x,1/2+y,1/2-z
-x,-y,-z
x,y,1/2-z
-x,1/2+y,z
x,1/2-y,1/2+z
loop_
_atom_site_type_symbol
_atom_site_label
_atom_site_fract_x
_atom_site_fract_y
_atom_site_fract_z
Si Si1 0.607889 0.901910 0.430876
Si Si2 0.301471 0.541563 0.931625
Si Si3 0.186882 0.171630 0.570291
Si Si4 0.098485 0.032629 0.068677
Si Si5 0.585939 0.170479 0.067497
O O1 0.596813 0.918082 0.250000
O O2 0.700898 0.850164 0.467919
O O3 0.513836 0.859258 0.492452
O O4 0.619695 0.979385 0.518592
O O5 0.311466 0.554788 0.750000
O O6 0.191595 0.517452 0.981210
O O7 0.324364 0.616671 0.021978
O O8 0.162644 0.250000 0.500000
O O9 0.166148 0.173431 0.750000
O O10 0.111344 0.114476 0.495181
O O11 0.089413 0.036493 0.250000
O O12 0.000000 0.000000 0.000000
O O13 0.573525 0.175294 0.250000
O O14 0.611421 0.250000 0.000000
#
# Coordination Sequence:
#
# PCOD8232555 Si02
#       5
#     8   8   8   8   8
#     4  10  20  35  56  82 112 147 184 223 267 320
#     4  10  21  38  58  81 109 143 182 224 270 323
#     4  10  20  34  55  83 114 144 179 224 274 322
#     4  10  21  38  61  84 109 141 180 225 274 328
#     4  12  24  37  54  78 111 149 186 226 269 319
#
# _framework density 18.761593000000001
#
# number of rings (size 3 to 8) (size 9 to 14) (size 15 to 20)
#    0.000    1.600    0.000    5.400    0.000    6.400 
#    0.000    1.000    0.000    4.800    0.000    0.000 
#    0.000    0.000    0.000    0.000    0.000    0.000 
#
# Total GULP energy -496226.757666 kJ/mol
# GULP energy per Si atom -12405.668942 kJ/mol
# Density = 1.871889 g / cm^3
# Si number density = 18.761593 Si / 1000 Ang^3
#
#
#
# Elastic Constant Matrix: (Units=GPa)
#
#
# Indices 1 2 3 4 5 6 
#
# 1 95.1725 63.4514 31.9875 0.0000 0.0000 0.0000
# 2 63.4514 144.7734 29.3295 0.0000 0.0000 0.0000
# 3 31.9875 29.3295 58.3202 0.0000 0.0000 0.0000
# 4 0.0000 0.0000 0.0000 38.6544 0.0000 0.0000
# 5 0.0000 0.0000 0.0000 0.0000 32.0301 0.0000
# 6 0.0000 0.0000 0.0000 0.0000 0.0000 27.5965
#
#
#
# Elastic Compliance Matrix: (Units=1/GPa)
#
#
# Indices 1 2 3 4 5 6 
#
# 1 0.016563 -0.006034 -0.006050 0.000000 0.000000 0.000000
# 2 -0.006034 0.009889 -0.001664 0.000000 0.000000 0.000000
# 3 -0.006050 -0.001664 0.021302 0.000000 0.000000 0.000000
# 4 0.000000 0.000000 0.000000 0.025870 0.000000 0.000000
# 5 0.000000 0.000000 0.000000 0.000000 0.031221 0.000000
# 6 0.000000 0.000000 0.000000 0.000000 0.000000 0.036236
#
#
# Mechanical properties :
#
#
# Convention : Reuss Voigt Hill
#
# Bulk Modulus (GPa) = 49.36183 60.86698 55.11440
# Shear Modulus (GPa) = 28.51765 31.22272 29.87018
#
# Velocity S-wave (km/s) = 3.90295 4.08387 3.99443
# Velocity P-wave (km/s) = 6.83212 7.39933 7.12137
#
# Compressibility (1/GPa) = 0.02025857
#
# Stress axis : x y z
#
# Youngs Moduli (GPa) = 60.37405 101.12383 46.94415
#
# Poissons Ratio (x) = 0.61015 0.28403
# Poissons Ratio (y) = 0.36428 0.07811
# Poissons Ratio (z) = 0.36528 0.16825
#
# Static dielectric constant tensor:
#      x y z
#    x 3.389560 0.000000 0.000000 
#    y 0.000000 3.496880 0.000000 
#    z 0.000000 0.000000 3.313080 
# 
# 
# High freq. dielectric constant tensor:
#      x y z
#    x 1.715980 0.000000 0.000000 
#    y 0.000000 1.735710 0.000000 
#    z 0.000000 0.000000 1.748030 
# 
# From -- ./inp_files/2696.got.cif
#   From: 2010.03.12/outbox.cif.g09.slc.cpg/sg57_2_cif.got.tgz:2696.got - 2010.04.16 15:48:40.
