data_PCOD8232931
_publ_section_title
;
Structure prediction by ZEFSAII (Michael W. Deem and Ramdas Pophale) SiO2 
 PCOD8232931
Probable space group: P B C M
;
_chemical_formula_sum "Si O2"
_cell_formula_units_Z 64
_cell_length_a 11.686461
_cell_length_b 18.608082
_cell_length_c 15.016703
_cell_angle_alpha 90.000000
_cell_angle_beta 90.000000
_cell_angle_gamma 90.000000
_cell_volume 3265.571647
_symmetry_space_group_name_H-M "P B C M"
_symmetry_group_IT_number 57
_symmetry_cell_setting 'orthorhombic'
loop_
_space_group_symop_operation_xyz
x,y,z
-x,-y,1/2+z
x,1/2-y,-z
-x,1/2+y,1/2-z
-x,-y,-z
x,y,1/2-z
-x,1/2+y,z
x,1/2-y,1/2+z
loop_
_atom_site_type_symbol
_atom_site_label
_atom_site_fract_x
_atom_site_fract_y
_atom_site_fract_z
Si Si1 0.155635 0.182485 0.563103
Si Si2 0.061256 0.968289 0.848037
Si Si3 0.213975 0.933042 0.017628
Si Si4 0.828572 0.583699 0.092116
Si Si5 0.604596 0.659522 0.149537
Si Si6 0.393963 0.325427 0.147310
Si Si7 0.043198 0.623752 0.850650
Si Si8 0.526867 0.416470 0.002717
O O1 0.179916 0.250000 0.500000
O O2 0.131790 0.113859 0.502138
O O3 0.261350 0.162647 0.625978
O O4 0.041994 0.190079 0.624296
O O5 0.116766 0.956235 0.750000
O O6 0.148731 0.942993 0.923974
O O7 0.942623 0.923369 0.849123
O O8 0.030218 0.051241 0.861866
O O9 0.338548 0.900840 0.000324
O O10 0.148762 0.876140 0.080812
O O11 0.228369 0.006405 0.073638
O O12 0.737838 0.637766 0.137464
O O13 0.568700 0.642864 0.250000
O O14 0.581459 0.742356 0.125956
O O15 0.523953 0.614029 0.087387
O O16 0.417540 0.344560 0.250000
O O17 0.471641 0.377870 0.088257
O O18 0.088949 0.633745 0.750000
O O19 0.500000 0.500000 0.000000
#
# Coordination Sequence:
#
# PCOD8232931 Si02
#       8
#     8   8   8   8   8   8   8   8
#     4  12  19  35  63  89 122 159 197 251 310 365
#     4  10  20  35  60  90 122 156 192 242 306 371
#     4  11  21  38  62  85 122 161 203 247 310 367
#     4  11  18  38  62  90 121 152 195 248 311 371
#     4  11  23  41  65  91 120 160 210 262 317 373
#     4  11  24  41  63  91 123 164 210 261 316 370
#     4  10  21  37  59  89 121 157 197 243 303 372
#     4  12  24  41  61  90 125 165 210 262 310 368
#
# _framework density 19.598407000000002
#
# number of rings (size 3 to 8) (size 9 to 14) (size 15 to 20)
#    0.000    1.000    6.250    1.875    0.000    2.000 
#    0.000    1.250    0.000    0.000    0.000    0.000 
#    0.000    0.000    0.000    0.000    0.000    0.000 
#
# Total GULP energy -793486.117180 kJ/mol
# GULP energy per Si atom -12398.220581 kJ/mol
# Density = 1.955380 g / cm^3
# Si number density = 19.598407 Si / 1000 Ang^3
#
#
#
# Elastic Constant Matrix: (Units=GPa)
#
#
# Indices 1 2 3 4 5 6 
#
# 1 130.8746 34.8329 64.7104 0.0000 0.0000 0.0000
# 2 34.8329 67.0219 44.5305 0.0000 0.0000 0.0000
# 3 64.7104 44.5305 144.7346 0.0000 0.0000 0.0000
# 4 0.0000 0.0000 0.0000 20.1313 0.0000 0.0000
# 5 0.0000 0.0000 0.0000 0.0000 16.1872 0.0000
# 6 0.0000 0.0000 0.0000 0.0000 0.0000 26.9977
#
#
#
# Elastic Compliance Matrix: (Units=1/GPa)
#
#
# Indices 1 2 3 4 5 6 
#
# 1 0.010229 -0.002863 -0.003692 0.000000 0.000000 0.000000
# 2 -0.002863 0.019556 -0.004737 0.000000 0.000000 0.000000
# 3 -0.003692 -0.004737 0.010017 0.000000 0.000000 0.000000
# 4 0.000000 0.000000 0.000000 0.049674 0.000000 0.000000
# 5 0.000000 0.000000 0.000000 0.000000 0.061777 0.000000
# 6 0.000000 0.000000 0.000000 0.000000 0.000000 0.037040
#
#
# Mechanical properties :
#
#
# Convention : Reuss Voigt Hill
#
# Bulk Modulus (GPa) = 58.07956 70.08652 64.08304
# Shear Modulus (GPa) = 23.08237 25.90039 24.49138
#
# Velocity S-wave (km/s) = 3.43558 3.63926 3.53889
# Velocity P-wave (km/s) = 6.74068 7.31423 7.03331
#
# Compressibility (1/GPa) = 0.01721776
#
# Stress axis : x y z
#
# Youngs Moduli (GPa) = 97.76600 51.13647 99.82644
#
# Poissons Ratio (x) = 0.14639 0.36859
# Poissons Ratio (y) = 0.27988 0.47285
# Poissons Ratio (z) = 0.36099 0.24222
#
# Static dielectric constant tensor:
#      x y z
#    x 3.481430 0.000000 0.000000 
#    y 0.000000 3.237350 0.000000 
#    z 0.000000 0.000000 3.691860 
# 
# 
# High freq. dielectric constant tensor:
#      x y z
#    x 1.752820 0.000000 0.000000 
#    y 0.000000 1.747370 0.000000 
#    z 0.000000 0.000000 1.779360 
# 
# From -- ./inp_files/18001.got.cif
#   From: 2010.03.12/outbox.cif.g09.slc.cpg/sg57_10_cif.got.tgz:18001.got - 2010.04.16 15:48:40.
