data_PCOD8232108
_publ_section_title
;
Structure prediction by ZEFSAII (Michael W. Deem and Ramdas Pophale) SiO2 
 PCOD8232108
Probable space group: P B C M
;
_chemical_formula_sum "Si O2"
_cell_formula_units_Z 64
_cell_length_a 11.442622
_cell_length_b 17.993191
_cell_length_c 18.330179
_cell_angle_alpha 90.000000
_cell_angle_beta 90.000000
_cell_angle_gamma 90.000000
_cell_volume 3773.987415
_symmetry_space_group_name_H-M "P B C M"
_symmetry_group_IT_number 57
_symmetry_cell_setting 'orthorhombic'
loop_
_space_group_symop_operation_xyz
x,y,z
-x,-y,1/2+z
x,1/2-y,-z
-x,1/2+y,1/2-z
-x,-y,-z
x,y,1/2-z
-x,1/2+y,z
x,1/2-y,1/2+z
loop_
_atom_site_type_symbol
_atom_site_label
_atom_site_fract_x
_atom_site_fract_y
_atom_site_fract_z
Si Si1 0.641433 0.858351 0.334937
Si Si2 0.841339 0.394161 0.169451
Si Si3 0.760575 0.008466 0.165862
Si Si4 0.266635 0.670946 0.336076
Si Si5 0.612857 0.315106 0.163142
Si Si6 0.153460 0.204108 0.570044
Si Si7 0.966091 0.238395 0.330308
Si Si8 0.969244 0.951826 0.430116
O O1 0.655097 0.835989 0.250000
O O2 0.513031 0.840269 0.366331
O O3 0.733901 0.812553 0.381384
O O4 0.662536 0.946037 0.346069
O O5 0.829798 0.431400 0.250000
O O6 0.712944 0.373229 0.137372
O O7 0.917871 0.320957 0.178075
O O8 0.908840 0.448184 0.114278
O O9 0.801610 0.010859 0.250000
O O10 0.699797 0.086658 0.142735
O O11 0.875095 0.994686 0.118554
O O12 0.263034 0.683587 0.250000
O O13 0.358003 0.731890 0.367711
O O14 0.135034 0.686344 0.364819
O O15 0.612104 0.314799 0.250000
O O16 0.195332 0.250000 0.500000
O O17 0.081922 0.129409 0.548981
O O18 0.074701 0.261781 0.615408
O O19 0.005890 0.210075 0.250000
O O20 0.000000 0.000000 0.500000
#
# Coordination Sequence:
#
# PCOD8232108 Si02
#       8
#     8   8   8   8   8   8   8   8
#     4   9  17  31  52  72  92 125 166 198 231 281
#     4   8  14  28  50  73  92 116 153 197 239 277
#     4   9  17  29  48  72  97 126 159 194 238 288
#     4   8  14  25  46  74  98 115 144 198 248 279
#     4   8  14  27  52  77  93 116 158 207 240 268
#     4  10  20  31  47  66  95 129 160 196 233 283
#     4   8  14  26  46  70  90 114 151 195 240 279
#     4  10  20  31  47  69 100 129 154 193 241 293
#
# _framework density 16.958192
#
# number of rings (size 3 to 8) (size 9 to 14) (size 15 to 20)
#    0.000    3.250    0.000    2.250    1.750    3.000 
#    0.000    0.000    5.500    1.500    0.000    0.000 
#    0.000    0.000    0.000    0.000    0.000    0.000 
#
# Total GULP energy -793089.643471 kJ/mol
# GULP energy per Si atom -12392.025679 kJ/mol
# Density = 1.691959 g / cm^3
# Si number density = 16.958192 Si / 1000 Ang^3
#
#
#
# Elastic Constant Matrix: (Units=GPa)
#
#
# Indices 1 2 3 4 5 6 
#
# 1 133.6582 61.2470 46.2612 0.0000 0.0000 0.0000
# 2 61.2470 94.5634 42.6397 0.0000 0.0000 0.0000
# 3 46.2612 42.6397 66.1015 0.0000 0.0000 0.0000
# 4 0.0000 0.0000 0.0000 19.6706 0.0000 0.0000
# 5 0.0000 0.0000 0.0000 0.0000 7.0753 0.0000
# 6 0.0000 0.0000 0.0000 0.0000 0.0000 16.6635
#
#
#
# Elastic Compliance Matrix: (Units=1/GPa)
#
#
# Indices 1 2 3 4 5 6 
#
# 1 0.011551 -0.005410 -0.004594 0.000000 0.000000 0.000000
# 2 -0.005410 0.017446 -0.007468 0.000000 0.000000 0.000000
# 3 -0.004594 -0.007468 0.023161 0.000000 0.000000 0.000000
# 4 0.000000 0.000000 0.000000 0.050837 0.000000 0.000000
# 5 0.000000 0.000000 0.000000 0.000000 0.141336 0.000000
# 6 0.000000 0.000000 0.000000 0.000000 0.000000 0.060012
#
#
# Mechanical properties :
#
#
# Convention : Reuss Voigt Hill
#
# Bulk Modulus (GPa) = 58.09201 66.06878 62.08039
# Shear Modulus (GPa) = 14.49173 18.29354 16.39264
#
# Velocity S-wave (km/s) = 2.92645 3.28799 3.11247
# Velocity P-wave (km/s) = 6.76382 7.31156 7.04301
#
# Compressibility (1/GPa) = 0.01721407
#
# Stress axis : x y z
#
# Youngs Moduli (GPa) = 86.57390 57.31981 43.17634
#
# Poissons Ratio (x) = 0.31008 0.19837
# Poissons Ratio (y) = 0.46833 0.32243
# Poissons Ratio (z) = 0.39775 0.42806
#
# Static dielectric constant tensor:
#      x y z
#    x 3.289880 0.000000 0.000000 
#    y 0.000000 3.201890 0.000000 
#    z 0.000000 0.000000 3.063080 
# 
# 
# High freq. dielectric constant tensor:
#      x y z
#    x 1.642860 0.000000 0.000000 
#    y 0.000000 1.642340 0.000000 
#    z 0.000000 0.000000 1.627000 
# 
# From -- ./inp_files/17962.got.cif
#   From: 2010.03.12/outbox.cif.g09.slc.cpg/sg57_9_cif.got.tgz:17962.got - 2010.04.16 15:48:40.
