data_PCOD8232958
_publ_section_title
;
Structure prediction by ZEFSAII (Michael W. Deem and Ramdas Pophale) SiO2 
 PCOD8232958
Probable space group: P B C M
;
_chemical_formula_sum "Si O2"
_cell_formula_units_Z 56
_cell_length_a 14.019136
_cell_length_b 24.424295
_cell_length_c 8.557828
_cell_angle_alpha 90.000000
_cell_angle_beta 90.000000
_cell_angle_gamma 90.000000
_cell_volume 2930.264605
_symmetry_space_group_name_H-M "P B C M"
_symmetry_group_IT_number 57
_symmetry_cell_setting 'orthorhombic'
loop_
_space_group_symop_operation_xyz
x,y,z
-x,-y,1/2+z
x,1/2-y,-z
-x,1/2+y,1/2-z
-x,-y,-z
x,y,1/2-z
-x,1/2+y,z
x,1/2-y,1/2+z
loop_
_atom_site_type_symbol
_atom_site_label
_atom_site_fract_x
_atom_site_fract_y
_atom_site_fract_z
Si Si1 0.211725 0.026136 0.934014
Si Si2 0.675805 0.628191 0.934362
Si Si3 0.849955 0.690035 0.434145
Si Si4 0.172071 0.591619 0.067271
Si Si5 0.282631 0.692437 0.933485
Si Si6 0.033330 0.404837 0.065716
Si Si7 0.504486 0.307287 0.433640
O O1 0.201994 0.024017 0.750000
O O2 0.301239 0.064978 0.982297
O O3 0.112900 0.052248 0.996264
O O4 0.225347 0.963871 0.994350
O O5 0.694676 0.636859 0.750000
O O6 0.567223 0.643432 0.981068
O O7 0.744371 0.668337 0.028857
O O8 0.860814 0.750000 0.500000
O O9 0.868573 0.688228 0.250000
O O10 0.929862 0.655477 0.524573
O O11 0.187868 0.600780 0.250000
O O12 0.212787 0.643726 0.978537
O O13 0.061462 0.583253 0.030878
O O14 0.284253 0.697906 0.750000
O O15 0.389438 0.680067 0.999461
O O16 0.244079 0.750000 0.000000
O O17 0.013381 0.409331 0.250000
O O18 0.465373 0.250000 0.500000
O O19 0.508398 0.301028 0.250000
#
# Coordination Sequence:
#
# PCOD8232958 Si02
#       7
#     8   8   8   8   8   8   8
#     4   8  17  33  54  78 107 138 171 207 252 306
#     4   9  17  33  54  78 106 139 173 211 256 306
#     4  11  21  33  49  75 108 140 172 212 258 311
#     4  11  21  35  55  79 104 137 174 213 258 307
#     4  10  21  38  56  78 104 135 174 219 262 307
#     4  10  20  36  55  76 102 137 176 217 258 305
#     4   9  18  32  54  78 104 136 174 215 259 306
#
# _framework density 19.110903
#
# number of rings (size 3 to 8) (size 9 to 14) (size 15 to 20)
#    0.000    2.286    0.000    4.286    0.000    2.857 
#    0.000   10.000    0.000    0.000    0.000    0.000 
#    0.000    0.000    0.000    0.000    0.000    0.000 
#
# Total GULP energy -694229.917444 kJ/mol
# GULP energy per Si atom -12396.962812 kJ/mol
# Density = 1.906741 g / cm^3
# Si number density = 19.110903 Si / 1000 Ang^3
#
#
#
# Elastic Constant Matrix: (Units=GPa)
#
#
# Indices 1 2 3 4 5 6 
#
# 1 67.1290 43.6300 11.5484 0.0000 0.0000 0.0000
# 2 43.6300 144.2526 17.6571 0.0000 0.0000 0.0000
# 3 11.5484 17.6571 37.8396 0.0000 0.0000 0.0000
# 4 0.0000 0.0000 0.0000 22.5543 0.0000 0.0000
# 5 0.0000 0.0000 0.0000 0.0000 24.1714 0.0000
# 6 0.0000 0.0000 0.0000 0.0000 0.0000 23.7099
#
#
#
# Elastic Compliance Matrix: (Units=1/GPa)
#
#
# Indices 1 2 3 4 5 6 
#
# 1 0.018920 -0.005320 -0.003292 0.000000 0.000000 0.000000
# 2 -0.005320 0.008848 -0.002505 0.000000 0.000000 0.000000
# 3 -0.003292 -0.002505 0.028601 0.000000 0.000000 0.000000
# 4 0.000000 0.000000 0.000000 0.044337 0.000000 0.000000
# 5 0.000000 0.000000 0.000000 0.000000 0.041371 0.000000
# 6 0.000000 0.000000 0.000000 0.000000 0.000000 0.042176
#
#
# Mechanical properties :
#
#
# Convention : Reuss Voigt Hill
#
# Bulk Modulus (GPa) = 29.29493 43.87690 36.58591
# Shear Modulus (GPa) = 22.94982 25.84619 24.39800
#
# Velocity S-wave (km/s) = 3.46912 3.68153 3.57691
# Velocity P-wave (km/s) = 5.60434 6.40941 6.02035
#
# Compressibility (1/GPa) = 0.03413560
#
# Stress axis : x y z
#
# Youngs Moduli (GPa) = 52.85275 113.02139 34.96381
#
# Poissons Ratio (x) = 0.60123 0.11510
# Poissons Ratio (y) = 0.28116 0.08759
# Poissons Ratio (z) = 0.17400 0.28314
#
# Static dielectric constant tensor:
#      x y z
#    x 3.572770 0.000000 0.000000 
#    y 0.000000 3.639510 0.000000 
#    z 0.000000 0.000000 3.367230 
# 
# 
# High freq. dielectric constant tensor:
#      x y z
#    x 1.731120 0.000000 0.000000 
#    y 0.000000 1.747700 0.000000 
#    z 0.000000 0.000000 1.734190 
# 
# From -- ./inp_files/5273.got.cif
#   From: 2010.03.12/outbox.cif.g09.slc.cpg/sg57_3_cif.got.tgz:5273.got - 2010.04.16 15:48:40.
