data_PCOD8232416
_publ_section_title
;
Structure prediction by ZEFSAII (Michael W. Deem and Ramdas Pophale) SiO2 
 PCOD8232416
Probable space group: P B C M
;
_chemical_formula_sum "Si O2"
_cell_formula_units_Z 56
_cell_length_a 12.417179
_cell_length_b 15.892907
_cell_length_c 14.483717
_cell_angle_alpha 90.000000
_cell_angle_beta 90.000000
_cell_angle_gamma 90.000000
_cell_volume 2858.290160
_symmetry_space_group_name_H-M "P B C M"
_symmetry_group_IT_number 57
_symmetry_cell_setting 'orthorhombic'
loop_
_space_group_symop_operation_xyz
x,y,z
-x,-y,1/2+z
x,1/2-y,-z
-x,1/2+y,1/2-z
-x,-y,-z
x,y,1/2-z
-x,1/2+y,z
x,1/2-y,1/2+z
loop_
_atom_site_type_symbol
_atom_site_label
_atom_site_fract_x
_atom_site_fract_y
_atom_site_fract_z
Si Si1 0.114280 0.353085 0.644116
Si Si2 0.257010 0.308398 0.140405
Si Si3 0.499872 0.681194 0.649311
Si Si4 0.189806 0.037183 0.516454
Si Si5 0.123372 0.613590 0.352353
Si Si6 0.397493 0.947755 0.482050
Si Si7 0.329086 0.697778 0.406885
O O1 0.145426 0.378766 0.750000
O O2 0.188016 0.274169 0.611687
O O3 0.124150 0.429938 0.571894
O O4 0.987087 0.333178 0.638079
O O5 0.248862 0.321249 0.250000
O O6 0.382109 0.298485 0.105775
O O7 0.207510 0.389664 0.091284
O O8 0.523797 0.645829 0.750000
O O9 0.424696 0.612724 0.602036
O O10 0.424900 0.763690 0.654424
O O11 0.133433 0.958368 0.568516
O O12 0.298523 0.009411 0.464146
O O13 0.128964 0.571446 0.250000
O O14 0.214697 0.686389 0.357077
O O15 0.370401 0.895848 0.573566
O O16 0.500000 0.000000 0.500000
O O17 0.311355 0.750000 0.500000
#
# Coordination Sequence:
#
# PCOD8232416 Si02
#       7
#     8   8   8   8   8   8   8
#     4  10  23  39  57  83 115 149 194 241 286 341
#     4  10  21  36  56  87 115 149 193 234 281 344
#     4  10  20  36  56  83 116 148 190 233 278 342
#     4  11  21  36  62  84 114 153 189 234 293 347
#     4  10  21  40  60  84 114 147 194 244 285 338
#     4  10  20  34  52  81 114 146 182 224 284 337
#     4   9  20  34  56  81 111 151 191 229 281 337
#
# _framework density 19.592131999999999
#
# number of rings (size 3 to 8) (size 9 to 14) (size 15 to 20)
#    0.000    2.000    1.429    1.714    2.000    2.857 
#    0.000    2.143    0.000    3.429    0.000    0.000 
#    0.000    0.000    0.000    0.000    0.000    0.000 
#
# Total GULP energy -693791.057354 kJ/mol
# GULP energy per Si atom -12389.126024 kJ/mol
# Density = 1.954754 g / cm^3
# Si number density = 19.592132 Si / 1000 Ang^3
#
#
#
# Elastic Constant Matrix: (Units=GPa)
#
#
# Indices 1 2 3 4 5 6 
#
# 1 129.4403 39.1330 33.0620 0.0000 0.0000 0.0000
# 2 39.1330 67.0570 21.2548 0.0000 0.0000 0.0000
# 3 33.0620 21.2548 68.3645 0.0000 0.0000 0.0000
# 4 0.0000 0.0000 0.0000 20.4496 0.0000 0.0000
# 5 0.0000 0.0000 0.0000 0.0000 20.3857 0.0000
# 6 0.0000 0.0000 0.0000 0.0000 0.0000 33.3859
#
#
#
# Elastic Compliance Matrix: (Units=1/GPa)
#
#
# Indices 1 2 3 4 5 6 
#
# 1 0.010032 -0.004789 -0.003363 0.000000 0.000000 0.000000
# 2 -0.004789 0.018829 -0.003538 0.000000 0.000000 0.000000
# 3 -0.003363 -0.003538 0.017354 0.000000 0.000000 0.000000
# 4 0.000000 0.000000 0.000000 0.048901 0.000000 0.000000
# 5 0.000000 0.000000 0.000000 0.000000 0.049054 0.000000
# 6 0.000000 0.000000 0.000000 0.000000 0.000000 0.029953
#
#
# Mechanical properties :
#
#
# Convention : Reuss Voigt Hill
#
# Bulk Modulus (GPa) = 43.79148 50.19571 46.99360
# Shear Modulus (GPa) = 24.37676 26.27171 25.32424
#
# Velocity S-wave (km/s) = 3.53117 3.66585 3.59914
# Velocity P-wave (km/s) = 6.24705 6.60256 6.42726
#
# Compressibility (1/GPa) = 0.02283549
#
# Stress axis : x y z
#
# Youngs Moduli (GPa) = 99.67822 53.11040 57.62420
#
# Poissons Ratio (x) = 0.25433 0.19379
# Poissons Ratio (y) = 0.47733 0.20388
# Poissons Ratio (z) = 0.33521 0.18791
#
# Static dielectric constant tensor:
#      x y z
#    x 3.844710 0.000000 0.000000 
#    y 0.000000 3.330790 0.000000 
#    z 0.000000 0.000000 3.515590 
# 
# 
# High freq. dielectric constant tensor:
#      x y z
#    x 1.778060 0.000000 0.000000 
#    y 0.000000 1.751410 0.000000 
#    z 0.000000 0.000000 1.762370 
# 
# From -- ./inp_files/17686.got.cif
#   From: 2010.03.12/outbox.cif.g09.slc.cpg/sg57_9_cif.got.tgz:17686.got - 2010.04.16 15:48:40.
