data_PCOD8232468
_publ_section_title
;
Structure prediction by ZEFSAII (Michael W. Deem and Ramdas Pophale) SiO2 
 PCOD8232468
Probable space group: P B C M
;
_chemical_formula_sum "Si O2"
_cell_formula_units_Z 56
_cell_length_a 23.439744
_cell_length_b 14.439789
_cell_length_c 8.985115
_cell_angle_alpha 90.000000
_cell_angle_beta 90.000000
_cell_angle_gamma 90.000000
_cell_volume 3041.146567
_symmetry_space_group_name_H-M "P B C M"
_symmetry_group_IT_number 57
_symmetry_cell_setting 'orthorhombic'
loop_
_space_group_symop_operation_xyz
x,y,z
-x,-y,1/2+z
x,1/2-y,-z
-x,1/2+y,1/2-z
-x,-y,-z
x,y,1/2-z
-x,1/2+y,z
x,1/2-y,1/2+z
loop_
_atom_site_type_symbol
_atom_site_label
_atom_site_fract_x
_atom_site_fract_y
_atom_site_fract_z
Si Si1 0.559844 0.496346 0.079123
Si Si2 0.055678 0.154861 0.576211
Si Si3 0.928329 0.154646 0.576334
Si Si4 0.139517 0.996609 0.578942
Si Si5 0.349968 0.150533 0.075042
Si Si6 0.345527 0.851451 0.071961
Si Si7 0.727269 0.503546 0.576628
O O1 0.546069 0.483999 0.250000
O O2 0.592447 0.592353 0.047697
O O3 0.597455 0.408217 0.026407
O O4 0.500000 0.500000 0.000000
O O5 0.071545 0.250000 0.500000
O O6 0.059332 0.172058 0.750000
O O7 0.103007 0.083273 0.521251
O O8 0.992043 0.120189 0.530997
O O9 0.914160 0.250000 0.500000
O O10 0.923102 0.168806 0.750000
O O11 0.879026 0.087372 0.523110
O O12 0.124886 0.974130 0.750000
O O13 0.205686 0.015572 0.555846
O O14 0.337009 0.161574 0.250000
O O15 0.357460 0.250000 0.000000
O O16 0.298635 0.095031 0.998550
O O17 0.338651 0.844188 0.250000
O O18 0.348070 0.750000 0.000000
O O19 0.292483 0.909277 0.005427
O O20 0.709741 0.498368 0.750000
#
# Coordination Sequence:
#
# PCOD8232468 Si02
#       7
#     8   8   8   8   8   8   8
#     4   9  20  36  55  82 114 144 178 220 263 310
#     4   9  19  35  53  76 105 136 171 214 262 317
#     4  10  20  34  54  77 103 137 174 213 263 318
#     4  10  21  36  54  78 107 136 173 219 267 317
#     4  10  21  38  58  81 110 146 184 222 265 314
#     4  10  21  38  58  81 109 144 183 222 266 316
#     4  10  21  37  56  79 107 141 179 224 272 318
#
# _framework density 18.414107000000001
#
# number of rings (size 3 to 8) (size 9 to 14) (size 15 to 20)
#    0.000    2.286    0.000    3.000    0.000    7.429 
#    0.000    4.286    0.000    0.000    0.000    0.000 
#    0.000    0.000    0.000    0.000    0.000    0.000 
#
# Total GULP energy -694381.978173 kJ/mol
# GULP energy per Si atom -12399.678182 kJ/mol
# Density = 1.837220 g / cm^3
# Si number density = 18.414107 Si / 1000 Ang^3
#
#
#
# Elastic Constant Matrix: (Units=GPa)
#
#
# Indices 1 2 3 4 5 6 
#
# 1 91.5388 46.5396 47.7169 0.0000 0.0000 0.0000
# 2 46.5396 123.8937 59.4260 0.0000 0.0000 0.0000
# 3 47.7169 59.4260 87.6121 0.0000 0.0000 0.0000
# 4 0.0000 0.0000 0.0000 38.6113 0.0000 0.0000
# 5 0.0000 0.0000 0.0000 0.0000 31.3388 0.0000
# 6 0.0000 0.0000 0.0000 0.0000 0.0000 -7.1627
#
#
#
# Elastic Compliance Matrix: (Units=1/GPa)
#
#
# Indices 1 2 3 4 5 6 
#
# 1 0.015836 -0.002685 -0.006803 0.000000 0.000000 0.000000
# 2 -0.002685 0.012419 -0.006961 0.000000 0.000000 0.000000
# 3 -0.006803 -0.006961 0.019841 0.000000 0.000000 0.000000
# 4 0.000000 0.000000 0.000000 0.025899 0.000000 0.000000
# 5 0.000000 0.000000 0.000000 0.000000 0.031909 0.000000
# 6 0.000000 0.000000 0.000000 0.000000 0.000000 -0.139611
#
#
# Mechanical properties :
#
#
# Convention : Reuss Voigt Hill
#
# Bulk Modulus (GPa) = 65.80585 67.82329 66.81457
# Shear Modulus (GPa) = 1174.06888 22.51495 598.29192
#
# Velocity S-wave (km/s) = 25.27798 3.50051 18.04480
# Velocity P-wave (km/s) = 29.79568 7.29728 21.69139
#
# Compressibility (1/GPa) = 0.01519622
#
# Stress axis : x y z
#
# Youngs Moduli (GPa) = 63.14682 80.52105 50.40061
#
# Poissons Ratio (x) = 0.21623 0.34290
# Poissons Ratio (y) = 0.16957 0.35085
# Poissons Ratio (z) = 0.42962 0.56052
#
# Static dielectric constant tensor:
#      x y z
#    x 3.424240 0.000000 0.000000 
#    y 0.000000 3.368390 0.000000 
#    z 0.000000 0.000000 3.488370 
# 
# 
# High freq. dielectric constant tensor:
#      x y z
#    x 1.713850 0.000000 0.000000 
#    y 0.000000 1.718590 0.000000 
#    z 0.000000 0.000000 1.724050 
# 
# From -- ./inp_files/8067.got.cif
#   From: 2010.03.12/outbox.cif.g09.slc.cpg/sg57_5_cif.got.tgz:8067.got - 2010.04.16 15:48:40.
