data_PCOD8232731
_publ_section_title
;
Structure prediction by ZEFSAII (Michael W. Deem and Ramdas Pophale) SiO2 
 PCOD8232731
Probable space group: P B C M
;
_chemical_formula_sum "Si O2"
_cell_formula_units_Z 64
_cell_length_a 20.479140
_cell_length_b 18.580097
_cell_length_c 8.867755
_cell_angle_alpha 90.000000
_cell_angle_beta 90.000000
_cell_angle_gamma 90.000000
_cell_volume 3374.219864
_symmetry_space_group_name_H-M "P B C M"
_symmetry_group_IT_number 57
_symmetry_cell_setting 'orthorhombic'
loop_
_space_group_symop_operation_xyz
x,y,z
-x,-y,1/2+z
x,1/2-y,-z
-x,1/2+y,1/2-z
-x,-y,-z
x,y,1/2-z
-x,1/2+y,z
x,1/2-y,1/2+z
loop_
_atom_site_type_symbol
_atom_site_label
_atom_site_fract_x
_atom_site_fract_y
_atom_site_fract_z
Si Si1 0.576956 0.420108 0.421600
Si Si2 0.926526 0.082339 0.074298
Si Si3 0.924212 0.566966 0.074252
Si Si4 0.812676 0.826749 0.574503
Si Si5 0.817951 0.172976 0.928394
Si Si6 0.296203 0.413117 0.080606
Si Si7 0.705479 0.083313 0.076630
Si Si8 0.437467 0.067339 0.922280
O O1 0.600132 0.410077 0.250000
O O2 0.633879 0.386963 0.526595
O O3 0.565828 0.504093 0.455637
O O4 0.504103 0.385518 0.448136
O O5 0.910011 0.089361 0.250000
O O6 0.002836 0.093978 0.039335
O O7 0.887518 0.143421 0.985102
O O8 0.905151 0.003411 0.020105
O O9 0.915537 0.547986 0.250000
O O10 0.876057 0.629493 0.019354
O O11 0.812728 0.750000 0.500000
O O12 0.815302 0.814134 0.750000
O O13 0.747656 0.870508 0.536427
O O14 0.819842 0.180429 0.750000
O O15 0.803583 0.250000 0.000000
O O16 0.761098 0.118622 0.975817
O O17 0.271895 0.396359 0.250000
O O18 0.291913 0.498174 0.048505
O O19 0.371200 0.386060 0.058456
O O20 0.717051 0.104033 0.250000
O O21 0.437914 0.035744 0.750000
#
# Coordination Sequence:
#
# PCOD8232731 Si02
#       8
#     8   8   8   8   8   8   8   8
#     4   9  15  25  45  74 105 137 174 218 267 316
#     4  10  20  37  61  87 113 141 175 218 267 316
#     4   9  20  38  59  84 112 143 180 219 261 315
#     4  11  23  37  53  75 105 140 179 221 264 312
#     4  12  25  40  57  79 109 144 182 223 268 320
#     4   9  18  33  53  77 106 140 177 218 264 314
#     4  10  20  35  55  80 109 141 177 219 268 322
#     4   8  15  27  44  70 105 140 174 217 267 317
#
# _framework density 18.967348000000001
#
# number of rings (size 3 to 8) (size 9 to 14) (size 15 to 20)
#    0.000    2.250    0.000    4.125    0.000    7.000 
#    0.000    1.250    0.000    0.750    0.000    3.500 
#    0.000    0.000    0.000    0.000    0.000    0.000 
#
# Total GULP energy -793412.489488 kJ/mol
# GULP energy per Si atom -12397.070148 kJ/mol
# Density = 1.892418 g / cm^3
# Si number density = 18.967348 Si / 1000 Ang^3
#
#
#
# Elastic Constant Matrix: (Units=GPa)
#
#
# Indices 1 2 3 4 5 6 
#
# 1 122.2262 45.7830 38.2535 0.0000 0.0000 0.0000
# 2 45.7830 63.6129 32.2307 0.0000 0.0000 0.0000
# 3 38.2535 32.2307 82.6951 0.0000 0.0000 0.0000
# 4 0.0000 0.0000 0.0000 27.5255 0.0000 0.0000
# 5 0.0000 0.0000 0.0000 0.0000 32.8086 0.0000
# 6 0.0000 0.0000 0.0000 0.0000 0.0000 -3.1544
#
#
#
# Elastic Compliance Matrix: (Units=1/GPa)
#
#
# Indices 1 2 3 4 5 6 
#
# 1 0.011647 -0.007044 -0.002642 0.000000 0.000000 0.000000
# 2 -0.007044 0.023848 -0.006037 0.000000 0.000000 0.000000
# 3 -0.002642 -0.006037 0.015668 0.000000 0.000000 0.000000
# 4 0.000000 0.000000 0.000000 0.036330 0.000000 0.000000
# 5 0.000000 0.000000 0.000000 0.000000 0.030480 0.000000
# 6 0.000000 0.000000 0.000000 0.000000 0.000000 -0.317016
#
#
# Mechanical properties :
#
#
# Convention : Reuss Voigt Hill
#
# Bulk Modulus (GPa) = 50.71650 55.67431 53.19540
# Shear Modulus (GPa) = -31.05087 21.58707 -4.73190
#
# Velocity S-wave (km/s) = -4.05046 3.37726 -1.58120
# Velocity P-wave (km/s) = 2.21854 6.68014 4.97726
#
# Compressibility (1/GPa) = 0.01971745
#
# Stress axis : x y z
#
# Youngs Moduli (GPa) = 85.85954 41.93227 63.82549
#
# Poissons Ratio (x) = 0.29535 0.16865
# Poissons Ratio (y) = 0.60476 0.38529
# Poissons Ratio (z) = 0.22688 0.25313
#
# Static dielectric constant tensor:
#      x y z
#    x 3.849710 0.000000 0.000000 
#    y 0.000000 3.084320 0.000000 
#    z 0.000000 0.000000 3.534730 
# 
# 
# High freq. dielectric constant tensor:
#      x y z
#    x 1.762310 0.000000 0.000000 
#    y 0.000000 1.688000 0.000000 
#    z 0.000000 0.000000 1.746060 
# 
# From -- ./inp_files/8557.got.cif
#   From: 2010.03.12/outbox.cif.g09.slc.cpg/sg57_5_cif.got.tgz:8557.got - 2010.04.16 15:48:40.
