data_PCOD8232371
_publ_section_title
;
Structure prediction by ZEFSAII (Michael W. Deem and Ramdas Pophale) SiO2 
 PCOD8232371
Probable space group: P B C M
;
_chemical_formula_sum "Si O2"
_cell_formula_units_Z 64
_cell_length_a 15.728310
_cell_length_b 28.451763
_cell_length_c 8.646504
_cell_angle_alpha 90.000000
_cell_angle_beta 90.000000
_cell_angle_gamma 90.000000
_cell_volume 3869.294531
_symmetry_space_group_name_H-M "P B C M"
_symmetry_group_IT_number 57
_symmetry_cell_setting 'orthorhombic'
loop_
_space_group_symop_operation_xyz
x,y,z
-x,-y,1/2+z
x,1/2-y,-z
-x,1/2+y,1/2-z
-x,-y,-z
x,y,1/2-z
-x,1/2+y,z
x,1/2-y,1/2+z
loop_
_atom_site_type_symbol
_atom_site_label
_atom_site_fract_x
_atom_site_fract_y
_atom_site_fract_z
Si Si1 0.654818 0.644642 0.933246
Si Si2 0.594719 0.549235 0.430690
Si Si3 0.652555 0.140798 0.568174
Si Si4 0.498743 0.699321 0.432941
Si Si5 0.002917 0.699004 0.931676
Si Si6 0.602527 0.451934 0.929967
Si Si7 0.813963 0.301525 0.067459
Si Si8 0.180060 0.198463 0.567680
O O1 0.647170 0.639042 0.750000
O O2 0.746412 0.663543 0.988899
O O3 0.645541 0.594324 0.012337
O O4 0.585286 0.681620 0.990573
O O5 0.608550 0.541709 0.250000
O O6 0.496034 0.556233 0.471428
O O7 0.631405 0.503817 0.518856
O O8 0.637168 0.148313 0.750000
O O9 0.576450 0.163681 0.472153
O O10 0.656645 0.085729 0.527287
O O11 0.740784 0.163444 0.509986
O O12 0.474704 0.750000 0.500000
O O13 0.510894 0.701883 0.250000
O O14 0.003733 0.703361 0.750000
O O15 0.093512 0.676256 0.984595
O O16 0.912447 0.675753 0.982733
O O17 0.002032 0.750000 0.000000
O O18 0.621056 0.445104 0.750000
O O19 0.809742 0.296230 0.250000
O O20 0.797951 0.250000 0.000000
O O21 0.194604 0.250000 0.500000
O O22 0.185387 0.204310 0.750000
#
# Coordination Sequence:
#
# PCOD8232371 Si02
#       8
#     8   8   8   8   8   8   8   8
#     4  11  21  33  49  71  97 127 161 197 237 283
#     4  10  20  34  52  72  94 123 158 198 243 284
#     4  11  21  33  49  71  97 127 161 197 237 283
#     4  12  24  36  47  64  93 132 168 198 234 276
#     4   8  14  28  46  66  93 122 157 196 235 278
#     4  10  20  34  52  72  94 123 158 198 243 284
#     4   9  18  30  47  70  96 128 161 196 236 278
#     4   9  18  30  47  70  96 128 161 196 236 278
#
# _framework density 16.540483999999999
#
# number of rings (size 3 to 8) (size 9 to 14) (size 15 to 20)
#    0.000    2.000    1.250    3.375    0.000    5.000 
#    0.000    0.000    0.000    0.000    0.000    0.875 
#    0.000    0.000    0.000    0.000    0.000    0.000 
#
# Total GULP energy -793239.496862 kJ/mol
# GULP energy per Si atom -12394.367138 kJ/mol
# Density = 1.650284 g / cm^3
# Si number density = 16.540484 Si / 1000 Ang^3
#
#
#
# Elastic Constant Matrix: (Units=GPa)
#
#
# Indices 1 2 3 4 5 6 
#
# 1 116.5960 39.7669 23.2543 0.0000 0.0000 0.0000
# 2 39.7669 87.9102 11.2918 0.0000 0.0000 0.0000
# 3 23.2543 11.2918 21.6340 0.0000 0.0000 0.0000
# 4 0.0000 0.0000 0.0000 28.6010 0.0000 0.0000
# 5 0.0000 0.0000 0.0000 0.0000 9.7043 0.0000
# 6 0.0000 0.0000 0.0000 0.0000 0.0000 13.7769
#
#
#
# Elastic Compliance Matrix: (Units=1/GPa)
#
#
# Indices 1 2 3 4 5 6 
#
# 1 0.012152 -0.004094 -0.010925 0.000000 0.000000 0.000000
# 2 -0.004094 0.013572 -0.002683 0.000000 0.000000 0.000000
# 3 -0.010925 -0.002683 0.059368 0.000000 0.000000 0.000000
# 4 0.000000 0.000000 0.000000 0.034964 0.000000 0.000000
# 5 0.000000 0.000000 0.000000 0.000000 0.103047 0.000000
# 6 0.000000 0.000000 0.000000 0.000000 0.000000 0.072585
#
#
# Mechanical properties :
#
#
# Convention : Reuss Voigt Hill
#
# Bulk Modulus (GPa) = 20.12618 41.64069 30.88344
# Shear Modulus (GPa) = 14.38212 20.53826 17.46019
#
# Velocity S-wave (km/s) = 2.95195 3.52759 3.25253
# Velocity P-wave (km/s) = 4.87985 6.46696 5.72863
#
# Compressibility (1/GPa) = 0.04968652
#
# Stress axis : x y z
#
# Youngs Moduli (GPa) = 82.29237 73.68256 16.84417
#
# Poissons Ratio (x) = 0.30163 0.18403
# Poissons Ratio (y) = 0.33688 0.04520
# Poissons Ratio (z) = 0.89906 0.19772
#
# Static dielectric constant tensor:
#      x y z
#    x 3.704280 0.000000 0.000000 
#    y 0.000000 3.076540 0.000000 
#    z 0.000000 0.000000 3.144980 
# 
# 
# High freq. dielectric constant tensor:
#      x y z
#    x 1.633140 0.000000 0.000000 
#    y 0.000000 1.615010 0.000000 
#    z 0.000000 0.000000 1.646810 
# 
# From -- ./inp_files/5982.got.cif
#   From: 2010.03.12/outbox.cif.g09.slc.cpg/sg57_3_cif.got.tgz:5982.got - 2010.04.16 15:48:40.
