data_PCOD8232051
_publ_section_title
;
Structure prediction by ZEFSAII (Michael W. Deem and Ramdas Pophale) SiO2 
 PCOD8232051
Probable space group: P B C M
;
_chemical_formula_sum "Si O2"
_cell_formula_units_Z 48
_cell_length_a 18.743039
_cell_length_b 8.573069
_cell_length_c 15.571504
_cell_angle_alpha 90.000000
_cell_angle_beta 90.000000
_cell_angle_gamma 90.000000
_cell_volume 2502.112829
_symmetry_space_group_name_H-M "P B C M"
_symmetry_group_IT_number 57
_symmetry_cell_setting 'orthorhombic'
loop_
_space_group_symop_operation_xyz
x,y,z
-x,-y,1/2+z
x,1/2-y,-z
-x,1/2+y,1/2-z
-x,-y,-z
x,y,1/2-z
-x,1/2+y,z
x,1/2-y,1/2+z
loop_
_atom_site_type_symbol
_atom_site_label
_atom_site_fract_x
_atom_site_fract_y
_atom_site_fract_z
Si Si1 0.680838 0.578070 0.403693
Si Si2 0.326628 0.061743 0.902903
Si Si3 0.172131 0.947779 0.153510
Si Si4 0.583104 0.559982 0.250000
Si Si5 0.078253 0.433980 0.988838
Si Si6 0.426853 0.073086 0.750000
Si Si7 0.809250 0.139130 0.080344
O O1 0.695024 0.759854 0.385002
O O2 0.647558 0.546583 0.498131
O O3 0.756862 0.494586 0.398742
O O4 0.626555 0.505991 0.334340
O O5 0.388332 0.009725 0.836427
O O6 0.259215 0.952573 0.885106
O O7 0.175419 0.011988 0.250000
O O8 0.164706 0.759127 0.154170
O O9 0.104576 0.025436 0.106993
O O10 0.571969 0.742586 0.250000
O O11 0.507663 0.478640 0.250000
O O12 0.079616 0.250000 0.000000
O O13 0.129009 0.515364 0.059088
O O14 0.000000 0.500000 0.000000
O O15 0.790812 0.250000 0.000000
#
# Coordination Sequence:
#
# PCOD8232051 Si02
#       7
#     8   8   8   4   8   4   8
#     4  10  19  37  64  81 119 156 204 247 308 355
#     4  10  20  37  58  88 115 157 200 253 297 368
#     4  11  22  37  60  96 124 158 201 255 299 363
#     4  10  22  40  54  88 115 162 197 256 306 364
#     4  11  22  42  66  88 124 165 204 247 304 360
#     4  10  24  38  56  82 123 152 209 244 310 366
#     4  10  20  35  58  91 120 152 201 237 298 358
#
# _framework density 19.183786000000001
#
# number of rings (size 3 to 8) (size 9 to 14) (size 15 to 20)
#    0.000    1.667    4.167    2.500    1.167    2.000 
#    0.000    4.167    0.000    0.000    0.000    0.000 
#    0.000    0.000    0.000    0.000    0.000    0.000 
#
# Total GULP energy -595168.961238 kJ/mol
# GULP energy per Si atom -12399.353359 kJ/mol
# Density = 1.914012 g / cm^3
# Si number density = 19.183786 Si / 1000 Ang^3
#
#
#
# Elastic Constant Matrix: (Units=GPa)
#
#
# Indices 1 2 3 4 5 6 
#
# 1 133.2052 46.2672 52.1728 0.0000 0.0000 0.0000
# 2 46.2672 97.9438 28.8711 0.0000 0.0000 0.0000
# 3 52.1728 28.8711 124.8811 0.0000 0.0000 0.0000
# 4 0.0000 0.0000 0.0000 18.6729 0.0000 0.0000
# 5 0.0000 0.0000 0.0000 0.0000 32.2815 0.0000
# 6 0.0000 0.0000 0.0000 0.0000 0.0000 36.6302
#
#
#
# Elastic Compliance Matrix: (Units=1/GPa)
#
#
# Indices 1 2 3 4 5 6 
#
# 1 0.010143 -0.003801 -0.003359 0.000000 0.000000 0.000000
# 2 -0.003801 0.012381 -0.001274 0.000000 0.000000 0.000000
# 3 -0.003359 -0.001274 0.009705 0.000000 0.000000 0.000000
# 4 0.000000 0.000000 0.000000 0.053553 0.000000 0.000000
# 5 0.000000 0.000000 0.000000 0.000000 0.030977 0.000000
# 6 0.000000 0.000000 0.000000 0.000000 0.000000 0.027300
#
#
# Mechanical properties :
#
#
# Convention : Reuss Voigt Hill
#
# Bulk Modulus (GPa) = 65.09991 67.85026 66.47509
# Shear Modulus (GPa) = 30.11146 32.76487 31.43817
#
# Velocity S-wave (km/s) = 3.96615 4.13721 4.05259
# Velocity P-wave (km/s) = 7.41501 7.63331 7.52495
#
# Compressibility (1/GPa) = 0.01536100
#
# Stress axis : x y z
#
# Youngs Moduli (GPa) = 98.58918 80.76718 103.03510
#
# Poissons Ratio (x) = 0.30703 0.34607
# Poissons Ratio (y) = 0.37477 0.13129
# Poissons Ratio (z) = 0.33114 0.10292
#
# Static dielectric constant tensor:
#      x y z
#    x 3.435750 0.000000 0.000000 
#    y 0.000000 3.539170 0.000000 
#    z 0.000000 0.000000 3.812330 
# 
# 
# High freq. dielectric constant tensor:
#      x y z
#    x 1.733480 0.000000 0.000000 
#    y 0.000000 1.754070 0.000000 
#    z 0.000000 0.000000 1.746840 
# 
# From -- ./inp_files/22499.got.cif
#   From: 2010.03.12/outbox.cif.g09.slc.cpg/sg57_12_cif.got.tgz:22499.got - 2010.04.16 15:48:40.
