data_PCOD8232307
_publ_section_title
;
Structure prediction by ZEFSAII (Michael W. Deem and Ramdas Pophale) SiO2 
 PCOD8232307
Probable space group: P B C M
;
_chemical_formula_sum "Si O2"
_cell_formula_units_Z 64
_cell_length_a 12.862919
_cell_length_b 27.645960
_cell_length_c 9.182096
_cell_angle_alpha 90.000000
_cell_angle_beta 90.000000
_cell_angle_gamma 90.000000
_cell_volume 3265.224445
_symmetry_space_group_name_H-M "P B C M"
_symmetry_group_IT_number 57
_symmetry_cell_setting 'orthorhombic'
loop_
_space_group_symop_operation_xyz
x,y,z
-x,-y,1/2+z
x,1/2-y,-z
-x,1/2+y,1/2-z
-x,-y,-z
x,y,1/2-z
-x,1/2+y,z
x,1/2-y,1/2+z
loop_
_atom_site_type_symbol
_atom_site_label
_atom_site_fract_x
_atom_site_fract_y
_atom_site_fract_z
Si Si1 0.372057 0.133073 0.921244
Si Si2 0.588051 0.526798 0.586327
Si Si3 0.045675 0.544034 0.585007
Si Si4 0.185191 0.300227 0.422586
Si Si5 0.030687 0.848375 0.079750
Si Si6 0.753541 0.160741 0.082871
Si Si7 0.439771 0.797952 0.077287
Si Si8 0.238854 0.552794 0.091284
O O1 0.357583 0.129598 0.750000
O O2 0.379779 0.078408 0.985257
O O3 0.269982 0.160885 0.981932
O O4 0.478349 0.160294 0.963169
O O5 0.500000 0.500000 0.500000
O O6 0.547524 0.535917 0.750000
O O7 0.683857 0.491178 0.584300
O O8 0.029834 0.530439 0.750000
O O9 0.995638 0.596170 0.547984
O O10 0.166105 0.546992 0.546929
O O11 0.000000 0.500000 0.500000
O O12 0.210070 0.250000 0.500000
O O13 0.196203 0.293405 0.250000
O O14 0.068368 0.316331 0.464759
O O15 0.060057 0.842475 0.250000
O O16 0.130270 0.833695 0.983152
O O17 0.756280 0.179495 0.250000
O O18 0.710102 0.105801 0.076442
O O19 0.674132 0.191835 0.987748
O O20 0.430774 0.790488 0.250000
O O21 0.483392 0.750000 0.000000
O O22 0.181146 0.550945 0.250000
#
# Coordination Sequence:
#
# PCOD8232307 Si02
#       8
#     8   8   8   8   8   8   8   8
#     4   9  20  37  59  84 112 150 190 231 281 343
#     4  10  20  35  57  83 114 150 188 228 277 337
#     4  10  20  33  53  80 110 147 187 231 277 331
#     4  10  21  39  61  84 112 150 195 239 289 341
#     4   9  20  37  58  82 112 154 195 232 281 346
#     4  10  20  36  57  84 117 149 184 234 286 336
#     4  11  22  37  58  83 109 142 186 234 287 343
#     4   9  19  34  54  79 110 149 185 222 272 330
#
# _framework density 19.600490000000001
#
# number of rings (size 3 to 8) (size 9 to 14) (size 15 to 20)
#    0.000    2.250    0.000    2.250    1.750    2.500 
#    0.000    3.125    0.000    0.000    0.000    0.000 
#    0.000    0.000    0.000    0.000    0.000    0.000 
#
# Total GULP energy -793283.972898 kJ/mol
# GULP energy per Si atom -12395.062077 kJ/mol
# Density = 1.955588 g / cm^3
# Si number density = 19.600490 Si / 1000 Ang^3
#
#
#
# Elastic Constant Matrix: (Units=GPa)
#
#
# Indices 1 2 3 4 5 6 
#
# 1 93.4676 52.9817 36.5554 0.0000 0.0000 0.0000
# 2 52.9817 125.6050 38.4729 0.0000 0.0000 0.0000
# 3 36.5554 38.4729 60.5924 0.0000 0.0000 0.0000
# 4 0.0000 0.0000 0.0000 32.2896 0.0000 0.0000
# 5 0.0000 0.0000 0.0000 0.0000 26.6449 0.0000
# 6 0.0000 0.0000 0.0000 0.0000 0.0000 31.0218
#
#
#
# Elastic Compliance Matrix: (Units=1/GPa)
#
#
# Indices 1 2 3 4 5 6 
#
# 1 0.015961 -0.004696 -0.006647 0.000000 0.000000 0.000000
# 2 -0.004696 0.011266 -0.004320 0.000000 0.000000 0.000000
# 3 -0.006647 -0.004320 0.023257 0.000000 0.000000 0.000000
# 4 0.000000 0.000000 0.000000 0.030970 0.000000 0.000000
# 5 0.000000 0.000000 0.000000 0.000000 0.037531 0.000000
# 6 0.000000 0.000000 0.000000 0.000000 0.000000 0.032235
#
#
# Mechanical properties :
#
#
# Convention : Reuss Voigt Hill
#
# Bulk Modulus (GPa) = 52.20147 59.52056 55.86101
# Shear Modulus (GPa) = 26.46469 28.10158 27.28314
#
# Velocity S-wave (km/s) = 3.67850 3.79055 3.73495
# Velocity P-wave (km/s) = 6.68823 7.04205 6.86742
#
# Compressibility (1/GPa) = 0.01915655
#
# Stress axis : x y z
#
# Youngs Moduli (GPa) = 62.65368 88.76578 42.99827
#
# Poissons Ratio (x) = 0.41688 0.28582
# Poissons Ratio (y) = 0.29425 0.18574
# Poissons Ratio (z) = 0.41647 0.38344
#
# Static dielectric constant tensor:
#      x y z
#    x 3.180300 0.000000 0.000000 
#    y 0.000000 3.581920 0.000000 
#    z 0.000000 0.000000 3.615980 
# 
# 
# High freq. dielectric constant tensor:
#      x y z
#    x 1.756980 0.000000 0.000000 
#    y 0.000000 1.779050 0.000000 
#    z 0.000000 0.000000 1.752600 
# 
# From -- ./inp_files/3870.got.cif
#   From: 2010.03.12/outbox.cif.g09.slc.cpg/sg57_2_cif.got.tgz:3870.got - 2010.04.16 15:48:40.
