data_PCOD8232567
_publ_section_title
;
Structure prediction by ZEFSAII (Michael W. Deem and Ramdas Pophale) SiO2 
 PCOD8232567
Probable space group: P B C M
;
_chemical_formula_sum "Si O2"
_cell_formula_units_Z 64
_cell_length_a 23.170424
_cell_length_b 15.692422
_cell_length_c 9.081166
_cell_angle_alpha 90.000000
_cell_angle_beta 90.000000
_cell_angle_gamma 90.000000
_cell_volume 3301.912605
_symmetry_space_group_name_H-M "P B C M"
_symmetry_group_IT_number 57
_symmetry_cell_setting 'orthorhombic'
loop_
_space_group_symop_operation_xyz
x,y,z
-x,-y,1/2+z
x,1/2-y,-z
-x,1/2+y,1/2-z
-x,-y,-z
x,y,1/2-z
-x,1/2+y,z
x,1/2-y,1/2+z
loop_
_atom_site_type_symbol
_atom_site_label
_atom_site_fract_x
_atom_site_fract_y
_atom_site_fract_z
Si Si1 0.360079 0.997829 0.582910
Si Si2 0.570021 0.669169 0.921497
Si Si3 0.939012 0.086302 0.081383
Si Si4 0.242910 0.510165 0.576665
Si Si5 0.524129 0.081985 0.079239
Si Si6 0.182721 0.334774 0.922724
Si Si7 0.933691 0.587915 0.422289
Si Si8 0.821188 0.335628 0.920936
O O1 0.335940 0.998140 0.750000
O O2 0.309550 0.982597 0.467351
O O3 0.406202 0.920537 0.563676
O O4 0.390295 0.087732 0.547985
O O5 0.561209 0.686106 0.750000
O O6 0.600427 0.750000 0.000000
O O7 0.506431 0.660810 0.997240
O O8 0.941559 0.056170 0.250000
O O9 0.890571 0.158169 0.058023
O O10 0.002366 0.122203 0.033921
O O11 0.921998 0.004599 0.987935
O O12 0.235793 0.525257 0.750000
O O13 0.219788 0.417099 0.529500
O O14 0.207788 0.582160 0.491759
O O15 0.506116 0.080721 0.250000
O O16 0.500000 0.000000 0.000000
O O17 0.187254 0.319691 0.750000
O O18 0.116290 0.348119 0.976807
O O19 0.207429 0.250000 0.000000
O O20 0.926259 0.575679 0.250000
O O21 0.803935 0.331007 0.750000
O O22 0.799299 0.250000 0.000000
#
# Coordination Sequence:
#
# PCOD8232567 Si02
#       8
#     8   8   8   8   8   8   8   8
#     4   9  20  37  57  81 110 148 189 230 276 331
#     4  10  20  34  55  85 120 153 187 228 276 326
#     4   9  18  32  55  83 108 142 181 225 286 347
#     4  11  23  40  60  83 112 152 197 244 293 337
#     4   9  17  32  54  80 110 142 178 217 265 320
#     4  10  22  37  55  80 112 150 190 234 283 339
#     4   9  17  33  54  79 113 144 180 229 281 343
#     4  11  23  39  60  85 112 144 188 238 293 353
#
# _framework density 19.382704
#
# number of rings (size 3 to 8) (size 9 to 14) (size 15 to 20)
#    0.000    2.250    1.250    2.250    0.000    6.000 
#    0.000    3.125    0.000    3.000    0.000    0.000 
#    0.000    0.000    0.000    0.000    0.000    0.000 
#
# Total GULP energy -793338.814513 kJ/mol
# GULP energy per Si atom -12395.918977 kJ/mol
# Density = 1.933859 g / cm^3
# Si number density = 19.382704 Si / 1000 Ang^3
#
#
#
# Elastic Constant Matrix: (Units=GPa)
#
#
# Indices 1 2 3 4 5 6 
#
# 1 86.3787 24.5849 39.1989 0.0000 0.0000 0.0000
# 2 24.5849 69.5801 35.3957 0.0000 0.0000 0.0000
# 3 39.1989 35.3957 87.7509 0.0000 0.0000 0.0000
# 4 0.0000 0.0000 0.0000 34.9333 0.0000 0.0000
# 5 0.0000 0.0000 0.0000 0.0000 28.3909 0.0000
# 6 0.0000 0.0000 0.0000 0.0000 0.0000 13.9852
#
#
#
# Elastic Compliance Matrix: (Units=1/GPa)
#
#
# Indices 1 2 3 4 5 6 
#
# 1 0.014820 -0.002351 -0.005672 0.000000 0.000000 0.000000
# 2 -0.002351 0.018455 -0.006394 0.000000 0.000000 0.000000
# 3 -0.005672 -0.006394 0.016509 0.000000 0.000000 0.000000
# 4 0.000000 0.000000 0.000000 0.028626 0.000000 0.000000
# 5 0.000000 0.000000 0.000000 0.000000 0.035223 0.000000
# 6 0.000000 0.000000 0.000000 0.000000 0.000000 0.071504
#
#
# Mechanical properties :
#
#
# Convention : Reuss Voigt Hill
#
# Bulk Modulus (GPa) = 47.73243 49.11874 48.42559
# Shear Modulus (GPa) = 22.62916 25.09723 23.86319
#
# Velocity S-wave (km/s) = 3.42057 3.60227 3.51259
# Velocity P-wave (km/s) = 6.34666 6.53440 6.44121
#
# Compressibility (1/GPa) = 0.02095012
#
# Stress axis : x y z
#
# Youngs Moduli (GPa) = 67.47640 54.18496 60.57425
#
# Poissons Ratio (x) = 0.12739 0.34357
# Poissons Ratio (y) = 0.15864 0.38731
# Poissons Ratio (z) = 0.38272 0.34646
#
# Static dielectric constant tensor:
#      x y z
#    x 3.759040 0.000000 0.000000 
#    y 0.000000 3.440960 0.000000 
#    z 0.000000 0.000000 3.859990 
# 
# 
# High freq. dielectric constant tensor:
#      x y z
#    x 1.752070 0.000000 0.000000 
#    y 0.000000 1.738090 0.000000 
#    z 0.000000 0.000000 1.759680 
# 
# From -- ./inp_files/9373.got.cif
#   From: 2010.03.12/outbox.cif.g09.slc.cpg/sg57_5_cif.got.tgz:9373.got - 2010.04.16 15:48:40.
