data_PCOD8232195
_publ_section_title
;
Structure prediction by ZEFSAII (Michael W. Deem and Ramdas Pophale) SiO2 
 PCOD8232195
Probable space group: P B C M
;
_chemical_formula_sum "Si O2"
_cell_formula_units_Z 56
_cell_length_a 18.936682
_cell_length_b 19.030693
_cell_length_c 9.056400
_cell_angle_alpha 90.000000
_cell_angle_beta 90.000000
_cell_angle_gamma 90.000000
_cell_volume 3263.728964
_symmetry_space_group_name_H-M "P B C M"
_symmetry_group_IT_number 57
_symmetry_cell_setting 'orthorhombic'
loop_
_space_group_symop_operation_xyz
x,y,z
-x,-y,1/2+z
x,1/2-y,-z
-x,1/2+y,1/2-z
-x,-y,-z
x,y,1/2-z
-x,1/2+y,z
x,1/2-y,1/2+z
loop_
_atom_site_type_symbol
_atom_site_label
_atom_site_fract_x
_atom_site_fract_y
_atom_site_fract_z
Si Si1 0.474229 0.570015 0.076867
Si Si2 0.885405 0.683124 0.077533
Si Si3 0.660068 0.048266 0.917755
Si Si4 0.749477 0.853259 0.413369
Si Si5 0.792838 0.013654 0.415884
Si Si6 0.378732 0.115356 0.086148
Si Si7 0.069905 0.028090 0.074985
O O1 0.461411 0.555994 0.250000
O O2 0.537602 0.626709 0.052485
O O3 0.500000 0.500000 0.000000
O O4 0.400804 0.593940 0.000690
O O5 0.886423 0.695722 0.250000
O O6 0.923945 0.610662 0.034472
O O7 0.923905 0.750000 0.000000
O O8 0.804582 0.682861 0.022850
O O9 0.667220 0.075057 0.750000
O O10 0.639108 0.966964 0.923239
O O11 0.734516 0.061137 0.000913
O O12 0.756064 0.820209 0.250000
O O13 0.764059 0.935424 0.407270
O O14 0.669900 0.840806 0.473225
O O15 0.806074 0.042769 0.250000
O O16 0.865111 0.015967 0.508725
O O17 0.360880 0.142541 0.250000
O O18 0.068063 0.016500 0.250000
O O19 0.000000 0.000000 0.000000
#
# Coordination Sequence:
#
# PCOD8232195 Si02
#       7
#     8   8   8   8   8   8   8
#     4   9  15  21  29  43  65  95 131 170 210 251
#     4  10  20  33  49  68  91 118 150 187 227 271
#     4   9  15  22  32  47  69  98 133 172 211 253
#     4   9  16  25  39  57  77 104 139 176 214 256
#     4   9  16  26  40  57  78 106 140 177 216 262
#     4   8  14  22  31  45  68  98 132 170 209 247
#     4  10  20  33  49  69  92 119 151 188 230 280
#
# _framework density 17.158287999999999
#
# number of rings (size 3 to 8) (size 9 to 14) (size 15 to 20)
#    0.000    2.857    0.000    3.429    0.000    9.143 
#    0.000    0.000    0.000    0.000    0.000    0.000 
#    0.000    0.000    0.000    1.286    0.000   21.429 
#
# Total GULP energy -693977.172227 kJ/mol
# GULP energy per Si atom -12392.449504 kJ/mol
# Density = 1.711924 g / cm^3
# Si number density = 17.158288 Si / 1000 Ang^3
#
#
#
# Elastic Constant Matrix: (Units=GPa)
#
#
# Indices 1 2 3 4 5 6 
#
# 1 142.3634 28.4688 71.4573 0.0000 0.0000 0.0000
# 2 28.4688 28.9557 25.9487 0.0000 0.0000 0.0000
# 3 71.4573 25.9487 127.9252 0.0000 0.0000 0.0000
# 4 0.0000 0.0000 0.0000 14.4881 0.0000 0.0000
# 5 0.0000 0.0000 0.0000 0.0000 35.1326 0.0000
# 6 0.0000 0.0000 0.0000 0.0000 0.0000 8.0932
#
#
#
# Elastic Compliance Matrix: (Units=1/GPa)
#
#
# Indices 1 2 3 4 5 6 
#
# 1 0.010615 -0.006261 -0.004659 0.000000 0.000000 0.000000
# 2 -0.006261 0.045901 -0.005813 0.000000 0.000000 0.000000
# 3 -0.004659 -0.005813 0.011599 0.000000 0.000000 0.000000
# 4 0.000000 0.000000 0.000000 0.069022 0.000000 0.000000
# 5 0.000000 0.000000 0.000000 0.000000 0.028464 0.000000
# 6 0.000000 0.000000 0.000000 0.000000 0.000000 0.123561
#
#
# Mechanical properties :
#
#
# Convention : Reuss Voigt Hill
#
# Bulk Modulus (GPa) = 28.86225 61.22155 45.04190
# Shear Modulus (GPa) = 14.96208 23.10074 19.03141
#
# Velocity S-wave (km/s) = 2.95617 3.67322 3.33403
# Velocity P-wave (km/s) = 5.33944 7.33130 6.41317
#
# Compressibility (1/GPa) = 0.03464734
#
# Stress axis : x y z
#
# Youngs Moduli (GPa) = 94.20597 21.78607 86.21462
#
# Poissons Ratio (x) = 0.13640 0.40171
# Poissons Ratio (y) = 0.58982 0.50120
# Poissons Ratio (z) = 0.43895 0.12665
#
# Static dielectric constant tensor:
#      x y z
#    x 3.506970 0.000000 0.000000 
#    y 0.000000 2.716010 0.000000 
#    z 0.000000 0.000000 3.461470 
# 
# 
# High freq. dielectric constant tensor:
#      x y z
#    x 1.660570 0.000000 0.000000 
#    y 0.000000 1.583320 0.000000 
#    z 0.000000 0.000000 1.683260 
# 
# From -- ./inp_files/7311.got.cif
#   From: 2010.03.12/outbox.cif.g09.slc.cpg/sg57_4_cif.got.tgz:7311.got - 2010.04.16 15:48:40.
