data_PCOD8232837
_publ_section_title
;
Structure prediction by ZEFSAII (Michael W. Deem and Ramdas Pophale) SiO2 
 PCOD8232837
Probable space group: P B C M
;
_chemical_formula_sum "Si O2"
_cell_formula_units_Z 56
_cell_length_a 17.725330
_cell_length_b 9.737109
_cell_length_c 17.107064
_cell_angle_alpha 90.000000
_cell_angle_beta 90.000000
_cell_angle_gamma 90.000000
_cell_volume 2952.567542
_symmetry_space_group_name_H-M "P B C M"
_symmetry_group_IT_number 57
_symmetry_cell_setting 'orthorhombic'
loop_
_space_group_symop_operation_xyz
x,y,z
-x,-y,1/2+z
x,1/2-y,-z
-x,1/2+y,1/2-z
-x,-y,-z
x,y,1/2-z
-x,1/2+y,z
x,1/2-y,1/2+z
loop_
_atom_site_type_symbol
_atom_site_label
_atom_site_fract_x
_atom_site_fract_y
_atom_site_fract_z
Si Si1 0.024936 0.879094 0.944963
Si Si2 0.554227 0.624175 0.843430
Si Si3 0.148562 0.006529 0.660692
Si Si4 0.422501 0.431331 0.658977
Si Si5 0.293837 0.075774 0.914309
Si Si6 0.730669 0.602444 0.409996
Si Si7 0.882399 0.673946 0.340355
O O1 0.959644 0.860005 0.882225
O O2 0.100275 0.911822 0.896786
O O3 0.040592 0.750000 0.000000
O O4 0.000000 0.000000 0.000000
O O5 0.566105 0.617196 0.750000
O O6 0.553252 0.781598 0.874325
O O7 0.477815 0.550308 0.872827
O O8 0.621898 0.540792 0.885899
O O9 0.134406 0.961638 0.750000
O O10 0.236564 0.988223 0.639271
O O11 0.129505 0.165247 0.646616
O O12 0.432899 0.424973 0.750000
O O13 0.335812 0.469832 0.639579
O O14 0.282560 0.236674 0.903582
O O15 0.276720 0.038652 0.003991
O O16 0.814792 0.579608 0.375964
O O17 0.889409 0.634726 0.250000
#
# Coordination Sequence:
#
# PCOD8232837 Si02
#       7
#     8   8   8   8   8   8   8
#     4  12  23  38  59  84 115 146 180 225 277 330
#     4   9  17  30  50  74 102 138 178 223 272 324
#     4  10  20  36  58  83 111 145 186 227 272 330
#     4   9  17  30  49  74 103 137 177 222 273 324
#     4   9  17  30  52  78 105 139 183 225 270 325
#     4   9  17  29  51  79 107 136 180 233 271 313
#     4  10  20  35  57  84 112 143 186 231 275 326
#
# _framework density 18.966543999999999
#
# number of rings (size 3 to 8) (size 9 to 14) (size 15 to 20)
#    0.000    2.286    1.429    2.143    2.000    4.000 
#    0.000    0.000    6.286    0.000    0.000    0.000 
#    0.000    0.000    0.000    0.000    0.000    0.000 
#
# Total GULP energy -694152.691036 kJ/mol
# GULP energy per Si atom -12395.583769 kJ/mol
# Density = 1.892338 g / cm^3
# Si number density = 18.966544 Si / 1000 Ang^3
#
#
#
# Elastic Constant Matrix: (Units=GPa)
#
#
# Indices 1 2 3 4 5 6 
#
# 1 80.4285 6.6432 13.1777 0.0000 0.0000 0.0000
# 2 6.6432 37.2676 16.9078 0.0000 0.0000 0.0000
# 3 13.1777 16.9078 64.6779 0.0000 0.0000 0.0000
# 4 0.0000 0.0000 0.0000 18.2923 0.0000 0.0000
# 5 0.0000 0.0000 0.0000 0.0000 36.6503 0.0000
# 6 0.0000 0.0000 0.0000 0.0000 0.0000 27.0325
#
#
#
# Elastic Compliance Matrix: (Units=1/GPa)
#
#
# Indices 1 2 3 4 5 6 
#
# 1 0.012915 -0.001257 -0.002303 0.000000 0.000000 0.000000
# 2 -0.001257 0.030566 -0.007734 0.000000 0.000000 0.000000
# 3 -0.002303 -0.007734 0.017952 0.000000 0.000000 0.000000
# 4 0.000000 0.000000 0.000000 0.054668 0.000000 0.000000
# 5 0.000000 0.000000 0.000000 0.000000 0.027285 0.000000
# 6 0.000000 0.000000 0.000000 0.000000 0.000000 0.036992
#
#
# Mechanical properties :
#
#
# Convention : Reuss Voigt Hill
#
# Bulk Modulus (GPa) = 25.74379 28.42569 27.08474
# Shear Modulus (GPa) = 23.15731 26.10471 24.63101
#
# Velocity S-wave (km/s) = 3.49801 3.71395 3.60760
# Velocity P-wave (km/s) = 5.46969 5.78023 5.62710
#
# Compressibility (1/GPa) = 0.03884432
#
# Stress axis : x y z
#
# Youngs Moduli (GPa) = 77.43217 32.71605 55.70345
#
# Poissons Ratio (x) = 0.04114 0.12826
# Poissons Ratio (y) = 0.09737 0.43082
# Poissons Ratio (z) = 0.17829 0.25303
#
# Static dielectric constant tensor:
#      x y z
#    x 3.667410 0.000000 0.000000 
#    y 0.000000 3.310590 0.000000 
#    z 0.000000 0.000000 3.523240 
# 
# 
# High freq. dielectric constant tensor:
#      x y z
#    x 1.750570 0.000000 0.000000 
#    y 0.000000 1.689940 0.000000 
#    z 0.000000 0.000000 1.743360 
# 
# From -- ./inp_files/18529.got.cif
#   From: 2010.03.12/outbox.cif.g09.slc.cpg/sg57_10_cif.got.tgz:18529.got - 2010.04.16 15:48:40.
