data_PCOD8232418
_publ_section_title
;
Structure prediction by ZEFSAII (Michael W. Deem and Ramdas Pophale) SiO2 
 PCOD8232418
Probable space group: P B C M
;
_chemical_formula_sum "Si O2"
_cell_formula_units_Z 56
_cell_length_a 14.079695
_cell_length_b 24.063215
_cell_length_c 9.092706
_cell_angle_alpha 90.000000
_cell_angle_beta 90.000000
_cell_angle_gamma 90.000000
_cell_volume 3080.633597
_symmetry_space_group_name_H-M "P B C M"
_symmetry_group_IT_number 57
_symmetry_cell_setting 'orthorhombic'
loop_
_space_group_symop_operation_xyz
x,y,z
-x,-y,1/2+z
x,1/2-y,-z
-x,1/2+y,1/2-z
-x,-y,-z
x,y,1/2-z
-x,1/2+y,z
x,1/2-y,1/2+z
loop_
_atom_site_type_symbol
_atom_site_label
_atom_site_fract_x
_atom_site_fract_y
_atom_site_fract_z
Si Si1 0.324739 0.585881 0.922238
Si Si2 0.785952 0.306707 0.076328
Si Si3 0.817796 0.630929 0.921234
Si Si4 0.713704 0.977795 0.418047
Si Si5 0.999570 0.804975 0.080067
Si Si6 0.540581 0.900294 0.079452
Si Si7 0.347110 0.307724 0.574975
O O1 0.309364 0.582765 0.750000
O O2 0.278996 0.642939 0.982506
O O3 0.434812 0.582824 0.967184
O O4 0.270279 0.533039 0.988171
O O5 0.775570 0.298765 0.250000
O O6 0.894299 0.320953 0.029115
O O7 0.751285 0.250000 0.000000
O O8 0.791011 0.640949 0.750000
O O9 0.794337 0.567200 0.963226
O O10 0.928428 0.643744 0.953345
O O11 0.755526 0.672262 0.019278
O O12 0.724977 0.995257 0.250000
O O13 0.609428 0.952475 0.448458
O O14 0.999147 0.789833 0.250000
O O15 0.961983 0.750000 0.000000
O O16 0.545591 0.881371 0.250000
O O17 0.571364 0.850149 0.974972
O O18 0.373205 0.250000 0.500000
O O19 0.346047 0.302010 0.750000
#
# Coordination Sequence:
#
# PCOD8232418 Si02
#       7
#     8   8   8   8   8   8   8
#     4  10  20  34  53  74  99 130 165 205 248 291
#     4   9  19  35  53  75 100 128 163 205 247 290
#     4   9  18  33  51  73 101 132 164 202 245 292
#     4   9  18  32  50  72  99 129 165 205 246 293
#     4   9  17  31  52  74  99 130 164 201 245 292
#     4   9  19  35  51  70  98 132 169 209 248 291
#     4  11  21  32  48  72 102 133 164 203 249 299
#
# _framework density 18.178079
#
# number of rings (size 3 to 8) (size 9 to 14) (size 15 to 20)
#    0.000    2.571    0.000    3.000    0.000    5.714 
#    0.000    2.143    0.000    0.000    0.000    0.000 
#    0.000    0.000    0.000    0.000    0.000    0.000 
#
# Total GULP energy -694384.178991 kJ/mol
# GULP energy per Si atom -12399.717482 kJ/mol
# Density = 1.813670 g / cm^3
# Si number density = 18.178079 Si / 1000 Ang^3
#
#
#
# Elastic Constant Matrix: (Units=GPa)
#
#
# Indices 1 2 3 4 5 6 
#
# 1 76.5643 52.2998 19.5268 0.0000 0.0000 0.0000
# 2 52.2998 133.7818 45.0654 0.0000 0.0000 0.0000
# 3 19.5268 45.0654 61.2652 0.0000 0.0000 0.0000
# 4 0.0000 0.0000 0.0000 35.1336 0.0000 0.0000
# 5 0.0000 0.0000 0.0000 0.0000 20.0153 0.0000
# 6 0.0000 0.0000 0.0000 0.0000 0.0000 23.7626
#
#
#
# Elastic Compliance Matrix: (Units=1/GPa)
#
#
# Indices 1 2 3 4 5 6 
#
# 1 0.017845 -0.006727 -0.000739 0.000000 0.000000 0.000000
# 2 -0.006727 0.012473 -0.007031 0.000000 0.000000 0.000000
# 3 -0.000739 -0.007031 0.021730 0.000000 0.000000 0.000000
# 4 0.000000 0.000000 0.000000 0.028463 0.000000 0.000000
# 5 0.000000 0.000000 0.000000 0.000000 0.049962 0.000000
# 6 0.000000 0.000000 0.000000 0.000000 0.000000 0.042083
#
#
# Mechanical properties :
#
#
# Convention : Reuss Voigt Hill
#
# Bulk Modulus (GPa) = 43.37790 56.15501 49.76645
# Shear Modulus (GPa) = 23.89674 26.09693 24.99684
#
# Velocity S-wave (km/s) = 3.62966 3.79308 3.71227
# Velocity P-wave (km/s) = 6.44053 7.08110 6.76840
#
# Compressibility (1/GPa) = 0.02305322
#
# Stress axis : x y z
#
# Youngs Moduli (GPa) = 56.03949 80.17279 46.01962
#
# Poissons Ratio (x) = 0.53932 0.03402
# Poissons Ratio (y) = 0.37698 0.32356
# Poissons Ratio (z) = 0.04143 0.56368
#
# Static dielectric constant tensor:
#      x y z
#    x 3.420120 0.000000 0.000000 
#    y 0.000000 3.320600 0.000000 
#    z 0.000000 0.000000 3.243200 
# 
# 
# High freq. dielectric constant tensor:
#      x y z
#    x 1.696510 0.000000 0.000000 
#    y 0.000000 1.700980 0.000000 
#    z 0.000000 0.000000 1.696570 
# 
# From -- ./inp_files/5168.got.cif
#   From: 2010.03.12/outbox.cif.g09.slc.cpg/sg57_3_cif.got.tgz:5168.got - 2010.04.16 15:48:40.
