data_PCOD8232770
_publ_section_title
;
Structure prediction by ZEFSAII (Michael W. Deem and Ramdas Pophale) SiO2 
 PCOD8232770
Probable space group: P B C M
;
_chemical_formula_sum "Si O2"
_cell_formula_units_Z 56
_cell_length_a 20.018232
_cell_length_b 9.316200
_cell_length_c 15.007273
_cell_angle_alpha 90.000000
_cell_angle_beta 90.000000
_cell_angle_gamma 90.000000
_cell_volume 2798.764164
_symmetry_space_group_name_H-M "P B C M"
_symmetry_group_IT_number 57
_symmetry_cell_setting 'orthorhombic'
loop_
_space_group_symop_operation_xyz
x,y,z
-x,-y,1/2+z
x,1/2-y,-z
-x,1/2+y,1/2-z
-x,-y,-z
x,y,1/2-z
-x,1/2+y,z
x,1/2-y,1/2+z
loop_
_atom_site_type_symbol
_atom_site_label
_atom_site_fract_x
_atom_site_fract_y
_atom_site_fract_z
Si Si1 0.926669 0.441463 0.351150
Si Si2 0.837084 0.416482 0.506721
Si Si3 0.059556 0.605525 0.351114
Si Si4 0.335126 0.277468 0.646632
Si Si5 0.690912 0.525474 0.511978
Si Si6 0.520173 0.682785 0.846321
Si Si7 0.447135 0.584488 0.440692
O O1 0.904169 0.473338 0.250000
O O2 0.864892 0.486450 0.415108
O O3 0.946772 0.275919 0.364007
O O4 0.989298 0.537644 0.379737
O O5 0.847642 0.250000 0.500000
O O6 0.882090 0.467539 0.590052
O O7 0.759896 0.444476 0.523953
O O8 0.077064 0.564611 0.250000
O O9 0.308827 0.279949 0.750000
O O10 0.310320 0.412512 0.588687
O O11 0.310576 0.139111 0.592280
O O12 0.415321 0.285126 0.645881
O O13 0.628204 0.417103 0.522080
O O14 0.486013 0.697999 0.750000
O O15 0.545455 0.518249 0.854010
O O16 0.467074 0.748225 0.918793
O O17 0.500000 0.500000 0.500000
#
# Coordination Sequence:
#
# PCOD8232770 Si02
#       7
#     8   8   8   8   8   8   8
#     4   9  18  35  58  83 112 147 185 228 274 327
#     4  10  21  36  55  80 116 152 183 224 278 334
#     4   9  18  35  57  82 112 146 186 226 274 328
#     4   9  19  38  58  75 107 148 186 235 285 332
#     4  10  21  37  55  83 111 148 192 228 283 344
#     4  10  20  35  56  81 106 140 187 238 289 343
#     4  11  20  35  58  79 110 144 188 238 291 340
#
# _framework density 20.008831000000001
#
# number of rings (size 3 to 8) (size 9 to 14) (size 15 to 20)
#    0.000    2.286    1.429    1.286    0.000    2.857 
#    5.143    0.000    0.000    1.714    0.000    0.000 
#    0.000    0.000    0.000    0.000    0.000    0.000 
#
# Total GULP energy -693920.948717 kJ/mol
# GULP energy per Si atom -12391.445513 kJ/mol
# Density = 1.996329 g / cm^3
# Si number density = 20.008831 Si / 1000 Ang^3
#
#
#
# Elastic Constant Matrix: (Units=GPa)
#
#
# Indices 1 2 3 4 5 6 
#
# 1 133.7890 17.7806 50.0125 0.0000 0.0000 0.0000
# 2 17.7806 29.4636 5.6774 0.0000 0.0000 0.0000
# 3 50.0125 5.6774 121.8592 0.0000 0.0000 0.0000
# 4 0.0000 0.0000 0.0000 15.9250 0.0000 0.0000
# 5 0.0000 0.0000 0.0000 0.0000 23.5398 0.0000
# 6 0.0000 0.0000 0.0000 0.0000 0.0000 30.2516
#
#
#
# Elastic Compliance Matrix: (Units=1/GPa)
#
#
# Indices 1 2 3 4 5 6 
#
# 1 0.009516 -0.005035 -0.003671 0.000000 0.000000 0.000000
# 2 -0.005035 0.036912 0.000347 0.000000 0.000000 0.000000
# 3 -0.003671 0.000347 0.009697 0.000000 0.000000 0.000000
# 4 0.000000 0.000000 0.000000 0.062794 0.000000 0.000000
# 5 0.000000 0.000000 0.000000 0.000000 0.042481 0.000000
# 6 0.000000 0.000000 0.000000 0.000000 0.000000 0.033056
#
#
# Mechanical properties :
#
#
# Convention : Reuss Voigt Hill
#
# Bulk Modulus (GPa) = 25.37689 48.00589 36.69139
# Shear Modulus (GPa) = 22.29056 28.05269 25.17163
#
# Velocity S-wave (km/s) = 3.34134 3.74841 3.55071
# Velocity P-wave (km/s) = 5.25323 6.54053 5.93191
#
# Compressibility (1/GPa) = 0.03940593
#
# Stress axis : x y z
#
# Youngs Moduli (GPa) = 105.08766 27.09139 103.12903
#
# Poissons Ratio (x) = 0.13641 0.37857
# Poissons Ratio (y) = 0.52915 -0.03577
# Poissons Ratio (z) = 0.38576 -0.00940
#
# Static dielectric constant tensor:
#      x y z
#    x 3.586170 0.000000 0.000000 
#    y 0.000000 4.314830 0.000000 
#    z 0.000000 0.000000 4.473350 
# 
# 
# High freq. dielectric constant tensor:
#      x y z
#    x 1.761460 0.000000 0.000000 
#    y 0.000000 1.765900 0.000000 
#    z 0.000000 0.000000 1.798360 
# 
# From -- ./inp_files/19377.got.cif
#   From: 2010.03.12/outbox.cif.g09.slc.cpg/sg57_10_cif.got.tgz:19377.got - 2010.04.16 15:48:40.
