data_PCOD8232827
_publ_section_title
;
Structure prediction by ZEFSAII (Michael W. Deem and Ramdas Pophale) SiO2 
 PCOD8232827
Probable space group: P B C M
;
_chemical_formula_sum "Si O2"
_cell_formula_units_Z 48
_cell_length_a 15.071858
_cell_length_b 19.061720
_cell_length_c 8.799778
_cell_angle_alpha 90.000000
_cell_angle_beta 90.000000
_cell_angle_gamma 90.000000
_cell_volume 2528.136947
_symmetry_space_group_name_H-M "P B C M"
_symmetry_group_IT_number 57
_symmetry_cell_setting 'orthorhombic'
loop_
_space_group_symop_operation_xyz
x,y,z
-x,-y,1/2+z
x,1/2-y,-z
-x,1/2+y,1/2-z
-x,-y,-z
x,y,1/2-z
-x,1/2+y,z
x,1/2-y,1/2+z
loop_
_atom_site_type_symbol
_atom_site_label
_atom_site_fract_x
_atom_site_fract_y
_atom_site_fract_z
Si Si1 0.158946 0.175401 0.069567
Si Si2 0.151315 0.822183 0.571745
Si Si3 0.353792 0.823392 0.929337
Si Si4 0.344857 0.323805 0.071020
Si Si5 0.000294 0.924176 0.929039
Si Si6 0.493318 0.924043 0.071375
O O1 0.165444 0.182844 0.250000
O O2 0.086603 0.118376 0.018887
O O3 0.131151 0.250000 0.000000
O O4 0.253112 0.150397 0.003084
O O5 0.117774 0.750000 0.500000
O O6 0.141670 0.813147 0.750000
O O7 0.252191 0.838745 0.524454
O O8 0.088278 0.884263 0.511974
O O9 0.367616 0.819626 0.750000
O O10 0.386347 0.750000 0.000000
O O11 0.409182 0.886524 0.998171
O O12 0.331727 0.313784 0.250000
O O13 0.417853 0.381660 0.031476
O O14 0.375698 0.250000 0.000000
O O15 0.002327 0.932292 0.750000
O O16 0.000000 0.000000 0.000000
O O17 0.478475 0.929993 0.250000
O O18 0.500000 0.000000 0.000000
#
# Coordination Sequence:
#
# PCOD8232827 Si02
#       6
#     8   8   8   8   8   8
#     4  10  20  35  57  83 108 139 180 224 268 315
#     4   9  19  36  57  81 108 139 178 222 266 316
#     4  10  20  36  59  84 110 142 181 225 271 321
#     4  10  21  37  58  82 107 140 180 222 270 320
#     4  10  22  37  53  78 111 145 180 218 265 319
#     4  11  24  39  56  80 111 147 183 223 274 327
#
# _framework density 18.986314
#
# number of rings (size 3 to 8) (size 9 to 14) (size 15 to 20)
#    0.000    2.000    0.000    4.000    0.000    8.000 
#    0.000    5.000    0.000    0.000    0.000    0.000 
#    0.000    0.000    0.000    0.000    0.000    0.000 
#
# Total GULP energy -595362.353223 kJ/mol
# GULP energy per Si atom -12403.382359 kJ/mol
# Density = 1.894310 g / cm^3
# Si number density = 18.986314 Si / 1000 Ang^3
#
#
#
# Elastic Constant Matrix: (Units=GPa)
#
#
# Indices 1 2 3 4 5 6 
#
# 1 130.8856 103.4665 56.4755 0.0000 0.0000 0.0000
# 2 103.4665 177.0391 58.8938 0.0000 0.0000 0.0000
# 3 56.4755 58.8938 76.3930 0.0000 0.0000 0.0000
# 4 0.0000 0.0000 0.0000 38.2710 0.0000 0.0000
# 5 0.0000 0.0000 0.0000 0.0000 28.1532 0.0000
# 6 0.0000 0.0000 0.0000 0.0000 0.0000 20.3655
#
#
#
# Elastic Compliance Matrix: (Units=1/GPa)
#
#
# Indices 1 2 3 4 5 6 
#
# 1 0.016168 -0.007360 -0.006278 0.000000 0.000000 0.000000
# 2 -0.007360 0.010948 -0.002998 0.000000 0.000000 0.000000
# 3 -0.006278 -0.002998 0.020043 0.000000 0.000000 0.000000
# 4 0.000000 0.000000 0.000000 0.026129 0.000000 0.000000
# 5 0.000000 0.000000 0.000000 0.000000 0.035520 0.000000
# 6 0.000000 0.000000 0.000000 0.000000 0.000000 0.049103
#
#
# Mechanical properties :
#
#
# Convention : Reuss Voigt Hill
#
# Bulk Modulus (GPa) = 72.02279 91.33215 81.67747
# Shear Modulus (GPa) = 25.53475 28.39009 26.96242
#
# Velocity S-wave (km/s) = 3.67127 3.87110 3.77251
# Velocity P-wave (km/s) = 7.48247 8.25767 7.87961
#
# Compressibility (1/GPa) = 0.01388449
#
# Stress axis : x y z
#
# Youngs Moduli (GPa) = 61.85240 91.34495 49.89283
#
# Poissons Ratio (x) = 0.67233 0.31322
# Poissons Ratio (y) = 0.45525 0.14960
# Poissons Ratio (z) = 0.38831 0.27390
#
# Static dielectric constant tensor:
#      x y z
#    x 3.759890 0.000000 0.000000 
#    y 0.000000 3.432910 0.000000 
#    z 0.000000 0.000000 3.525560 
# 
# 
# High freq. dielectric constant tensor:
#      x y z
#    x 1.752210 0.000000 0.000000 
#    y 0.000000 1.736210 0.000000 
#    z 0.000000 0.000000 1.745840 
# 
# From -- ./inp_files/4689.got.cif
#   From: 2010.03.12/outbox.cif.g09.slc.cpg/sg57_3_cif.got.tgz:4689.got - 2010.04.16 15:48:40.
