data_PCOD8232372
_publ_section_title
;
Structure prediction by ZEFSAII (Michael W. Deem and Ramdas Pophale) SiO2 
 PCOD8232372
Probable space group: P B C M
;
_chemical_formula_sum "Si O2"
_cell_formula_units_Z 40
_cell_length_a 12.514486
_cell_length_b 19.700835
_cell_length_c 9.259400
_cell_angle_alpha 90.000000
_cell_angle_beta 90.000000
_cell_angle_gamma 90.000000
_cell_volume 2282.866401
_symmetry_space_group_name_H-M "P B C M"
_symmetry_group_IT_number 57
_symmetry_cell_setting 'orthorhombic'
loop_
_space_group_symop_operation_xyz
x,y,z
-x,-y,1/2+z
x,1/2-y,-z
-x,1/2+y,1/2-z
-x,-y,-z
x,y,1/2-z
-x,1/2+y,z
x,1/2-y,1/2+z
loop_
_atom_site_type_symbol
_atom_site_label
_atom_site_fract_x
_atom_site_fract_y
_atom_site_fract_z
Si Si1 0.012376 0.569419 0.583659
Si Si2 0.611121 0.316420 0.582577
Si Si3 0.223833 0.079669 0.914118
Si Si4 0.633496 0.682007 0.080352
Si Si5 0.788580 0.078271 0.417661
O O1 0.040474 0.555223 0.750000
O O2 0.111089 0.608875 0.508582
O O3 0.000000 0.500000 0.500000
O O4 0.898198 0.607559 0.570939
O O5 0.651947 0.250000 0.500000
O O6 0.622223 0.299719 0.750000
O O7 0.489374 0.334081 0.541682
O O8 0.683169 0.380397 0.537455
O O9 0.264162 0.090848 0.750000
O O10 0.231434 0.000335 0.955305
O O11 0.297787 0.119079 0.025356
O O12 0.651732 0.691711 0.250000
O O13 0.671827 0.750000 0.000000
O O14 0.816809 0.087185 0.250000
#
# Coordination Sequence:
#
# PCOD8232372 Si02
#       5
#     8   8   8   8   8
#     4   9  17  30  49  73 101 131 162 198 243 291
#     4   9  19  35  52  72  99 131 165 202 246 292
#     4   9  18  32  50  73 101 130 161 201 244 287
#     4  10  20  34  52  72  97 130 166 203 245 294
#     4   9  18  33  52  74 102 132 162 200 244 290
#
# _framework density 17.521830999999999
#
# number of rings (size 3 to 8) (size 9 to 14) (size 15 to 20)
#    0.000    2.800    0.000    2.400    0.000    6.400 
#    0.000    1.000    0.000    2.400    0.000    0.000 
#    0.000    0.000    0.000    0.000    0.000    0.000 
#
# Total GULP energy -495880.874994 kJ/mol
# GULP energy per Si atom -12397.021875 kJ/mol
# Density = 1.748195 g / cm^3
# Si number density = 17.521831 Si / 1000 Ang^3
#
#
#
# Elastic Constant Matrix: (Units=GPa)
#
#
# Indices 1 2 3 4 5 6 
#
# 1 107.4161 61.7158 59.8468 0.0000 0.0000 0.0000
# 2 61.7158 81.4493 46.7474 0.0000 0.0000 0.0000
# 3 59.8468 46.7474 88.7337 0.0000 0.0000 0.0000
# 4 0.0000 0.0000 0.0000 28.7974 0.0000 0.0000
# 5 0.0000 0.0000 0.0000 0.0000 33.2552 0.0000
# 6 0.0000 0.0000 0.0000 0.0000 0.0000 8.9957
#
#
#
# Elastic Compliance Matrix: (Units=1/GPa)
#
#
# Indices 1 2 3 4 5 6 
#
# 1 0.019602 -0.010414 -0.007734 0.000000 0.000000 0.000000
# 2 -0.010414 0.023131 -0.005163 0.000000 0.000000 0.000000
# 3 -0.007734 -0.005163 0.019206 0.000000 0.000000 0.000000
# 4 0.000000 0.000000 0.000000 0.034725 0.000000 0.000000
# 5 0.000000 0.000000 0.000000 0.000000 0.030071 0.000000
# 6 0.000000 0.000000 0.000000 0.000000 0.000000 0.111164
#
#
# Mechanical properties :
#
#
# Convention : Reuss Voigt Hill
#
# Bulk Modulus (GPa) = 65.28362 68.24657 66.76509
# Shear Modulus (GPa) = 17.26359 21.49560 19.37960
#
# Velocity S-wave (km/s) = 3.14229 3.50636 3.32930
# Velocity P-wave (km/s) = 7.10666 7.44491 7.27775
#
# Compressibility (1/GPa) = 0.01531778
#
# Stress axis : x y z
#
# Youngs Moduli (GPa) = 51.01524 43.23147 52.06702
#
# Poissons Ratio (x) = 0.45020 0.40271
# Poissons Ratio (y) = 0.53126 0.26880
# Poissons Ratio (z) = 0.39457 0.22319
#
# Static dielectric constant tensor:
#      x y z
#    x 3.788720 0.000000 0.000000 
#    y 0.000000 3.053520 0.000000 
#    z 0.000000 0.000000 3.381980 
# 
# 
# High freq. dielectric constant tensor:
#      x y z
#    x 1.684720 0.000000 0.000000 
#    y 0.000000 1.647130 0.000000 
#    z 0.000000 0.000000 1.685060 
# 
# From -- ./inp_files/2877.got.cif
#   From: 2010.03.12/outbox.cif.g09.slc.cpg/sg57_2_cif.got.tgz:2877.got - 2010.04.16 15:48:40.
