data_PCOD8232794
_publ_section_title
;
Structure prediction by ZEFSAII (Michael W. Deem and Ramdas Pophale) SiO2 
 PCOD8232794
Probable space group: P B C M
;
_chemical_formula_sum "Si O2"
_cell_formula_units_Z 64
_cell_length_a 14.089219
_cell_length_b 25.696978
_cell_length_c 9.008295
_cell_angle_alpha 90.000000
_cell_angle_beta 90.000000
_cell_angle_gamma 90.000000
_cell_volume 3261.456364
_symmetry_space_group_name_H-M "P B C M"
_symmetry_group_IT_number 57
_symmetry_cell_setting 'orthorhombic'
loop_
_space_group_symop_operation_xyz
x,y,z
-x,-y,1/2+z
x,1/2-y,-z
-x,1/2+y,1/2-z
-x,-y,-z
x,y,1/2-z
-x,1/2+y,z
x,1/2-y,1/2+z
loop_
_atom_site_type_symbol
_atom_site_label
_atom_site_fract_x
_atom_site_fract_y
_atom_site_fract_z
Si Si1 0.427784 0.303112 0.923767
Si Si2 0.883049 0.104487 0.075433
Si Si3 0.208143 0.197386 0.077256
Si Si4 0.770148 0.194958 0.577040
Si Si5 0.205526 0.496105 0.419456
Si Si6 0.899502 0.596892 0.075171
Si Si7 0.588294 0.473236 0.921748
Si Si8 0.582144 0.133315 0.923168
O O1 0.450530 0.299750 0.750000
O O2 0.317990 0.313925 0.956638
O O3 0.461531 0.250000 0.000000
O O4 0.485032 0.349856 0.998107
O O5 0.872833 0.115323 0.250000
O O6 0.991503 0.095844 0.026751
O O7 0.825641 0.053327 0.026248
O O8 0.844096 0.154055 0.988962
O O9 0.189256 0.204907 0.250000
O O10 0.148634 0.149289 0.011186
O O11 0.172891 0.250000 0.000000
O O12 0.785661 0.250000 0.500000
O O13 0.791577 0.201068 0.750000
O O14 0.662824 0.176177 0.548602
O O15 0.173519 0.488291 0.250000
O O16 0.153844 0.453350 0.516010
O O17 0.319137 0.490145 0.436759
O O18 0.887366 0.595848 0.250000
O O19 0.563642 0.462769 0.750000
O O20 0.500000 0.500000 0.000000
O O21 0.615174 0.419792 0.001673
O O22 0.562916 0.123927 0.750000
#
# Coordination Sequence:
#
# PCOD8232794 Si02
#       8
#     8   8   8   8   8   8   8   8
#     4  10  20  35  56  82 114 153 194 239 289 349
#     4  10  21  41  63  87 121 157 200 253 305 357
#     4   9  20  38  57  84 117 153 193 237 294 350
#     4  11  24  40  62  90 122 162 205 253 309 368
#     4  10  22  40  62  89 120 158 200 246 299 357
#     4  10  22  38  62  91 119 155 199 249 302 362
#     4  11  24  41  61  89 124 161 199 245 299 358
#     4  11  23  39  60  88 119 156 201 246 301 365
#
# _framework density 19.623137
#
# number of rings (size 3 to 8) (size 9 to 14) (size 15 to 20)
#    0.000    1.750    1.250    2.250    1.750    6.000 
#    0.000    1.250    0.000    0.000    0.000    0.000 
#    0.000    0.000    0.000    0.000    0.000    0.000 
#
# Total GULP energy -793904.513264 kJ/mol
# GULP energy per Si atom -12404.758020 kJ/mol
# Density = 1.957847 g / cm^3
# Si number density = 19.623137 Si / 1000 Ang^3
#
#
#
# Elastic Constant Matrix: (Units=GPa)
#
#
# Indices 1 2 3 4 5 6 
#
# 1 109.5482 58.6960 52.2544 0.0000 0.0000 0.0000
# 2 58.6960 128.5739 52.6830 0.0000 0.0000 0.0000
# 3 52.2544 52.6830 87.8664 0.0000 0.0000 0.0000
# 4 0.0000 0.0000 0.0000 41.7416 0.0000 0.0000
# 5 0.0000 0.0000 0.0000 0.0000 28.3992 0.0000
# 6 0.0000 0.0000 0.0000 0.0000 0.0000 33.1325
#
#
#
# Elastic Compliance Matrix: (Units=1/GPa)
#
#
# Indices 1 2 3 4 5 6 
#
# 1 0.014134 -0.003988 -0.006014 0.000000 0.000000 0.000000
# 2 -0.003988 0.011436 -0.004485 0.000000 0.000000 0.000000
# 3 -0.006014 -0.004485 0.017647 0.000000 0.000000 0.000000
# 4 0.000000 0.000000 0.000000 0.023957 0.000000 0.000000
# 5 0.000000 0.000000 0.000000 0.000000 0.035212 0.000000
# 6 0.000000 0.000000 0.000000 0.000000 0.000000 0.030182
#
#
# Mechanical properties :
#
#
# Convention : Reuss Voigt Hill
#
# Bulk Modulus (GPa) = 70.21569 72.58394 71.39981
# Shear Modulus (GPa) = 30.06788 31.47833 30.77311
#
# Velocity S-wave (km/s) = 3.91866 4.00952 3.96435
# Velocity P-wave (km/s) = 7.50562 7.64881 7.57755
#
# Compressibility (1/GPa) = 0.01424183
#
# Stress axis : x y z
#
# Youngs Moduli (GPa) = 70.75102 87.44327 56.66715
#
# Poissons Ratio (x) = 0.34873 0.34082
# Poissons Ratio (y) = 0.28216 0.25416
# Poissons Ratio (z) = 0.42553 0.39219
#
# Static dielectric constant tensor:
#      x y z
#    x 3.643910 0.000000 0.000000 
#    y 0.000000 3.566760 0.000000 
#    z 0.000000 0.000000 3.563150 
# 
# 
# High freq. dielectric constant tensor:
#      x y z
#    x 1.772090 0.000000 0.000000 
#    y 0.000000 1.770200 0.000000 
#    z 0.000000 0.000000 1.765720 
# 
# From -- ./inp_files/5573.got.cif
#   From: 2010.03.12/outbox.cif.g09.slc.cpg/sg57_3_cif.got.tgz:5573.got - 2010.04.16 15:48:40.
