data_PCOD8232530
_publ_section_title
;
Structure prediction by ZEFSAII (Michael W. Deem and Ramdas Pophale) SiO2 
 PCOD8232530
Probable space group: P B C M
;
_chemical_formula_sum "Si O2"
_cell_formula_units_Z 40
_cell_length_a 25.255091
_cell_length_b 9.984469
_cell_length_c 8.717623
_cell_angle_alpha 90.000000
_cell_angle_beta 90.000000
_cell_angle_gamma 90.000000
_cell_volume 2198.224249
_symmetry_space_group_name_H-M "P B C M"
_symmetry_group_IT_number 57
_symmetry_cell_setting 'orthorhombic'
loop_
_space_group_symop_operation_xyz
x,y,z
-x,-y,1/2+z
x,1/2-y,-z
-x,1/2+y,1/2-z
-x,-y,-z
x,y,1/2-z
-x,1/2+y,z
x,1/2-y,1/2+z
loop_
_atom_site_type_symbol
_atom_site_label
_atom_site_fract_x
_atom_site_fract_y
_atom_site_fract_z
Si Si1 0.235068 0.103770 0.928079
Si Si2 0.542683 0.899697 0.931963
Si Si3 0.648390 0.606138 0.928027
Si Si4 0.158257 0.889674 0.070012
Si Si5 0.962720 0.389415 0.430444
O O1 0.221188 0.116448 0.750000
O O2 0.293965 0.037628 0.949576
O O3 0.230791 0.250000 0.000000
O O4 0.193206 0.009707 0.008677
O O5 0.537348 0.893373 0.750000
O O6 0.535753 0.750000 0.000000
O O7 0.599850 0.963072 0.980814
O O8 0.500000 0.000000 0.000000
O O9 0.632470 0.616573 0.750000
O O10 0.655682 0.750000 0.000000
O O11 0.164871 0.879243 0.250000
O O12 0.097798 0.918943 0.021666
O O13 0.178171 0.750000 0.000000
O O14 0.981950 0.250000 0.500000
O O15 0.969775 0.384805 0.250000
O O16 0.000000 0.500000 0.500000
#
# Coordination Sequence:
#
# PCOD8232530 Si02
#       5
#     8   8   8   8   8
#     4  10  20  34  55  81 108 138 176 219 260 306
#     4  11  21  35  55  79 107 140 176 217 264 314
#     4   9  17  31  51  76 104 136 174 215 260 310
#     4  10  21  37  56  78 107 141 176 214 263 316
#     4  10  21  37  57  80 106 139 176 217 262 312
#
# _framework density 18.196505999999999
#
# number of rings (size 3 to 8) (size 9 to 14) (size 15 to 20)
#    0.000    2.000    0.000    5.400    0.000    5.600 
#    0.000    1.000    0.000    4.800    0.000    0.000 
#    0.000    0.000    0.000    0.000    0.000    0.000 
#
# Total GULP energy -495841.889953 kJ/mol
# GULP energy per Si atom -12396.047249 kJ/mol
# Density = 1.815509 g / cm^3
# Si number density = 18.196506 Si / 1000 Ang^3
#
#
#
# Elastic Constant Matrix: (Units=GPa)
#
#
# Indices 1 2 3 4 5 6 
#
# 1 118.6195 77.8203 54.3426 0.0000 0.0000 0.0000
# 2 77.8203 105.2786 48.9900 0.0000 0.0000 0.0000
# 3 54.3426 48.9900 115.2879 0.0000 0.0000 0.0000
# 4 0.0000 0.0000 0.0000 34.8132 0.0000 0.0000
# 5 0.0000 0.0000 0.0000 0.0000 32.6272 0.0000
# 6 0.0000 0.0000 0.0000 0.0000 0.0000 35.5691
#
#
#
# Elastic Compliance Matrix: (Units=1/GPa)
#
#
# Indices 1 2 3 4 5 6 
#
# 1 0.017379 -0.011261 -0.003407 0.000000 0.000000 0.000000
# 2 -0.011261 0.019136 -0.002824 0.000000 0.000000 0.000000
# 3 -0.003407 -0.002824 0.011480 0.000000 0.000000 0.000000
# 4 0.000000 0.000000 0.000000 0.028725 0.000000 0.000000
# 5 0.000000 0.000000 0.000000 0.000000 0.030649 0.000000
# 6 0.000000 0.000000 0.000000 0.000000 0.000000 0.028114
#
#
# Mechanical properties :
#
#
# Convention : Reuss Voigt Hill
#
# Bulk Modulus (GPa) = 76.85022 77.94354 77.39688
# Shear Modulus (GPa) = 28.60368 31.13744 29.87056
#
# Velocity S-wave (km/s) = 3.96906 4.14112 4.05601
# Velocity P-wave (km/s) = 7.95800 8.11126 8.03500
#
# Compressibility (1/GPa) = 0.01301232
#
# Stress axis : x y z
#
# Youngs Moduli (GPa) = 57.54211 52.25631 87.11108
#
# Poissons Ratio (x) = 0.58845 0.29675
# Poissons Ratio (y) = 0.64797 0.24599
# Poissons Ratio (z) = 0.19602 0.14756
#
# Static dielectric constant tensor:
#      x y z
#    x 3.931310 0.000000 0.000000 
#    y 0.000000 3.207560 0.000000 
#    z 0.000000 0.000000 3.609980 
# 
# 
# High freq. dielectric constant tensor:
#      x y z
#    x 1.720060 0.000000 0.000000 
#    y 0.000000 1.678940 0.000000 
#    z 0.000000 0.000000 1.728160 
# 
# From -- ./inp_files/8892.got.cif
#   From: 2010.03.12/outbox.cif.g09.slc.cpg/sg57_5_cif.got.tgz:8892.got - 2010.04.16 15:48:40.
