data_PCOD8232070
_publ_section_title
;
Structure prediction by ZEFSAII (Michael W. Deem and Ramdas Pophale) SiO2 
 PCOD8232070
Probable space group: P B C M
;
_chemical_formula_sum "Si O2"
_cell_formula_units_Z 64
_cell_length_a 16.032619
_cell_length_b 9.717659
_cell_length_c 21.012187
_cell_angle_alpha 90.000000
_cell_angle_beta 90.000000
_cell_angle_gamma 90.000000
_cell_volume 3273.688740
_symmetry_space_group_name_H-M "P B C M"
_symmetry_group_IT_number 57
_symmetry_cell_setting 'orthorhombic'
loop_
_space_group_symop_operation_xyz
x,y,z
-x,-y,1/2+z
x,1/2-y,-z
-x,1/2+y,1/2-z
-x,-y,-z
x,y,1/2-z
-x,1/2+y,z
x,1/2-y,1/2+z
loop_
_atom_site_type_symbol
_atom_site_label
_atom_site_fract_x
_atom_site_fract_y
_atom_site_fract_z
Si Si1 0.581740 0.410843 0.007693
Si Si2 0.084984 0.324406 0.871958
Si Si3 0.734556 0.734659 0.823821
Si Si4 0.314361 0.498462 0.619649
Si Si5 0.811356 0.895280 0.519061
Si Si6 0.777893 0.268409 0.178608
Si Si7 0.269602 0.522260 0.089154
Si Si8 0.040849 0.885455 0.176947
O O1 0.607842 0.443102 0.080418
O O2 0.561673 0.250000 0.000000
O O3 0.500000 0.500000 0.000000
O O4 0.651044 0.456476 0.956412
O O5 0.172555 0.289095 0.838293
O O6 0.099864 0.359774 0.947257
O O7 0.040374 0.452449 0.837874
O O8 0.026099 0.191492 0.867273
O O9 0.724632 0.702181 0.750000
O O10 0.668573 0.852684 0.845506
O O11 0.710617 0.597329 0.861085
O O12 0.239334 0.482110 0.570009
O O13 0.286969 0.606312 0.673644
O O14 0.766862 0.750000 0.500000
O O15 0.812341 0.983506 0.453758
O O16 0.773300 0.207372 0.250000
O O17 0.752743 0.158272 0.126492
O O18 0.869562 0.321742 0.162712
O O19 0.014101 0.865218 0.250000
#
# Coordination Sequence:
#
# PCOD8232070 Si02
#       8
#     8   8   8   8   8   8   8   8
#     4  11  25  42  69  99 128 163 202 249 308 374
#     4  11  23  39  58  86 119 163 216 268 318 365
#     4  11  21  38  66  93 123 166 215 258 312 372
#     4  10  20  39  65  92 123 158 207 255 299 365
#     4  10  19  38  61  82 120 159 204 255 307 362
#     4  11  22  40  64  92 123 163 211 264 313 363
#     4  11  23  40  65  95 126 159 208 256 306 376
#     4  11  23  39  58  85 121 163 215 265 317 374
#
# _framework density 19.549814000000001
#
# number of rings (size 3 to 8) (size 9 to 14) (size 15 to 20)
#    0.000    1.250    6.250    1.875    3.500    0.000 
#    0.000    2.500    0.000    4.500    0.000    0.000 
#    0.000    0.000    0.000    0.000    0.000    0.000 
#
# Total GULP energy -793308.306907 kJ/mol
# GULP energy per Si atom -12395.442295 kJ/mol
# Density = 1.950532 g / cm^3
# Si number density = 19.549814 Si / 1000 Ang^3
#
#
#
# Elastic Constant Matrix: (Units=GPa)
#
#
# Indices 1 2 3 4 5 6 
#
# 1 66.6097 29.2219 25.9398 0.0000 0.0000 0.0000
# 2 29.2219 116.9721 32.5430 0.0000 0.0000 0.0000
# 3 25.9398 32.5430 102.5568 0.0000 0.0000 0.0000
# 4 0.0000 0.0000 0.0000 35.4975 0.0000 0.0000
# 5 0.0000 0.0000 0.0000 0.0000 22.1559 0.0000
# 6 0.0000 0.0000 0.0000 0.0000 0.0000 29.5962
#
#
#
# Elastic Compliance Matrix: (Units=1/GPa)
#
#
# Indices 1 2 3 4 5 6 
#
# 1 0.017884 -0.003520 -0.003406 0.000000 0.000000 0.000000
# 2 -0.003520 0.010070 -0.002305 0.000000 0.000000 0.000000
# 3 -0.003406 -0.002305 0.011344 0.000000 0.000000 0.000000
# 4 0.000000 0.000000 0.000000 0.028171 0.000000 0.000000
# 5 0.000000 0.000000 0.000000 0.000000 0.045135 0.000000
# 6 0.000000 0.000000 0.000000 0.000000 0.000000 0.033788
#
#
# Mechanical properties :
#
#
# Convention : Reuss Voigt Hill
#
# Bulk Modulus (GPa) = 47.99770 51.28310 49.64040
# Shear Modulus (GPa) = 29.10392 30.67885 29.89138
#
# Velocity S-wave (km/s) = 3.86256 3.96569 3.91447
# Velocity P-wave (km/s) = 6.67063 6.87444 6.77330
#
# Compressibility (1/GPa) = 0.02083433
#
# Stress axis : x y z
#
# Youngs Moduli (GPa) = 55.91717 99.30814 88.15490
#
# Poissons Ratio (x) = 0.34956 0.30029
# Poissons Ratio (y) = 0.19683 0.20319
# Poissons Ratio (z) = 0.19047 0.22890
#
# Static dielectric constant tensor:
#      x y z
#    x 3.319370 0.000000 0.000000 
#    y 0.000000 3.755790 0.000000 
#    z 0.000000 0.000000 3.898450 
# 
# 
# High freq. dielectric constant tensor:
#      x y z
#    x 1.715860 0.000000 0.000000 
#    y 0.000000 1.780360 0.000000 
#    z 0.000000 0.000000 1.773960 
# 
# From -- ./inp_files/25617.got.cif
#   From: 2010.03.12/outbox.cif.g09.slc.cpg/sg57_13_cif.got.tgz:25617.got - 2010.04.16 15:48:40.
