data_PCOD8232161
_publ_section_title
;
Structure prediction by ZEFSAII (Michael W. Deem and Ramdas Pophale) SiO2 
 PCOD8232161
Probable space group: P B C M
;
_chemical_formula_sum "Si O2"
_cell_formula_units_Z 64
_cell_length_a 16.640111
_cell_length_b 21.633507
_cell_length_c 9.253616
_cell_angle_alpha 90.000000
_cell_angle_beta 90.000000
_cell_angle_gamma 90.000000
_cell_volume 3331.153312
_symmetry_space_group_name_H-M "P B C M"
_symmetry_group_IT_number 57
_symmetry_cell_setting 'orthorhombic'
loop_
_space_group_symop_operation_xyz
x,y,z
-x,-y,1/2+z
x,1/2-y,-z
-x,1/2+y,1/2-z
-x,-y,-z
x,y,1/2-z
-x,1/2+y,z
x,1/2-y,1/2+z
loop_
_atom_site_type_symbol
_atom_site_label
_atom_site_fract_x
_atom_site_fract_y
_atom_site_fract_z
Si Si1 0.702893 0.309692 0.078473
Si Si2 0.969193 0.439449 0.581752
Si Si3 0.240553 0.311386 0.918773
Si Si4 0.632797 0.488996 0.589911
Si Si5 0.785657 0.416250 0.914588
Si Si6 0.442884 0.857272 0.915437
Si Si7 0.614432 0.607593 0.081368
Si Si8 0.056681 0.186133 0.419506
O O1 0.704371 0.302895 0.250000
O O2 0.739809 0.250000 0.000000
O O3 0.760132 0.365117 0.030030
O O4 0.610922 0.317183 0.024001
O O5 0.990086 0.447520 0.750000
O O6 0.874934 0.437687 0.551235
O O7 0.000000 0.500000 0.500000
O O8 0.007005 0.374087 0.526271
O O9 0.252559 0.299602 0.750000
O O10 0.302676 0.362890 0.976745
O O11 0.149261 0.330427 0.954599
O O12 0.265262 0.250000 0.000000
O O13 0.619385 0.515193 0.750000
O O14 0.727227 0.474743 0.565121
O O15 0.580125 0.428486 0.564283
O O16 0.602224 0.539997 0.481061
O O17 0.777561 0.390312 0.750000
O O18 0.425717 0.836271 0.750000
O O19 0.536910 0.849831 0.956733
O O20 0.619083 0.597841 0.250000
O O21 0.030671 0.250000 0.500000
O O22 0.042344 0.197871 0.250000
#
# Coordination Sequence:
#
# PCOD8232161 Si02
#       8
#     8   8   8   8   8   8   8   8
#     4  11  22  37  59  83 108 145 186 228 280 336
#     4  10  22  38  59  88 122 154 188 238 293 344
#     4   9  19  35  52  74 103 136 177 223 268 318
#     4   9  18  32  51  73 104 142 179 221 271 326
#     4   9  20  39  56  79 114 147 182 229 278 329
#     4   9  19  36  52  74 110 144 179 227 276 324
#     4  10  20  32  52  78 105 140 179 225 275 322
#     4   9  19  37  58  80 110 149 190 234 281 335
#
# _framework density 19.212564
#
# number of rings (size 3 to 8) (size 9 to 14) (size 15 to 20)
#    0.000    2.500    0.000    2.250    1.750    5.000 
#    0.000    2.500    0.000    0.000    0.000    0.000 
#    0.000    0.000    0.000    0.000    0.000    0.000 
#
# Total GULP energy -793419.996223 kJ/mol
# GULP energy per Si atom -12397.187441 kJ/mol
# Density = 1.916884 g / cm^3
# Si number density = 19.212564 Si / 1000 Ang^3
#
#
#
# Elastic Constant Matrix: (Units=GPa)
#
#
# Indices 1 2 3 4 5 6 
#
# 1 88.2747 24.0925 30.2809 0.0000 0.0000 0.0000
# 2 24.0925 80.6367 41.6316 0.0000 0.0000 0.0000
# 3 30.2809 41.6316 75.9061 0.0000 0.0000 0.0000
# 4 0.0000 0.0000 0.0000 36.2368 0.0000 0.0000
# 5 0.0000 0.0000 0.0000 0.0000 23.4870 0.0000
# 6 0.0000 0.0000 0.0000 0.0000 0.0000 14.9795
#
#
#
# Elastic Compliance Matrix: (Units=1/GPa)
#
#
# Indices 1 2 3 4 5 6 
#
# 1 0.013293 -0.001721 -0.004359 0.000000 0.000000 0.000000
# 2 -0.001721 0.017523 -0.008924 0.000000 0.000000 0.000000
# 3 -0.004359 -0.008924 0.019808 0.000000 0.000000 0.000000
# 4 0.000000 0.000000 0.000000 0.027596 0.000000 0.000000
# 5 0.000000 0.000000 0.000000 0.000000 0.042577 0.000000
# 6 0.000000 0.000000 0.000000 0.000000 0.000000 0.066758
#
#
# Mechanical properties :
#
#
# Convention : Reuss Voigt Hill
#
# Bulk Modulus (GPa) = 48.50773 48.53640 48.52207
# Shear Modulus (GPa) = 22.27815 24.86149 23.56982
#
# Velocity S-wave (km/s) = 3.40893 3.60116 3.50636
# Velocity P-wave (km/s) = 6.38726 6.52754 6.45778
#
# Compressibility (1/GPa) = 0.02061527
#
# Stress axis : x y z
#
# Youngs Moduli (GPa) = 75.22579 57.06815 50.48575
#
# Poissons Ratio (x) = 0.09823 0.22007
# Poissons Ratio (y) = 0.12948 0.45053
# Poissons Ratio (z) = 0.32791 0.50928
#
# Static dielectric constant tensor:
#      x y z
#    x 3.772080 0.000000 0.000000 
#    y 0.000000 3.414250 0.000000 
#    z 0.000000 0.000000 3.382660 
# 
# 
# High freq. dielectric constant tensor:
#      x y z
#    x 1.755810 0.000000 0.000000 
#    y 0.000000 1.739010 0.000000 
#    z 0.000000 0.000000 1.737880 
# 
# From -- ./inp_files/7116.got.cif
#   From: 2010.03.12/outbox.cif.g09.slc.cpg/sg57_4_cif.got.tgz:7116.got - 2010.04.16 15:48:40.
