data_PCOD8232641
_publ_section_title
;
Structure prediction by ZEFSAII (Michael W. Deem and Ramdas Pophale) SiO2 
 PCOD8232641
Probable space group: P B C M
;
_chemical_formula_sum "Si O2"
_cell_formula_units_Z 48
_cell_length_a 18.631387
_cell_length_b 8.438634
_cell_length_c 15.476382
_cell_angle_alpha 90.000000
_cell_angle_beta 90.000000
_cell_angle_gamma 90.000000
_cell_volume 2433.250261
_symmetry_space_group_name_H-M "P B C M"
_symmetry_group_IT_number 57
_symmetry_cell_setting 'orthorhombic'
loop_
_space_group_symop_operation_xyz
x,y,z
-x,-y,1/2+z
x,1/2-y,-z
-x,1/2+y,1/2-z
-x,-y,-z
x,y,1/2-z
-x,1/2+y,z
x,1/2-y,1/2+z
loop_
_atom_site_type_symbol
_atom_site_label
_atom_site_fract_x
_atom_site_fract_y
_atom_site_fract_z
Si Si1 0.915419 0.040993 0.153642
Si Si2 0.677396 0.062508 0.506399
Si Si3 0.168247 0.064509 0.500437
Si Si4 0.585165 0.037380 0.346754
Si Si5 0.948643 0.355693 0.416397
Si Si6 0.431552 0.909678 0.346832
O O1 0.903670 0.976322 0.250000
O O2 0.845178 0.002715 0.097020
O O3 0.982126 0.955028 0.108643
O O4 0.927424 0.230916 0.158297
O O5 0.691098 0.250000 0.500000
O O6 0.645825 0.993219 0.416621
O O7 0.624508 0.017621 0.585145
O O8 0.750900 0.973018 0.526694
O O9 0.152836 0.250000 0.500000
O O10 0.116089 0.977991 0.432197
O O11 0.608956 0.983231 0.250000
O O12 0.572195 0.222720 0.349042
O O13 0.511629 0.954403 0.375061
O O14 0.966282 0.250000 0.500000
O O15 0.414582 0.974620 0.250000
#
# Coordination Sequence:
#
# PCOD8232641 Si02
#       6
#     8   8   8   8   8   8
#     4  11  21  36  60  87 111 140 181 229 272 321
#     4  10  20  35  53  75 106 144 182 220 271 329
#     4  11  23  39  56  78 112 150 185 224 274 330
#     4   9  18  32  53  77 104 135 174 222 271 323
#     4  10  20  37  59  82 111 146 181 219 270 328
#     4   9  18  33  52  77 104 135 175 222 270 321
#
# _framework density 19.726702
#
# number of rings (size 3 to 8) (size 9 to 14) (size 15 to 20)
#    0.000    2.000    0.000    6.000    0.000    2.000 
#    0.000    6.667    0.000    0.000    0.000    0.000 
#    0.000    0.000    0.000    0.000    0.000    0.000 
#
# Total GULP energy -595197.703921 kJ/mol
# GULP energy per Si atom -12399.952165 kJ/mol
# Density = 1.968180 g / cm^3
# Si number density = 19.726702 Si / 1000 Ang^3
#
#
#
# Elastic Constant Matrix: (Units=GPa)
#
#
# Indices 1 2 3 4 5 6 
#
# 1 59.4060 14.2355 17.9251 0.0000 0.0000 0.0000
# 2 14.2355 70.4133 8.5375 0.0000 0.0000 0.0000
# 3 17.9251 8.5375 76.9314 0.0000 0.0000 0.0000
# 4 0.0000 0.0000 0.0000 16.8284 0.0000 0.0000
# 5 0.0000 0.0000 0.0000 0.0000 9.0057 0.0000
# 6 0.0000 0.0000 0.0000 0.0000 0.0000 39.4511
#
#
#
# Elastic Compliance Matrix: (Units=1/GPa)
#
#
# Indices 1 2 3 4 5 6 
#
# 1 0.018843 -0.003322 -0.004022 0.000000 0.000000 0.000000
# 2 -0.003322 0.014981 -0.000889 0.000000 0.000000 0.000000
# 3 -0.004022 -0.000889 0.014034 0.000000 0.000000 0.000000
# 4 0.000000 0.000000 0.000000 0.059423 0.000000 0.000000
# 5 0.000000 0.000000 0.000000 0.000000 0.111041 0.000000
# 6 0.000000 0.000000 0.000000 0.000000 0.000000 0.025348
#
#
# Mechanical properties :
#
#
# Convention : Reuss Voigt Hill
#
# Bulk Modulus (GPa) = 31.85325 32.01635 31.93480
# Shear Modulus (GPa) = 18.47747 24.12719 21.30233
#
# Velocity S-wave (km/s) = 3.06383 3.50104 3.28971
# Velocity P-wave (km/s) = 5.35709 5.71036 5.53654
#
# Compressibility (1/GPa) = 0.03139397
#
# Stress axis : x y z
#
# Youngs Moduli (GPa) = 53.07053 66.75042 71.25409
#
# Poissons Ratio (x) = 0.22173 0.28657
# Poissons Ratio (y) = 0.17629 0.06331
# Poissons Ratio (z) = 0.21344 0.05931
#
# Static dielectric constant tensor:
#      x y z
#    x 3.458070 0.000000 0.000000 
#    y 0.000000 3.677560 0.000000 
#    z 0.000000 0.000000 3.937190 
# 
# 
# High freq. dielectric constant tensor:
#      x y z
#    x 1.760360 0.000000 0.000000 
#    y 0.000000 1.768490 0.000000 
#    z 0.000000 0.000000 1.768170 
# 
# From -- ./inp_files/18955.got.cif
#   From: 2010.03.12/outbox.cif.g09.slc.cpg/sg57_10_cif.got.tgz:18955.got - 2010.04.16 15:48:40.
