data_PCOD8232204
_publ_section_title
;
Structure prediction by ZEFSAII (Michael W. Deem and Ramdas Pophale) SiO2 
 PCOD8232204
Probable space group: P B C M
;
_chemical_formula_sum "Si O2"
_cell_formula_units_Z 56
_cell_length_a 17.500661
_cell_length_b 19.565801
_cell_length_c 8.989740
_cell_angle_alpha 90.000000
_cell_angle_beta 90.000000
_cell_angle_gamma 90.000000
_cell_volume 3078.216882
_symmetry_space_group_name_H-M "P B C M"
_symmetry_group_IT_number 57
_symmetry_cell_setting 'orthorhombic'
loop_
_space_group_symop_operation_xyz
x,y,z
-x,-y,1/2+z
x,1/2-y,-z
-x,1/2+y,1/2-z
-x,-y,-z
x,y,1/2-z
-x,1/2+y,z
x,1/2-y,1/2+z
loop_
_atom_site_type_symbol
_atom_site_label
_atom_site_fract_x
_atom_site_fract_y
_atom_site_fract_z
Si Si1 0.124628 0.929717 0.573234
Si Si2 0.584203 0.179651 0.425883
Si Si3 0.301383 0.420208 0.419846
Si Si4 0.588196 0.819750 0.923685
Si Si5 0.876502 0.916204 0.078470
Si Si6 0.003790 0.175922 0.426979
Si Si7 0.706900 0.425807 0.925835
O O1 0.127515 0.932159 0.750000
O O2 0.208377 0.908492 0.510966
O O3 0.064319 0.873762 0.516272
O O4 0.103638 0.006947 0.520022
O O5 0.608670 0.250000 0.500000
O O6 0.592149 0.186913 0.250000
O O7 0.497870 0.159199 0.471348
O O8 0.642511 0.123819 0.492885
O O9 0.327083 0.407763 0.250000
O O10 0.353152 0.377445 0.529883
O O11 0.212981 0.401076 0.439347
O O12 0.315732 0.497736 0.469453
O O13 0.593505 0.807748 0.750000
O O14 0.613723 0.750000 0.000000
O O15 0.901739 0.907737 0.250000
O O16 0.918044 0.859541 0.978553
O O17 0.993445 0.250000 0.500000
O O18 0.003870 0.184343 0.250000
O O19 0.709334 0.418294 0.750000
#
# Coordination Sequence:
#
# PCOD8232204 Si02
#       7
#     8   8   8   8   8   8   8
#     4   8  16  32  54  76  98 128 164 200 241 292
#     4   9  18  32  50  72  99 133 168 200 239 288
#     4   9  18  33  54  76  97 126 163 202 246 295
#     4  10  20  33  49  71 100 132 166 203 243 289
#     4   9  18  35  56  75  96 126 165 204 244 292
#     4  11  22  34  50  75 104 132 163 200 243 288
#     4   8  15  31  53  75 100 129 161 198 244 295
#
# _framework density 18.192350999999999
#
# number of rings (size 3 to 8) (size 9 to 14) (size 15 to 20)
#    0.000    2.857    0.000    3.000    0.000    2.857 
#    0.000    1.429    0.000    3.429    0.000    0.000 
#    0.000    0.000    0.000    0.000    0.000    0.000 
#
# Total GULP energy -694244.009350 kJ/mol
# GULP energy per Si atom -12397.214453 kJ/mol
# Density = 1.815094 g / cm^3
# Si number density = 18.192351 Si / 1000 Ang^3
#
#
#
# Elastic Constant Matrix: (Units=GPa)
#
#
# Indices 1 2 3 4 5 6 
#
# 1 95.8275 74.5575 30.6067 0.0000 0.0000 0.0000
# 2 74.5575 124.1638 35.2516 0.0000 0.0000 0.0000
# 3 30.6067 35.2516 42.0524 0.0000 0.0000 0.0000
# 4 0.0000 0.0000 0.0000 23.7137 0.0000 0.0000
# 5 0.0000 0.0000 0.0000 0.0000 20.6550 0.0000
# 6 0.0000 0.0000 0.0000 0.0000 0.0000 21.0321
#
#
#
# Elastic Compliance Matrix: (Units=1/GPa)
#
#
# Indices 1 2 3 4 5 6 
#
# 1 0.020714 -0.010706 -0.006101 0.000000 0.000000 0.000000
# 2 -0.010706 0.016103 -0.005707 0.000000 0.000000 0.000000
# 3 -0.006101 -0.005707 0.033004 0.000000 0.000000 0.000000
# 4 0.000000 0.000000 0.000000 0.042170 0.000000 0.000000
# 5 0.000000 0.000000 0.000000 0.000000 0.048414 0.000000
# 6 0.000000 0.000000 0.000000 0.000000 0.000000 0.047546
#
#
# Mechanical properties :
#
#
# Convention : Reuss Voigt Hill
#
# Bulk Modulus (GPa) = 40.33398 60.31949 50.32673
# Shear Modulus (GPa) = 19.13925 21.18868 20.16396
#
# Velocity S-wave (km/s) = 3.24705 3.41648 3.33284
# Velocity P-wave (km/s) = 6.02302 6.98510 6.52182
#
# Compressibility (1/GPa) = 0.02479299
#
# Stress axis : x y z
#
# Youngs Moduli (GPa) = 48.27710 62.10161 30.29908
#
# Poissons Ratio (x) = 0.66485 0.18487
# Poissons Ratio (y) = 0.51685 0.17290
# Poissons Ratio (z) = 0.29456 0.35438
#
# Static dielectric constant tensor:
#      x y z
#    x 3.657270 0.000000 0.000000 
#    y 0.000000 3.703880 0.000000 
#    z 0.000000 0.000000 3.044830 
# 
# 
# High freq. dielectric constant tensor:
#      x y z
#    x 1.712820 0.000000 0.000000 
#    y 0.000000 1.706630 0.000000 
#    z 0.000000 0.000000 1.677340 
# 
# From -- ./inp_files/7025.got.cif
#   From: 2010.03.12/outbox.cif.g09.slc.cpg/sg57_4_cif.got.tgz:7025.got - 2010.04.16 15:48:40.
