data_PCOD8232234
_publ_section_title
;
Structure prediction by ZEFSAII (Michael W. Deem and Ramdas Pophale) SiO2 
 PCOD8232234
Probable space group: P B C M
;
_chemical_formula_sum "Si O2"
_cell_formula_units_Z 64
_cell_length_a 15.992004
_cell_length_b 24.205742
_cell_length_c 8.894642
_cell_angle_alpha 90.000000
_cell_angle_beta 90.000000
_cell_angle_gamma 90.000000
_cell_volume 3443.101001
_symmetry_space_group_name_H-M "P B C M"
_symmetry_group_IT_number 57
_symmetry_cell_setting 'orthorhombic'
loop_
_space_group_symop_operation_xyz
x,y,z
-x,-y,1/2+z
x,1/2-y,-z
-x,1/2+y,1/2-z
-x,-y,-z
x,y,1/2-z
-x,1/2+y,z
x,1/2-y,1/2+z
loop_
_atom_site_type_symbol
_atom_site_label
_atom_site_fract_x
_atom_site_fract_y
_atom_site_fract_z
Si Si1 0.060278 0.918457 0.926981
Si Si2 0.886569 0.526337 0.074878
Si Si3 0.560308 0.542455 0.924855
Si Si4 0.868039 0.190428 0.925836
Si Si5 0.324498 0.808092 0.425720
Si Si6 0.521964 0.358300 0.921567
Si Si7 0.644827 0.695660 0.418607
Si Si8 0.285635 0.080558 0.426778
O O1 0.073713 0.911605 0.750000
O O2 0.966378 0.936786 0.969875
O O3 0.078182 0.859213 0.003096
O O4 0.119269 0.967966 0.987180
O O5 0.887608 0.511173 0.250000
O O6 0.808276 0.564290 0.030576
O O7 0.564961 0.531609 0.750000
O O8 0.500000 0.500000 0.000000
O O9 0.522331 0.601218 0.963399
O O10 0.653311 0.536686 0.993024
O O11 0.888778 0.195405 0.750000
O O12 0.771206 0.174248 0.952137
O O13 0.889194 0.250000 0.000000
O O14 0.342208 0.750000 0.500000
O O15 0.347109 0.806054 0.250000
O O16 0.385546 0.848920 0.514276
O O17 0.529867 0.380868 0.750000
O O18 0.457094 0.306924 0.924258
O O19 0.677338 0.750000 0.500000
O O20 0.676578 0.701352 0.250000
O O21 0.691710 0.641865 0.487746
O O22 0.303299 0.077143 0.250000
#
# Coordination Sequence:
#
# PCOD8232234 Si02
#       8
#     8   8   8   8   8   8   8   8
#     4  10  20  35  58  86 111 138 177 222 269 323
#     4   9  19  37  60  82 108 142 178 220 270 323
#     4  11  22  36  53  74 102 136 174 215 262 314
#     4  10  21  37  56  79 111 148 183 222 271 324
#     4  10  20  33  50  74 103 137 176 217 261 308
#     4  10  20  34  51  72  99 134 176 219 262 309
#     4   9  18  31  49  72  99 133 171 212 258 310
#     4   9  19  37  56  76 106 141 177 220 270 320
#
# _framework density 18.587893999999999
#
# number of rings (size 3 to 8) (size 9 to 14) (size 15 to 20)
#    0.000    2.250    0.000    3.750    0.000    7.000 
#    0.000    1.875    0.000    1.500    0.000    0.000 
#    0.000    0.000    0.000    0.000    0.000    0.000 
#
# Total GULP energy -793304.099811 kJ/mol
# GULP energy per Si atom -12395.376560 kJ/mol
# Density = 1.854559 g / cm^3
# Si number density = 18.587894 Si / 1000 Ang^3
#
#
#
# Elastic Constant Matrix: (Units=GPa)
#
#
# Indices 1 2 3 4 5 6 
#
# 1 98.7630 59.7327 47.7384 0.0000 0.0000 0.0000
# 2 59.7327 109.2643 53.0765 0.0000 0.0000 0.0000
# 3 47.7384 53.0765 94.0340 0.0000 0.0000 0.0000
# 4 0.0000 0.0000 0.0000 36.9136 0.0000 0.0000
# 5 0.0000 0.0000 0.0000 0.0000 28.2514 0.0000
# 6 0.0000 0.0000 0.0000 0.0000 0.0000 26.1538
#
#
#
# Elastic Compliance Matrix: (Units=1/GPa)
#
#
# Indices 1 2 3 4 5 6 
#
# 1 0.016401 -0.006781 -0.004499 0.000000 0.000000 0.000000
# 2 -0.006781 0.015413 -0.005257 0.000000 0.000000 0.000000
# 3 -0.004499 -0.005257 0.015886 0.000000 0.000000 0.000000
# 4 0.000000 0.000000 0.000000 0.027090 0.000000 0.000000
# 5 0.000000 0.000000 0.000000 0.000000 0.035396 0.000000
# 6 0.000000 0.000000 0.000000 0.000000 0.000000 0.038235
#
#
# Mechanical properties :
#
#
# Convention : Reuss Voigt Hill
#
# Bulk Modulus (GPa) = 68.37251 69.23961 68.80606
# Shear Modulus (GPa) = 26.82828 27.69801 27.26315
#
# Velocity S-wave (km/s) = 3.80323 3.86438 3.83393
# Velocity P-wave (km/s) = 7.49328 7.56584 7.52965
#
# Compressibility (1/GPa) = 0.01462576
#
# Stress axis : x y z
#
# Youngs Moduli (GPa) = 60.97237 64.88156 62.94905
#
# Poissons Ratio (x) = 0.43993 0.28321
# Poissons Ratio (y) = 0.41343 0.33094
# Poissons Ratio (z) = 0.27432 0.34110
#
# Static dielectric constant tensor:
#      x y z
#    x 3.432690 0.000000 0.000000 
#    y 0.000000 3.052480 0.000000 
#    z 0.000000 0.000000 3.423990 
# 
# 
# High freq. dielectric constant tensor:
#      x y z
#    x 1.713200 0.000000 0.000000 
#    y 0.000000 1.715480 0.000000 
#    z 0.000000 0.000000 1.728390 
# 
# From -- ./inp_files/5623.got.cif
#   From: 2010.03.12/outbox.cif.g09.slc.cpg/sg57_3_cif.got.tgz:5623.got - 2010.04.16 15:48:40.
