data_PCOD8232147
_publ_section_title
;
Structure prediction by ZEFSAII (Michael W. Deem and Ramdas Pophale) SiO2 
 PCOD8232147
Probable space group: P B C M
;
_chemical_formula_sum "Si O2"
_cell_formula_units_Z 56
_cell_length_a 20.848532
_cell_length_b 14.907597
_cell_length_c 8.947963
_cell_angle_alpha 90.000000
_cell_angle_beta 90.000000
_cell_angle_gamma 90.000000
_cell_volume 2781.040440
_symmetry_space_group_name_H-M "P B C M"
_symmetry_group_IT_number 57
_symmetry_cell_setting 'orthorhombic'
loop_
_space_group_symop_operation_xyz
x,y,z
-x,-y,1/2+z
x,1/2-y,-z
-x,1/2+y,1/2-z
-x,-y,-z
x,y,1/2-z
-x,1/2+y,z
x,1/2-y,1/2+z
loop_
_atom_site_type_symbol
_atom_site_label
_atom_site_fract_x
_atom_site_fract_y
_atom_site_fract_z
Si Si1 0.407338 0.507596 0.925724
Si Si2 0.482491 0.350237 0.426822
Si Si3 0.273779 0.521830 0.073165
Si Si4 0.906232 0.903503 0.915277
Si Si5 0.036954 0.834861 0.576628
Si Si6 0.156287 0.904472 0.082101
Si Si7 0.790213 0.836714 0.423217
O O1 0.403189 0.488654 0.750000
O O2 0.453398 0.592350 0.960209
O O3 0.426560 0.413267 0.004564
O O4 0.340201 0.540455 0.991373
O O5 0.485122 0.250000 0.500000
O O6 0.470724 0.338272 0.250000
O O7 0.281084 0.533851 0.250000
O O8 0.250492 0.422814 0.027020
O O9 0.222132 0.593427 0.011885
O O10 0.898066 0.860451 0.750000
O O11 0.982281 0.910068 0.954085
O O12 0.879010 0.001778 0.917907
O O13 0.864820 0.844941 0.030545
O O14 0.002994 0.750000 0.500000
O O15 0.051631 0.823037 0.750000
O O16 0.105507 0.841214 0.497293
O O17 0.171460 0.871442 0.250000
O O18 0.758391 0.750000 0.500000
O O19 0.786206 0.821721 0.250000
#
# Coordination Sequence:
#
# PCOD8232147 Si02
#       7
#     8   8   8   8   8   8   8
#     4  10  21  38  61  89 121 156 194 236 281 332
#     4  10  21  38  62  92 124 157 192 232 279 329
#     4  10  21  37  56  79 109 147 187 227 273 326
#     4   9  19  34  53  75 100 132 171 218 273 331
#     4  11  22  35  51  74 102 133 172 220 274 327
#     4  10  20  36  56  77 102 135 176 221 270 325
#     4  10  20  32  49  74 105 140 179 224 275 331
#
# _framework density 20.136348999999999
#
# number of rings (size 3 to 8) (size 9 to 14) (size 15 to 20)
#    0.000    2.000    0.000    3.429    0.000    6.857 
#    0.000    2.143    0.000    1.714    0.000    0.000 
#    0.000    0.000    0.000    0.000    0.000    0.000 
#
# Total GULP energy -694000.974295 kJ/mol
# GULP energy per Si atom -12392.874541 kJ/mol
# Density = 2.009052 g / cm^3
# Si number density = 20.136349 Si / 1000 Ang^3
#
#
#
# Elastic Constant Matrix: (Units=GPa)
#
#
# Indices 1 2 3 4 5 6 
#
# 1 118.1023 17.4151 38.2509 0.0000 0.0000 0.0000
# 2 17.4151 45.5650 31.8771 0.0000 0.0000 0.0000
# 3 38.2509 31.8771 90.8388 0.0000 0.0000 0.0000
# 4 0.0000 0.0000 0.0000 32.7624 0.0000 0.0000
# 5 0.0000 0.0000 0.0000 0.0000 35.6270 0.0000
# 6 0.0000 0.0000 0.0000 0.0000 0.0000 70.9570
#
#
#
# Elastic Compliance Matrix: (Units=1/GPa)
#
#
# Indices 1 2 3 4 5 6 
#
# 1 0.009849 -0.001144 -0.003746 0.000000 0.000000 0.000000
# 2 -0.001144 0.029221 -0.009772 0.000000 0.000000 0.000000
# 3 -0.003746 -0.009772 0.016015 0.000000 0.000000 0.000000
# 4 0.000000 0.000000 0.000000 0.030523 0.000000 0.000000
# 5 0.000000 0.000000 0.000000 0.000000 0.028069 0.000000
# 6 0.000000 0.000000 0.000000 0.000000 0.000000 0.014093
#
#
# Mechanical properties :
#
#
# Convention : Reuss Voigt Hill
#
# Bulk Modulus (GPa) = 38.81892 47.73249 43.27571
# Shear Modulus (GPa) = 30.17857 39.00016 34.58937
#
# Velocity S-wave (km/s) = 3.87552 4.40569 4.14908
# Velocity P-wave (km/s) = 6.27265 7.04530 6.67017
#
# Compressibility (1/GPa) = 0.02576063
#
# Stress axis : x y z
#
# Youngs Moduli (GPa) = 101.53184 34.22248 62.44053
#
# Poissons Ratio (x) = 0.03914 0.23390
# Poissons Ratio (y) = 0.11612 0.61020
# Poissons Ratio (z) = 0.38034 0.33444
#
# Static dielectric constant tensor:
#      x y z
#    x 3.677570 0.000000 0.000000 
#    y 0.000000 3.632720 0.000000 
#    z 0.000000 0.000000 3.850420 
# 
# 
# High freq. dielectric constant tensor:
#      x y z
#    x 1.782510 0.000000 0.000000 
#    y 0.000000 1.775150 0.000000 
#    z 0.000000 0.000000 1.798950 
# 
# From -- ./inp_files/8072.got.cif
#   From: 2010.03.12/outbox.cif.g09.slc.cpg/sg57_5_cif.got.tgz:8072.got - 2010.04.16 15:48:40.
