data_PCOD8232703
_publ_section_title
;
Structure prediction by ZEFSAII (Michael W. Deem and Ramdas Pophale) SiO2 
 PCOD8232703
Probable space group: P B C M
;
_chemical_formula_sum "Si O2"
_cell_formula_units_Z 64
_cell_length_a 23.515449
_cell_length_b 15.000216
_cell_length_c 9.354379
_cell_angle_alpha 90.000000
_cell_angle_beta 90.000000
_cell_angle_gamma 90.000000
_cell_volume 3299.633849
_symmetry_space_group_name_H-M "P B C M"
_symmetry_group_IT_number 57
_symmetry_cell_setting 'orthorhombic'
loop_
_space_group_symop_operation_xyz
x,y,z
-x,-y,1/2+z
x,1/2-y,-z
-x,1/2+y,1/2-z
-x,-y,-z
x,y,1/2-z
-x,1/2+y,z
x,1/2-y,1/2+z
loop_
_atom_site_type_symbol
_atom_site_label
_atom_site_fract_x
_atom_site_fract_y
_atom_site_fract_z
Si Si1 0.493857 0.165643 0.583952
Si Si2 0.994097 0.347914 0.921309
Si Si3 0.617319 0.936516 0.089184
Si Si4 0.385918 0.896832 0.088564
Si Si5 0.076156 0.508842 0.586095
Si Si6 0.265482 0.830796 0.410665
Si Si7 0.271067 0.337579 0.415357
Si Si8 0.209184 0.011664 0.084639
O O1 0.470663 0.250000 0.500000
O O2 0.498168 0.190349 0.750000
O O3 0.447585 0.089543 0.554982
O O4 0.555616 0.139570 0.519276
O O5 0.985687 0.332435 0.750000
O O6 0.048640 0.411974 0.952139
O O7 0.999368 0.250000 0.000000
O O8 0.942770 0.407837 0.986274
O O9 0.621971 0.972177 0.250000
O O10 0.661647 0.856449 0.064696
O O11 0.636214 0.015259 0.987483
O O12 0.400082 0.923645 0.250000
O O13 0.334342 0.827232 0.078872
O O14 0.061266 0.533764 0.750000
O O15 0.142552 0.497409 0.562574
O O16 0.239562 0.750000 0.500000
O O17 0.244700 0.816410 0.250000
O O18 0.239853 0.922107 0.469124
O O19 0.254877 0.250000 0.500000
O O20 0.255273 0.325287 0.250000
O O21 0.231827 0.413560 0.479938
O O22 0.224950 0.032461 0.250000
#
# Coordination Sequence:
#
# PCOD8232703 Si02
#       8
#     8   8   8   8   8   8   8   8
#     4  10  21  35  51  76 106 136 178 227 281 343
#     4  10  20  36  60  89 122 158 195 237 285 337
#     4  10  21  36  54  78 106 139 182 232 284 344
#     4  10  20  35  55  78 104 139 182 229 285 344
#     4   9  20  38  60  87 119 157 198 241 286 333
#     4  10  21  36  56  81 110 147 188 233 285 340
#     4  11  23  38  58  83 112 150 194 239 291 347
#     4  10  21  40  61  84 118 154 194 241 287 336
#
# _framework density 19.396091999999999
#
# number of rings (size 3 to 8) (size 9 to 14) (size 15 to 20)
#    0.000    2.000    1.250    1.875    0.000    4.500 
#    0.000    2.500    0.000    0.000    0.000    0.000 
#    0.000    0.000    0.000    0.000    0.000    0.000 
#
# Total GULP energy -793376.331401 kJ/mol
# GULP energy per Si atom -12396.505178 kJ/mol
# Density = 1.935195 g / cm^3
# Si number density = 19.396092 Si / 1000 Ang^3
#
#
#
# Elastic Constant Matrix: (Units=GPa)
#
#
# Indices 1 2 3 4 5 6 
#
# 1 91.8302 29.2682 34.0843 0.0000 0.0000 0.0000
# 2 29.2682 130.6669 72.2533 0.0000 0.0000 0.0000
# 3 34.0843 72.2533 91.1422 0.0000 0.0000 0.0000
# 4 0.0000 0.0000 0.0000 40.8894 0.0000 0.0000
# 5 0.0000 0.0000 0.0000 0.0000 20.5172 0.0000
# 6 0.0000 0.0000 0.0000 0.0000 0.0000 4.5618
#
#
#
# Elastic Compliance Matrix: (Units=1/GPa)
#
#
# Indices 1 2 3 4 5 6 
#
# 1 0.012656 -0.000388 -0.004426 0.000000 0.000000 0.000000
# 2 -0.000388 0.013638 -0.010667 0.000000 0.000000 0.000000
# 3 -0.004426 -0.010667 0.021083 0.000000 0.000000 0.000000
# 4 0.000000 0.000000 0.000000 0.024456 0.000000 0.000000
# 5 0.000000 0.000000 0.000000 0.000000 0.048740 0.000000
# 6 0.000000 0.000000 0.000000 0.000000 0.000000 0.219211
#
#
# Mechanical properties :
#
#
# Convention : Reuss Voigt Hill
#
# Bulk Modulus (GPa) = 60.91218 64.98342 62.94780
# Shear Modulus (GPa) = 13.29022 25.06258 19.17640
#
# Velocity S-wave (km/s) = 2.62047 3.59854 3.14773
# Velocity P-wave (km/s) = 6.37404 7.13036 6.76278
#
# Compressibility (1/GPa) = 0.01641708
#
# Stress axis : x y z
#
# Youngs Moduli (GPa) = 79.01496 73.32399 47.43172
#
# Poissons Ratio (x) = 0.02842 0.20991
# Poissons Ratio (y) = 0.03063 0.50594
# Poissons Ratio (z) = 0.34969 0.78212
#
# Static dielectric constant tensor:
#      x y z
#    x 3.555830 0.000000 0.000000 
#    y 0.000000 3.492080 0.000000 
#    z 0.000000 0.000000 3.592420 
# 
# 
# High freq. dielectric constant tensor:
#      x y z
#    x 1.755430 0.000000 0.000000 
#    y 0.000000 1.752060 0.000000 
#    z 0.000000 0.000000 1.755520 
# 
# From -- ./inp_files/9257.got.cif
#   From: 2010.03.12/outbox.cif.g09.slc.cpg/sg57_5_cif.got.tgz:9257.got - 2010.04.16 15:48:40.
