data_PCOD8232591
_publ_section_title
;
Structure prediction by ZEFSAII (Michael W. Deem and Ramdas Pophale) SiO2 
 PCOD8232591
Probable space group: P B C M
;
_chemical_formula_sum "Si O2"
_cell_formula_units_Z 32
_cell_length_a 9.857106
_cell_length_b 19.854955
_cell_length_c 8.839107
_cell_angle_alpha 90.000000
_cell_angle_beta 90.000000
_cell_angle_gamma 90.000000
_cell_volume 1729.922810
_symmetry_space_group_name_H-M "P B C M"
_symmetry_group_IT_number 57
_symmetry_cell_setting 'orthorhombic'
loop_
_space_group_symop_operation_xyz
x,y,z
-x,-y,1/2+z
x,1/2-y,-z
-x,1/2+y,1/2-z
-x,-y,-z
x,y,1/2-z
-x,1/2+y,z
x,1/2-y,1/2+z
loop_
_atom_site_type_symbol
_atom_site_label
_atom_site_fract_x
_atom_site_fract_y
_atom_site_fract_z
Si Si1 0.184990 0.448731 0.573810
Si Si2 0.545916 0.930413 0.072355
Si Si3 0.114506 0.588061 0.073212
Si Si4 0.322313 0.820726 0.428156
O O1 0.216388 0.456217 0.750000
O O2 0.307374 0.408951 0.493590
O O3 0.178181 0.523477 0.507137
O O4 0.046649 0.408002 0.543200
O O5 0.556809 0.940208 0.250000
O O6 0.441199 0.872229 0.028365
O O7 0.500000 0.000000 0.000000
O O8 0.147351 0.583400 0.250000
O O9 0.181116 0.654345 0.001360
O O10 0.363300 0.750000 0.500000
O O11 0.302556 0.813240 0.250000
#
# Coordination Sequence:
#
# PCOD8232591 Si02
#       4
#     8   8   8   8
#     4  10  20  34  56  87 117 147 189 238 288 340
#     4  11  22  36  58  87 117 153 195 242 292 347
#     4  10  20  35  57  84 115 151 190 236 287 341
#     4  11  24  40  59  84 116 154 197 240 293 355
#
# _framework density 18.497933
#
# number of rings (size 3 to 8) (size 9 to 14) (size 15 to 20)
#    0.000    1.500    2.500    3.000    0.000    6.000 
#    0.000    1.250    0.000    3.000    0.000    0.000 
#    0.000    0.000    0.000    0.000    0.000    0.000 
#
# Total GULP energy -396949.393656 kJ/mol
# GULP energy per Si atom -12404.668552 kJ/mol
# Density = 1.845583 g / cm^3
# Si number density = 18.497933 Si / 1000 Ang^3
#
#
#
# Elastic Constant Matrix: (Units=GPa)
#
#
# Indices 1 2 3 4 5 6 
#
# 1 135.9671 64.6829 69.5766 0.0000 0.0000 0.0000
# 2 64.6829 116.5144 65.1675 0.0000 0.0000 0.0000
# 3 69.5766 65.1675 108.5051 0.0000 0.0000 0.0000
# 4 0.0000 0.0000 0.0000 31.3680 0.0000 0.0000
# 5 0.0000 0.0000 0.0000 0.0000 37.1530 0.0000
# 6 0.0000 0.0000 0.0000 0.0000 0.0000 118.6361
#
#
#
# Elastic Compliance Matrix: (Units=1/GPa)
#
#
# Indices 1 2 3 4 5 6 
#
# 1 0.011823 -0.003499 -0.005480 0.000000 0.000000 0.000000
# 2 -0.003499 0.013959 -0.006140 0.000000 0.000000 0.000000
# 3 -0.005480 -0.006140 0.016418 0.000000 0.000000 0.000000
# 4 0.000000 0.000000 0.000000 0.031880 0.000000 0.000000
# 5 0.000000 0.000000 0.000000 0.000000 0.026916 0.000000
# 6 0.000000 0.000000 0.000000 0.000000 0.000000 0.008429
#
#
# Mechanical properties :
#
#
# Convention : Reuss Voigt Hill
#
# Bulk Modulus (GPa) = 83.59649 84.42672 84.01161
# Shear Modulus (GPa) = 34.80644 48.20206 41.50425
#
# Velocity S-wave (km/s) = 4.34249 5.11025 4.74193
# Velocity P-wave (km/s) = 8.39246 8.97551 8.68888
#
# Compressibility (1/GPa) = 0.01196222
#
# Stress axis : x y z
#
# Youngs Moduli (GPa) = 84.57767 71.63691 60.90799
#
# Poissons Ratio (x) = 0.25063 0.33379
# Poissons Ratio (y) = 0.29590 0.37400
# Poissons Ratio (z) = 0.46351 0.43988
#
# Static dielectric constant tensor:
#      x y z
#    x 3.337610 0.000000 0.000000 
#    y 0.000000 3.166050 0.000000 
#    z 0.000000 0.000000 3.562130 
# 
# 
# High freq. dielectric constant tensor:
#      x y z
#    x 1.733620 0.000000 0.000000 
#    y 0.000000 1.686660 0.000000 
#    z 0.000000 0.000000 1.738440 
# 
# From -- ./inp_files/1228.got.cif
#   From: 2010.03.12/outbox.cif.g09.slc.cpg/sg57_1_cif.got.tgz:1228.got - 2010.04.16 15:48:40.
