data_PCOD8232435
_publ_section_title
;
Structure prediction by ZEFSAII (Michael W. Deem and Ramdas Pophale) SiO2 
 PCOD8232435
Probable space group: P B C M
;
_chemical_formula_sum "Si O2"
_cell_formula_units_Z 64
_cell_length_a 21.239144
_cell_length_b 18.757729
_cell_length_c 8.991834
_cell_angle_alpha 90.000000
_cell_angle_beta 90.000000
_cell_angle_gamma 90.000000
_cell_volume 3582.329647
_symmetry_space_group_name_H-M "P B C M"
_symmetry_group_IT_number 57
_symmetry_cell_setting 'orthorhombic'
loop_
_space_group_symop_operation_xyz
x,y,z
-x,-y,1/2+z
x,1/2-y,-z
-x,1/2+y,1/2-z
-x,-y,-z
x,y,1/2-z
-x,1/2+y,z
x,1/2-y,1/2+z
loop_
_atom_site_type_symbol
_atom_site_label
_atom_site_fract_x
_atom_site_fract_y
_atom_site_fract_z
Si Si1 0.936722 0.526435 0.574382
Si Si2 0.112866 0.180441 0.575128
Si Si3 0.509689 0.924318 0.075578
Si Si4 0.181779 0.975153 0.416456
Si Si5 0.591719 0.325813 0.925215
Si Si6 0.702103 0.068836 0.421473
Si Si7 0.653076 0.915074 0.079371
Si Si8 0.232803 0.366098 0.583595
O O1 0.941131 0.517665 0.750000
O O2 0.924768 0.608975 0.529005
O O3 0.881078 0.475736 0.515266
O O4 0.000000 0.500000 0.500000
O O5 0.080225 0.250000 0.500000
O O6 0.113151 0.190675 0.750000
O O7 0.184669 0.177870 0.517746
O O8 0.494582 0.931587 0.250000
O O9 0.580613 0.896906 0.049080
O O10 0.465846 0.866509 0.999684
O O11 0.500000 0.000000 0.000000
O O12 0.164619 0.949939 0.250000
O O13 0.233423 0.921662 0.485653
O O14 0.212226 0.052430 0.416293
O O15 0.578823 0.319657 0.750000
O O16 0.656999 0.365557 0.958845
O O17 0.597887 0.250000 0.000000
O O18 0.721682 0.066935 0.250000
O O19 0.664576 0.997285 0.465518
O O20 0.671649 0.902958 0.250000
O O21 0.696743 0.861912 0.983093
O O22 0.232590 0.334282 0.750000
#
# Coordination Sequence:
#
# PCOD8232435 Si02
#       8
#     8   8   8   8   8   8   8   8
#     4  10  20  34  54  81 113 148 183 221 266 312
#     4  10  20  34  53  77 107 144 181 220 265 316
#     4  11  21  35  55  79 106 140 182 230 277 332
#     4   9  17  29  49  78 106 132 168 211 256 304
#     4  11  23  39  55  77 106 141 180 227 284 340
#     4   9  17  32  52  74 102 133 169 214 266 318
#     4   9  17  31  50  74 102 132 170 217 265 314
#     4   9  17  29  47  74 103 132 167 210 256 306
#
# _framework density 17.865468
#
# number of rings (size 3 to 8) (size 9 to 14) (size 15 to 20)
#    0.000    2.250    1.250    2.250    0.000    6.500 
#    0.000    0.625    0.000    3.750    0.000    5.250 
#    0.000    0.000    0.000    0.000    0.000    0.000 
#
# Total GULP energy -793590.551623 kJ/mol
# GULP energy per Si atom -12399.852369 kJ/mol
# Density = 1.782481 g / cm^3
# Si number density = 17.865468 Si / 1000 Ang^3
#
#
#
# Elastic Constant Matrix: (Units=GPa)
#
#
# Indices 1 2 3 4 5 6 
#
# 1 130.3405 52.0744 71.2172 0.0000 0.0000 0.0000
# 2 52.0744 83.3401 49.2920 0.0000 0.0000 0.0000
# 3 71.2172 49.2920 114.0263 0.0000 0.0000 0.0000
# 4 0.0000 0.0000 0.0000 27.9438 0.0000 0.0000
# 5 0.0000 0.0000 0.0000 0.0000 35.7437 0.0000
# 6 0.0000 0.0000 0.0000 0.0000 0.0000 17.8582
#
#
#
# Elastic Compliance Matrix: (Units=1/GPa)
#
#
# Indices 1 2 3 4 5 6 
#
# 1 0.012730 -0.004369 -0.006062 0.000000 0.000000 0.000000
# 2 -0.004369 0.017620 -0.004888 0.000000 0.000000 0.000000
# 3 -0.006062 -0.004888 0.014669 0.000000 0.000000 0.000000
# 4 0.000000 0.000000 0.000000 0.035786 0.000000 0.000000
# 5 0.000000 0.000000 0.000000 0.000000 0.027977 0.000000
# 6 0.000000 0.000000 0.000000 0.000000 0.000000 0.055997
#
#
# Mechanical properties :
#
#
# Convention : Reuss Voigt Hill
#
# Bulk Modulus (GPa) = 69.53704 74.76381 72.15043
# Shear Modulus (GPa) = 24.97361 26.65068 25.81215
#
# Velocity S-wave (km/s) = 3.74287 3.86650 3.80518
# Velocity P-wave (km/s) = 7.59512 7.86589 7.73169
#
# Compressibility (1/GPa) = 0.01438082
#
# Stress axis : x y z
#
# Youngs Moduli (GPa) = 78.55478 56.75366 68.16947
#
# Poissons Ratio (x) = 0.24794 0.41326
# Poissons Ratio (y) = 0.34318 0.33324
# Poissons Ratio (z) = 0.47622 0.27743
#
# Static dielectric constant tensor:
#      x y z
#    x 3.282050 0.000000 0.000000 
#    y 0.000000 3.193650 0.000000 
#    z 0.000000 0.000000 2.467610 
# 
# 
# High freq. dielectric constant tensor:
#      x y z
#    x 1.687080 0.000000 0.000000 
#    y 0.000000 1.662030 0.000000 
#    z 0.000000 0.000000 1.705810 
# 
# From -- ./inp_files/8472.got.cif
#   From: 2010.03.12/outbox.cif.g09.slc.cpg/sg57_5_cif.got.tgz:8472.got - 2010.04.16 15:48:40.
