data_PCOD8232853
_publ_section_title
;
Structure prediction by ZEFSAII (Michael W. Deem and Ramdas Pophale) SiO2 
 PCOD8232853
Probable space group: P B C M
;
_chemical_formula_sum "Si O2"
_cell_formula_units_Z 64
_cell_length_a 23.871455
_cell_length_b 15.494262
_cell_length_c 8.873255
_cell_angle_alpha 90.000000
_cell_angle_beta 90.000000
_cell_angle_gamma 90.000000
_cell_volume 3281.955956
_symmetry_space_group_name_H-M "P B C M"
_symmetry_group_IT_number 57
_symmetry_cell_setting 'orthorhombic'
loop_
_space_group_symop_operation_xyz
x,y,z
-x,-y,1/2+z
x,1/2-y,-z
-x,1/2+y,1/2-z
-x,-y,-z
x,y,1/2-z
-x,1/2+y,z
x,1/2-y,1/2+z
loop_
_atom_site_type_symbol
_atom_site_label
_atom_site_fract_x
_atom_site_fract_y
_atom_site_fract_z
Si Si1 0.381480 0.161266 0.574220
Si Si2 0.686197 0.001507 0.428539
Si Si3 0.813958 0.996424 0.428578
Si Si4 0.001634 0.092761 0.427089
Si Si5 0.883727 0.337926 0.572777
Si Si6 0.121100 0.339572 0.928240
Si Si7 0.386537 0.837943 0.570286
Si Si8 0.496668 0.906604 0.427487
O O1 0.361769 0.250000 0.500000
O O2 0.370338 0.169375 0.750000
O O3 0.446091 0.143298 0.538377
O O4 0.343776 0.083872 0.505816
O O5 0.682055 0.000238 0.250000
O O6 0.653694 0.085700 0.487955
O O7 0.750095 0.005394 0.482535
O O8 0.819522 0.983157 0.250000
O O9 0.839505 0.914487 0.510991
O O10 0.846043 0.082251 0.482766
O O11 0.000332 0.078061 0.250000
O O12 0.057144 0.142968 0.479081
O O13 0.947638 0.146758 0.480635
O O14 0.000000 0.000000 0.500000
O O15 0.860863 0.250000 0.500000
O O16 0.879100 0.327685 0.750000
O O17 0.126936 0.334122 0.750000
O O18 0.141239 0.250000 0.000000
O O19 0.362144 0.750000 0.500000
O O20 0.388838 0.831910 0.750000
O O21 0.448570 0.851875 0.506846
O O22 0.485419 0.915478 0.250000
O O23 0.500000 0.000000 0.500000
#
# Coordination Sequence:
#
# PCOD8232853 Si02
#       8
#     8   8   8   8   8   8   8   8
#     4  10  21  38  58  84 114 148 187 231 285 341
#     4   9  20  40  61  81 113 155 194 239 291 338
#     4  10  21  40  63  83 112 154 199 244 290 339
#     4  10  20  35  57  86 116 149 188 233 288 344
#     4  10  21  36  57  86 115 149 189 232 286 343
#     4  11  23  38  59  87 119 153 190 238 291 347
#     4  11  22  39  60  87 121 155 194 239 290 351
#     4  11  21  36  60  88 118 153 191 237 293 349
#
# _framework density 19.500565999999999
#
# number of rings (size 3 to 8) (size 9 to 14) (size 15 to 20)
#    0.000    1.750    2.500    1.875    0.000    4.500 
#    0.000    3.125    0.000    0.000    0.000    0.000 
#    0.000    0.000    0.000    0.000    0.000    0.000 
#
# Total GULP energy -793816.092527 kJ/mol
# GULP energy per Si atom -12403.376446 kJ/mol
# Density = 1.945618 g / cm^3
# Si number density = 19.500566 Si / 1000 Ang^3
#
#
#
# Elastic Constant Matrix: (Units=GPa)
#
#
# Indices 1 2 3 4 5 6 
#
# 1 136.5117 73.5232 35.0295 0.0000 0.0000 0.0000
# 2 73.5232 190.1681 43.8313 0.0000 0.0000 0.0000
# 3 35.0295 43.8313 46.8957 0.0000 0.0000 0.0000
# 4 0.0000 0.0000 0.0000 40.2566 0.0000 0.0000
# 5 0.0000 0.0000 0.0000 0.0000 21.9412 0.0000
# 6 0.0000 0.0000 0.0000 0.0000 0.0000 8.3837
#
#
#
# Elastic Compliance Matrix: (Units=1/GPa)
#
#
# Indices 1 2 3 4 5 6 
#
# 1 0.010081 -0.002755 -0.004955 0.000000 0.000000 0.000000
# 2 -0.002755 0.007456 -0.004910 0.000000 0.000000 0.000000
# 3 -0.004955 -0.004910 0.029614 0.000000 0.000000 0.000000
# 4 0.000000 0.000000 0.000000 0.024841 0.000000 0.000000
# 5 0.000000 0.000000 0.000000 0.000000 0.045576 0.000000
# 6 0.000000 0.000000 0.000000 0.000000 0.000000 0.119279
#
#
# Mechanical properties :
#
#
# Convention : Reuss Voigt Hill
#
# Bulk Modulus (GPa) = 45.64114 75.37150 60.50632
# Shear Modulus (GPa) = 18.56046 28.86241 23.71144
#
# Velocity S-wave (km/s) = 3.08846 3.85136 3.49081
# Velocity P-wave (km/s) = 6.01448 7.64932 6.88063
#
# Compressibility (1/GPa) = 0.02191006
#
# Stress axis : x y z
#
# Youngs Moduli (GPa) = 99.19829 134.12816 33.76774
#
# Poissons Ratio (x) = 0.36959 0.16731
# Poissons Ratio (y) = 0.27334 0.16580
# Poissons Ratio (z) = 0.49149 0.65858
#
# Static dielectric constant tensor:
#      x y z
#    x 3.741400 0.000000 0.000000 
#    y 0.000000 3.678330 0.000000 
#    z 0.000000 0.000000 3.464100 
# 
# 
# High freq. dielectric constant tensor:
#      x y z
#    x 1.759920 0.000000 0.000000 
#    y 0.000000 1.776140 0.000000 
#    z 0.000000 0.000000 1.744190 
# 
# From -- ./inp_files/9469.got.cif
#   From: 2010.03.12/outbox.cif.g09.slc.cpg/sg57_5_cif.got.tgz:9469.got - 2010.04.16 15:48:40.
