data_PCOD8232380
_publ_section_title
;
Structure prediction by ZEFSAII (Michael W. Deem and Ramdas Pophale) SiO2 
 PCOD8232380
Probable space group: P B C M
;
_chemical_formula_sum "Si O2"
_cell_formula_units_Z 64
_cell_length_a 10.655937
_cell_length_b 30.542923
_cell_length_c 10.142773
_cell_angle_alpha 90.000000
_cell_angle_beta 90.000000
_cell_angle_gamma 90.000000
_cell_volume 3301.102028
_symmetry_space_group_name_H-M "P B C M"
_symmetry_group_IT_number 57
_symmetry_cell_setting 'orthorhombic'
loop_
_space_group_symop_operation_xyz
x,y,z
-x,-y,1/2+z
x,1/2-y,-z
-x,1/2+y,1/2-z
-x,-y,-z
x,y,1/2-z
-x,1/2+y,z
x,1/2-y,1/2+z
loop_
_atom_site_type_symbol
_atom_site_label
_atom_site_fract_x
_atom_site_fract_y
_atom_site_fract_z
Si Si1 0.426122 0.026840 0.107297
Si Si2 0.232352 0.638153 0.096219
Si Si3 0.842149 0.287082 0.096966
Si Si4 0.482352 0.374431 0.605274
Si Si5 0.865071 0.783457 0.394406
Si Si6 0.724670 0.868452 0.104192
Si Si7 0.173386 0.459857 0.024587
Si Si8 0.908460 0.051104 0.105030
O O1 0.446560 0.004500 0.250000
O O2 0.490922 0.073589 0.104546
O O3 0.275741 0.030826 0.088777
O O4 0.500000 0.000000 0.000000
O O5 0.197604 0.650271 0.250000
O O6 0.380198 0.643485 0.074384
O O7 0.187325 0.589040 0.060715
O O8 0.170254 0.667981 0.984087
O O9 0.786729 0.288259 0.250000
O O10 0.987429 0.276887 0.110747
O O11 0.780043 0.250000 0.000000
O O12 0.437284 0.358221 0.750000
O O13 0.386443 0.357705 0.496229
O O14 0.804565 0.750000 0.500000
O O15 0.809004 0.771983 0.250000
O O16 0.834092 0.833867 0.430820
O O17 0.670586 0.860296 0.250000
O O18 0.777787 0.917809 0.104033
O O19 0.165150 0.504792 0.106905
O O20 0.033168 0.448667 0.981093
O O21 0.957473 0.061301 0.250000
#
# Coordination Sequence:
#
# PCOD8232380 Si02
#       8
#     8   8   8   8   8   8   8   8
#     4  10  20  34  52  74 102 139 182 226 268 313
#     4  10  20  36  56  79 108 143 182 222 267 320
#     4  10  20  36  58  84 111 139 173 216 266 319
#     4   9  20  36  52  74 105 139 178 221 263 313
#     4   9  19  35  55  82 111 137 171 216 265 318
#     4  10  20  35  56  80 107 140 179 222 267 313
#     4  10  20  34  52  78 110 142 180 225 270 319
#     4  10  20  34  53  77 108 146 182 219 270 328
#
# _framework density 19.387464999999999
#
# number of rings (size 3 to 8) (size 9 to 14) (size 15 to 20)
#    0.000    2.250    0.000    2.625    0.000    5.500 
#    0.000    5.000    0.000    1.500    0.000    0.000 
#    0.000    0.000    0.000    0.000    0.000    0.000 
#
# Total GULP energy -792934.681889 kJ/mol
# GULP energy per Si atom -12389.604405 kJ/mol
# Density = 1.934334 g / cm^3
# Si number density = 19.387465 Si / 1000 Ang^3
#
#
#
# Elastic Constant Matrix: (Units=GPa)
#
#
# Indices 1 2 3 4 5 6 
#
# 1 50.0778 18.9560 39.5942 0.0000 0.0000 0.0000
# 2 18.9560 95.7304 52.5622 0.0000 0.0000 0.0000
# 3 39.5942 52.5622 138.4524 0.0000 0.0000 0.0000
# 4 0.0000 0.0000 0.0000 27.5603 0.0000 0.0000
# 5 0.0000 0.0000 0.0000 0.0000 18.0652 0.0000
# 6 0.0000 0.0000 0.0000 0.0000 0.0000 19.3207
#
#
#
# Elastic Compliance Matrix: (Units=1/GPa)
#
#
# Indices 1 2 3 4 5 6 
#
# 1 0.025939 -0.001343 -0.006908 0.000000 0.000000 0.000000
# 2 -0.001343 0.013266 -0.004652 0.000000 0.000000 0.000000
# 3 -0.006908 -0.004652 0.010964 0.000000 0.000000 0.000000
# 4 0.000000 0.000000 0.000000 0.036284 0.000000 0.000000
# 5 0.000000 0.000000 0.000000 0.000000 0.055355 0.000000
# 6 0.000000 0.000000 0.000000 0.000000 0.000000 0.051758
#
#
# Mechanical properties :
#
#
# Convention : Reuss Voigt Hill
#
# Bulk Modulus (GPa) = 41.04632 56.27613 48.66123
# Shear Modulus (GPa) = 21.97846 24.53247 23.25547
#
# Velocity S-wave (km/s) = 3.37061 3.56107 3.46715
# Velocity P-wave (km/s) = 6.03039 6.78221 6.41732
#
# Compressibility (1/GPa) = 0.02436272
#
# Stress axis : x y z
#
# Youngs Moduli (GPa) = 38.55154 75.37824 91.20395
#
# Poissons Ratio (x) = 0.10126 0.63004
# Poissons Ratio (y) = 0.05179 0.42431
# Poissons Ratio (z) = 0.26632 0.35068
#
# Static dielectric constant tensor:
#      x y z
#    x 3.355350 0.000000 0.000000 
#    y 0.000000 3.556880 0.000000 
#    z 0.000000 0.000000 3.875000 
# 
# 
# High freq. dielectric constant tensor:
#      x y z
#    x 1.738960 0.000000 0.000000 
#    y 0.000000 1.748880 0.000000 
#    z 0.000000 0.000000 1.763040 
# 
# From -- ./inp_files/3893.got.cif
#   From: 2010.03.12/outbox.cif.g09.slc.cpg/sg57_2_cif.got.tgz:3893.got - 2010.04.16 15:48:40.
