data_PCOD8232114
_publ_section_title
;
Structure prediction by ZEFSAII (Michael W. Deem and Ramdas Pophale) SiO2 
 PCOD8232114
Probable space group: P B C M
;
_chemical_formula_sum "Si O2"
_cell_formula_units_Z 36
_cell_length_a 11.238402
_cell_length_b 11.319366
_cell_length_c 15.598473
_cell_angle_alpha 90.000000
_cell_angle_beta 90.000000
_cell_angle_gamma 90.000000
_cell_volume 1984.306482
_symmetry_space_group_name_H-M "P B C M"
_symmetry_group_IT_number 57
_symmetry_cell_setting 'orthorhombic'
loop_
_space_group_symop_operation_xyz
x,y,z
-x,-y,1/2+z
x,1/2-y,-z
-x,1/2+y,1/2-z
-x,-y,-z
x,y,1/2-z
-x,1/2+y,z
x,1/2-y,1/2+z
loop_
_atom_site_type_symbol
_atom_site_label
_atom_site_fract_x
_atom_site_fract_y
_atom_site_fract_z
Si Si1 0.100234 0.320290 0.250000
Si Si2 0.324886 0.980474 0.154549
Si Si3 0.427902 0.106780 0.845518
Si Si4 0.257016 0.537484 0.250000
Si Si5 0.757851 0.720397 0.092284
Si Si6 0.819687 0.305879 0.250000
O O1 0.137682 0.457501 0.250000
O O2 0.150377 0.254915 0.333679
O O3 0.960120 0.311868 0.250000
O O4 0.353652 0.033197 0.250000
O O5 0.448256 0.934943 0.111684
O O6 0.231773 0.871516 0.164994
O O7 0.267907 0.080632 0.095313
O O8 0.454947 0.159489 0.750000
O O9 0.367258 0.209497 0.901025
O O10 0.335378 0.996474 0.834561
O O11 0.223122 0.672348 0.250000
O O12 0.815577 0.750000 0.000000
#
# Coordination Sequence:
#
# PCOD8232114 Si02
#       6
#     4   8   8   4   8   4
#     4  10  21  39  56  79 110 153 194 233 274 334
#     4   9  19  32  59  84 110 140 189 228 283 336
#     4   8  17  33  58  82 113 142 178 231 284 334
#     4   8  17  30  55  85 100 142 186 220 281 333
#     4  11  21  37  60  83 115 154 189 230 282 339
#     4  10  20  31  63  82 106 151 192 231 285 323
#
# _framework density 18.142358999999999
#
# number of rings (size 3 to 8) (size 9 to 14) (size 15 to 20)
#    1.333    1.333    2.222    0.000    6.222    0.889 
#    0.000    1.111    0.000    0.000    0.000    0.000 
#    0.000    0.000    0.000    0.000    0.000    0.000 
#
# Total GULP energy -446063.481875 kJ/mol
# GULP energy per Si atom -12390.652274 kJ/mol
# Density = 1.810107 g / cm^3
# Si number density = 18.142359 Si / 1000 Ang^3
#
#
#
# Elastic Constant Matrix: (Units=GPa)
#
#
# Indices 1 2 3 4 5 6 
#
# 1 139.8194 61.5800 24.0845 0.0000 0.0000 0.0000
# 2 61.5800 135.0582 24.7839 0.0000 0.0000 0.0000
# 3 24.0845 24.7839 70.0761 0.0000 0.0000 0.0000
# 4 0.0000 0.0000 0.0000 13.1664 0.0000 0.0000
# 5 0.0000 0.0000 0.0000 0.0000 3.1253 0.0000
# 6 0.0000 0.0000 0.0000 0.0000 0.0000 16.3508
#
#
#
# Elastic Compliance Matrix: (Units=1/GPa)
#
#
# Indices 1 2 3 4 5 6 
#
# 1 0.009154 -0.003846 -0.001786 0.000000 0.000000 0.000000
# 2 -0.003846 0.009534 -0.002050 0.000000 0.000000 0.000000
# 3 -0.001786 -0.002050 0.015609 0.000000 0.000000 0.000000
# 4 0.000000 0.000000 0.000000 0.075951 0.000000 0.000000
# 5 0.000000 0.000000 0.000000 0.000000 0.319970 0.000000
# 6 0.000000 0.000000 0.000000 0.000000 0.000000 0.061159
#
#
# Mechanical properties :
#
#
# Convention : Reuss Voigt Hill
#
# Bulk Modulus (GPa) = 52.81797 62.87230 57.84513
# Shear Modulus (GPa) = 9.74562 22.16219 15.95390
#
# Velocity S-wave (km/s) = 2.32022 3.49889 2.96864
# Velocity P-wave (km/s) = 6.02944 7.14515 6.61087
#
# Compressibility (1/GPa) = 0.01893295
#
# Stress axis : x y z
#
# Youngs Moduli (GPa) = 109.24777 104.88848 64.06552
#
# Poissons Ratio (x) = 0.40339 0.11441
# Poissons Ratio (y) = 0.42015 0.13134
# Poissons Ratio (z) = 0.19510 0.21503
#
# Static dielectric constant tensor:
#      x y z
#    x 3.259170 0.000000 0.000000 
#    y 0.000000 3.181660 0.000000 
#    z 0.000000 0.000000 2.938540 
# 
# 
# High freq. dielectric constant tensor:
#      x y z
#    x 1.696190 0.000000 0.000000 
#    y 0.000000 1.698940 0.000000 
#    z 0.000000 0.000000 1.657320 
# 
# From -- ./inp_files/17371.got.cif
#   From: 2010.03.12/outbox.cif.g09.slc.cpg/sg57_9_cif.got.tgz:17371.got - 2010.04.16 15:48:40.
