data_PCOD8232374
_publ_section_title
;
Structure prediction by ZEFSAII (Michael W. Deem and Ramdas Pophale) SiO2 
 PCOD8232374
Probable space group: P B C M
;
_chemical_formula_sum "Si O2"
_cell_formula_units_Z 64
_cell_length_a 17.417882
_cell_length_b 22.632118
_cell_length_c 9.085850
_cell_angle_alpha 90.000000
_cell_angle_beta 90.000000
_cell_angle_gamma 90.000000
_cell_volume 3581.674422
_symmetry_space_group_name_H-M "P B C M"
_symmetry_group_IT_number 57
_symmetry_cell_setting 'orthorhombic'
loop_
_space_group_symop_operation_xyz
x,y,z
-x,-y,1/2+z
x,1/2-y,-z
-x,1/2+y,1/2-z
-x,-y,-z
x,y,1/2-z
-x,1/2+y,z
x,1/2-y,1/2+z
loop_
_atom_site_type_symbol
_atom_site_label
_atom_site_fract_x
_atom_site_fract_y
_atom_site_fract_z
Si Si1 0.087447 0.648678 0.923384
Si Si2 0.923603 0.690497 0.576384
Si Si3 0.496019 0.438507 0.919191
Si Si4 0.639116 0.413391 0.422363
Si Si5 0.750668 0.308488 0.075947
Si Si6 0.920938 0.014786 0.924049
Si Si7 0.673402 0.548267 0.418478
Si Si8 0.180674 0.420339 0.076981
O O1 0.081211 0.653558 0.750000
O O2 0.161641 0.684034 0.981280
O O3 0.100137 0.581127 0.968232
O O4 0.007848 0.674034 0.989447
O O5 0.894143 0.750000 0.500000
O O6 0.926669 0.700273 0.750000
O O7 0.863746 0.639350 0.534478
O O8 0.518667 0.446866 0.750000
O O9 0.407832 0.416932 0.934277
O O10 0.500000 0.500000 0.000000
O O11 0.559196 0.396199 0.995507
O O12 0.622669 0.410234 0.250000
O O13 0.702369 0.365848 0.472427
O O14 0.666968 0.479259 0.466364
O O15 0.747363 0.300567 0.250000
O O16 0.716147 0.250000 0.000000
O O17 0.928722 0.006046 0.750000
O O18 0.854137 0.974472 0.987024
O O19 0.000000 0.000000 0.000000
O O20 0.702495 0.551304 0.250000
O O21 0.731168 0.583403 0.525305
O O22 0.174597 0.432699 0.250000
#
# Coordination Sequence:
#
# PCOD8232374 Si02
#       8
#     8   8   8   8   8   8   8   8
#     4   9  18  35  54  71 101 136 168 213 262 303
#     4  10  21  37  53  71  96 130 174 217 256 301
#     4   9  17  30  51  78 107 135 165 202 249 306
#     4   9  18  33  52  76 107 140 173 208 259 314
#     4  10  20  34  52  73 101 140 178 217 260 306
#     4  11  20  34  54  76 105 137 170 213 265 317
#     4   9  18  33  53  79 106 135 169 207 260 319
#     4  11  22  35  51  77 108 136 171 214 260 308
#
# _framework density 17.868735999999998
#
# number of rings (size 3 to 8) (size 9 to 14) (size 15 to 20)
#    0.000    2.250    1.250    3.000    0.000    6.000 
#    0.000    2.500    0.000    0.750    0.000    0.000 
#    0.000    0.000    0.000    0.000    0.000    0.000 
#
# Total GULP energy -793434.006719 kJ/mol
# GULP energy per Si atom -12397.406355 kJ/mol
# Density = 1.782807 g / cm^3
# Si number density = 17.868736 Si / 1000 Ang^3
#
#
#
# Elastic Constant Matrix: (Units=GPa)
#
#
# Indices 1 2 3 4 5 6 
#
# 1 119.9689 47.1130 40.4460 0.0000 0.0000 0.0000
# 2 47.1130 93.1164 33.2294 0.0000 0.0000 0.0000
# 3 40.4460 33.2294 55.5911 0.0000 0.0000 0.0000
# 4 0.0000 0.0000 0.0000 27.7204 0.0000 0.0000
# 5 0.0000 0.0000 0.0000 0.0000 33.8554 0.0000
# 6 0.0000 0.0000 0.0000 0.0000 0.0000 16.6686
#
#
#
# Elastic Compliance Matrix: (Units=1/GPa)
#
#
# Indices 1 2 3 4 5 6 
#
# 1 0.011996 -0.003756 -0.006483 0.000000 0.000000 0.000000
# 2 -0.003756 0.014827 -0.006130 0.000000 0.000000 0.000000
# 3 -0.006483 -0.006130 0.026369 0.000000 0.000000 0.000000
# 4 0.000000 0.000000 0.000000 0.036075 0.000000 0.000000
# 5 0.000000 0.000000 0.000000 0.000000 0.029537 0.000000
# 6 0.000000 0.000000 0.000000 0.000000 0.000000 0.059993
#
#
# Mechanical properties :
#
#
# Convention : Reuss Voigt Hill
#
# Bulk Modulus (GPa) = 48.88834 56.69481 52.79157
# Shear Modulus (GPa) = 22.89861 25.50807 24.20334
#
# Velocity S-wave (km/s) = 3.58367 3.78236 3.68436
# Velocity P-wave (km/s) = 6.67403 7.13249 6.90706
#
# Compressibility (1/GPa) = 0.02045477
#
# Stress axis : x y z
#
# Youngs Moduli (GPa) = 83.36018 67.44320 37.92286
#
# Poissons Ratio (x) = 0.25333 0.24584
# Poissons Ratio (y) = 0.31311 0.23247
# Poissons Ratio (z) = 0.54040 0.41344
#
# Static dielectric constant tensor:
#      x y z
#    x 3.840960 0.000000 0.000000 
#    y 0.000000 3.081580 0.000000 
#    z 0.000000 0.000000 3.260810 
# 
# 
# High freq. dielectric constant tensor:
#      x y z
#    x 1.699910 0.000000 0.000000 
#    y 0.000000 1.667030 0.000000 
#    z 0.000000 0.000000 1.683890 
# 
# From -- ./inp_files/7120.got.cif
#   From: 2010.03.12/outbox.cif.g09.slc.cpg/sg57_4_cif.got.tgz:7120.got - 2010.04.16 15:48:40.
