data_PCOD8232249
_publ_section_title
;
Structure prediction by ZEFSAII (Michael W. Deem and Ramdas Pophale) SiO2 
 PCOD8232249
Probable space group: P B C M
;
_chemical_formula_sum "Si O2"
_cell_formula_units_Z 64
_cell_length_a 27.393572
_cell_length_b 14.259837
_cell_length_c 8.965543
_cell_angle_alpha 90.000000
_cell_angle_beta 90.000000
_cell_angle_gamma 90.000000
_cell_volume 3502.190980
_symmetry_space_group_name_H-M "P B C M"
_symmetry_group_IT_number 57
_symmetry_cell_setting 'orthorhombic'
loop_
_space_group_symop_operation_xyz
x,y,z
-x,-y,1/2+z
x,1/2-y,-z
-x,1/2+y,1/2-z
-x,-y,-z
x,y,1/2-z
-x,1/2+y,z
x,1/2-y,1/2+z
loop_
_atom_site_type_symbol
_atom_site_label
_atom_site_fract_x
_atom_site_fract_y
_atom_site_fract_z
Si Si1 0.160503 0.534547 0.078496
Si Si2 0.016619 0.408064 0.418938
Si Si3 0.881395 0.660091 0.920031
Si Si4 0.647533 0.347494 0.075560
Si Si5 0.428006 0.976154 0.574918
Si Si6 0.087543 0.841045 0.419665
Si Si7 0.760938 0.153890 0.576791
Si Si8 0.477631 0.147209 0.425666
O O1 0.163291 0.566091 0.250000
O O2 0.157937 0.422561 0.062401
O O3 0.110142 0.570950 0.006320
O O4 0.208332 0.569155 0.992544
O O5 0.029306 0.436409 0.250000
O O6 0.971118 0.337056 0.427763
O O7 0.000000 0.500000 0.500000
O O8 0.065424 0.364482 0.492418
O O9 0.890028 0.687255 0.750000
O O10 0.858554 0.750000 0.000000
O O11 0.634434 0.341733 0.250000
O O12 0.704357 0.366666 0.047252
O O13 0.631147 0.250000 0.000000
O O14 0.620509 0.434615 0.999312
O O15 0.420235 0.992546 0.750000
O O16 0.438200 0.077135 0.499548
O O17 0.470031 0.899743 0.543559
O O18 0.109312 0.750000 0.500000
O O19 0.106125 0.843486 0.250000
O O20 0.777552 0.250000 0.500000
O O21 0.772837 0.162354 0.750000
O O22 0.475372 0.250000 0.500000
O O23 0.466930 0.156941 0.250000
#
# Coordination Sequence:
#
# PCOD8232249 Si02
#       8
#     8   8   8   8   8   8   8   8
#     4  11  22  37  56  77 105 134 167 212 257 308
#     4  10  20  35  53  75 102 133 168 204 246 295
#     4  10  22  38  56  78 102 132 170 210 253 300
#     4  10  20  34  54  80 110 142 177 221 268 321
#     4  10  20  33  52  78 109 147 189 231 274 324
#     4  11  22  34  52  76 103 136 167 201 246 299
#     4  10  21  37  57  82 110 139 173 213 264 320
#     4  10  20  33  50  75 110 150 191 233 276 322
#
# _framework density 18.274276
#
# number of rings (size 3 to 8) (size 9 to 14) (size 15 to 20)
#    0.000    1.750    1.250    3.375    0.000    6.000 
#    0.000    0.000    0.000    0.750    0.000    1.750 
#    0.000    0.000    0.000    0.000    0.000    0.000 
#
# Total GULP energy -793665.118142 kJ/mol
# GULP energy per Si atom -12401.017471 kJ/mol
# Density = 1.823268 g / cm^3
# Si number density = 18.274276 Si / 1000 Ang^3
#
#
#
# Elastic Constant Matrix: (Units=GPa)
#
#
# Indices 1 2 3 4 5 6 
#
# 1 74.8770 42.1007 44.4288 0.0000 0.0000 0.0000
# 2 42.1007 127.2143 69.1707 0.0000 0.0000 0.0000
# 3 44.4288 69.1707 124.3706 0.0000 0.0000 0.0000
# 4 0.0000 0.0000 0.0000 36.8196 0.0000 0.0000
# 5 0.0000 0.0000 0.0000 0.0000 28.5908 0.0000
# 6 0.0000 0.0000 0.0000 0.0000 0.0000 25.4916
#
#
#
# Elastic Compliance Matrix: (Units=1/GPa)
#
#
# Indices 1 2 3 4 5 6 
#
# 1 0.017986 -0.003525 -0.004465 0.000000 0.000000 0.000000
# 2 -0.003525 0.011959 -0.005392 0.000000 0.000000 0.000000
# 3 -0.004465 -0.005392 0.012634 0.000000 0.000000 0.000000
# 4 0.000000 0.000000 0.000000 0.027159 0.000000 0.000000
# 5 0.000000 0.000000 0.000000 0.000000 0.034976 0.000000
# 6 0.000000 0.000000 0.000000 0.000000 0.000000 0.039229
#
#
# Mechanical properties :
#
#
# Convention : Reuss Voigt Hill
#
# Bulk Modulus (GPa) = 63.22574 70.87358 67.04966
# Shear Modulus (GPa) = 28.41234 29.56451 28.98842
#
# Velocity S-wave (km/s) = 3.94734 4.02658 3.98715
# Velocity P-wave (km/s) = 7.44638 7.77722 7.61360
#
# Compressibility (1/GPa) = 0.01581634
#
# Stress axis : x y z
#
# Youngs Moduli (GPa) = 55.59766 83.61827 79.14906
#
# Poissons Ratio (x) = 0.29473 0.35339
# Poissons Ratio (y) = 0.19597 0.42678
# Poissons Ratio (z) = 0.24824 0.45088
#
# Static dielectric constant tensor:
#      x y z
#    x 3.310150 0.000000 0.000000 
#    y 0.000000 3.271710 0.000000 
#    z 0.000000 0.000000 3.444050 
# 
# 
# High freq. dielectric constant tensor:
#      x y z
#    x 1.690000 0.000000 0.000000 
#    y 0.000000 1.702730 0.000000 
#    z 0.000000 0.000000 1.722670 
# 
# From -- ./inp_files/10330.got.cif
#   From: 2010.03.12/outbox.cif.g09.slc.cpg/sg57_6_cif.got.tgz:10330.got - 2010.04.16 15:48:40.
