data_PCOD8232209
_publ_section_title
;
Structure prediction by ZEFSAII (Michael W. Deem and Ramdas Pophale) SiO2 
 PCOD8232209
Probable space group: P B C M
;
_chemical_formula_sum "Si O2"
_cell_formula_units_Z 56
_cell_length_a 20.714465
_cell_length_b 14.808098
_cell_length_c 9.073622
_cell_angle_alpha 90.000000
_cell_angle_beta 90.000000
_cell_angle_gamma 90.000000
_cell_volume 2783.259396
_symmetry_space_group_name_H-M "P B C M"
_symmetry_group_IT_number 57
_symmetry_cell_setting 'orthorhombic'
loop_
_space_group_symop_operation_xyz
x,y,z
-x,-y,1/2+z
x,1/2-y,-z
-x,1/2+y,1/2-z
-x,-y,-z
x,y,1/2-z
-x,1/2+y,z
x,1/2-y,1/2+z
loop_
_atom_site_type_symbol
_atom_site_label
_atom_site_fract_x
_atom_site_fract_y
_atom_site_fract_z
Si Si1 0.655768 0.095770 0.586912
Si Si2 0.765122 0.014392 0.080413
Si Si3 0.088089 0.508500 0.080904
Si Si4 0.020366 0.349939 0.925241
Si Si5 0.586883 0.905676 0.589182
Si Si6 0.279895 0.162221 0.076912
Si Si7 0.523314 0.337536 0.423728
O O1 0.676843 0.129696 0.750000
O O2 0.718526 0.094045 0.482147
O O3 0.597214 0.154789 0.518665
O O4 0.623661 0.999049 0.601554
O O5 0.746902 0.997921 0.250000
O O6 0.839020 0.043623 0.059911
O O7 0.755535 0.923610 0.990096
O O8 0.073742 0.482248 0.250000
O O9 0.045055 0.595088 0.033686
O O10 0.076521 0.417008 0.985644
O O11 0.028613 0.336644 0.750000
O O12 0.021241 0.250000 0.000000
O O13 0.558518 0.879763 0.750000
O O14 0.643344 0.836619 0.541388
O O15 0.527251 0.914312 0.475153
O O16 0.265759 0.163936 0.250000
O O17 0.249138 0.250000 0.000000
O O18 0.492524 0.250000 0.500000
O O19 0.523093 0.334140 0.250000
#
# Coordination Sequence:
#
# PCOD8232209 Si02
#       7
#     8   8   8   8   8   8   8
#     4   9  20  37  53  72  99 131 169 211 256 310
#     4  10  20  35  56  78 103 138 177 217 260 308
#     4   9  20  38  58  84 116 148 185 225 266 316
#     4  10  20  36  60  88 118 150 183 222 267 315
#     4   9  18  33  52  72  95 125 164 212 263 316
#     4  10  20  33  49  73 105 138 175 218 266 321
#     4  11  22  34  50  72  98 128 165 212 263 312
#
# _framework density 20.120294999999999
#
# number of rings (size 3 to 8) (size 9 to 14) (size 15 to 20)
#    0.000    2.286    0.000    3.429    0.000    7.429 
#    0.000    0.714    0.000    3.429    0.000    0.000 
#    0.000    0.000    0.000    0.000    0.000    0.000 
#
# Total GULP energy -693878.759694 kJ/mol
# GULP energy per Si atom -12390.692137 kJ/mol
# Density = 2.007450 g / cm^3
# Si number density = 20.120295 Si / 1000 Ang^3
#
#
#
# Elastic Constant Matrix: (Units=GPa)
#
#
# Indices 1 2 3 4 5 6 
#
# 1 102.3525 8.4033 44.3178 0.0000 0.0000 0.0000
# 2 8.4033 47.4278 14.5010 0.0000 0.0000 0.0000
# 3 44.3178 14.5010 85.6101 0.0000 0.0000 0.0000
# 4 0.0000 0.0000 0.0000 25.3887 0.0000 0.0000
# 5 0.0000 0.0000 0.0000 0.0000 32.7091 0.0000
# 6 0.0000 0.0000 0.0000 0.0000 0.0000-1716.5971
#
#
#
# Elastic Compliance Matrix: (Units=1/GPa)
#
#
# Indices 1 2 3 4 5 6 
#
# 1 0.012596 -0.000251 -0.006478 0.000000 0.000000 0.000000
# 2 -0.000251 0.022241 -0.003637 0.000000 0.000000 0.000000
# 3 -0.006478 -0.003637 0.015650 0.000000 0.000000 0.000000
# 4 0.000000 0.000000 0.000000 0.039388 0.000000 0.000000
# 5 0.000000 0.000000 0.000000 0.000000 0.030573 0.000000
# 6 0.000000 0.000000 0.000000 0.000000 0.000000 -0.000583
#
#
# Mechanical properties :
#
#
# Convention : Reuss Voigt Hill
#
# Bulk Modulus (GPa) = 33.60815 41.09276 37.35046
# Shear Modulus (GPa) = 33.21910 -320.48866 -143.63478
#
# Velocity S-wave (km/s) = 4.06769 -12.63456 -8.45831
# Velocity P-wave (km/s) = 6.22907 13.86993 8.76281
#
# Compressibility (1/GPa) = 0.02975469
#
# Stress axis : x y z
#
# Youngs Moduli (GPa) = 79.39262 44.96138 63.89629
#
# Poissons Ratio (x) = 0.01129 0.41391
# Poissons Ratio (y) = 0.01994 0.23241
# Poissons Ratio (z) = 0.51429 0.16354
#
# Static dielectric constant tensor:
#      x y z
#    x 3.803560 0.000000 0.000000 
#    y 0.000000 3.779490 0.000000 
#    z 0.000000 0.000000 3.762660 
# 
# 
# High freq. dielectric constant tensor:
#      x y z
#    x 1.781510 0.000000 0.000000 
#    y 0.000000 1.770470 0.000000 
#    z 0.000000 0.000000 1.789240 
# 
# From -- ./inp_files/8165.got.cif
#   From: 2010.03.12/outbox.cif.g09.slc.cpg/sg57_5_cif.got.tgz:8165.got - 2010.04.16 15:48:40.
