data_PCOD8232716
_publ_section_title
;
Structure prediction by ZEFSAII (Michael W. Deem and Ramdas Pophale) SiO2 
 PCOD8232716
Probable space group: P B C M
;
_chemical_formula_sum "Si O2"
_cell_formula_units_Z 64
_cell_length_a 24.296070
_cell_length_b 15.348671
_cell_length_c 8.862458
_cell_angle_alpha 90.000000
_cell_angle_beta 90.000000
_cell_angle_gamma 90.000000
_cell_volume 3304.920350
_symmetry_space_group_name_H-M "P B C M"
_symmetry_group_IT_number 57
_symmetry_cell_setting 'orthorhombic'
loop_
_space_group_symop_operation_xyz
x,y,z
-x,-y,1/2+z
x,1/2-y,-z
-x,1/2+y,1/2-z
-x,-y,-z
x,y,1/2-z
-x,1/2+y,z
x,1/2-y,1/2+z
loop_
_atom_site_type_symbol
_atom_site_label
_atom_site_fract_x
_atom_site_fract_y
_atom_site_fract_z
Si Si1 0.614358 0.655234 0.571752
Si Si2 0.998065 0.905613 0.928239
Si Si3 0.815430 0.502995 0.928958
Si Si4 0.309507 0.999136 0.929278
Si Si5 0.117830 0.660765 0.426698
Si Si6 0.110580 0.161968 0.570196
Si Si7 0.375556 0.654394 0.571853
Si Si8 0.494789 0.658756 0.924399
O O1 0.625552 0.750000 0.500000
O O2 0.620462 0.666824 0.750000
O O3 0.657703 0.584169 0.511235
O O4 0.553320 0.616311 0.526328
O O5 0.988550 0.913563 0.750000
O O6 0.054627 0.857206 0.967286
O O7 0.950297 0.850259 0.004997
O O8 0.000000 0.000000 0.000000
O O9 0.817956 0.501605 0.750000
O O10 0.752945 0.510169 0.985489
O O11 0.843969 0.416050 0.993846
O O12 0.849743 0.585443 0.988162
O O13 0.314325 0.990704 0.750000
O O14 0.331644 0.910609 0.001317
O O15 0.137972 0.750000 0.500000
O O16 0.126720 0.668154 0.250000
O O17 0.135428 0.250000 0.500000
O O18 0.107693 0.167270 0.750000
O O19 0.368317 0.750000 0.500000
O O20 0.365697 0.662867 0.750000
O O21 0.436675 0.611710 0.536655
O O22 0.497940 0.677743 0.750000
O O23 0.490229 0.750000 0.000000
#
# Coordination Sequence:
#
# PCOD8232716 Si02
#       8
#     8   8   8   8   8   8   8   8
#     4   9  18  33  54  80 108 142 181 224 275 331
#     4  11  21  36  60  88 118 150 182 224 278 333
#     4   9  20  40  58  75 109 150 186 228 277 323
#     4  10  21  37  57  79 107 146 188 230 277 329
#     4  10  21  38  58  82 109 143 180 220 270 324
#     4  11  22  39  60  85 116 150 188 230 277 334
#     4  10  20  35  55  79 109 143 179 226 277 331
#     4   8  15  29  49  75 107 139 174 217 272 331
#
# _framework density 19.365065000000001
#
# number of rings (size 3 to 8) (size 9 to 14) (size 15 to 20)
#    0.000    2.250    1.250    1.500    0.000    4.500 
#    0.000    3.125    0.000    0.000    0.000    0.000 
#    0.000    0.000    0.000    0.000    0.000    0.000 
#
# Total GULP energy -793197.362153 kJ/mol
# GULP energy per Si atom -12393.708784 kJ/mol
# Density = 1.932099 g / cm^3
# Si number density = 19.365065 Si / 1000 Ang^3
#
#
#
# Elastic Constant Matrix: (Units=GPa)
#
#
# Indices 1 2 3 4 5 6 
#
# 1 146.9802 71.0964 34.5319 0.0000 0.0000 0.0000
# 2 71.0964 141.4235 30.5248 0.0000 0.0000 0.0000
# 3 34.5319 30.5248 40.6200 0.0000 0.0000 0.0000
# 4 0.0000 0.0000 0.0000 33.7294 0.0000 0.0000
# 5 0.0000 0.0000 0.0000 0.0000 26.5033 0.0000
# 6 0.0000 0.0000 0.0000 0.0000 0.0000 20.4630
#
#
#
# Elastic Compliance Matrix: (Units=1/GPa)
#
#
# Indices 1 2 3 4 5 6 
#
# 1 0.009958 -0.003794 -0.005614 0.000000 0.000000 0.000000
# 2 -0.003794 0.009886 -0.004203 0.000000 0.000000 0.000000
# 3 -0.005614 -0.004203 0.032550 0.000000 0.000000 0.000000
# 4 0.000000 0.000000 0.000000 0.029648 0.000000 0.000000
# 5 0.000000 0.000000 0.000000 0.000000 0.037731 0.000000
# 6 0.000000 0.000000 0.000000 0.000000 0.000000 0.048869
#
#
# Mechanical properties :
#
#
# Convention : Reuss Voigt Hill
#
# Bulk Modulus (GPa) = 39.72975 66.81441 53.27208
# Shear Modulus (GPa) = 24.47930 28.99719 26.73825
#
# Velocity S-wave (km/s) = 3.55927 3.87382 3.71987
# Velocity P-wave (km/s) = 6.11980 7.38824 6.78373
#
# Compressibility (1/GPa) = 0.02517005
#
# Stress axis : x y z
#
# Youngs Moduli (GPa) = 100.42162 101.15664 30.72222
#
# Poissons Ratio (x) = 0.38382 0.17248
# Poissons Ratio (y) = 0.38103 0.12913
# Poissons Ratio (z) = 0.56378 0.42518
#
# Static dielectric constant tensor:
#      x y z
#    x 4.113710 0.000000 0.000000 
#    y 0.000000 3.499530 0.000000 
#    z 0.000000 0.000000 3.371720 
# 
# 
# High freq. dielectric constant tensor:
#      x y z
#    x 1.762650 0.000000 0.000000 
#    y 0.000000 1.752130 0.000000 
#    z 0.000000 0.000000 1.739760 
# 
# From -- ./inp_files/9458.got.cif
#   From: 2010.03.12/outbox.cif.g09.slc.cpg/sg57_5_cif.got.tgz:9458.got - 2010.04.16 15:48:40.
