data_PCOD8232625
_publ_section_title
;
Structure prediction by ZEFSAII (Michael W. Deem and Ramdas Pophale) SiO2 
 PCOD8232625
Probable space group: P B C M
;
_chemical_formula_sum "Si O2"
_cell_formula_units_Z 64
_cell_length_a 10.921788
_cell_length_b 8.865431
_cell_length_c 34.118576
_cell_angle_alpha 90.000000
_cell_angle_beta 90.000000
_cell_angle_gamma 90.000000
_cell_volume 3303.577451
_symmetry_space_group_name_H-M "P B C M"
_symmetry_group_IT_number 57
_symmetry_cell_setting 'orthorhombic'
loop_
_space_group_symop_operation_xyz
x,y,z
-x,-y,1/2+z
x,1/2-y,-z
-x,1/2+y,1/2-z
-x,-y,-z
x,y,1/2-z
-x,1/2+y,z
x,1/2-y,1/2+z
loop_
_atom_site_type_symbol
_atom_site_label
_atom_site_fract_x
_atom_site_fract_y
_atom_site_fract_z
Si Si1 0.057189 0.941740 0.078511
Si Si2 0.689634 0.894435 0.107106
Si Si3 0.775367 0.278217 0.617201
Si Si4 0.445590 0.887830 0.155972
Si Si5 0.832566 0.714141 0.680567
Si Si6 0.971015 0.057351 0.161970
Si Si7 0.841094 0.752240 0.045328
Si Si8 0.586059 0.824638 0.706517
O O1 0.113594 0.087818 0.058182
O O2 0.011626 0.977720 0.121963
O O3 0.159723 0.810823 0.081679
O O4 0.944654 0.878176 0.053264
O O5 0.552093 0.883041 0.123273
O O6 0.785741 0.819688 0.136861
O O7 0.714455 0.800695 0.067286
O O8 0.717345 0.070164 0.099688
O O9 0.674971 0.171388 0.635908
O O10 0.870600 0.315340 0.652042
O O11 0.481512 0.793449 0.194493
O O12 0.414913 0.053172 0.171944
O O13 0.913622 0.566764 0.692018
O O14 0.716896 0.739196 0.708755
O O15 0.913723 0.864966 0.682739
O O16 0.808043 0.750000 0.000000
O O17 0.556312 0.887643 0.750000
#
# Coordination Sequence:
#
# PCOD8232625 Si02
#       8
#     8   8   8   8   8   8   8   8
#     4  12  19  34  57  88 123 157 196 250 296 363
#     4  10  20  39  56  88 118 154 212 251 289 353
#     4  11  20  34  63  90 114 151 209 252 290 346
#     4  11  23  39  66  91 114 162 205 252 295 353
#     4  10  20  34  61  86 116 155 197 246 291 350
#     4  11  17  34  59  89 115 148 201 247 288 347
#     4  12  23  36  57  89 130 165 197 250 314 361
#     4  11  24  42  61  91 125 155 195 249 309 361
#
# _framework density 19.372938000000001
#
# number of rings (size 3 to 8) (size 9 to 14) (size 15 to 20)
#    0.000    1.000    7.500    1.500    1.750    0.000 
#    0.000    0.625    0.000    3.750    0.000    0.000 
#    0.000    0.000    0.000    0.000    0.000    0.000 
#
# Total GULP energy -793496.967574 kJ/mol
# GULP energy per Si atom -12398.390118 kJ/mol
# Density = 1.932884 g / cm^3
# Si number density = 19.372938 Si / 1000 Ang^3
#
#
#
# Elastic Constant Matrix: (Units=GPa)
#
#
# Indices 1 2 3 4 5 6 
#
# 1 68.9659 20.8294 27.2812 0.0000 0.0000 0.0000
# 2 20.8294 90.5874 27.3192 0.0000 0.0000 0.0000
# 3 27.2812 27.3192 75.7421 0.0000 0.0000 0.0000
# 4 0.0000 0.0000 0.0000 19.2285 0.0000 0.0000
# 5 0.0000 0.0000 0.0000 0.0000 15.3152 0.0000
# 6 0.0000 0.0000 0.0000 0.0000 0.0000 35.4824
#
#
#
# Elastic Compliance Matrix: (Units=1/GPa)
#
#
# Indices 1 2 3 4 5 6 
#
# 1 0.017348 -0.002361 -0.005397 0.000000 0.000000 0.000000
# 2 -0.002361 0.012708 -0.003733 0.000000 0.000000 0.000000
# 3 -0.005397 -0.003733 0.016493 0.000000 0.000000 0.000000
# 4 0.000000 0.000000 0.000000 0.052006 0.000000 0.000000
# 5 0.000000 0.000000 0.000000 0.000000 0.065295 0.000000
# 6 0.000000 0.000000 0.000000 0.000000 0.000000 0.028183
#
#
# Mechanical properties :
#
#
# Convention : Reuss Voigt Hill
#
# Bulk Modulus (GPa) = 42.43322 42.90611 42.66967
# Shear Modulus (GPa) = 22.43459 24.66293 23.54876
#
# Velocity S-wave (km/s) = 3.40669 3.57187 3.49026
# Velocity P-wave (km/s) = 6.11759 6.26151 6.18997
#
# Compressibility (1/GPa) = 0.02356644
#
# Stress axis : x y z
#
# Youngs Moduli (GPa) = 57.64380 78.69164 60.63189
#
# Poissons Ratio (x) = 0.18582 0.32721
# Poissons Ratio (y) = 0.13612 0.22634
# Poissons Ratio (z) = 0.31109 0.29376
#
# Static dielectric constant tensor:
#      x y z
#    x 3.732190 0.000000 0.000000 
#    y 0.000000 3.811580 0.000000 
#    z 0.000000 0.000000 3.201420 
# 
# 
# High freq. dielectric constant tensor:
#      x y z
#    x 1.756950 0.000000 0.000000 
#    y 0.000000 1.775590 0.000000 
#    z 0.000000 0.000000 1.707520 
# 
# From -- ./inp_files/29754.got.cif
#   From: 2010.03.12/outbox.cif.g09.slc.cpg/sg57_15_cif.got.tgz:29754.got - 2010.04.16 15:48:40.
