data_PCOD8232200
_publ_section_title
;
Structure prediction by ZEFSAII (Michael W. Deem and Ramdas Pophale) SiO2 
 PCOD8232200
Probable space group: P B C M
;
_chemical_formula_sum "Si O2"
_cell_formula_units_Z 64
_cell_length_a 21.571057
_cell_length_b 19.420924
_cell_length_c 8.771295
_cell_angle_alpha 90.000000
_cell_angle_beta 90.000000
_cell_angle_gamma 90.000000
_cell_volume 3674.557374
_symmetry_space_group_name_H-M "P B C M"
_symmetry_group_IT_number 57
_symmetry_cell_setting 'orthorhombic'
loop_
_space_group_symop_operation_xyz
x,y,z
-x,-y,1/2+z
x,1/2-y,-z
-x,1/2+y,1/2-z
-x,-y,-z
x,y,1/2-z
-x,1/2+y,z
x,1/2-y,1/2+z
loop_
_atom_site_type_symbol
_atom_site_label
_atom_site_fract_x
_atom_site_fract_y
_atom_site_fract_z
Si Si1 0.418606 0.520445 0.575688
Si Si2 0.294906 0.457115 0.575191
Si Si3 0.525467 0.892357 0.077267
Si Si4 0.878660 0.821667 0.926300
Si Si5 0.024081 0.678094 0.425929
Si Si6 0.942084 0.460184 0.069851
Si Si7 0.369244 0.179383 0.072810
Si Si8 0.832420 0.543569 0.928345
O O1 0.433738 0.495881 0.750000
O O2 0.344036 0.520107 0.556610
O O3 0.445359 0.467100 0.453718
O O4 0.450961 0.595758 0.547636
O O5 0.272205 0.450818 0.750000
O O6 0.326317 0.384864 0.522275
O O7 0.237953 0.476581 0.466776
O O8 0.538294 0.869959 0.250000
O O9 0.558794 0.834919 0.973803
O O10 0.858826 0.823136 0.750000
O O11 0.951326 0.835423 0.945655
O O12 0.858985 0.750000 0.000000
O O13 0.841532 0.878199 0.019948
O O14 0.044043 0.750000 0.500000
O O15 0.043629 0.678312 0.250000
O O16 0.060185 0.618237 0.513507
O O17 0.948986 0.463011 0.250000
O O18 0.878135 0.494681 0.021324
O O19 0.000000 0.500000 0.000000
O O20 0.366812 0.190072 0.250000
O O21 0.344305 0.250000 0.000000
O O22 0.845683 0.535399 0.750000
#
# Coordination Sequence:
#
# PCOD8232200 Si02
#       8
#     8   8   8   8   8   8   8   8
#     4   8  15  28  46  68  94 124 157 198 245 291
#     4   9  19  35  50  67  97 134 173 212 253 302
#     4   9  15  25  45  71  96 123 158 200 245 288
#     4  10  20  34  52  72 100 134 170 212 258 311
#     4  10  20  35  56  81 107 135 167 207 259 318
#     4  12  23  37  57  80 107 138 173 220 274 322
#     4  10  20  33  49  70 100 138 176 213 251 295
#     4  12  24  36  52  75 104 138 179 221 267 322
#
# _framework density 17.417064
#
# number of rings (size 3 to 8) (size 9 to 14) (size 15 to 20)
#    0.000    2.000    1.250    4.500    0.000    4.500 
#    0.000    1.250    0.000    0.000    0.000    0.875 
#    0.000    2.000    0.000    0.000    0.000    0.000 
#
# Total GULP energy -793365.184579 kJ/mol
# GULP energy per Si atom -12396.331009 kJ/mol
# Density = 1.737742 g / cm^3
# Si number density = 17.417064 Si / 1000 Ang^3
#
#
#
# Elastic Constant Matrix: (Units=GPa)
#
#
# Indices 1 2 3 4 5 6 
#
# 1 91.2572 41.0134 38.0862 0.0000 0.0000 0.0000
# 2 41.0134 62.1568 32.8164 0.0000 0.0000 0.0000
# 3 38.0862 32.8164 101.0672 0.0000 0.0000 0.0000
# 4 0.0000 0.0000 0.0000 29.5523 0.0000 0.0000
# 5 0.0000 0.0000 0.0000 0.0000 25.9178 0.0000
# 6 0.0000 0.0000 0.0000 0.0000 0.0000 24.6741
#
#
#
# Elastic Compliance Matrix: (Units=1/GPa)
#
#
# Indices 1 2 3 4 5 6 
#
# 1 0.016401 -0.009123 -0.003218 0.000000 0.000000 0.000000
# 2 -0.009123 0.024492 -0.004514 0.000000 0.000000 0.000000
# 3 -0.003218 -0.004514 0.012573 0.000000 0.000000 0.000000
# 4 0.000000 0.000000 0.000000 0.033838 0.000000 0.000000
# 5 0.000000 0.000000 0.000000 0.000000 0.038584 0.000000
# 6 0.000000 0.000000 0.000000 0.000000 0.000000 0.040528
#
#
# Mechanical properties :
#
#
# Convention : Reuss Voigt Hill
#
# Bulk Modulus (GPa) = 50.62235 53.14591 51.88413
# Shear Modulus (GPa) = 24.18815 25.53318 24.86067
#
# Velocity S-wave (km/s) = 3.73065 3.83297 3.78216
# Velocity P-wave (km/s) = 6.90543 7.08300 6.99478
#
# Compressibility (1/GPa) = 0.01975412
#
# Stress axis : x y z
#
# Youngs Moduli (GPa) = 60.97041 40.83048 79.53498
#
# Poissons Ratio (x) = 0.37250 0.25598
# Poissons Ratio (y) = 0.55623 0.35905
# Poissons Ratio (z) = 0.19623 0.18433
#
# Static dielectric constant tensor:
#      x y z
#    x 3.254080 0.000000 0.000000 
#    y 0.000000 3.235120 0.000000 
#    z 0.000000 0.000000 3.367380 
# 
# 
# High freq. dielectric constant tensor:
#      x y z
#    x 1.655670 0.000000 0.000000 
#    y 0.000000 1.647580 0.000000 
#    z 0.000000 0.000000 1.687010 
# 
# From -- ./inp_files/8590.got.cif
#   From: 2010.03.12/outbox.cif.g09.slc.cpg/sg57_5_cif.got.tgz:8590.got - 2010.04.16 15:48:40.
