data_PCOD8232327
_publ_section_title
;
Structure prediction by ZEFSAII (Michael W. Deem and Ramdas Pophale) SiO2 
 PCOD8232327
Probable space group: P B C M
;
_chemical_formula_sum "Si O2"
_cell_formula_units_Z 48
_cell_length_a 11.871890
_cell_length_b 8.564263
_cell_length_c 22.629945
_cell_angle_alpha 90.000000
_cell_angle_beta 90.000000
_cell_angle_gamma 90.000000
_cell_volume 2300.876762
_symmetry_space_group_name_H-M "P B C M"
_symmetry_group_IT_number 57
_symmetry_cell_setting 'orthorhombic'
loop_
_space_group_symop_operation_xyz
x,y,z
-x,-y,1/2+z
x,1/2-y,-z
-x,1/2+y,1/2-z
-x,-y,-z
x,y,1/2-z
-x,1/2+y,z
x,1/2-y,1/2+z
loop_
_atom_site_type_symbol
_atom_site_label
_atom_site_fract_x
_atom_site_fract_y
_atom_site_fract_z
Si Si1 0.011503 0.246259 0.420110
Si Si2 0.843098 0.001685 0.109566
Si Si3 0.638174 0.613510 0.682248
Si Si4 0.379649 0.846101 0.057924
Si Si5 0.515079 0.886922 0.874069
Si Si6 0.851799 0.022754 0.974202
O O1 0.071635 0.361585 0.373869
O O2 0.960746 0.360301 0.473068
O O3 0.112560 0.136545 0.442793
O O4 0.911740 0.163359 0.383436
O O5 0.736175 0.986435 0.151095
O O6 0.807918 0.989622 0.040287
O O7 0.668682 0.643305 0.750000
O O8 0.527063 0.505065 0.676987
O O9 0.618104 0.780711 0.650313
O O10 0.410153 0.725118 0.109829
O O11 0.247497 0.886378 0.060113
O O12 0.445906 0.009873 0.068860
O O13 0.417117 0.750000 0.000000
#
# Coordination Sequence:
#
# PCOD8232327 Si02
#       6
#     8   8   8   8   8   8
#     4  10  20  33  55  83 116 148 178 216 273 344
#     4  11  20  34  54  80 110 146 183 224 272 325
#     4  11  23  41  60  79 104 145 198 244 278 319
#     4  11  21  35  56  87 119 145 176 221 281 350
#     4  10  23  39  58  81 111 148 184 230 286 337
#     4  11  19  32  53  84 117 148 178 213 268 341
#
# _framework density 20.861613999999999
#
# number of rings (size 3 to 8) (size 9 to 14) (size 15 to 20)
#    0.000    1.333    0.000    9.000    0.000    1.333 
#    0.000    0.833    0.000    0.000    0.000    0.000 
#    0.000    0.000    0.000    0.000    0.000    0.000 
#
# Total GULP energy -594785.668534 kJ/mol
# GULP energy per Si atom -12391.368094 kJ/mol
# Density = 2.081413 g / cm^3
# Si number density = 20.861614 Si / 1000 Ang^3
#
#
#
# Elastic Constant Matrix: (Units=GPa)
#
#
# Indices 1 2 3 4 5 6 
#
# 1 82.9440 41.9958 39.2762 0.0000 0.0000 0.0000
# 2 41.9958 128.5269 35.3278 0.0000 0.0000 0.0000
# 3 39.2762 35.3278 82.4240 0.0000 0.0000 0.0000
# 4 0.0000 0.0000 0.0000 13.4612 0.0000 0.0000
# 5 0.0000 0.0000 0.0000 0.0000 21.0401 0.0000
# 6 0.0000 0.0000 0.0000 0.0000 0.0000 42.2188
#
#
#
# Elastic Compliance Matrix: (Units=1/GPa)
#
#
# Indices 1 2 3 4 5 6 
#
# 1 0.017052 -0.003784 -0.006504 0.000000 0.000000 0.000000
# 2 -0.003784 0.009659 -0.002337 0.000000 0.000000 0.000000
# 3 -0.006504 -0.002337 0.016233 0.000000 0.000000 0.000000
# 4 0.000000 0.000000 0.000000 0.074287 0.000000 0.000000
# 5 0.000000 0.000000 0.000000 0.000000 0.047528 0.000000
# 6 0.000000 0.000000 0.000000 0.000000 0.000000 0.023686
#
#
# Mechanical properties :
#
#
# Convention : Reuss Voigt Hill
#
# Bulk Modulus (GPa) = 56.51276 58.56607 57.53942
# Shear Modulus (GPa) = 22.76937 27.16371 24.96654
#
# Velocity S-wave (km/s) = 3.30729 3.61236 3.46319
# Velocity P-wave (km/s) = 6.46006 6.74785 6.60552
#
# Compressibility (1/GPa) = 0.01769512
#
# Stress axis : x y z
#
# Youngs Moduli (GPa) = 58.64468 103.52788 61.60269
#
# Poissons Ratio (x) = 0.39175 0.40064
# Poissons Ratio (y) = 0.22191 0.14396
# Poissons Ratio (z) = 0.38140 0.24194
#
# Static dielectric constant tensor:
#      x y z
#    x 3.767640 0.000000 0.000000 
#    y 0.000000 4.328900 0.000000 
#    z 0.000000 0.000000 3.170710 
# 
# 
# High freq. dielectric constant tensor:
#      x y z
#    x 1.816730 0.000000 0.000000 
#    y 0.000000 1.853890 0.000000 
#    z 0.000000 0.000000 1.748160 
# 
# From -- ./inp_files/27116.got.cif
#   From: 2010.03.12/outbox.cif.g09.slc.cpg/sg57_14_cif.got.tgz:27116.got - 2010.04.16 15:48:40.
