data_PCOD8232848
_publ_section_title
;
Structure prediction by ZEFSAII (Michael W. Deem and Ramdas Pophale) SiO2 
 PCOD8232848
Probable space group: P B C M
;
_chemical_formula_sum "Si O2"
_cell_formula_units_Z 56
_cell_length_a 12.536363
_cell_length_b 14.165904
_cell_length_c 14.656546
_cell_angle_alpha 90.000000
_cell_angle_beta 90.000000
_cell_angle_gamma 90.000000
_cell_volume 2602.840098
_symmetry_space_group_name_H-M "P B C M"
_symmetry_group_IT_number 57
_symmetry_cell_setting 'orthorhombic'
loop_
_space_group_symop_operation_xyz
x,y,z
-x,-y,1/2+z
x,1/2-y,-z
-x,1/2+y,1/2-z
-x,-y,-z
x,y,1/2-z
-x,1/2+y,z
x,1/2-y,1/2+z
loop_
_atom_site_type_symbol
_atom_site_label
_atom_site_fract_x
_atom_site_fract_y
_atom_site_fract_z
Si Si1 0.920790 0.618885 0.641535
Si Si2 0.650520 0.032622 0.959106
Si Si3 0.294843 0.478872 0.352366
Si Si4 0.133522 0.519161 0.859522
Si Si5 0.142754 0.185131 0.148350
Si Si6 0.490102 0.155443 0.849705
Si Si7 0.369160 0.183754 0.084267
O O1 0.917091 0.626268 0.750000
O O2 0.822467 0.552323 0.613043
O O3 0.904756 0.723020 0.597193
O O4 0.034195 0.581249 0.607161
O O5 0.758568 0.057144 0.904934
O O6 0.608299 0.925338 0.942538
O O7 0.562116 0.106244 0.925887
O O8 0.665574 0.050151 0.068136
O O9 0.292029 0.525398 0.250000
O O10 0.371701 0.388520 0.349975
O O11 0.147728 0.519305 0.750000
O O12 0.108317 0.413567 0.898264
O O13 0.096445 0.184886 0.250000
O O14 0.271034 0.186785 0.153957
O O15 0.543454 0.142623 0.750000
O O16 0.474117 0.267419 0.870539
O O17 0.336294 0.250000 0.000000
#
# Coordination Sequence:
#
# PCOD8232848 Si02
#       7
#     8   8   8   8   8   8   8
#     4   9  16  31  54  79 113 148 187 238 286 336
#     4  11  22  37  60  85 120 155 194 246 293 348
#     4  10  20  35  57  85 114 152 197 243 294 344
#     4   9  19  32  53  86 115 147 191 233 285 346
#     4   9  16  30  52  78 107 142 186 234 279 333
#     4  11  22  37  59  86 118 151 191 240 293 347
#     4  11  20  33  57  84 111 143 193 244 286 343
#
# _framework density 21.514959000000001
#
# number of rings (size 3 to 8) (size 9 to 14) (size 15 to 20)
#    0.000    2.000    2.857    1.286    0.000    2.286 
#    0.000    0.000    3.143    0.857    0.000    0.000 
#    0.000    0.000    0.000    0.000    0.000    0.000 
#
# Total GULP energy -693882.367398 kJ/mol
# GULP energy per Si atom -12390.756561 kJ/mol
# Density = 2.146599 g / cm^3
# Si number density = 21.514959 Si / 1000 Ang^3
#
#
#
# Elastic Constant Matrix: (Units=GPa)
#
#
# Indices 1 2 3 4 5 6 
#
# 1 108.4715 49.2387 33.9841 0.0000 0.0000 0.0000
# 2 49.2387 89.3290 22.1122 0.0000 0.0000 0.0000
# 3 33.9841 22.1122 96.5276 0.0000 0.0000 0.0000
# 4 0.0000 0.0000 0.0000 16.2866 0.0000 0.0000
# 5 0.0000 0.0000 0.0000 0.0000 25.2816 0.0000
# 6 0.0000 0.0000 0.0000 0.0000 0.0000 33.2290
#
#
#
# Elastic Compliance Matrix: (Units=1/GPa)
#
#
# Indices 1 2 3 4 5 6 
#
# 1 0.013138 -0.006463 -0.003145 0.000000 0.000000 0.000000
# 2 -0.006463 0.015047 -0.001171 0.000000 0.000000 0.000000
# 3 -0.003145 -0.001171 0.011735 0.000000 0.000000 0.000000
# 4 0.000000 0.000000 0.000000 0.061400 0.000000 0.000000
# 5 0.000000 0.000000 0.000000 0.000000 0.039555 0.000000
# 6 0.000000 0.000000 0.000000 0.000000 0.000000 0.030094
#
#
# Mechanical properties :
#
#
# Convention : Reuss Voigt Hill
#
# Bulk Modulus (GPa) = 54.46244 56.11089 55.28666
# Shear Modulus (GPa) = 25.16995 27.55897 26.36446
#
# Velocity S-wave (km/s) = 3.42406 3.58288 3.50437
# Velocity P-wave (km/s) = 6.40320 6.57667 6.49052
#
# Compressibility (1/GPa) = 0.01836128
#
# Stress axis : x y z
#
# Youngs Moduli (GPa) = 76.11359 66.45757 85.21300
#
# Poissons Ratio (x) = 0.42954 0.26799
# Poissons Ratio (y) = 0.49195 0.09982
# Poissons Ratio (z) = 0.23937 0.07785
#
# Static dielectric constant tensor:
#      x y z
#    x 3.716570 0.000000 0.000000 
#    y 0.000000 3.780870 0.000000 
#    z 0.000000 0.000000 4.017660 
# 
# 
# High freq. dielectric constant tensor:
#      x y z
#    x 1.825210 0.000000 0.000000 
#    y 0.000000 1.814910 0.000000 
#    z 0.000000 0.000000 1.850990 
# 
# From -- ./inp_files/17757.got.cif
#   From: 2010.03.12/outbox.cif.g09.slc.cpg/sg57_9_cif.got.tgz:17757.got - 2010.04.16 15:48:40.
