data_PCOD8232073
_publ_section_title
;
Structure prediction by ZEFSAII (Michael W. Deem and Ramdas Pophale) SiO2 
 PCOD8232073
Probable space group: P B C M
;
_chemical_formula_sum "Si O2"
_cell_formula_units_Z 40
_cell_length_a 12.459209
_cell_length_b 10.072291
_cell_length_c 16.141713
_cell_angle_alpha 90.000000
_cell_angle_beta 90.000000
_cell_angle_gamma 90.000000
_cell_volume 2025.668417
_symmetry_space_group_name_H-M "P B C M"
_symmetry_group_IT_number 57
_symmetry_cell_setting 'orthorhombic'
loop_
_space_group_symop_operation_xyz
x,y,z
-x,-y,1/2+z
x,1/2-y,-z
-x,1/2+y,1/2-z
-x,-y,-z
x,y,1/2-z
-x,1/2+y,z
x,1/2-y,1/2+z
loop_
_atom_site_type_symbol
_atom_site_label
_atom_site_fract_x
_atom_site_fract_y
_atom_site_fract_z
Si Si1 0.091426 0.809102 0.843296
Si Si2 0.315671 0.726855 0.097557
Si Si3 0.472184 0.123820 0.442857
Si Si4 0.049522 0.972942 0.089450
Si Si5 0.280095 0.011361 0.345744
O O1 0.101899 0.757943 0.750000
O O2 0.208633 0.852076 0.876680
O O3 0.041850 0.684838 0.893992
O O4 0.018906 0.939955 0.846300
O O5 0.424081 0.645147 0.116744
O O6 0.323314 0.861915 0.149491
O O7 0.309730 0.750000 0.000000
O O8 0.449441 0.250000 0.500000
O O9 0.500000 0.000000 0.500000
O O10 0.368540 0.107311 0.385258
O O11 0.172068 0.021719 0.099248
O O12 0.000000 0.000000 0.000000
O O13 0.258895 0.050493 0.250000
#
# Coordination Sequence:
#
# PCOD8232073 Si02
#       5
#     8   8   8   8   8
#     4  11  22  39  62  91 123 159 207 261 311 367
#     4  10  19  38  64  86 122 163 208 242 311 372
#     4  11  22  41  66  90 124 164 213 252 304 377
#     4  11  23  40  64  89 122 166 210 249 313 373
#     4  11  23  41  63  93 129 165 206 265 317 361
#
# _framework density 19.746568
#
# number of rings (size 3 to 8) (size 9 to 14) (size 15 to 20)
#    0.000    1.200    4.000    6.600    0.000    3.200 
#    0.000    0.000    0.000    0.000    0.000    0.000 
#    0.000    0.000    0.000    0.000    0.000    0.000 
#
# Total GULP energy -495922.017033 kJ/mol
# GULP energy per Si atom -12398.050426 kJ/mol
# Density = 1.970162 g / cm^3
# Si number density = 19.746568 Si / 1000 Ang^3
#
#
#
# Elastic Constant Matrix: (Units=GPa)
#
#
# Indices 1 2 3 4 5 6 
#
# 1 172.7902 62.6376 47.3713 0.0000 0.0000 0.0000
# 2 62.6376 80.0888 18.0267 0.0000 0.0000 0.0000
# 3 47.3713 18.0267 111.8079 0.0000 0.0000 0.0000
# 4 0.0000 0.0000 0.0000 30.7149 0.0000 0.0000
# 5 0.0000 0.0000 0.0000 0.0000 22.8470 0.0000
# 6 0.0000 0.0000 0.0000 0.0000 0.0000 36.7956
#
#
#
# Elastic Compliance Matrix: (Units=1/GPa)
#
#
# Indices 1 2 3 4 5 6 
#
# 1 0.008808 -0.006277 -0.002720 0.000000 0.000000 0.000000
# 2 -0.006277 0.017429 -0.000151 0.000000 0.000000 0.000000
# 3 -0.002720 -0.000151 0.010121 0.000000 0.000000 0.000000
# 4 0.000000 0.000000 0.000000 0.032557 0.000000 0.000000
# 5 0.000000 0.000000 0.000000 0.000000 0.043769 0.000000
# 6 0.000000 0.000000 0.000000 0.000000 0.000000 0.027177
#
#
# Mechanical properties :
#
#
# Convention : Reuss Voigt Hill
#
# Bulk Modulus (GPa) = 55.36122 68.97312 62.16717
# Shear Modulus (GPa) = 30.45464 33.84827 32.15145
#
# Velocity S-wave (km/s) = 3.93144 4.14470 4.03948
# Velocity P-wave (km/s) = 6.97890 7.60984 7.30119
#
# Compressibility (1/GPa) = 0.01806319
#
# Stress axis : x y z
#
# Youngs Moduli (GPa) = 113.52690 57.37489 98.80817
#
# Poissons Ratio (x) = 0.36014 0.26876
# Poissons Ratio (y) = 0.71260 0.01489
# Poissons Ratio (z) = 0.30879 0.00864
#
# Static dielectric constant tensor:
#      x y z
#    x 4.098210 0.000000 0.000000 
#    y 0.000000 3.545160 0.000000 
#    z 0.000000 0.000000 3.614570 
# 
# 
# High freq. dielectric constant tensor:
#      x y z
#    x 1.785840 0.000000 0.000000 
#    y 0.000000 1.756270 0.000000 
#    z 0.000000 0.000000 1.769240 
# 
# From -- ./inp_files/17407.got.cif
#   From: 2010.03.12/outbox.cif.g09.slc.cpg/sg57_9_cif.got.tgz:17407.got - 2010.04.16 15:48:40.
