data_PCOD8232968
_publ_section_title
;
Structure prediction by ZEFSAII (Michael W. Deem and Ramdas Pophale) SiO2 
 PCOD8232968
Probable space group: P B C M
;
_chemical_formula_sum "Si O2"
_cell_formula_units_Z 48
_cell_length_a 30.533985
_cell_length_b 9.381705
_cell_length_c 8.656837
_cell_angle_alpha 90.000000
_cell_angle_beta 90.000000
_cell_angle_gamma 90.000000
_cell_volume 2479.844797
_symmetry_space_group_name_H-M "P B C M"
_symmetry_group_IT_number 57
_symmetry_cell_setting 'orthorhombic'
loop_
_space_group_symop_operation_xyz
x,y,z
-x,-y,1/2+z
x,1/2-y,-z
-x,1/2+y,1/2-z
-x,-y,-z
x,y,1/2-z
-x,1/2+y,z
x,1/2-y,1/2+z
loop_
_atom_site_type_symbol
_atom_site_label
_atom_site_fract_x
_atom_site_fract_y
_atom_site_fract_z
Si Si1 0.539017 0.407907 0.931858
Si Si2 0.961112 0.907556 0.433683
Si Si3 0.793716 0.397364 0.431514
Si Si4 0.128489 0.094955 0.066434
Si Si5 0.622408 0.594903 0.568233
Si Si6 0.694854 0.401709 0.067124
O O1 0.532798 0.396233 0.750000
O O2 0.583622 0.487607 0.977569
O O3 0.539415 0.250000 0.000000
O O4 0.500000 0.500000 0.000000
O O5 0.965992 0.750000 0.500000
O O6 0.962672 0.904712 0.250000
O O7 0.915084 0.974922 0.491874
O O8 0.000000 0.000000 0.500000
O O9 0.810240 0.250000 0.500000
O O10 0.794172 0.384018 0.250000
O O11 0.828157 0.513644 0.489549
O O12 0.744550 0.433729 0.487837
O O13 0.123178 0.097249 0.250000
O O14 0.134819 0.250000 0.000000
O O15 0.612336 0.750000 0.500000
O O16 0.627607 0.610139 0.750000
O O17 0.666801 0.531799 0.498256
O O18 0.690016 0.395470 0.250000
O O19 0.678708 0.250000 0.000000
#
# Coordination Sequence:
#
# PCOD8232968 Si02
#       6
#     8   8   8   8   8   8
#     4  11  24  41  63  89 119 153 192 235 285 338
#     4  11  22  38  58  82 110 144 184 228 277 331
#     4   9  20  36  56  82 112 145 185 229 276 329
#     4  10  20  36  55  79 110 144 182 226 275 330
#     4  11  24  40  59  86 117 152 191 236 284 336
#     4  10  20  37  59  84 114 150 190 234 281 334
#
# _framework density 19.356051999999998
#
# number of rings (size 3 to 8) (size 9 to 14) (size 15 to 20)
#    0.000    1.667    0.000    5.500    0.000    8.667 
#    0.000    3.333    0.000    0.000    0.000    0.000 
#    0.000    0.000    0.000    0.000    0.000    0.000 
#
# Total GULP energy -595298.210467 kJ/mol
# GULP energy per Si atom -12402.046051 kJ/mol
# Density = 1.931200 g / cm^3
# Si number density = 19.356052 Si / 1000 Ang^3
#
#
#
# Elastic Constant Matrix: (Units=GPa)
#
#
# Indices 1 2 3 4 5 6 
#
# 1 142.3363 83.9710 59.7455 0.0000 0.0000 0.0000
# 2 83.9710 131.9637 54.2278 0.0000 0.0000 0.0000
# 3 59.7455 54.2278 98.4661 0.0000 0.0000 0.0000
# 4 0.0000 0.0000 0.0000 38.6738 0.0000 0.0000
# 5 0.0000 0.0000 0.0000 0.0000 31.8378 0.0000
# 6 0.0000 0.0000 0.0000 0.0000 0.0000 46.2480
#
#
#
# Elastic Compliance Matrix: (Units=1/GPa)
#
#
# Indices 1 2 3 4 5 6 
#
# 1 0.012416 -0.006210 -0.004113 0.000000 0.000000 0.000000
# 2 -0.006210 0.012901 -0.003337 0.000000 0.000000 0.000000
# 3 -0.004113 -0.003337 0.014489 0.000000 0.000000 0.000000
# 4 0.000000 0.000000 0.000000 0.025857 0.000000 0.000000
# 5 0.000000 0.000000 0.000000 0.000000 0.031409 0.000000
# 6 0.000000 0.000000 0.000000 0.000000 0.000000 0.021623
#
#
# Mechanical properties :
#
#
# Convention : Reuss Voigt Hill
#
# Bulk Modulus (GPa) = 80.09381 85.40608 82.74994
# Shear Modulus (GPa) = 33.29413 35.00673 34.15043
#
# Velocity S-wave (km/s) = 4.15189 4.25734 4.20495
# Velocity P-wave (km/s) = 8.02828 8.26959 8.14983
#
# Compressibility (1/GPa) = 0.01248536
#
# Stress axis : x y z
#
# Youngs Moduli (GPa) = 80.54218 77.51592 69.01701
#
# Poissons Ratio (x) = 0.48138 0.28389
# Poissons Ratio (y) = 0.50018 0.23028
# Poissons Ratio (z) = 0.33130 0.25864
#
# Static dielectric constant tensor:
#      x y z
#    x 4.096790 0.000000 0.000000 
#    y 0.000000 3.135040 0.000000 
#    z 0.000000 0.000000 3.537950 
# 
# 
# High freq. dielectric constant tensor:
#      x y z
#    x 1.770410 0.000000 0.000000 
#    y 0.000000 1.753040 0.000000 
#    z 0.000000 0.000000 1.767330 
# 
# From -- ./inp_files/10001.got.cif
#   From: 2010.03.12/outbox.cif.g09.slc.cpg/sg57_6_cif.got.tgz:10001.got - 2010.04.16 15:48:40.
