data_PCOD8232319
_publ_section_title
;
Structure prediction by ZEFSAII (Michael W. Deem and Ramdas Pophale) SiO2 
 PCOD8232319
Probable space group: P B C M
;
_chemical_formula_sum "Si O2"
_cell_formula_units_Z 48
_cell_length_a 16.839227
_cell_length_b 10.064887
_cell_length_c 15.664013
_cell_angle_alpha 90.000000
_cell_angle_beta 90.000000
_cell_angle_gamma 90.000000
_cell_volume 2654.813942
_symmetry_space_group_name_H-M "P B C M"
_symmetry_group_IT_number 57
_symmetry_cell_setting 'orthorhombic'
loop_
_space_group_symop_operation_xyz
x,y,z
-x,-y,1/2+z
x,1/2-y,-z
-x,1/2+y,1/2-z
-x,-y,-z
x,y,1/2-z
-x,1/2+y,z
x,1/2-y,1/2+z
loop_
_atom_site_type_symbol
_atom_site_label
_atom_site_fract_x
_atom_site_fract_y
_atom_site_fract_z
Si Si1 0.923641 0.407887 0.004340
Si Si2 0.803693 0.122430 0.845816
Si Si3 0.481388 0.377880 0.057520
Si Si4 0.651102 0.014939 0.152403
Si Si5 0.364103 0.691082 0.850569
Si Si6 0.825405 0.434985 0.657469
O O1 0.868508 0.436257 0.087663
O O2 0.943884 0.250000 0.000000
O O3 0.881976 0.465533 0.920515
O O4 0.000000 0.500000 0.000000
O O5 0.818684 0.062117 0.750000
O O6 0.712533 0.100490 0.879629
O O7 0.807688 0.279909 0.840592
O O8 0.398373 0.400205 0.105828
O O9 0.553400 0.375123 0.124647
O O10 0.472108 0.250000 0.000000
O O11 0.500000 0.500000 0.000000
O O12 0.622885 0.017145 0.250000
O O13 0.636067 0.160041 0.109299
O O14 0.744401 0.981841 0.144834
O O15 0.356231 0.704665 0.750000
O O16 0.863317 0.475123 0.750000
#
# Coordination Sequence:
#
# PCOD8232319 Si02
#       6
#     8   8   8   8   8   8
#     4  10  20  33  54  81 107 135 168 213 264 317
#     4   8  16  31  54  79 101 133 179 221 254 304
#     4  12  23  33  49  80 111 140 179 222 272 315
#     4   9  18  35  55  75 102 138 180 226 267 311
#     4   9  18  34  54  75 101 138 182 225 264 312
#     4   8  16  32  55  78 100 135 180 217 256 311
#
# _framework density 18.080362000000001
#
# number of rings (size 3 to 8) (size 9 to 14) (size 15 to 20)
#    0.000    2.667    1.667    2.500    2.333    1.333 
#    0.000    0.833    0.000    0.000    0.000    0.000 
#    0.000    0.000    0.000    0.000    0.000    0.000 
#
# Total GULP energy -594638.124771 kJ/mol
# GULP energy per Si atom -12388.294266 kJ/mol
# Density = 1.803921 g / cm^3
# Si number density = 18.080362 Si / 1000 Ang^3
#
#
#
# Elastic Constant Matrix: (Units=GPa)
#
#
# Indices 1 2 3 4 5 6 
#
# 1 136.6499 41.7711 76.6648 0.0000 0.0000 0.0000
# 2 41.7711 56.4405 31.9823 0.0000 0.0000 0.0000
# 3 76.6648 31.9823 106.0349 0.0000 0.0000 0.0000
# 4 0.0000 0.0000 0.0000 15.8309 0.0000 0.0000
# 5 0.0000 0.0000 0.0000 0.0000 34.5422 0.0000
# 6 0.0000 0.0000 0.0000 0.0000 0.0000 33.9667
#
#
#
# Elastic Compliance Matrix: (Units=1/GPa)
#
#
# Indices 1 2 3 4 5 6 
#
# 1 0.013552 -0.005401 -0.008169 0.000000 0.000000 0.000000
# 2 -0.005401 0.023522 -0.003190 0.000000 0.000000 0.000000
# 3 -0.008169 -0.003190 0.016300 0.000000 0.000000 0.000000
# 4 0.000000 0.000000 0.000000 0.063167 0.000000 0.000000
# 5 0.000000 0.000000 0.000000 0.000000 0.028950 0.000000
# 6 0.000000 0.000000 0.000000 0.000000 0.000000 0.029441
#
#
# Mechanical properties :
#
#
# Convention : Reuss Voigt Hill
#
# Bulk Modulus (GPa) = 50.36797 66.66243 58.51520
# Shear Modulus (GPa) = 23.24817 26.78177 25.01497
#
# Velocity S-wave (km/s) = 3.58973 3.85289 3.72364
# Velocity P-wave (km/s) = 6.71564 7.53281 7.13593
#
# Compressibility (1/GPa) = 0.01985389
#
# Stress axis : x y z
#
# Youngs Moduli (GPa) = 73.78915 42.51267 61.35070
#
# Poissons Ratio (x) = 0.22959 0.50120
# Poissons Ratio (y) = 0.39850 0.19572
# Poissons Ratio (z) = 0.60282 0.13562
#
# Static dielectric constant tensor:
#      x y z
#    x 3.396650 0.000000 0.000000 
#    y 0.000000 2.413850 0.000000 
#    z 0.000000 0.000000 3.679690 
# 
# 
# High freq. dielectric constant tensor:
#      x y z
#    x 1.702590 0.000000 0.000000 
#    y 0.000000 1.648590 0.000000 
#    z 0.000000 0.000000 1.714080 
# 
# From -- ./inp_files/18379.got.cif
#   From: 2010.03.12/outbox.cif.g09.slc.cpg/sg57_10_cif.got.tgz:18379.got - 2010.04.16 15:48:40.
