data_PCOD8232041
_publ_section_title
;
Structure prediction by ZEFSAII (Michael W. Deem and Ramdas Pophale) SiO2 
 PCOD8232041
Probable space group: P B C M
;
_chemical_formula_sum "Si O2"
_cell_formula_units_Z 64
_cell_length_a 11.091055
_cell_length_b 16.274948
_cell_length_c 17.506530
_cell_angle_alpha 90.000000
_cell_angle_beta 90.000000
_cell_angle_gamma 90.000000
_cell_volume 3160.039716
_symmetry_space_group_name_H-M "P B C M"
_symmetry_group_IT_number 57
_symmetry_cell_setting 'orthorhombic'
loop_
_space_group_symop_operation_xyz
x,y,z
-x,-y,1/2+z
x,1/2-y,-z
-x,1/2+y,1/2-z
-x,-y,-z
x,y,1/2-z
-x,1/2+y,z
x,1/2-y,1/2+z
loop_
_atom_site_type_symbol
_atom_site_label
_atom_site_fract_x
_atom_site_fract_y
_atom_site_fract_z
Si Si1 0.176974 0.155774 0.418041
Si Si2 0.250466 0.554855 0.441047
Si Si3 0.887291 0.599279 0.920307
Si Si4 0.885347 0.136638 0.664810
Si Si5 0.088257 0.707043 0.081208
Si Si6 0.706212 0.694452 0.662608
Si Si7 0.433679 0.461355 0.338916
Si Si8 0.699600 0.016218 0.891316
O O1 0.164128 0.154759 0.510034
O O2 0.272463 0.225389 0.390354
O O3 0.040153 0.171233 0.387603
O O4 0.229268 0.069969 0.386615
O O5 0.135061 0.495293 0.438176
O O6 0.197333 0.643576 0.424672
O O7 0.347641 0.527282 0.379239
O O8 0.313128 0.550450 0.523198
O O9 0.822148 0.634486 0.844815
O O10 0.028661 0.604999 0.904023
O O11 0.939441 0.128739 0.750000
O O12 0.860778 0.231435 0.645474
O O13 0.765224 0.083086 0.661165
O O14 0.065182 0.750000 0.000000
O O15 0.691799 0.723802 0.750000
O O16 0.594397 0.634459 0.636275
O O17 0.406835 0.468785 0.250000
O O18 0.566895 0.491045 0.357763
#
# Coordination Sequence:
#
# PCOD8232041 Si02
#       8
#     8   8   8   8   8   8   8   8
#     4  11  21  37  66  94 124 162 213 263 313 377
#     4  10  22  40  67  91 120 166 219 264 311 382
#     4  10  19  37  61  92 123 159 205 257 317 376
#     4  12  24  38  61  93 134 169 200 255 328 390
#     4  12  21  39  63  95 133 163 205 262 324 383
#     4  10  20  36  60  89 123 166 208 259 319 378
#     4  10  23  44  64  88 130 170 215 269 325 380
#     4  11  23  42  65  93 124 173 221 264 312 377
#
# _framework density 20.252908999999999
#
# number of rings (size 3 to 8) (size 9 to 14) (size 15 to 20)
#    0.000    1.250    3.750    2.250    0.000    4.000 
#    2.250    1.250    2.750    0.000    0.000    0.000 
#    0.000    0.000    0.000    0.000    0.000    0.000 
#
# Total GULP energy -793225.725089 kJ/mol
# GULP energy per Si atom -12394.151955 kJ/mol
# Density = 2.020681 g / cm^3
# Si number density = 20.252909 Si / 1000 Ang^3
#
#
#
# Elastic Constant Matrix: (Units=GPa)
#
#
# Indices 1 2 3 4 5 6 
#
# 1 98.7466 61.6490 35.1282 0.0000 0.0000 0.0000
# 2 61.6490 117.8443 44.3167 0.0000 0.0000 0.0000
# 3 35.1282 44.3167 91.6866 0.0000 0.0000 0.0000
# 4 0.0000 0.0000 0.0000 23.8890 0.0000 0.0000
# 5 0.0000 0.0000 0.0000 0.0000 27.7209 0.0000
# 6 0.0000 0.0000 0.0000 0.0000 0.0000 27.5804
#
#
#
# Elastic Compliance Matrix: (Units=1/GPa)
#
#
# Indices 1 2 3 4 5 6 
#
# 1 0.015481 -0.007172 -0.002465 0.000000 0.000000 0.000000
# 2 -0.007172 0.013693 -0.003871 0.000000 0.000000 0.000000
# 3 -0.002465 -0.003871 0.013722 0.000000 0.000000 0.000000
# 4 0.000000 0.000000 0.000000 0.041860 0.000000 0.000000
# 5 0.000000 0.000000 0.000000 0.000000 0.036074 0.000000
# 6 0.000000 0.000000 0.000000 0.000000 0.000000 0.036258
#
#
# Mechanical properties :
#
#
# Convention : Reuss Voigt Hill
#
# Bulk Modulus (GPa) = 62.96666 65.60726 64.28696
# Shear Modulus (GPa) = 26.39946 26.98363 26.69154
#
# Velocity S-wave (km/s) = 3.61430 3.65407 3.63424
# Velocity P-wave (km/s) = 6.96960 7.08995 7.03003
#
# Compressibility (1/GPa) = 0.01588142
#
# Stress axis : x y z
#
# Youngs Moduli (GPa) = 64.59383 73.02787 72.87523
#
# Poissons Ratio (x) = 0.52375 0.17963
# Poissons Ratio (y) = 0.46327 0.28209
# Poissons Ratio (z) = 0.15922 0.28268
#
# Static dielectric constant tensor:
#      x y z
#    x 3.515500 0.000000 0.000000 
#    y 0.000000 3.819860 0.000000 
#    z 0.000000 0.000000 3.622830 
# 
# 
# High freq. dielectric constant tensor:
#      x y z
#    x 1.774850 0.000000 0.000000 
#    y 0.000000 1.796700 0.000000 
#    z 0.000000 0.000000 1.790030 
# 
# From -- ./inp_files/22095.got.cif
#   From: 2010.03.12/outbox.cif.g09.slc.cpg/sg57_12_cif.got.tgz:22095.got - 2010.04.16 15:48:40.
