data_PCOD8232077
_publ_section_title
;
Structure prediction by ZEFSAII (Michael W. Deem and Ramdas Pophale) SiO2 
 PCOD8232077
Probable space group: P B C M
;
_chemical_formula_sum "Si O2"
_cell_formula_units_Z 48
_cell_length_a 13.656833
_cell_length_b 9.965891
_cell_length_c 16.804746
_cell_angle_alpha 90.000000
_cell_angle_beta 90.000000
_cell_angle_gamma 90.000000
_cell_volume 2287.168095
_symmetry_space_group_name_H-M "P B C M"
_symmetry_group_IT_number 57
_symmetry_cell_setting 'orthorhombic'
loop_
_space_group_symop_operation_xyz
x,y,z
-x,-y,1/2+z
x,1/2-y,-z
-x,1/2+y,1/2-z
-x,-y,-z
x,y,1/2-z
-x,1/2+y,z
x,1/2-y,1/2+z
loop_
_atom_site_type_symbol
_atom_site_label
_atom_site_fract_x
_atom_site_fract_y
_atom_site_fract_z
Si Si1 0.076197 0.944584 0.657308
Si Si2 0.206503 0.724433 0.908547
Si Si3 0.433455 0.432050 0.157490
Si Si4 0.144410 0.449768 0.655071
Si Si5 0.572903 0.215430 0.408553
Si Si6 0.776701 0.834822 0.155372
O O1 0.067184 0.969438 0.750000
O O2 0.124454 0.799945 0.642817
O O3 0.966836 0.948935 0.622164
O O4 0.143616 0.061370 0.619014
O O5 0.202908 0.567914 0.887982
O O6 0.313154 0.778853 0.885398
O O7 0.182803 0.750000 0.000000
O O8 0.425186 0.469516 0.250000
O O9 0.464230 0.565265 0.109407
O O10 0.515841 0.320136 0.146295
O O11 0.330611 0.374867 0.124023
O O12 0.149711 0.466130 0.750000
O O13 0.196945 0.313902 0.626107
O O14 0.553507 0.250000 0.500000
O O15 0.779496 0.841393 0.250000
#
# Coordination Sequence:
#
# PCOD8232077 Si02
#       6
#     8   8   8   8   8   8
#     4  10  19  38  64  88 121 162 204 254 307 356
#     4  11  24  40  60  88 127 166 204 246 304 369
#     4  11  23  41  66  95 122 160 210 263 310 363
#     4  10  21  37  63  93 120 159 207 254 302 360
#     4  11  25  44  64  89 129 168 206 254 316 380
#     4   9  19  36  58  90 123 151 197 256 307 353
#
# _framework density 20.986651999999999
#
# number of rings (size 3 to 8) (size 9 to 14) (size 15 to 20)
#    0.000    1.667    1.667    2.500    2.333    5.333 
#    0.000    0.833    0.000    0.000    0.000    0.000 
#    0.000    0.000    0.000    0.000    0.000    0.000 
#
# Total GULP energy -595434.652607 kJ/mol
# GULP energy per Si atom -12404.888596 kJ/mol
# Density = 2.093889 g / cm^3
# Si number density = 20.986652 Si / 1000 Ang^3
#
#
#
# Elastic Constant Matrix: (Units=GPa)
#
#
# Indices 1 2 3 4 5 6 
#
# 1 70.1212 31.8693 23.9786 0.0000 0.0000 0.0000
# 2 31.8693 165.4727 30.2877 0.0000 0.0000 0.0000
# 3 23.9786 30.2877 41.9169 0.0000 0.0000 0.0000
# 4 0.0000 0.0000 0.0000 28.2625 0.0000 0.0000
# 5 0.0000 0.0000 0.0000 0.0000 19.2632 0.0000
# 6 0.0000 0.0000 0.0000 0.0000 0.0000 36.7904
#
#
#
# Elastic Compliance Matrix: (Units=1/GPa)
#
#
# Indices 1 2 3 4 5 6 
#
# 1 0.018205 -0.001844 -0.009082 0.000000 0.000000 0.000000
# 2 -0.001844 0.007151 -0.004112 0.000000 0.000000 0.000000
# 3 -0.009082 -0.004112 0.032023 0.000000 0.000000 0.000000
# 4 0.000000 0.000000 0.000000 0.035383 0.000000 0.000000
# 5 0.000000 0.000000 0.000000 0.000000 0.051912 0.000000
# 6 0.000000 0.000000 0.000000 0.000000 0.000000 0.027181
#
#
# Mechanical properties :
#
#
# Convention : Reuss Voigt Hill
#
# Bulk Modulus (GPa) = 36.62560 49.97577 43.30068
# Shear Modulus (GPa) = 23.69312 29.62159 26.65735
#
# Velocity S-wave (km/s) = 3.36365 3.76100 3.56786
# Velocity P-wave (km/s) = 5.70747 6.53644 6.13597
#
# Compressibility (1/GPa) = 0.02730331
#
# Stress axis : x y z
#
# Youngs Moduli (GPa) = 54.93126 139.83809 31.22725
#
# Poissons Ratio (x) = 0.25784 0.28359
# Poissons Ratio (y) = 0.10128 0.12842
# Poissons Ratio (z) = 0.49887 0.57507
#
# Static dielectric constant tensor:
#      x y z
#    x 3.951870 0.000000 0.000000 
#    y 0.000000 3.877030 0.000000 
#    z 0.000000 0.000000 3.399650 
# 
# 
# High freq. dielectric constant tensor:
#      x y z
#    x 1.830750 0.000000 0.000000 
#    y 0.000000 1.837010 0.000000 
#    z 0.000000 0.000000 1.792830 
# 
# From -- ./inp_files/22398.got.cif
#   From: 2010.03.12/outbox.cif.g09.slc.cpg/sg57_12_cif.got.tgz:22398.got - 2010.04.16 15:48:40.
