data_PCOD8232252
_publ_section_title
;
Structure prediction by ZEFSAII (Michael W. Deem and Ramdas Pophale) SiO2 
 PCOD8232252
Probable space group: P B C M
;
_chemical_formula_sum "Si O2"
_cell_formula_units_Z 48
_cell_length_a 23.570869
_cell_length_b 13.634359
_cell_length_c 8.638178
_cell_angle_alpha 90.000000
_cell_angle_beta 90.000000
_cell_angle_gamma 90.000000
_cell_volume 2776.083138
_symmetry_space_group_name_H-M "P B C M"
_symmetry_group_IT_number 57
_symmetry_cell_setting 'orthorhombic'
loop_
_space_group_symop_operation_xyz
x,y,z
-x,-y,1/2+z
x,1/2-y,-z
-x,1/2+y,1/2-z
-x,-y,-z
x,y,1/2-z
-x,1/2+y,z
x,1/2-y,1/2+z
loop_
_atom_site_type_symbol
_atom_site_label
_atom_site_fract_x
_atom_site_fract_y
_atom_site_fract_z
Si Si1 0.526371 0.856507 0.931760
Si Si2 0.411929 0.965993 0.930382
Si Si3 0.689671 0.354496 0.067971
Si Si4 0.979917 0.648091 0.068550
Si Si5 0.809932 0.354993 0.567655
Si Si6 0.085872 0.545678 0.569517
O O1 0.538335 0.858305 0.750000
O O2 0.462857 0.891677 0.970078
O O3 0.535301 0.750000 0.000000
O O4 0.571679 0.925308 0.016661
O O5 0.397199 0.965564 0.750000
O O6 0.357036 0.934823 0.026384
O O7 0.695869 0.343920 0.250000
O O8 0.670648 0.250000 0.000000
O O9 0.749535 0.388973 0.998702
O O10 0.991368 0.656964 0.250000
O O11 0.933401 0.565044 0.031567
O O12 0.956503 0.750000 0.000000
O O13 0.038859 0.622709 0.985999
O O14 0.828419 0.250000 0.500000
O O15 0.805269 0.345900 0.750000
O O16 0.855946 0.436326 0.521406
O O17 0.096305 0.562043 0.750000
#
# Coordination Sequence:
#
# PCOD8232252 Si02
#       6
#     8   8   8   8   8   8
#     4  10  20  33  51  75 103 135 169 207 250 297
#     4  10  20  34  52  75 103 134 169 207 250 298
#     4  11  21  34  52  75 103 133 167 205 249 298
#     4  10  20  33  51  74 101 132 165 203 245 292
#     4  11  21  34  52  74 101 132 166 204 248 295
#     4  10  20  34  51  73 101 132 166 203 246 294
#
# _framework density 17.290548999999999
#
# number of rings (size 3 to 8) (size 9 to 14) (size 15 to 20)
#    0.000    1.667    0.000    7.000    0.000    5.333 
#    0.000    0.000    0.000    1.000    0.000    4.667 
#    0.000    0.000    0.000    0.000    0.000    0.000 
#
# Total GULP energy -595465.854274 kJ/mol
# GULP energy per Si atom -12405.538631 kJ/mol
# Density = 1.725119 g / cm^3
# Si number density = 17.290549 Si / 1000 Ang^3
#
#
#
# Elastic Constant Matrix: (Units=GPa)
#
#
# Indices 1 2 3 4 5 6 
#
# 1 107.5136 56.0797 52.7490 0.0000 0.0000 0.0000
# 2 56.0797 110.8108 44.5034 0.0000 0.0000 0.0000
# 3 52.7490 44.5034 123.7406 0.0000 0.0000 0.0000
# 4 0.0000 0.0000 0.0000 31.5668 0.0000 0.0000
# 5 0.0000 0.0000 0.0000 0.0000 31.1547 0.0000
# 6 0.0000 0.0000 0.0000 0.0000 0.0000 25.8384
#
#
#
# Elastic Compliance Matrix: (Units=1/GPa)
#
#
# Indices 1 2 3 4 5 6 
#
# 1 0.014184 -0.005552 -0.004050 0.000000 0.000000 0.000000
# 2 -0.005552 0.012721 -0.002208 0.000000 0.000000 0.000000
# 3 -0.004050 -0.002208 0.010602 0.000000 0.000000 0.000000
# 4 0.000000 0.000000 0.000000 0.031679 0.000000 0.000000
# 5 0.000000 0.000000 0.000000 0.000000 0.032098 0.000000
# 6 0.000000 0.000000 0.000000 0.000000 0.000000 0.038702
#
#
# Mechanical properties :
#
#
# Convention : Reuss Voigt Hill
#
# Bulk Modulus (GPa) = 72.00978 72.08101 72.04539
# Shear Modulus (GPa) = 29.72035 30.29415 30.00725
#
# Velocity S-wave (km/s) = 4.15043 4.19031 4.17042
# Velocity P-wave (km/s) = 8.04397 8.07404 8.05902
#
# Compressibility (1/GPa) = 0.01388700
#
# Stress axis : x y z
#
# Youngs Moduli (GPa) = 70.50242 78.60985 94.32160
#
# Poissons Ratio (x) = 0.43643 0.38197
# Poissons Ratio (y) = 0.39142 0.20831
# Poissons Ratio (z) = 0.28551 0.17361
#
# Static dielectric constant tensor:
#      x y z
#    x 3.159500 0.000000 0.000000 
#    y 0.000000 3.185120 0.000000 
#    z 0.000000 0.000000 3.382440 
# 
# 
# High freq. dielectric constant tensor:
#      x y z
#    x 1.658120 0.000000 0.000000 
#    y 0.000000 1.657800 0.000000 
#    z 0.000000 0.000000 1.691320 
# 
# From -- ./inp_files/9103.got.cif
#   From: 2010.03.12/outbox.cif.g09.slc.cpg/sg57_5_cif.got.tgz:9103.got - 2010.04.16 15:48:40.
