data_PCOD8232903
_publ_section_title
;
Structure prediction by ZEFSAII (Michael W. Deem and Ramdas Pophale) SiO2 
 PCOD8232903
Probable space group: P B C M
;
_chemical_formula_sum "Si O2"
_cell_formula_units_Z 64
_cell_length_a 14.827176
_cell_length_b 9.646307
_cell_length_c 22.983339
_cell_angle_alpha 90.000000
_cell_angle_beta 90.000000
_cell_angle_gamma 90.000000
_cell_volume 3287.249327
_symmetry_space_group_name_H-M "P B C M"
_symmetry_group_IT_number 57
_symmetry_cell_setting 'orthorhombic'
loop_
_space_group_symop_operation_xyz
x,y,z
-x,-y,1/2+z
x,1/2-y,-z
-x,1/2+y,1/2-z
-x,-y,-z
x,y,1/2-z
-x,1/2+y,z
x,1/2-y,1/2+z
loop_
_atom_site_type_symbol
_atom_site_label
_atom_site_fract_x
_atom_site_fract_y
_atom_site_fract_z
Si Si1 0.858203 0.179505 0.904986
Si Si2 0.722104 0.812458 0.315930
Si Si3 0.403266 0.556184 0.633128
Si Si4 0.209812 0.515329 0.408459
Si Si5 0.479123 0.211259 0.317387
Si Si6 0.781099 0.515902 0.316683
Si Si7 0.040335 0.376309 0.037738
Si Si8 0.697527 0.398396 0.481908
O O1 0.816855 0.329200 0.889962
O O2 0.798767 0.115911 0.956890
O O3 0.961612 0.191314 0.923224
O O4 0.854915 0.073335 0.851016
O O5 0.750164 0.844555 0.250000
O O6 0.616184 0.786695 0.320497
O O7 0.776227 0.675887 0.338315
O O8 0.744635 0.946609 0.353023
O O9 0.473869 0.437653 0.651145
O O10 0.448493 0.704286 0.644790
O O11 0.316971 0.551928 0.675002
O O12 0.371124 0.536667 0.565594
O O13 0.120374 0.430240 0.422586
O O14 0.284723 0.509134 0.460521
O O15 0.509652 0.193648 0.250000
O O16 0.809095 0.509895 0.250000
O O17 0.079807 0.250000 0.000000
O O18 0.000000 0.500000 0.000000
O O19 0.656937 0.250000 0.500000
#
# Coordination Sequence:
#
# PCOD8232903 Si02
#       8
#     8   8   8   8   8   8   8   8
#     4  10  20  36  55  85 115 143 189 235 283 342
#     4   9  21  39  58  83 113 148 194 242 287 345
#     4  10  20  35  59  84 115 148 194 242 287 342
#     4  11  22  37  61  85 115 150 191 243 290 348
#     4  10  20  37  58  83 113 147 194 240 283 338
#     4   9  19  37  59  82 114 152 189 237 297 350
#     4  12  22  36  58  86 116 148 192 236 282 339
#     4   9  19  37  55  80 116 150 185 234 290 345
#
# _framework density 19.469165
#
# number of rings (size 3 to 8) (size 9 to 14) (size 15 to 20)
#    0.000    2.000    2.500    2.250    1.750    4.500 
#    0.000    4.375    0.000    0.000    0.000    0.000 
#    0.000    0.000    0.000    0.000    0.000    0.000 
#
# Total GULP energy -793515.411170 kJ/mol
# GULP energy per Si atom -12398.678300 kJ/mol
# Density = 1.942485 g / cm^3
# Si number density = 19.469165 Si / 1000 Ang^3
#
#
#
# Elastic Constant Matrix: (Units=GPa)
#
#
# Indices 1 2 3 4 5 6 
#
# 1 41.2808 21.9188 29.1803 0.0000 0.0000 0.0000
# 2 21.9188 86.5747 49.3623 0.0000 0.0000 0.0000
# 3 29.1803 49.3623 102.1956 0.0000 0.0000 0.0000
# 4 0.0000 0.0000 0.0000 43.5743 0.0000 0.0000
# 5 0.0000 0.0000 0.0000 0.0000 21.9548 0.0000
# 6 0.0000 0.0000 0.0000 0.0000 0.0000 33.1354
#
#
#
# Elastic Compliance Matrix: (Units=1/GPa)
#
#
# Indices 1 2 3 4 5 6 
#
# 1 0.031276 -0.003901 -0.007046 0.000000 0.000000 0.000000
# 2 -0.003901 0.016427 -0.006821 0.000000 0.000000 0.000000
# 3 -0.007046 -0.006821 0.015092 0.000000 0.000000 0.000000
# 4 0.000000 0.000000 0.000000 0.022949 0.000000 0.000000
# 5 0.000000 0.000000 0.000000 0.000000 0.045548 0.000000
# 6 0.000000 0.000000 0.000000 0.000000 0.000000 0.030179
#
#
# Mechanical properties :
#
#
# Convention : Reuss Voigt Hill
#
# Bulk Modulus (GPa) = 36.68459 47.88598 42.28528
# Shear Modulus (GPa) = 24.26068 28.37222 26.31645
#
# Velocity S-wave (km/s) = 3.53386 3.82159 3.68053
# Velocity P-wave (km/s) = 5.96105 6.64243 6.31095
#
# Compressibility (1/GPa) = 0.02725940
#
# Stress axis : x y z
#
# Youngs Moduli (GPa) = 31.97296 60.87393 66.26148
#
# Poissons Ratio (x) = 0.23746 0.46690
# Poissons Ratio (y) = 0.12472 0.45196
# Poissons Ratio (z) = 0.22529 0.41521
#
# Static dielectric constant tensor:
#      x y z
#    x 3.386820 0.000000 0.000000 
#    y 0.000000 3.670460 0.000000 
#    z 0.000000 0.000000 3.565260 
# 
# 
# High freq. dielectric constant tensor:
#      x y z
#    x 1.737730 0.000000 0.000000 
#    y 0.000000 1.764410 0.000000 
#    z 0.000000 0.000000 1.751640 
# 
# From -- ./inp_files/27502.got.cif
#   From: 2010.03.12/outbox.cif.g09.slc.cpg/sg57_14_cif.got.tgz:27502.got - 2010.04.16 15:48:40.
