data_PCOD8232052
_publ_section_title
;
Structure prediction by ZEFSAII (Michael W. Deem and Ramdas Pophale) SiO2 
 PCOD8232052
Probable space group: P B C M
;
_chemical_formula_sum "Si O2"
_cell_formula_units_Z 64
_cell_length_a 19.113049
_cell_length_b 10.229567
_cell_length_c 16.327433
_cell_angle_alpha 90.000000
_cell_angle_beta 90.000000
_cell_angle_gamma 90.000000
_cell_volume 3192.310561
_symmetry_space_group_name_H-M "P B C M"
_symmetry_group_IT_number 57
_symmetry_cell_setting 'orthorhombic'
loop_
_space_group_symop_operation_xyz
x,y,z
-x,-y,1/2+z
x,1/2-y,-z
-x,1/2+y,1/2-z
-x,-y,-z
x,y,1/2-z
-x,1/2+y,z
x,1/2-y,1/2+z
loop_
_atom_site_type_symbol
_atom_site_label
_atom_site_fract_x
_atom_site_fract_y
_atom_site_fract_z
Si Si1 0.785629 0.598679 0.652834
Si Si2 0.228747 0.866333 0.346470
Si Si3 0.491432 0.125851 0.944691
Si Si4 0.845804 0.872435 0.653216
Si Si5 0.366818 0.022004 0.846569
Si Si6 0.621413 0.220526 0.846608
Si Si7 0.124289 0.854562 0.847389
Si Si8 0.015357 0.125473 0.054504
O O1 0.781772 0.598558 0.750000
O O2 0.812152 0.738226 0.619716
O O3 0.708815 0.564904 0.618081
O O4 0.840624 0.489823 0.623196
O O5 0.231401 0.844901 0.250000
O O6 0.305636 0.836383 0.381473
O O7 0.172190 0.763630 0.381119
O O8 0.207959 0.012963 0.370815
O O9 0.425178 0.114117 0.885317
O O10 0.560488 0.141314 0.890397
O O11 0.477186 0.250000 0.000000
O O12 0.500000 0.000000 0.000000
O O13 0.858561 0.866270 0.750000
O O14 0.919201 0.904771 0.612079
O O15 0.368933 0.042021 0.750000
O O16 0.382511 0.872527 0.870275
O O17 0.614024 0.198875 0.750000
O O18 0.115052 0.849477 0.750000
O O19 0.049257 0.839730 0.887716
O O20 0.033501 0.250000 0.000000
O O21 0.000000 0.000000 0.000000
#
# Coordination Sequence:
#
# PCOD8232052 Si02
#       8
#     8   8   8   8   8   8   8   8
#     4   9  18  35  64  92 114 147 197 253 301 349
#     4   9  18  35  64  93 113 142 199 257 293 341
#     4  12  25  42  59  89 130 167 200 242 300 362
#     4  10  21  39  60  87 120 153 194 248 301 352
#     4  10  20  40  67  93 120 158 205 253 303 360
#     4  10  20  40  67  93 120 157 204 256 302 355
#     4  10  19  37  64  87 108 152 203 240 291 358
#     4  12  25  40  55  83 123 160 195 241 296 350
#
# _framework density 20.048175000000001
#
# number of rings (size 3 to 8) (size 9 to 14) (size 15 to 20)
#    0.000    1.750    2.500    2.250    0.000    1.000 
#    0.000   13.750    0.000    0.000    0.000    0.000 
#    0.000    0.000    0.000    0.000    0.000    0.000 
#
# Total GULP energy -793819.441737 kJ/mol
# GULP energy per Si atom -12403.428777 kJ/mol
# Density = 2.000254 g / cm^3
# Si number density = 20.048175 Si / 1000 Ang^3
#
#
#
# Elastic Constant Matrix: (Units=GPa)
#
#
# Indices 1 2 3 4 5 6 
#
# 1 143.2222 35.9031 46.1563 0.0000 0.0000 0.0000
# 2 35.9031 131.2183 40.2120 0.0000 0.0000 0.0000
# 3 46.1563 40.2120 40.5224 0.0000 0.0000 0.0000
# 4 0.0000 0.0000 0.0000 26.2668 0.0000 0.0000
# 5 0.0000 0.0000 0.0000 0.0000 -0.5842 0.0000
# 6 0.0000 0.0000 0.0000 0.0000 0.0000 38.6300
#
#
#
# Elastic Compliance Matrix: (Units=1/GPa)
#
#
# Indices 1 2 3 4 5 6 
#
# 1 0.011164 0.001210 -0.013917 0.000000 0.000000 0.000000
# 2 0.001210 0.011082 -0.012376 0.000000 0.000000 0.000000
# 3 -0.013917 -0.012376 0.052811 0.000000 0.000000 0.000000
# 4 0.000000 0.000000 0.000000 0.038071 0.000000 0.000000
# 5 0.000000 0.000000 0.000000 0.000000 -1.711817 0.000000
# 6 0.000000 0.000000 0.000000 0.000000 0.000000 0.025887
#
#
# Mechanical properties :
#
#
# Convention : Reuss Voigt Hill
#
# Bulk Modulus (GPa) = 40.17420 62.16728 51.17074
# Shear Modulus (GPa) = -3.30177 25.70863 11.20343
#
# Velocity S-wave (km/s) = -1.28472 3.58487 2.36651
# Velocity P-wave (km/s) = 4.22867 6.94343 5.74861
#
# Compressibility (1/GPa) = 0.02489160
#
# Stress axis : x y z
#
# Youngs Moduli (GPa) = 89.57543 90.23322 18.93551
#
# Poissons Ratio (x) = -0.10921 0.26352
# Poissons Ratio (y) = -0.10841 0.23435
# Poissons Ratio (z) = 1.24661 1.11673
#
# Static dielectric constant tensor:
#      x y z
#    x 3.851960 0.000000 0.000000 
#    y 0.000000 3.766710 0.000000 
#    z 0.000000 0.000000 3.400700 
# 
# 
# High freq. dielectric constant tensor:
#      x y z
#    x 1.796360 0.000000 0.000000 
#    y 0.000000 1.792880 0.000000 
#    z 0.000000 0.000000 1.764260 
# 
# From -- ./inp_files/23059.got.cif
#   From: 2010.03.12/outbox.cif.g09.slc.cpg/sg57_12_cif.got.tgz:23059.got - 2010.04.16 15:48:40.
