data_PCOD8232175
_publ_section_title
;
Structure prediction by ZEFSAII (Michael W. Deem and Ramdas Pophale) SiO2 
 PCOD8232175
Probable space group: P B C M
;
_chemical_formula_sum "Si O2"
_cell_formula_units_Z 48
_cell_length_a 15.203509
_cell_length_b 21.331076
_cell_length_c 9.345520
_cell_angle_alpha 90.000000
_cell_angle_beta 90.000000
_cell_angle_gamma 90.000000
_cell_volume 3030.819479
_symmetry_space_group_name_H-M "P B C M"
_symmetry_group_IT_number 57
_symmetry_cell_setting 'orthorhombic'
loop_
_space_group_symop_operation_xyz
x,y,z
-x,-y,1/2+z
x,1/2-y,-z
-x,1/2+y,1/2-z
-x,-y,-z
x,y,1/2-z
-x,1/2+y,z
x,1/2-y,1/2+z
loop_
_atom_site_type_symbol
_atom_site_label
_atom_site_fract_x
_atom_site_fract_y
_atom_site_fract_z
Si Si1 0.610599 0.947724 0.085246
Si Si2 0.799624 0.533446 0.584509
Si Si3 0.141472 0.601931 0.418332
Si Si4 0.986773 0.564569 0.917717
Si Si5 0.451307 0.911614 0.914276
Si Si6 0.304922 0.685830 0.417743
O O1 0.602468 0.928040 0.250000
O O2 0.709513 0.936983 0.021318
O O3 0.590340 0.020592 0.060891
O O4 0.542403 0.904225 0.000049
O O5 0.778812 0.521626 0.750000
O O6 0.820173 0.464151 0.522633
O O7 0.882556 0.580724 0.562785
O O8 0.119543 0.598506 0.250000
O O9 0.209964 0.656540 0.454378
O O10 0.050712 0.615539 0.506564
O O11 0.009772 0.557853 0.750000
O O12 0.000000 0.500000 0.000000
O O13 0.473902 0.899883 0.750000
O O14 0.381382 0.860871 0.970479
O O15 0.316352 0.750000 0.500000
O O16 0.312891 0.698340 0.250000
#
# Coordination Sequence:
#
# PCOD8232175 Si02
#       6
#     8   8   8   8   8   8
#     4   9  15  26  45  64  86 117 148 176 216 272
#     4   8  13  24  42  62  86 117 144 167 211 268
#     4   9  16  29  44  59  86 120 148 179 220 263
#     4   9  16  25  40  62  88 117 146 175 210 257
#     4   9  17  29  43  62  88 117 146 182 227 266
#     4  10  20  33  48  64  88 122 155 188 227 269
#
# _framework density 15.837301
#
# number of rings (size 3 to 8) (size 9 to 14) (size 15 to 20)
#    0.000    3.000    1.667    1.500    0.000    1.333 
#    0.000    4.167    0.000    0.000    0.000    1.167 
#    0.000    0.000    0.000    0.000    0.000    0.000 
#
# Total GULP energy -594756.851528 kJ/mol
# GULP energy per Si atom -12390.767740 kJ/mol
# Density = 1.580125 g / cm^3
# Si number density = 15.837301 Si / 1000 Ang^3
#
#
#
# Elastic Constant Matrix: (Units=GPa)
#
#
# Indices 1 2 3 4 5 6 
#
# 1 149.8971 36.6819 58.5024 0.0000 0.0000 0.0000
# 2 36.6819 51.0497 27.3131 0.0000 0.0000 0.0000
# 3 58.5024 27.3131 58.2532 0.0000 0.0000 0.0000
# 4 0.0000 0.0000 0.0000 20.5570 0.0000 0.0000
# 5 0.0000 0.0000 0.0000 0.0000 28.9299 0.0000
# 6 0.0000 0.0000 0.0000 0.0000 0.0000 16.7616
#
#
#
# Elastic Compliance Matrix: (Units=1/GPa)
#
#
# Indices 1 2 3 4 5 6 
#
# 1 0.011248 -0.002721 -0.010020 0.000000 0.000000 0.000000
# 2 -0.002721 0.026807 -0.009836 0.000000 0.000000 0.000000
# 3 -0.010020 -0.009836 0.031841 0.000000 0.000000 0.000000
# 4 0.000000 0.000000 0.000000 0.048645 0.000000 0.000000
# 5 0.000000 0.000000 0.000000 0.000000 0.034566 0.000000
# 6 0.000000 0.000000 0.000000 0.000000 0.000000 0.059660
#
#
# Mechanical properties :
#
#
# Convention : Reuss Voigt Hill
#
# Bulk Modulus (GPa) = 40.41851 56.02166 48.22009
# Shear Modulus (GPa) = 18.78508 22.36322 20.57415
#
# Velocity S-wave (km/s) = 3.44776 3.76182 3.60821
# Velocity P-wave (km/s) = 6.43629 7.37010 6.91897
#
# Compressibility (1/GPa) = 0.02474114
#
# Stress axis : x y z
#
# Youngs Moduli (GPa) = 88.90624 37.30428 31.40585
#
# Poissons Ratio (x) = 0.10151 0.31469
# Poissons Ratio (y) = 0.24192 0.30891
# Poissons Ratio (z) = 0.89085 0.36693
#
# Static dielectric constant tensor:
#      x y z
#    x 3.606680 0.000000 0.000000 
#    y 0.000000 2.564730 0.000000 
#    z 0.000000 0.000000 2.990990 
# 
# 
# High freq. dielectric constant tensor:
#      x y z
#    x 1.628890 0.000000 0.000000 
#    y 0.000000 1.546290 0.000000 
#    z 0.000000 0.000000 1.595800 
# 
# From -- ./inp_files/4828.got.cif
#   From: 2010.03.12/outbox.cif.g09.slc.cpg/sg57_3_cif.got.tgz:4828.got - 2010.04.16 15:48:40.
