data_PCOD8232116
_publ_section_title
;
Structure prediction by ZEFSAII (Michael W. Deem and Ramdas Pophale) SiO2 
 PCOD8232116
Probable space group: P B C M
;
_chemical_formula_sum "Si O2"
_cell_formula_units_Z 64
_cell_length_a 21.435496
_cell_length_b 21.523718
_cell_length_c 9.028613
_cell_angle_alpha 90.000000
_cell_angle_beta 90.000000
_cell_angle_gamma 90.000000
_cell_volume 4165.545365
_symmetry_space_group_name_H-M "P B C M"
_symmetry_group_IT_number 57
_symmetry_cell_setting 'orthorhombic'
loop_
_space_group_symop_operation_xyz
x,y,z
-x,-y,1/2+z
x,1/2-y,-z
-x,1/2+y,1/2-z
-x,-y,-z
x,y,1/2-z
-x,1/2+y,z
x,1/2-y,1/2+z
loop_
_atom_site_type_symbol
_atom_site_label
_atom_site_fract_x
_atom_site_fract_y
_atom_site_fract_z
Si Si1 0.989423 0.404186 0.082584
Si Si2 0.819258 0.917681 0.577399
Si Si3 0.689842 0.583080 0.576241
Si Si4 0.410557 0.313817 0.082165
Si Si5 0.502560 0.917003 0.080382
Si Si6 0.094957 0.508145 0.417193
Si Si7 0.399574 0.498207 0.580798
Si Si8 0.922692 0.814926 0.576853
O O1 0.972226 0.384569 0.250000
O O2 0.040266 0.458090 0.083504
O O3 0.927687 0.429485 0.000324
O O4 0.015297 0.344527 0.995022
O O5 0.811585 0.931236 0.750000
O O6 0.753548 0.901172 0.505684
O O7 0.863919 0.859282 0.547725
O O8 0.845834 0.980104 0.502550
O O9 0.702087 0.578817 0.750000
O O10 0.641888 0.637173 0.529966
O O11 0.660449 0.517199 0.520744
O O12 0.398219 0.296645 0.250000
O O13 0.479467 0.344360 0.057618
O O14 0.403981 0.250000 0.000000
O O15 0.522458 0.935628 0.250000
O O16 0.428295 0.931636 0.058361
O O17 0.542214 0.954646 0.960297
O O18 0.114498 0.525440 0.250000
O O19 0.379567 0.486940 0.750000
O O20 0.907171 0.750000 0.500000
O O21 0.935038 0.804985 0.750000
#
# Coordination Sequence:
#
# PCOD8232116 Si02
#       8
#     8   8   8   8   8   8   8   8
#     4   9  16  27  44  64  85 109 139 176 217 259
#     4  10  20  32  45  62  84 113 150 184 214 253
#     4  10  20  32  43  58  84 114 144 179 216 251
#     4   9  18  30  42  58  82 112 144 176 209 246
#     4   8  15  27  41  59  82 105 131 169 215 255
#     4   9  16  27  44  64  85 109 137 173 219 261
#     4   9  15  25  43  62  79 102 134 171 212 256
#     4  10  20  32  45  62  86 116 150 185 218 255
#
# _framework density 15.364134
#
# number of rings (size 3 to 8) (size 9 to 14) (size 15 to 20)
#    0.000    2.750    0.000    3.000    0.000    8.000 
#    0.000    2.500    0.000    0.000    0.000    0.000 
#    0.000    1.000    0.000    8.500    0.000    5.500 
#
# Total GULP energy -793143.147329 kJ/mol
# GULP energy per Si atom -12392.861677 kJ/mol
# Density = 1.532916 g / cm^3
# Si number density = 15.364134 Si / 1000 Ang^3
#
#
#
# Elastic Constant Matrix: (Units=GPa)
#
#
# Indices 1 2 3 4 5 6 
#
# 1 57.7285 57.8333 47.3100 0.0000 0.0000 0.0000
# 2 57.8333 59.6492 49.0852 0.0000 0.0000 0.0000
# 3 47.3100 49.0852 107.7817 0.0000 0.0000 0.0000
# 4 0.0000 0.0000 0.0000 25.2671 0.0000 0.0000
# 5 0.0000 0.0000 0.0000 0.0000 25.7328 0.0000
# 6 0.0000 0.0000 0.0000 0.0000 0.0000 7.4785
#
#
#
# Elastic Compliance Matrix: (Units=1/GPa)
#
#
# Indices 1 2 3 4 5 6 
#
# 1 0.604387 -0.588061 0.002519 0.000000 0.000000 0.000000
# 2 -0.588061 0.598990 -0.014662 0.000000 0.000000 0.000000
# 3 0.002519 -0.014662 0.014850 0.000000 0.000000 0.000000
# 4 0.000000 0.000000 0.000000 0.039577 0.000000 0.000000
# 5 0.000000 0.000000 0.000000 0.000000 0.038861 0.000000
# 6 0.000000 0.000000 0.000000 0.000000 0.000000 0.133716
#
#
# Mechanical properties :
#
#
# Convention : Reuss Voigt Hill
#
# Bulk Modulus (GPa) = 56.12392 59.29072 57.70732
# Shear Modulus (GPa) = 1.89629 16.42441 9.16035
#
# Velocity S-wave (km/s) = 1.11216 3.27312 2.44440
# Velocity P-wave (km/s) = 6.18528 7.27726 6.75338
#
# Compressibility (1/GPa) = 0.01781771
#
# Stress axis : x y z
#
# Youngs Moduli (GPa) = 1.65457 1.66948 67.34202
#
# Poissons Ratio (x) = 0.98176 -0.16964
# Poissons Ratio (y) = 0.97299 0.98737
# Poissons Ratio (z) = -0.00417 0.02448
#
# Static dielectric constant tensor:
#      x y z
#    x 2.871600 0.000000 0.000000 
#    y 0.000000 2.865750 0.000000 
#    z 0.000000 0.000000 3.145030 
# 
# 
# High freq. dielectric constant tensor:
#      x y z
#    x 1.561810 0.000000 0.000000 
#    y 0.000000 1.557800 0.000000 
#    z 0.000000 0.000000 1.608940 
# 
# From -- ./inp_files/8724.got.cif
#   From: 2010.03.12/outbox.cif.g09.slc.cpg/sg57_5_cif.got.tgz:8724.got - 2010.04.16 15:48:40.
