data_PCOD8232301
_publ_section_title
;
Structure prediction by ZEFSAII (Michael W. Deem and Ramdas Pophale) SiO2 
 PCOD8232301
Probable space group: P B C M
;
_chemical_formula_sum "Si O2"
_cell_formula_units_Z 64
_cell_length_a 14.879572
_cell_length_b 23.858755
_cell_length_c 8.853113
_cell_angle_alpha 90.000000
_cell_angle_beta 90.000000
_cell_angle_gamma 90.000000
_cell_volume 3142.926496
_symmetry_space_group_name_H-M "P B C M"
_symmetry_group_IT_number 57
_symmetry_cell_setting 'orthorhombic'
loop_
_space_group_symop_operation_xyz
x,y,z
-x,-y,1/2+z
x,1/2-y,-z
-x,1/2+y,1/2-z
-x,-y,-z
x,y,1/2-z
-x,1/2+y,z
x,1/2-y,1/2+z
loop_
_atom_site_type_symbol
_atom_site_label
_atom_site_fract_x
_atom_site_fract_y
_atom_site_fract_z
Si Si1 0.360540 0.107611 0.072993
Si Si2 0.280437 0.003712 0.570429
Si Si3 0.014107 0.195302 0.423856
Si Si4 0.680674 0.115861 0.572379
Si Si5 0.213611 0.193824 0.072870
Si Si6 0.096108 0.997973 0.417228
Si Si7 0.475163 0.688211 0.070546
Si Si8 0.876795 0.369455 0.088452
O O1 0.363696 0.093139 0.250000
O O2 0.271484 0.140966 0.025289
O O3 0.443717 0.146629 0.025578
O O4 0.354880 0.049749 0.979779
O O5 0.275571 0.999494 0.750000
O O6 0.317254 0.944879 0.506630
O O7 0.180922 0.023090 0.510385
O O8 0.971502 0.250000 0.500000
O O9 0.021295 0.206359 0.250000
O O10 0.947142 0.144736 0.457823
O O11 0.112944 0.182387 0.489535
O O12 0.659381 0.108003 0.750000
O O13 0.612160 0.158151 0.494641
O O14 0.775537 0.147828 0.546752
O O15 0.216137 0.203258 0.250000
O O16 0.253985 0.250000 0.000000
O O17 0.088851 0.027187 0.250000
O O18 0.124353 0.935086 0.391395
O O19 0.000000 0.000000 0.500000
O O20 0.467629 0.695256 0.250000
O O21 0.489129 0.750000 0.000000
O O22 0.905181 0.342024 0.250000
#
# Coordination Sequence:
#
# PCOD8232301 Si02
#       8
#     8   8   8   8   8   8   8   8
#     4  10  22  40  61  88 124 161 200 250 306 368
#     4  11  23  39  61  92 124 162 209 252 308 371
#     4  10  20  33  52  79 110 150 194 239 290 350
#     4  10  22  43  66  87 120 161 201 255 314 368
#     4   9  19  35  54  79 112 153 195 241 298 357
#     4  10  21  37  57  84 120 160 203 250 298 351
#     4  11  24  42  67  96 124 158 203 255 312 375
#     4   9  20  37  56  80 111 148 190 241 294 346
#
# _framework density 20.363188000000001
#
# number of rings (size 3 to 8) (size 9 to 14) (size 15 to 20)
#    0.000    2.000    0.000    3.750    1.750    6.000 
#    0.000    0.000    0.000    0.000    0.000    0.000 
#    0.000    0.000    0.000    0.000    0.000    0.000 
#
# Total GULP energy -793260.631327 kJ/mol
# GULP energy per Si atom -12394.697364 kJ/mol
# Density = 2.031684 g / cm^3
# Si number density = 20.363188 Si / 1000 Ang^3
#
#
#
# Elastic Constant Matrix: (Units=GPa)
#
#
# Indices 1 2 3 4 5 6 
#
# 1 102.1093 33.5378 43.3960 0.0000 0.0000 0.0000
# 2 33.5378 62.9945 29.4810 0.0000 0.0000 0.0000
# 3 43.3960 29.4810 99.6012 0.0000 0.0000 0.0000
# 4 0.0000 0.0000 0.0000 35.0865 0.0000 0.0000
# 5 0.0000 0.0000 0.0000 0.0000 31.7336 0.0000
# 6 0.0000 0.0000 0.0000 0.0000 0.0000 40.9056
#
#
#
# Elastic Compliance Matrix: (Units=1/GPa)
#
#
# Indices 1 2 3 4 5 6 
#
# 1 0.013278 -0.005063 -0.004287 0.000000 0.000000 0.000000
# 2 -0.005063 0.020358 -0.003820 0.000000 0.000000 0.000000
# 3 -0.004287 -0.003820 0.013038 0.000000 0.000000 0.000000
# 4 0.000000 0.000000 0.000000 0.028501 0.000000 0.000000
# 5 0.000000 0.000000 0.000000 0.000000 0.031512 0.000000
# 6 0.000000 0.000000 0.000000 0.000000 0.000000 0.024447
#
#
# Mechanical properties :
#
#
# Convention : Reuss Voigt Hill
#
# Bulk Modulus (GPa) = 49.17574 53.05941 51.11758
# Shear Modulus (GPa) = 30.44119 32.09782 31.26950
#
# Velocity S-wave (km/s) = 3.87060 3.97453 3.92291
# Velocity P-wave (km/s) = 6.64659 6.86845 6.75843
#
# Compressibility (1/GPa) = 0.02033523
#
# Stress axis : x y z
#
# Youngs Moduli (GPa) = 75.31137 49.12183 76.69712
#
# Poissons Ratio (x) = 0.24871 0.32877
# Poissons Ratio (y) = 0.38131 0.29296
# Poissons Ratio (z) = 0.32283 0.18763
#
# Static dielectric constant tensor:
#      x y z
#    x 3.962790 0.000000 0.000000 
#    y 0.000000 3.594300 0.000000 
#    z 0.000000 0.000000 3.553660 
# 
# 
# High freq. dielectric constant tensor:
#      x y z
#    x 1.799600 0.000000 0.000000 
#    y 0.000000 1.790800 0.000000 
#    z 0.000000 0.000000 1.799420 
# 
# From -- ./inp_files/5543.got.cif
#   From: 2010.03.12/outbox.cif.g09.slc.cpg/sg57_3_cif.got.tgz:5543.got - 2010.04.16 15:48:40.
