data_PCOD8232350
_publ_section_title
;
Structure prediction by ZEFSAII (Michael W. Deem and Ramdas Pophale) SiO2 
 PCOD8232350
Probable space group: P B C M
;
_chemical_formula_sum "Si O2"
_cell_formula_units_Z 64
_cell_length_a 7.965633
_cell_length_b 30.789139
_cell_length_c 13.552376
_cell_angle_alpha 90.000000
_cell_angle_beta 90.000000
_cell_angle_gamma 90.000000
_cell_volume 3323.787727
_symmetry_space_group_name_H-M "P B C M"
_symmetry_group_IT_number 57
_symmetry_cell_setting 'orthorhombic'
loop_
_space_group_symop_operation_xyz
x,y,z
-x,-y,1/2+z
x,1/2-y,-z
-x,1/2+y,1/2-z
-x,-y,-z
x,y,1/2-z
-x,1/2+y,z
x,1/2-y,1/2+z
loop_
_atom_site_type_symbol
_atom_site_label
_atom_site_fract_x
_atom_site_fract_y
_atom_site_fract_z
Si Si1 0.232207 0.841328 0.865289
Si Si2 0.403999 0.405978 0.036403
Si Si3 0.623898 0.653654 0.134723
Si Si4 0.138755 0.358823 0.358331
Si Si5 0.259380 0.926585 0.528904
Si Si6 0.072477 0.298792 0.534703
Si Si7 0.704857 0.990704 0.360367
Si Si8 0.955222 0.049805 0.644277
O O1 0.200704 0.844232 0.750000
O O2 0.430255 0.830464 0.886240
O O3 0.171422 0.887868 0.910381
O O4 0.104239 0.805082 0.907607
O O5 0.330622 0.371450 0.114480
O O6 0.357657 0.455509 0.060622
O O7 0.342935 0.391081 0.926224
O O8 0.603917 0.402757 0.039753
O O9 0.649432 0.643849 0.250000
O O10 0.762607 0.688895 0.099628
O O11 0.136939 0.337337 0.250000
O O12 0.057773 0.326102 0.434675
O O13 0.036971 0.403050 0.361280
O O14 0.150867 0.955651 0.454419
O O15 0.343879 0.960829 0.604712
O O16 0.093485 0.250000 0.500000
O O17 0.630100 0.982578 0.250000
O O18 0.906336 0.987925 0.356221
O O19 0.856352 0.046126 0.750000
#
# Coordination Sequence:
#
# PCOD8232350 Si02
#       8
#     8   8   8   8   8   8   8   8
#     4  10  21  38  60  87 119 154 191 236 286 343
#     4   9  19  33  54  78 104 145 190 237 282 334
#     4   9  20  39  60  85 119 153 191 236 287 345
#     4   9  18  36  55  74 106 147 181 225 285 341
#     4  11  19  33  54  80 109 147 193 235 286 334
#     4  11  22  37  62  89 115 148 189 233 289 350
#     4  10  20  34  50  74 109 151 192 234 285 335
#     4   9  18  32  50  71 105 144 182 230 277 326
#
# _framework density 19.255141999999999
#
# number of rings (size 3 to 8) (size 9 to 14) (size 15 to 20)
#    0.000    2.250    1.250    2.625    0.000    3.000 
#    0.000    0.625    0.000    0.000    0.000    0.000 
#    0.000    0.000    0.000    0.000    0.000    0.000 
#
# Total GULP energy -792880.862162 kJ/mol
# GULP energy per Si atom -12388.763471 kJ/mol
# Density = 1.921132 g / cm^3
# Si number density = 19.255142 Si / 1000 Ang^3
#
#
#
# Elastic Constant Matrix: (Units=GPa)
#
#
# Indices 1 2 3 4 5 6 
#
# 1 74.2731 21.3764 43.3652 0.0000 0.0000 0.0000
# 2 21.3764 66.1042 27.3965 0.0000 0.0000 0.0000
# 3 43.3652 27.3965 124.3066 0.0000 0.0000 0.0000
# 4 0.0000 0.0000 0.0000 20.7369 0.0000 0.0000
# 5 0.0000 0.0000 0.0000 0.0000 23.4229 0.0000
# 6 0.0000 0.0000 0.0000 0.0000 0.0000 15.9054
#
#
#
# Elastic Compliance Matrix: (Units=1/GPa)
#
#
# Indices 1 2 3 4 5 6 
#
# 1 0.017600 -0.003463 -0.005377 0.000000 0.000000 0.000000
# 2 -0.003463 0.017330 -0.002611 0.000000 0.000000 0.000000
# 3 -0.005377 -0.002611 0.010496 0.000000 0.000000 0.000000
# 4 0.000000 0.000000 0.000000 0.048223 0.000000 0.000000
# 5 0.000000 0.000000 0.000000 0.000000 0.042693 0.000000
# 6 0.000000 0.000000 0.000000 0.000000 0.000000 0.062872
#
#
# Mechanical properties :
#
#
# Convention : Reuss Voigt Hill
#
# Bulk Modulus (GPa) = 44.39807 49.88446 47.14126
# Shear Modulus (GPa) = 21.77486 23.51611 22.64548
#
# Velocity S-wave (km/s) = 3.36647 3.49849 3.43311
# Velocity P-wave (km/s) = 6.18213 6.50250 6.34434
#
# Compressibility (1/GPa) = 0.02252350
#
# Stress axis : x y z
#
# Youngs Moduli (GPa) = 56.81930 57.70439 95.27639
#
# Poissons Ratio (x) = 0.19983 0.51226
# Poissons Ratio (y) = 0.19677 0.24879
# Poissons Ratio (z) = 0.30549 0.15068
#
# Static dielectric constant tensor:
#      x y z
#    x 3.609460 0.000000 0.000000 
#    y 0.000000 3.291020 0.000000 
#    z 0.000000 0.000000 3.806610 
# 
# 
# High freq. dielectric constant tensor:
#      x y z
#    x 1.736950 0.000000 0.000000 
#    y 0.000000 1.720610 0.000000 
#    z 0.000000 0.000000 1.766080 
# 
# From -- ./inp_files/12324.got.cif
#   From: 2010.03.12/outbox.cif.g09.slc.cpg/sg57_7_cif.got.tgz:12324.got - 2010.04.16 15:48:40.
