data_PCOD8232449
_publ_section_title
;
Structure prediction by ZEFSAII (Michael W. Deem and Ramdas Pophale) SiO2 
 PCOD8232449
Probable space group: P B C M
;
_chemical_formula_sum "Si O2"
_cell_formula_units_Z 48
_cell_length_a 14.930629
_cell_length_b 20.028014
_cell_length_c 8.876803
_cell_angle_alpha 90.000000
_cell_angle_beta 90.000000
_cell_angle_gamma 90.000000
_cell_volume 2654.437917
_symmetry_space_group_name_H-M "P B C M"
_symmetry_group_IT_number 57
_symmetry_cell_setting 'orthorhombic'
loop_
_space_group_symop_operation_xyz
x,y,z
-x,-y,1/2+z
x,1/2-y,-z
-x,1/2+y,1/2-z
-x,-y,-z
x,y,1/2-z
-x,1/2+y,z
x,1/2-y,1/2+z
loop_
_atom_site_type_symbol
_atom_site_label
_atom_site_fract_x
_atom_site_fract_y
_atom_site_fract_z
Si Si1 0.389807 0.318699 0.576299
Si Si2 0.910138 0.922286 0.583088
Si Si3 0.399052 0.681519 0.076780
Si Si4 0.721357 0.072221 0.570774
Si Si5 0.082087 0.919096 0.083395
Si Si6 0.270856 0.428942 0.428358
O O1 0.358492 0.250000 0.500000
O O2 0.359177 0.318945 0.750000
O O3 0.495509 0.328114 0.561389
O O4 0.345713 0.378713 0.486076
O O5 0.893062 0.893526 0.750000
O O6 0.826922 0.902309 0.477949
O O7 0.002938 0.890496 0.521501
O O8 0.920576 0.001262 0.588171
O O9 0.368183 0.682053 0.250000
O O10 0.367347 0.750000 0.000000
O O11 0.354482 0.620766 0.989086
O O12 0.715319 0.064059 0.750000
O O13 0.819225 0.101705 0.524105
O O14 0.705921 0.000323 0.498151
O O15 0.065678 0.890087 0.250000
O O16 0.273984 0.434238 0.250000
#
# Coordination Sequence:
#
# PCOD8232449 Si02
#       6
#     8   8   8   8   8   8
#     4  10  21  38  57  77 102 134 173 213 256 309
#     4   9  16  27  45  70 101 135 169 208 253 301
#     4  10  21  37  57  78 102 135 173 212 256 310
#     4  10  20  34  53  78 108 138 172 216 259 301
#     4   8  15  27  44  69 100 134 169 206 251 300
#     4  11  21  33  52  78 107 138 173 214 259 305
#
# _framework density 18.082924999999999
#
# number of rings (size 3 to 8) (size 9 to 14) (size 15 to 20)
#    0.000    2.333    0.000    4.500    0.000    7.333 
#    0.000    0.000    0.000    1.000    0.000    2.333 
#    0.000    0.000    0.000    0.000    0.000    0.000 
#
# Total GULP energy -595153.998705 kJ/mol
# GULP energy per Si atom -12399.041640 kJ/mol
# Density = 1.804177 g / cm^3
# Si number density = 18.082925 Si / 1000 Ang^3
#
#
#
# Elastic Constant Matrix: (Units=GPa)
#
#
# Indices 1 2 3 4 5 6 
#
# 1 63.1125 45.2711 50.6736 0.0000 0.0000 0.0000
# 2 45.2711 78.2966 56.2238 0.0000 0.0000 0.0000
# 3 50.6736 56.2238 146.0752 0.0000 0.0000 0.0000
# 4 0.0000 0.0000 0.0000 27.7539 0.0000 0.0000
# 5 0.0000 0.0000 0.0000 0.0000 28.0691 0.0000
# 6 0.0000 0.0000 0.0000 0.0000 0.0000 3.7026
#
#
#
# Elastic Compliance Matrix: (Units=1/GPa)
#
#
# Indices 1 2 3 4 5 6 
#
# 1 0.029573 -0.013450 -0.005082 0.000000 0.000000 0.000000
# 2 -0.013450 0.023767 -0.004482 0.000000 0.000000 0.000000
# 3 -0.005082 -0.004482 0.010334 0.000000 0.000000 0.000000
# 4 0.000000 0.000000 0.000000 0.036031 0.000000 0.000000
# 5 0.000000 0.000000 0.000000 0.000000 0.035626 0.000000
# 6 0.000000 0.000000 0.000000 0.000000 0.000000 0.270079
#
#
# Mechanical properties :
#
#
# Convention : Reuss Voigt Hill
#
# Bulk Modulus (GPa) = 56.67002 65.75792 61.21397
# Shear Modulus (GPa) = 10.93326 20.92616 15.92971
#
# Velocity S-wave (km/s) = 2.46157 3.40550 2.97126
# Velocity P-wave (km/s) = 6.28379 7.20464 6.75992
#
# Compressibility (1/GPa) = 0.01764601
#
# Stress axis : x y z
#
# Youngs Moduli (GPa) = 33.81507 42.07504 96.76837
#
# Poissons Ratio (x) = 0.56589 0.49179
# Poissons Ratio (y) = 0.45480 0.43374
# Poissons Ratio (z) = 0.17185 0.18859
#
# Static dielectric constant tensor:
#      x y z
#    x 3.544370 0.000000 0.000000 
#    y 0.000000 2.884600 0.000000 
#    z 0.000000 0.000000 3.621270 
# 
# 
# High freq. dielectric constant tensor:
#      x y z
#    x 1.708530 0.000000 0.000000 
#    y 0.000000 1.658740 0.000000 
#    z 0.000000 0.000000 1.717980 
# 
# From -- ./inp_files/4600.got.cif
#   From: 2010.03.12/outbox.cif.g09.slc.cpg/sg57_3_cif.got.tgz:4600.got - 2010.04.16 15:48:40.
