data_PCOD8232585
_publ_section_title
;
Structure prediction by ZEFSAII (Michael W. Deem and Ramdas Pophale) SiO2 
 PCOD8232585
Probable space group: P B C M
;
_chemical_formula_sum "Si O2"
_cell_formula_units_Z 64
_cell_length_a 23.855704
_cell_length_b 14.575857
_cell_length_c 8.999574
_cell_angle_alpha 90.000000
_cell_angle_beta 90.000000
_cell_angle_gamma 90.000000
_cell_volume 3129.307844
_symmetry_space_group_name_H-M "P B C M"
_symmetry_group_IT_number 57
_symmetry_cell_setting 'orthorhombic'
loop_
_space_group_symop_operation_xyz
x,y,z
-x,-y,1/2+z
x,1/2-y,-z
-x,1/2+y,1/2-z
-x,-y,-z
x,y,1/2-z
-x,1/2+y,z
x,1/2-y,1/2+z
loop_
_atom_site_type_symbol
_atom_site_label
_atom_site_fract_x
_atom_site_fract_y
_atom_site_fract_z
Si Si1 0.894671 0.164250 0.585957
Si Si2 0.368257 0.462004 0.926663
Si Si3 0.764520 0.163033 0.584827
Si Si4 0.746154 0.972243 0.426957
Si Si5 0.850103 0.652336 0.576744
Si Si6 0.940153 0.505460 0.575789
Si Si7 0.526793 0.585999 0.578708
Si Si8 0.588789 0.161149 0.581517
O O1 0.923108 0.250000 0.500000
O O2 0.922733 0.153885 0.750000
O O3 0.829614 0.183145 0.606297
O O4 0.901537 0.074122 0.488428
O O5 0.366394 0.451538 0.750000
O O6 0.383585 0.566319 0.977998
O O7 0.309778 0.431120 0.998999
O O8 0.415304 0.391934 0.992113
O O9 0.736971 0.250000 0.500000
O O10 0.737346 0.150933 0.750000
O O11 0.754650 0.074065 0.486674
O O12 0.740862 0.974964 0.250000
O O13 0.797862 0.908771 0.479435
O O14 0.850333 0.750000 0.500000
O O15 0.843929 0.669558 0.750000
O O16 0.908646 0.600892 0.540128
O O17 0.947147 0.490433 0.750000
O O18 0.000000 0.500000 0.500000
O O19 0.500000 0.500000 0.500000
O O20 0.540322 0.563951 0.750000
O O21 0.479143 0.663984 0.565279
O O22 0.613954 0.250000 0.500000
O O23 0.607108 0.171068 0.750000
#
# Coordination Sequence:
#
# PCOD8232585 Si02
#       8
#     8   8   8   8   8   8   8   8
#     4  10  20  35  58  87 118 155 193 236 291 351
#     4  10  21  36  54  81 112 148 194 242 290 352
#     4  10  20  34  56  85 116 153 195 239 290 354
#     4  11  22  39  61  87 119 158 201 252 307 361
#     4  10  24  44  67  91 120 157 203 252 304 360
#     4  11  23  41  63  92 126 159 199 250 301 362
#     4   9  17  32  52  76 105 142 186 235 285 342
#     4   9  19  33  52  79 112 145 185 231 285 347
#
# _framework density 20.451806000000001
#
# number of rings (size 3 to 8) (size 9 to 14) (size 15 to 20)
#    0.000    2.000    1.250    3.000    0.000    7.000 
#    0.000    3.125    0.000    0.000    0.000    0.000 
#    0.000    0.000    0.000    0.000    0.000    0.000 
#
# Total GULP energy -793354.304653 kJ/mol
# GULP energy per Si atom -12396.161010 kJ/mol
# Density = 2.040526 g / cm^3
# Si number density = 20.451806 Si / 1000 Ang^3
#
#
#
# Elastic Constant Matrix: (Units=GPa)
#
#
# Indices 1 2 3 4 5 6 
#
# 1 112.7694 28.8319 50.1504 0.0000 0.0000 0.0000
# 2 28.8319 90.3569 44.0083 0.0000 0.0000 0.0000
# 3 50.1504 44.0083 119.5097 0.0000 0.0000 0.0000
# 4 0.0000 0.0000 0.0000 34.7173 0.0000 0.0000
# 5 0.0000 0.0000 0.0000 0.0000 30.8011 0.0000
# 6 0.0000 0.0000 0.0000 0.0000 0.0000 8.4262
#
#
#
# Elastic Compliance Matrix: (Units=1/GPa)
#
#
# Indices 1 2 3 4 5 6 
#
# 1 0.011077 -0.001548 -0.004078 0.000000 0.000000 0.000000
# 2 -0.001548 0.013702 -0.004396 0.000000 0.000000 0.000000
# 3 -0.004078 -0.004396 0.011698 0.000000 0.000000 0.000000
# 4 0.000000 0.000000 0.000000 0.028804 0.000000 0.000000
# 5 0.000000 0.000000 0.000000 0.000000 0.032466 0.000000
# 6 0.000000 0.000000 0.000000 0.000000 0.000000 0.118678
#
#
# Mechanical properties :
#
#
# Convention : Reuss Voigt Hill
#
# Bulk Modulus (GPa) = 60.85655 63.17969 62.01812
# Shear Modulus (GPa) = 20.66561 28.09862 24.38211
#
# Velocity S-wave (km/s) = 3.18221 3.71063 3.45653
# Velocity P-wave (km/s) = 6.58199 7.02264 6.80588
#
# Compressibility (1/GPa) = 0.01643208
#
# Stress axis : x y z
#
# Youngs Moduli (GPa) = 90.27591 72.98017 85.48712
#
# Poissons Ratio (x) = 0.11300 0.34863
# Poissons Ratio (y) = 0.13977 0.37580
# Poissons Ratio (z) = 0.36816 0.32082
#
# Static dielectric constant tensor:
#      x y z
#    x 3.987510 0.000000 0.000000 
#    y 0.000000 3.509780 0.000000 
#    z 0.000000 0.000000 3.867170 
# 
# 
# High freq. dielectric constant tensor:
#      x y z
#    x 1.801350 0.000000 0.000000 
#    y 0.000000 1.778210 0.000000 
#    z 0.000000 0.000000 1.810820 
# 
# From -- ./inp_files/9438.got.cif
#   From: 2010.03.12/outbox.cif.g09.slc.cpg/sg57_5_cif.got.tgz:9438.got - 2010.04.16 15:48:40.
