data_PCOD8232389
_publ_section_title
;
Structure prediction by ZEFSAII (Michael W. Deem and Ramdas Pophale) SiO2 
 PCOD8232389
Probable space group: P B C M
;
_chemical_formula_sum "Si O2"
_cell_formula_units_Z 56
_cell_length_a 23.638765
_cell_length_b 14.302914
_cell_length_c 8.979854
_cell_angle_alpha 90.000000
_cell_angle_beta 90.000000
_cell_angle_gamma 90.000000
_cell_volume 3036.117578
_symmetry_space_group_name_H-M "P B C M"
_symmetry_group_IT_number 57
_symmetry_cell_setting 'orthorhombic'
loop_
_space_group_symop_operation_xyz
x,y,z
-x,-y,1/2+z
x,1/2-y,-z
-x,1/2+y,1/2-z
-x,-y,-z
x,y,1/2-z
-x,1/2+y,z
x,1/2-y,1/2+z
loop_
_atom_site_type_symbol
_atom_site_label
_atom_site_fract_x
_atom_site_fract_y
_atom_site_fract_z
Si Si1 0.142133 0.650282 0.925270
Si Si2 0.060248 0.510304 0.425478
Si Si3 0.641599 0.504102 0.425365
Si Si4 0.850916 0.850222 0.424374
Si Si5 0.229042 0.010351 0.422538
Si Si6 0.567535 0.651951 0.922507
Si Si7 0.441922 0.847459 0.077807
O O1 0.130861 0.662810 0.750000
O O2 0.196467 0.585699 0.957511
O O3 0.153438 0.750000 0.000000
O O4 0.088309 0.601394 0.000829
O O5 0.054535 0.527602 0.250000
O O6 0.095462 0.416210 0.460136
O O7 0.000000 0.500000 0.500000
O O8 0.633577 0.516482 0.250000
O O9 0.706671 0.491878 0.470733
O O10 0.617507 0.593877 0.505887
O O11 0.605605 0.416686 0.486014
O O12 0.860380 0.750000 0.500000
O O13 0.843099 0.834019 0.250000
O O14 0.795081 0.901821 0.485705
O O15 0.223694 0.037445 0.250000
O O16 0.580589 0.663937 0.750000
O O17 0.504629 0.609383 0.950151
O O18 0.569432 0.750000 0.000000
O O19 0.431858 0.828883 0.250000
O O20 0.432963 0.750000 0.000000
#
# Coordination Sequence:
#
# PCOD8232389 Si02
#       7
#     8   8   8   8   8   8   8
#     4  10  20  36  57  80 108 144 181 219 264 313
#     4  10  21  37  57  84 115 145 179 220 261 308
#     4  10  20  35  54  77 104 135 172 217 265 313
#     4  10  21  37  58  81 107 141 179 217 261 309
#     4   9  20  37  55  76 105 139 176 218 264 312
#     4  10  20  34  52  75 102 135 172 213 262 317
#     4   9  19  34  52  75 104 135 170 212 261 316
#
# _framework density 18.444607999999999
#
# number of rings (size 3 to 8) (size 9 to 14) (size 15 to 20)
#    0.000    2.286    0.000    2.143    0.000    5.714 
#    0.000    1.429    0.000    0.000    0.000    0.000 
#    0.000    0.000    0.000    0.000    0.000    0.000 
#
# Total GULP energy -694433.305657 kJ/mol
# GULP energy per Si atom -12400.594744 kJ/mol
# Density = 1.840263 g / cm^3
# Si number density = 18.444608 Si / 1000 Ang^3
#
#
#
# Elastic Constant Matrix: (Units=GPa)
#
#
# Indices 1 2 3 4 5 6 
#
# 1 139.8642 48.7686 54.6642 0.0000 0.0000 0.0000
# 2 48.7686 92.4547 47.8630 0.0000 0.0000 0.0000
# 3 54.6642 47.8630 79.3185 0.0000 0.0000 0.0000
# 4 0.0000 0.0000 0.0000 36.9274 0.0000 0.0000
# 5 0.0000 0.0000 0.0000 0.0000 28.2507 0.0000
# 6 0.0000 0.0000 0.0000 0.0000 0.0000 37.5984
#
#
#
# Elastic Compliance Matrix: (Units=1/GPa)
#
#
# Indices 1 2 3 4 5 6 
#
# 1 0.010176 -0.002526 -0.005488 0.000000 0.000000 0.000000
# 2 -0.002526 0.016357 -0.008129 0.000000 0.000000 0.000000
# 3 -0.005488 -0.008129 0.021295 0.000000 0.000000 0.000000
# 4 0.000000 0.000000 0.000000 0.027080 0.000000 0.000000
# 5 0.000000 0.000000 0.000000 0.000000 0.035397 0.000000
# 6 0.000000 0.000000 0.000000 0.000000 0.000000 0.026597
#
#
# Mechanical properties :
#
#
# Convention : Reuss Voigt Hill
#
# Bulk Modulus (GPa) = 64.34925 68.24767 66.29846
# Shear Modulus (GPa) = 28.67453 31.24474 29.95963
#
# Velocity S-wave (km/s) = 3.94716 4.12026 4.03464
# Velocity P-wave (km/s) = 7.46572 7.72769 7.59783
#
# Compressibility (1/GPa) = 0.01554020
#
# Stress axis : x y z
#
# Youngs Moduli (GPa) = 98.27286 61.13529 46.95858
#
# Poissons Ratio (x) = 0.15444 0.25773
# Poissons Ratio (y) = 0.24826 0.38174
# Poissons Ratio (z) = 0.53936 0.49699
#
# Static dielectric constant tensor:
#      x y z
#    x 3.576590 0.000000 0.000000 
#    y 0.000000 3.349390 0.000000 
#    z 0.000000 0.000000 3.451010 
# 
# 
# High freq. dielectric constant tensor:
#      x y z
#    x 1.718150 0.000000 0.000000 
#    y 0.000000 1.717250 0.000000 
#    z 0.000000 0.000000 1.723210 
# 
# From -- ./inp_files/8006.got.cif
#   From: 2010.03.12/outbox.cif.g09.slc.cpg/sg57_5_cif.got.tgz:8006.got - 2010.04.16 15:48:40.
