data_PCOD8232024
_publ_section_title
;
Structure prediction by ZEFSAII (Michael W. Deem and Ramdas Pophale) SiO2 
 PCOD8232024
Probable space group: P B C M
;
_chemical_formula_sum "Si O2"
_cell_formula_units_Z 56
_cell_length_a 12.005184
_cell_length_b 11.235211
_cell_length_c 22.830894
_cell_angle_alpha 90.000000
_cell_angle_beta 90.000000
_cell_angle_gamma 90.000000
_cell_volume 3079.448684
_symmetry_space_group_name_H-M "P B C M"
_symmetry_group_IT_number 57
_symmetry_cell_setting 'orthorhombic'
loop_
_space_group_symop_operation_xyz
x,y,z
-x,-y,1/2+z
x,1/2-y,-z
-x,1/2+y,1/2-z
-x,-y,-z
x,y,1/2-z
-x,1/2+y,z
x,1/2-y,1/2+z
loop_
_atom_site_type_symbol
_atom_site_label
_atom_site_fract_x
_atom_site_fract_y
_atom_site_fract_z
Si Si1 0.423757 0.758443 0.068432
Si Si2 0.786707 0.396001 0.442959
Si Si3 0.160098 0.376702 0.873522
Si Si4 0.908864 0.291780 0.871635
Si Si5 0.103277 0.066579 0.250000
Si Si6 0.737760 0.439490 0.574462
Si Si7 0.943220 0.203972 0.750000
Si Si8 0.329348 0.209155 0.932596
O O1 0.336595 0.864840 0.082961
O O2 0.373218 0.634193 0.092302
O O3 0.546294 0.781155 0.094478
O O4 0.444013 0.750000 0.000000
O O5 0.826287 0.524202 0.422769
O O6 0.876871 0.299732 0.422568
O O7 0.782503 0.390412 0.512706
O O8 0.178629 0.432544 0.808657
O O9 0.251961 0.278641 0.887344
O O10 0.038272 0.319907 0.877884
O O11 0.836067 0.412701 0.878669
O O12 0.876022 0.231333 0.809435
O O13 0.040346 0.194838 0.250000
O O14 0.029672 0.941099 0.250000
O O15 0.709849 0.575328 0.571271
O O16 0.317788 0.250000 0.000000
#
# Coordination Sequence:
#
# PCOD8232024 Si02
#       8
#     8   8   8   8   4   8   4   8
#     4   8  19  34  56  80 112 150 187 231 276 334
#     4  10  19  37  56  82 115 150 183 227 286 338
#     4  11  23  35  58  83 113 147 191 233 280 337
#     4  10  22  36  56  82 114 151 191 231 286 341
#     4  10  22  40  60  83 113 150 202 245 282 332
#     4  10  21  37  54  84 122 149 183 233 289 347
#     4  10  20  38  62  83 105 158 204 241 278 340
#     4  11  22  34  56  88 114 147 192 233 284 338
#
# _framework density 18.185072999999999
#
# number of rings (size 3 to 8) (size 9 to 14) (size 15 to 20)
#    0.000    2.000    2.857    1.286    4.000    4.571 
#    0.000    0.000    0.000    4.286    0.000    0.000 
#    0.000    0.000    0.000    0.000    0.000    0.000 
#
# Total GULP energy -693826.333920 kJ/mol
# GULP energy per Si atom -12389.755963 kJ/mol
# Density = 1.814368 g / cm^3
# Si number density = 18.185073 Si / 1000 Ang^3
#
#
#
# Elastic Constant Matrix: (Units=GPa)
#
#
# Indices 1 2 3 4 5 6 
#
# 1 121.3200 42.9930 38.5402 0.0000 0.0000 0.0000
# 2 42.9930 108.7931 36.2146 0.0000 0.0000 0.0000
# 3 38.5402 36.2146 63.9051 0.0000 0.0000 0.0000
# 4 0.0000 0.0000 0.0000 25.3618 0.0000 0.0000
# 5 0.0000 0.0000 0.0000 0.0000 6.1037 0.0000
# 6 0.0000 0.0000 0.0000 0.0000 0.0000 21.1363
#
#
#
# Elastic Compliance Matrix: (Units=1/GPa)
#
#
# Indices 1 2 3 4 5 6 
#
# 1 0.010752 -0.002576 -0.005024 0.000000 0.000000 0.000000
# 2 -0.002576 0.011946 -0.005216 0.000000 0.000000 0.000000
# 3 -0.005024 -0.005216 0.021634 0.000000 0.000000 0.000000
# 4 0.000000 0.000000 0.000000 0.039429 0.000000 0.000000
# 5 0.000000 0.000000 0.000000 0.000000 0.163834 0.000000
# 6 0.000000 0.000000 0.000000 0.000000 0.000000 0.047312
#
#
# Mechanical properties :
#
#
# Convention : Reuss Voigt Hill
#
# Bulk Modulus (GPa) = 53.47947 58.83489 56.15718
# Shear Modulus (GPa) = 15.30111 22.27173 18.78642
#
# Velocity S-wave (km/s) = 2.90385 3.50341 3.21762
# Velocity P-wave (km/s) = 6.38087 6.98490 6.68970
#
# Compressibility (1/GPa) = 0.01869877
#
# Stress axis : x y z
#
# Youngs Moduli (GPa) = 93.00818 83.70848 46.22337
#
# Poissons Ratio (x) = 0.21567 0.23223
# Poissons Ratio (y) = 0.23963 0.24110
# Poissons Ratio (z) = 0.46729 0.43663
#
# Static dielectric constant tensor:
#      x y z
#    x 3.431120 0.000000 0.000000 
#    y 0.000000 3.581520 0.000000 
#    z 0.000000 0.000000 3.577610 
# 
# 
# High freq. dielectric constant tensor:
#      x y z
#    x 1.691450 0.000000 0.000000 
#    y 0.000000 1.721760 0.000000 
#    z 0.000000 0.000000 1.684200 
# 
# From -- ./inp_files/27253.got.cif
#   From: 2010.03.12/outbox.cif.g09.slc.cpg/sg57_14_cif.got.tgz:27253.got - 2010.04.16 15:48:40.
