data_PCOD8232179
_publ_section_title
;
Structure prediction by ZEFSAII (Michael W. Deem and Ramdas Pophale) SiO2 
 PCOD8232179
Probable space group: P B C M
;
_chemical_formula_sum "Si O2"
_cell_formula_units_Z 56
_cell_length_a 14.545160
_cell_length_b 26.139151
_cell_length_c 9.355572
_cell_angle_alpha 90.000000
_cell_angle_beta 90.000000
_cell_angle_gamma 90.000000
_cell_volume 3556.971013
_symmetry_space_group_name_H-M "P B C M"
_symmetry_group_IT_number 57
_symmetry_cell_setting 'orthorhombic'
loop_
_space_group_symop_operation_xyz
x,y,z
-x,-y,1/2+z
x,1/2-y,-z
-x,1/2+y,1/2-z
-x,-y,-z
x,y,1/2-z
-x,1/2+y,z
x,1/2-y,1/2+z
loop_
_atom_site_type_symbol
_atom_site_label
_atom_site_fract_x
_atom_site_fract_y
_atom_site_fract_z
Si Si1 0.067263 0.567210 0.083811
Si Si2 0.612669 0.459605 0.588417
Si Si3 0.307317 0.436200 0.417043
Si Si4 0.758196 0.129135 0.088621
Si Si5 0.488399 0.110452 0.915214
Si Si6 0.892429 0.548934 0.917280
Si Si7 0.626665 0.302545 0.419525
O O1 0.043592 0.569876 0.250000
O O2 0.139844 0.611500 0.041774
O O3 0.107337 0.511335 0.045026
O O4 0.974193 0.578331 0.997369
O O5 0.577235 0.467169 0.750000
O O6 0.647056 0.512541 0.518371
O O7 0.697267 0.421123 0.583392
O O8 0.528475 0.438321 0.496853
O O9 0.294291 0.446949 0.250000
O O10 0.377673 0.388643 0.446089
O O11 0.204219 0.427229 0.476522
O O12 0.758430 0.151934 0.250000
O O13 0.719967 0.171523 0.978750
O O14 0.508102 0.100282 0.750000
O O15 0.537625 0.163074 0.961132
O O16 0.906275 0.558612 0.750000
O O17 0.609287 0.250000 0.500000
O O18 0.636151 0.294172 0.250000
#
# Coordination Sequence:
#
# PCOD8232179 Si02
#       7
#     8   8   8   8   8   8   8
#     4   9  16  27  41  61  88 119 151 182 216 251
#     4   9  15  25  41  60  85 118 149 173 206 257
#     4   9  15  26  42  60  86 120 151 178 210 255
#     4   9  16  28  46  65  88 118 148 178 218 266
#     4   9  18  29  42  62  86 111 143 182 219 256
#     4   9  16  26  41  60  86 122 157 182 208 248
#     4  10  20  33  48  67  88 110 141 182 227 270
#
# _framework density 15.743733000000001
#
# number of rings (size 3 to 8) (size 9 to 14) (size 15 to 20)
#    0.000    2.857    1.429    0.857    0.000    1.143 
#    0.000    1.429    0.000    0.000    0.000    1.000 
#    0.000    4.571    0.000    0.000    0.000    0.000 
#
# Total GULP energy -694023.116371 kJ/mol
# GULP energy per Si atom -12393.269935 kJ/mol
# Density = 1.570790 g / cm^3
# Si number density = 15.743733 Si / 1000 Ang^3
#
#
#
# Elastic Constant Matrix: (Units=GPa)
#
#
# Indices 1 2 3 4 5 6 
#
# 1 143.1387 46.4225 46.2335 0.0000 0.0000 0.0000
# 2 46.4225 61.8085 28.8451 0.0000 0.0000 0.0000
# 3 46.2335 28.8451 48.3923 0.0000 0.0000 0.0000
# 4 0.0000 0.0000 0.0000 16.8845 0.0000 0.0000
# 5 0.0000 0.0000 0.0000 0.0000 22.8394 0.0000
# 6 0.0000 0.0000 0.0000 0.0000 0.0000 13.5070
#
#
#
# Elastic Compliance Matrix: (Units=1/GPa)
#
#
# Indices 1 2 3 4 5 6 
#
# 1 0.010990 -0.004647 -0.007730 0.000000 0.000000 0.000000
# 2 -0.004647 0.024379 -0.010092 0.000000 0.000000 0.000000
# 3 -0.007730 -0.010092 0.034065 0.000000 0.000000 0.000000
# 4 0.000000 0.000000 0.000000 0.059226 0.000000 0.000000
# 5 0.000000 0.000000 0.000000 0.000000 0.043784 0.000000
# 6 0.000000 0.000000 0.000000 0.000000 0.000000 0.074035
#
#
# Mechanical properties :
#
#
# Convention : Reuss Voigt Hill
#
# Bulk Modulus (GPa) = 40.82212 55.14909 47.98560
# Shear Modulus (GPa) = 16.68992 19.43542 18.06267
#
# Velocity S-wave (km/s) = 3.25945 3.51734 3.39085
# Velocity P-wave (km/s) = 6.33646 7.18337 6.77317
#
# Compressibility (1/GPa) = 0.02449652
#
# Stress axis : x y z
#
# Youngs Moduli (GPa) = 90.99145 41.01912 29.35563
#
# Poissons Ratio (x) = 0.19061 0.22692
# Poissons Ratio (y) = 0.42282 0.29625
# Poissons Ratio (z) = 0.70336 0.41396
#
# Static dielectric constant tensor:
#      x y z
#    x 3.217830 0.000000 0.000000 
#    y 0.000000 2.718510 0.000000 
#    z 0.000000 0.000000 2.946580 
# 
# 
# High freq. dielectric constant tensor:
#      x y z
#    x 1.608830 0.000000 0.000000 
#    y 0.000000 1.561900 0.000000 
#    z 0.000000 0.000000 1.593330 
# 
# From -- ./inp_files/5906.got.cif
#   From: 2010.03.12/outbox.cif.g09.slc.cpg/sg57_3_cif.got.tgz:5906.got - 2010.04.16 15:48:40.
