data_PCOD8232956
_publ_section_title
;
Structure prediction by ZEFSAII (Michael W. Deem and Ramdas Pophale) SiO2 
 PCOD8232956
Probable space group: P B C M
;
_chemical_formula_sum "Si O2"
_cell_formula_units_Z 56
_cell_length_a 16.420022
_cell_length_b 20.747170
_cell_length_c 9.160477
_cell_angle_alpha 90.000000
_cell_angle_beta 90.000000
_cell_angle_gamma 90.000000
_cell_volume 3120.690428
_symmetry_space_group_name_H-M "P B C M"
_symmetry_group_IT_number 57
_symmetry_cell_setting 'orthorhombic'
loop_
_space_group_symop_operation_xyz
x,y,z
-x,-y,1/2+z
x,1/2-y,-z
-x,1/2+y,1/2-z
-x,-y,-z
x,y,1/2-z
-x,1/2+y,z
x,1/2-y,1/2+z
loop_
_atom_site_type_symbol
_atom_site_label
_atom_site_fract_x
_atom_site_fract_y
_atom_site_fract_z
Si Si1 0.603263 0.437966 0.087077
Si Si2 0.751178 0.462711 0.909936
Si Si3 0.936192 0.049862 0.424905
Si Si4 0.303737 0.105223 0.590098
Si Si5 0.840388 0.688229 0.580363
Si Si6 0.549453 0.586094 0.088012
Si Si7 0.025768 0.817177 0.074668
O O1 0.603959 0.409761 0.250000
O O2 0.577112 0.512201 0.089551
O O3 0.694047 0.423357 0.022474
O O4 0.535335 0.400735 0.993881
O O5 0.751196 0.428925 0.750000
O O6 0.844448 0.474333 0.959286
O O7 0.703607 0.529278 0.897627
O O8 0.953619 0.052489 0.250000
O O9 0.934526 0.120853 0.497569
O O10 0.000000 0.000000 0.500000
O O11 0.321027 0.134799 0.750000
O O12 0.217469 0.130298 0.529259
O O13 0.378473 0.126543 0.488324
O O14 0.805644 0.750000 0.500000
O O15 0.837252 0.702101 0.750000
O O16 0.931789 0.672401 0.533810
O O17 0.537937 0.612924 0.250000
O O18 0.042209 0.815926 0.250000
O O19 0.056798 0.750000 0.000000
#
# Coordination Sequence:
#
# PCOD8232956 Si02
#       7
#     8   8   8   8   8   8   8
#     4   9  16  26  41  62  88 118 152 187 226 275
#     4   9  18  31  46  65  93 126 158 195 241 289
#     4  11  22  35  52  76 105 137 171 211 260 309
#     4   9  16  28  44  63  90 123 155 189 232 281
#     4   9  18  31  47  66  90 121 157 197 239 283
#     4   9  16  25  39  61  88 118 150 184 223 271
#     4  10  20  36  55  75 100 133 173 214 256 303
#
# _framework density 17.944747
#
# number of rings (size 3 to 8) (size 9 to 14) (size 15 to 20)
#    0.000    2.571    0.000    2.571    0.000    8.000 
#    0.000    2.857    0.000    0.000    0.000    1.000 
#    0.000    2.286    0.000    0.000    0.000    0.000 
#
# Total GULP energy -693801.064548 kJ/mol
# GULP energy per Si atom -12389.304724 kJ/mol
# Density = 1.790390 g / cm^3
# Si number density = 17.944747 Si / 1000 Ang^3
#
#
#
# Elastic Constant Matrix: (Units=GPa)
#
#
# Indices 1 2 3 4 5 6 
#
# 1 112.5848 7.9536 61.1288 0.0000 0.0000 0.0000
# 2 7.9536 40.4861 24.7377 0.0000 0.0000 0.0000
# 3 61.1288 24.7377 113.6838 0.0000 0.0000 0.0000
# 4 0.0000 0.0000 0.0000 21.2787 0.0000 0.0000
# 5 0.0000 0.0000 0.0000 0.0000 34.5118 0.0000
# 6 0.0000 0.0000 0.0000 0.0000 0.0000 4.0660
#
#
#
# Elastic Compliance Matrix: (Units=1/GPa)
#
#
# Indices 1 2 3 4 5 6 
#
# 1 0.012674 0.001931 -0.007235 0.000000 0.000000 0.000000
# 2 0.001931 0.028782 -0.007301 0.000000 0.000000 0.000000
# 3 -0.007235 -0.007301 0.014276 0.000000 0.000000 0.000000
# 4 0.000000 0.000000 0.000000 0.046995 0.000000 0.000000
# 5 0.000000 0.000000 0.000000 0.000000 0.028976 0.000000
# 6 0.000000 0.000000 0.000000 0.000000 0.000000 0.245945
#
#
# Mechanical properties :
#
#
# Convention : Reuss Voigt Hill
#
# Bulk Modulus (GPa) = 32.76492 50.48833 41.62662
# Shear Modulus (GPa) = 12.10561 23.50027 17.80294
#
# Velocity S-wave (km/s) = 2.60013 3.62275 3.15317
# Velocity P-wave (km/s) = 5.22615 6.75985 6.04187
#
# Compressibility (1/GPa) = 0.03052045
#
# Stress axis : x y z
#
# Youngs Moduli (GPa) = 78.90046 34.74435 70.05000
#
# Poissons Ratio (x) = -0.06709 0.50683
# Poissons Ratio (y) = -0.15235 0.51145
# Poissons Ratio (z) = 0.57086 0.25368
#
# Static dielectric constant tensor:
#      x y z
#    x 3.447590 0.000000 0.000000 
#    y 0.000000 3.891690 0.000000 
#    z 0.000000 0.000000 3.632710 
# 
# 
# High freq. dielectric constant tensor:
#      x y z
#    x 1.698460 0.000000 0.000000 
#    y 0.000000 1.636890 0.000000 
#    z 0.000000 0.000000 1.707110 
# 
# From -- ./inp_files/5159.got.cif
#   From: 2010.03.12/outbox.cif.g09.slc.cpg/sg57_3_cif.got.tgz:5159.got - 2010.04.16 15:48:40.
