data_PCOD8232338
_publ_section_title
;
Structure prediction by ZEFSAII (Michael W. Deem and Ramdas Pophale) SiO2 
 PCOD8232338
Probable space group: P B C M
;
_chemical_formula_sum "Si O2"
_cell_formula_units_Z 64
_cell_length_a 14.927351
_cell_length_b 23.630719
_cell_length_c 9.055951
_cell_angle_alpha 90.000000
_cell_angle_beta 90.000000
_cell_angle_gamma 90.000000
_cell_volume 3194.432714
_symmetry_space_group_name_H-M "P B C M"
_symmetry_group_IT_number 57
_symmetry_cell_setting 'orthorhombic'
loop_
_space_group_symop_operation_xyz
x,y,z
-x,-y,1/2+z
x,1/2-y,-z
-x,1/2+y,1/2-z
-x,-y,-z
x,y,1/2-z
-x,1/2+y,z
x,1/2-y,1/2+z
loop_
_atom_site_type_symbol
_atom_site_label
_atom_site_fract_x
_atom_site_fract_y
_atom_site_fract_z
Si Si1 0.906569 0.005030 0.579552
Si Si2 0.007320 0.689797 0.576418
Si Si3 0.854046 0.619873 0.077347
Si Si4 0.355478 0.606435 0.077114
Si Si5 0.539003 0.629616 0.581189
Si Si6 0.589759 0.510741 0.581741
Si Si7 0.290203 0.307794 0.423318
Si Si8 0.180984 0.619581 0.921092
O O1 0.928096 0.016146 0.750000
O O2 0.850058 0.947835 0.555366
O O3 0.853046 0.059090 0.515839
O O4 0.000000 0.000000 0.500000
O O5 0.994167 0.750000 0.500000
O O6 0.985611 0.694801 0.750000
O O7 0.107904 0.668045 0.549002
O O8 0.940947 0.644832 0.503168
O O9 0.857050 0.636057 0.250000
O O10 0.764953 0.642724 0.001158
O O11 0.352103 0.618285 0.250000
O O12 0.341825 0.539239 0.033063
O O13 0.451234 0.630286 0.020639
O O14 0.271963 0.638565 0.003659
O O15 0.504949 0.628164 0.750000
O O16 0.609712 0.576928 0.553093
O O17 0.603012 0.683185 0.550548
O O18 0.500000 0.500000 0.500000
O O19 0.569103 0.498287 0.750000
O O20 0.260415 0.250000 0.500000
O O21 0.267042 0.305936 0.250000
O O22 0.204246 0.614158 0.750000
#
# Coordination Sequence:
#
# PCOD8232338 Si02
#       8
#     8   8   8   8   8   8   8   8
#     4  10  21  38  60  89 123 159 197 242 298 358
#     4  11  23  41  64  86 115 154 199 247 293 348
#     4  11  23  39  62  91 122 155 195 243 297 359
#     4  10  20  33  56  87 117 150 190 239 288 343
#     4   9  19  37  58  79 110 151 192 236 290 348
#     4   8  15  29  48  75 106 138 177 220 272 331
#     4  11  24  41  62  86 117 157 202 251 301 357
#     4  10  22  39  58  85 123 162 196 237 295 355
#
# _framework density 20.034856999999999
#
# number of rings (size 3 to 8) (size 9 to 14) (size 15 to 20)
#    0.000    2.000    1.250    1.875    1.750    3.500 
#    0.000    0.625    0.000    0.000    0.000    0.000 
#    0.000    0.000    0.000    0.000    0.000    0.000 
#
# Total GULP energy -793134.632856 kJ/mol
# GULP energy per Si atom -12392.728638 kJ/mol
# Density = 1.998926 g / cm^3
# Si number density = 20.034857 Si / 1000 Ang^3
#
#
#
# Elastic Constant Matrix: (Units=GPa)
#
#
# Indices 1 2 3 4 5 6 
#
# 1 91.1789 7.1797 38.9081 0.0000 0.0000 0.0000
# 2 7.1797 56.8884 24.4376 0.0000 0.0000 0.0000
# 3 38.9081 24.4376 86.0140 0.0000 0.0000 0.0000
# 4 0.0000 0.0000 0.0000 24.0464 0.0000 0.0000
# 5 0.0000 0.0000 0.0000 0.0000 34.2743 0.0000
# 6 0.0000 0.0000 0.0000 0.0000 0.0000 24.1566
#
#
#
# Elastic Compliance Matrix: (Units=1/GPa)
#
#
# Indices 1 2 3 4 5 6 
#
# 1 0.013647 0.001059 -0.006474 0.000000 0.000000 0.000000
# 2 0.001059 0.020104 -0.006191 0.000000 0.000000 0.000000
# 3 -0.006474 -0.006191 0.016313 0.000000 0.000000 0.000000
# 4 0.000000 0.000000 0.000000 0.041586 0.000000 0.000000
# 5 0.000000 0.000000 0.000000 0.000000 0.029176 0.000000
# 6 0.000000 0.000000 0.000000 0.000000 0.000000 0.041396
#
#
# Mechanical properties :
#
#
# Convention : Reuss Voigt Hill
#
# Bulk Modulus (GPa) = 37.24076 41.68131 39.46104
# Shear Modulus (GPa) = 25.72212 27.39920 26.56066
#
# Velocity S-wave (km/s) = 3.58700 3.70209 3.64500
# Velocity P-wave (km/s) = 5.98195 6.25488 6.11994
#
# Compressibility (1/GPa) = 0.02685230
#
# Stress axis : x y z
#
# Youngs Moduli (GPa) = 73.27843 49.74139 61.29994
#
# Poissons Ratio (x) = -0.05266 0.39684
# Poissons Ratio (y) = -0.07758 0.37949
# Poissons Ratio (z) = 0.47439 0.30793
#
# Static dielectric constant tensor:
#      x y z
#    x 3.444000 0.000000 0.000000 
#    y 0.000000 3.350880 0.000000 
#    z 0.000000 0.000000 3.661310 
# 
# 
# High freq. dielectric constant tensor:
#      x y z
#    x 1.776620 0.000000 0.000000 
#    y 0.000000 1.777130 0.000000 
#    z 0.000000 0.000000 1.785910 
# 
# From -- ./inp_files/5570.got.cif
#   From: 2010.03.12/outbox.cif.g09.slc.cpg/sg57_3_cif.got.tgz:5570.got - 2010.04.16 15:48:40.
