data_PCOD8232736
_publ_section_title
;
Structure prediction by ZEFSAII (Michael W. Deem and Ramdas Pophale) SiO2 
 PCOD8232736
Probable space group: P B C M
;
_chemical_formula_sum "Si O2"
_cell_formula_units_Z 56
_cell_length_a 13.791864
_cell_length_b 23.952894
_cell_length_c 8.872756
_cell_angle_alpha 90.000000
_cell_angle_beta 90.000000
_cell_angle_gamma 90.000000
_cell_volume 2931.159809
_symmetry_space_group_name_H-M "P B C M"
_symmetry_group_IT_number 57
_symmetry_cell_setting 'orthorhombic'
loop_
_space_group_symop_operation_xyz
x,y,z
-x,-y,1/2+z
x,1/2-y,-z
-x,1/2+y,1/2-z
-x,-y,-z
x,y,1/2-z
-x,1/2+y,z
x,1/2-y,1/2+z
loop_
_atom_site_type_symbol
_atom_site_label
_atom_site_fract_x
_atom_site_fract_y
_atom_site_fract_z
Si Si1 0.651805 0.191898 0.427937
Si Si2 0.004290 0.691796 0.072576
Si Si3 0.781520 0.692356 0.073806
Si Si4 0.459003 0.597432 0.576956
Si Si5 0.717024 0.478871 0.076925
Si Si6 0.171017 0.630853 0.927257
Si Si7 0.317880 0.089116 0.576663
O O1 0.620058 0.250000 0.500000
O O2 0.662543 0.197422 0.250000
O O3 0.566816 0.148618 0.468259
O O4 0.753769 0.173156 0.497407
O O5 0.022225 0.694495 0.250000
O O6 0.892871 0.679674 0.031584
O O7 0.038562 0.750000 0.000000
O O8 0.065889 0.641591 0.999563
O O9 0.766891 0.698797 0.250000
O O10 0.746279 0.750000 0.000000
O O11 0.715668 0.642433 0.015894
O O12 0.441300 0.616176 0.750000
O O13 0.389200 0.545541 0.538705
O O14 0.568558 0.579255 0.547392
O O15 0.723440 0.497304 0.250000
O O16 0.798746 0.432898 0.038257
O O17 0.737405 0.533415 0.977026
O O18 0.169295 0.642532 0.750000
O O19 0.293350 0.099804 0.750000
#
# Coordination Sequence:
#
# PCOD8232736 Si02
#       7
#     8   8   8   8   8   8   8
#     4  11  21  33  51  76 108 144 180 221 268 321
#     4  10  20  35  57  83 109 141 180 222 267 320
#     4  10  22  40  60  82 110 141 179 225 270 317
#     4   9  20  37  54  77 108 142 181 225 270 318
#     4   9  19  36  56  79 110 143 177 219 267 317
#     4  10  20  35  55  80 111 144 177 219 268 319
#     4  11  22  36  58  83 108 141 181 223 269 320
#
# _framework density 19.105066000000001
#
# number of rings (size 3 to 8) (size 9 to 14) (size 15 to 20)
#    0.000    2.000    0.000    4.714    0.000    6.286 
#    0.000    0.714    0.000    0.000    0.000    0.000 
#    0.000    0.000    0.000    0.000    0.000    0.000 
#
# Total GULP energy -694632.297067 kJ/mol
# GULP energy per Si atom -12404.148162 kJ/mol
# Density = 1.906158 g / cm^3
# Si number density = 19.105066 Si / 1000 Ang^3
#
#
#
# Elastic Constant Matrix: (Units=GPa)
#
#
# Indices 1 2 3 4 5 6 
#
# 1 56.0132 36.4704 29.6874 0.0000 0.0000 0.0000
# 2 36.4704 117.8066 50.3553 0.0000 0.0000 0.0000
# 3 29.6874 50.3553 99.3937 0.0000 0.0000 0.0000
# 4 0.0000 0.0000 0.0000 37.7064 0.0000 0.0000
# 5 0.0000 0.0000 0.0000 0.0000 31.0352 0.0000
# 6 0.0000 0.0000 0.0000 0.0000 0.0000 23.9294
#
#
#
# Elastic Compliance Matrix: (Units=1/GPa)
#
#
# Indices 1 2 3 4 5 6 
#
# 1 0.023713 -0.005506 -0.004293 0.000000 0.000000 0.000000
# 2 -0.005506 0.012113 -0.004492 0.000000 0.000000 0.000000
# 3 -0.004293 -0.004492 0.013619 0.000000 0.000000 0.000000
# 4 0.000000 0.000000 0.000000 0.026521 0.000000 0.000000
# 5 0.000000 0.000000 0.000000 0.000000 0.032221 0.000000
# 6 0.000000 0.000000 0.000000 0.000000 0.000000 0.041790
#
#
# Mechanical properties :
#
#
# Convention : Reuss Voigt Hill
#
# Bulk Modulus (GPa) = 47.93271 56.24885 52.09078
# Shear Modulus (GPa) = 26.95197 28.98089 27.96643
#
# Velocity S-wave (km/s) = 3.76003 3.89899 3.83014
# Velocity P-wave (km/s) = 6.63279 7.05516 6.84723
#
# Compressibility (1/GPa) = 0.02086258
#
# Stress axis : x y z
#
# Youngs Moduli (GPa) = 42.17023 82.55443 73.42539
#
# Poissons Ratio (x) = 0.45455 0.31524
# Poissons Ratio (y) = 0.23219 0.32985
# Poissons Ratio (z) = 0.18105 0.37086
#
# Static dielectric constant tensor:
#      x y z
#    x 3.425240 0.000000 0.000000 
#    y 0.000000 3.389460 0.000000 
#    z 0.000000 0.000000 3.542060 
# 
# 
# High freq. dielectric constant tensor:
#      x y z
#    x 1.731290 0.000000 0.000000 
#    y 0.000000 1.741350 0.000000 
#    z 0.000000 0.000000 1.753660 
# 
# From -- ./inp_files/5120.got.cif
#   From: 2010.03.12/outbox.cif.g09.slc.cpg/sg57_3_cif.got.tgz:5120.got - 2010.04.16 15:48:40.
