data_PCOD8232752
_publ_section_title
;
Structure prediction by ZEFSAII (Michael W. Deem and Ramdas Pophale) SiO2 
 PCOD8232752
Probable space group: P B C M
;
_chemical_formula_sum "Si O2"
_cell_formula_units_Z 64
_cell_length_a 23.288365
_cell_length_b 9.009038
_cell_length_c 15.103490
_cell_angle_alpha 90.000000
_cell_angle_beta 90.000000
_cell_angle_gamma 90.000000
_cell_volume 3168.799277
_symmetry_space_group_name_H-M "P B C M"
_symmetry_group_IT_number 57
_symmetry_cell_setting 'orthorhombic'
loop_
_space_group_symop_operation_xyz
x,y,z
-x,-y,1/2+z
x,1/2-y,-z
-x,1/2+y,1/2-z
-x,-y,-z
x,y,1/2-z
-x,1/2+y,z
x,1/2-y,1/2+z
loop_
_atom_site_type_symbol
_atom_site_label
_atom_site_fract_x
_atom_site_fract_y
_atom_site_fract_z
Si Si1 0.142774 0.422697 0.010541
Si Si2 0.317210 0.426138 0.647868
Si Si3 0.542785 0.681802 0.906212
Si Si4 0.661541 0.916542 0.351469
Si Si5 0.444921 0.008041 0.152536
Si Si6 0.740761 0.425324 0.989204
Si Si7 0.952512 0.877890 0.149749
Si Si8 0.931846 0.536042 0.149887
O O1 0.094591 0.447942 0.085065
O O2 0.159266 0.250000 0.000000
O O3 0.197527 0.515875 0.042433
O O4 0.120737 0.489789 0.917174
O O5 0.302190 0.460688 0.750000
O O6 0.316607 0.250223 0.631032
O O7 0.378847 0.496135 0.621663
O O8 0.270784 0.500663 0.584641
O O9 0.593540 0.574715 0.871843
O O10 0.484071 0.587611 0.913979
O O11 0.534619 0.821038 0.841069
O O12 0.560221 0.750000 0.000000
O O13 0.672566 0.964311 0.250000
O O14 0.694132 0.029738 0.415606
O O15 0.451972 0.938794 0.250000
O O16 0.740779 0.250000 0.000000
O O17 0.937568 0.927736 0.250000
O O18 0.954475 0.702320 0.139875
O O19 0.015653 0.931170 0.122503
O O20 0.910447 0.503450 0.250000
#
# Coordination Sequence:
#
# PCOD8232752 Si02
#       8
#     8   8   8   8   8   8   8   8
#     4  10  21  37  56  78 110 152 195 234 276 338
#     4   9  20  40  63  82 110 155 202 243 288 349
#     4  11  21  35  58  87 116 146 185 234 288 347
#     4  10  21  41  65  84 109 153 200 240 287 352
#     4  10  20  35  55  83 114 145 181 225 283 349
#     4  12  26  40  57  85 118 149 193 251 303 348
#     4   9  18  33  55  83 114 145 182 226 276 333
#     4   9  18  33  55  84 113 145 183 227 279 336
#
# _framework density 20.196925
#
# number of rings (size 3 to 8) (size 9 to 14) (size 15 to 20)
#    0.000    2.000    0.000    5.250    0.000    4.000 
#    0.000    3.750    0.000    0.000    0.000    0.000 
#    0.000    0.000    0.000    0.000    0.000    0.000 
#
# Total GULP energy -793699.317158 kJ/mol
# GULP energy per Si atom -12401.551831 kJ/mol
# Density = 2.015096 g / cm^3
# Si number density = 20.196925 Si / 1000 Ang^3
#
#
#
# Elastic Constant Matrix: (Units=GPa)
#
#
# Indices 1 2 3 4 5 6 
#
# 1 63.3569 25.1375 21.6332 0.0000 0.0000 0.0000
# 2 25.1375 53.3660 22.0978 0.0000 0.0000 0.0000
# 3 21.6332 22.0978 91.1104 0.0000 0.0000 0.0000
# 4 0.0000 0.0000 0.0000 22.5096 0.0000 0.0000
# 5 0.0000 0.0000 0.0000 0.0000 24.4229 0.0000
# 6 0.0000 0.0000 0.0000 0.0000 0.0000 34.7039
#
#
#
# Elastic Compliance Matrix: (Units=1/GPa)
#
#
# Indices 1 2 3 4 5 6 
#
# 1 0.020008 -0.008290 -0.002740 0.000000 0.000000 0.000000
# 2 -0.008290 0.024265 -0.003917 0.000000 0.000000 0.000000
# 3 -0.002740 -0.003917 0.012576 0.000000 0.000000 0.000000
# 4 0.000000 0.000000 0.000000 0.044425 0.000000 0.000000
# 5 0.000000 0.000000 0.000000 0.000000 0.040945 0.000000
# 6 0.000000 0.000000 0.000000 0.000000 0.000000 0.028815
#
#
# Mechanical properties :
#
#
# Convention : Reuss Voigt Hill
#
# Bulk Modulus (GPa) = 37.09771 38.39671 37.74721
# Shear Modulus (GPa) = 23.81911 25.59160 24.70536
#
# Velocity S-wave (km/s) = 3.43788 3.56350 3.50126
# Velocity P-wave (km/s) = 5.84522 5.99865 5.92243
#
# Compressibility (1/GPa) = 0.02695584
#
# Stress axis : x y z
#
# Youngs Moduli (GPa) = 49.97900 41.21095 79.51460
#
# Poissons Ratio (x) = 0.34164 0.21788
# Poissons Ratio (y) = 0.41433 0.31145
# Poissons Ratio (z) = 0.13695 0.16142
#
# Static dielectric constant tensor:
#      x y z
#    x 3.518110 0.000000 0.000000 
#    y 0.000000 3.499030 0.000000 
#    z 0.000000 0.000000 3.828560 
# 
# 
# High freq. dielectric constant tensor:
#      x y z
#    x 1.778560 0.000000 0.000000 
#    y 0.000000 1.771230 0.000000 
#    z 0.000000 0.000000 1.801990 
# 
# From -- ./inp_files/19522.got.cif
#   From: 2010.03.12/outbox.cif.g09.slc.cpg/sg57_10_cif.got.tgz:19522.got - 2010.04.16 15:48:40.
