data_PCOD8232050
_publ_section_title
;
Structure prediction by ZEFSAII (Michael W. Deem and Ramdas Pophale) SiO2 
 PCOD8232050
Probable space group: P B C M
;
_chemical_formula_sum "Si O2"
_cell_formula_units_Z 64
_cell_length_a 10.935014
_cell_length_b 19.723617
_cell_length_c 13.893830
_cell_angle_alpha 90.000000
_cell_angle_beta 90.000000
_cell_angle_gamma 90.000000
_cell_volume 2996.593856
_symmetry_space_group_name_H-M "P B C M"
_symmetry_group_IT_number 57
_symmetry_cell_setting 'orthorhombic'
loop_
_space_group_symop_operation_xyz
x,y,z
-x,-y,1/2+z
x,1/2-y,-z
-x,1/2+y,1/2-z
-x,-y,-z
x,y,1/2-z
-x,1/2+y,z
x,1/2-y,1/2+z
loop_
_atom_site_type_symbol
_atom_site_label
_atom_site_fract_x
_atom_site_fract_y
_atom_site_fract_z
Si Si1 0.650085 0.543054 0.135207
Si Si2 0.971506 0.383360 0.358967
Si Si3 0.102774 0.106761 0.143143
Si Si4 0.858037 0.756473 0.390723
Si Si5 0.504418 0.148283 0.467715
Si Si6 0.737549 0.420116 0.477755
Si Si7 0.114365 0.982332 0.862644
Si Si8 0.586187 0.722135 0.855846
O O1 0.630027 0.545563 0.250000
O O2 0.767569 0.586212 0.097765
O O3 0.537126 0.577958 0.080931
O O4 0.665848 0.465965 0.100383
O O5 0.923239 0.390718 0.250000
O O6 0.856044 0.386587 0.429080
O O7 0.041198 0.312988 0.372377
O O8 0.070395 0.441403 0.381352
O O9 0.105237 0.076440 0.250000
O O10 0.080441 0.186784 0.143674
O O11 0.990042 0.068129 0.094111
O O12 0.819893 0.750000 0.500000
O O13 0.730958 0.769042 0.336955
O O14 0.649225 0.140875 0.488191
O O15 0.478178 0.209922 0.395327
O O16 0.437623 0.160792 0.570306
O O17 0.768998 0.466194 0.571195
O O18 0.146496 0.969542 0.750000
O O19 0.530325 0.706135 0.750000
#
# Coordination Sequence:
#
# PCOD8232050 Si02
#       8
#     8   8   8   8   8   8   8   8
#     4  11  22  41  70  96 129 176 225 276 331 402
#     4  11  24  42  66 101 138 174 216 274 343 405
#     4  10  19  37  63  93 123 166 221 269 330 399
#     4  12  22  38  68 101 130 165 221 284 338 394
#     4  11  25  44  63  97 130 173 232 276 327 396
#     4  12  25  42  66  94 138 180 222 269 336 409
#     4  10  23  41  64  97 136 176 219 273 340 405
#     4  11  23  44  70  93 129 175 221 282 342 393
#
# _framework density 21.357582000000001
#
# number of rings (size 3 to 8) (size 9 to 14) (size 15 to 20)
#    0.000    1.000    3.750    3.375    3.500    2.000 
#    6.750    0.000    0.000    0.000    0.000    0.000 
#    0.000    0.000    0.000    0.000    0.000    0.000 
#
# Total GULP energy -793595.634197 kJ/mol
# GULP energy per Si atom -12399.931784 kJ/mol
# Density = 2.130897 g / cm^3
# Si number density = 21.357582 Si / 1000 Ang^3
#
#
#
# Elastic Constant Matrix: (Units=GPa)
#
#
# Indices 1 2 3 4 5 6 
#
# 1 65.8819 34.5666 31.8765 0.0000 0.0000 0.0000
# 2 34.5666 93.9452 14.4954 0.0000 0.0000 0.0000
# 3 31.8765 14.4954 128.8771 0.0000 0.0000 0.0000
# 4 0.0000 0.0000 0.0000 21.8778 0.0000 0.0000
# 5 0.0000 0.0000 0.0000 0.0000 18.1121 0.0000
# 6 0.0000 0.0000 0.0000 0.0000 0.0000 34.2094
#
#
#
# Elastic Compliance Matrix: (Units=1/GPa)
#
#
# Indices 1 2 3 4 5 6 
#
# 1 0.021008 -0.007051 -0.004403 0.000000 0.000000 0.000000
# 2 -0.007051 0.013199 0.000259 0.000000 0.000000 0.000000
# 3 -0.004403 0.000259 0.008819 0.000000 0.000000 0.000000
# 4 0.000000 0.000000 0.000000 0.045708 0.000000 0.000000
# 5 0.000000 0.000000 0.000000 0.000000 0.055212 0.000000
# 6 0.000000 0.000000 0.000000 0.000000 0.000000 0.029232
#
#
# Mechanical properties :
#
#
# Convention : Reuss Voigt Hill
#
# Bulk Modulus (GPa) = 48.45530 50.06456 49.25993
# Shear Modulus (GPa) = 24.69796 28.69093 26.69445
#
# Velocity S-wave (km/s) = 3.40428 3.66916 3.53920
# Velocity P-wave (km/s) = 6.17973 6.43757 6.30997
#
# Compressibility (1/GPa) = 0.02063758
#
# Stress axis : x y z
#
# Youngs Moduli (GPa) = 47.60005 75.76511 113.38833
#
# Poissons Ratio (x) = 0.53418 0.49927
# Poissons Ratio (y) = 0.33561 -0.02941
# Poissons Ratio (z) = 0.20959 -0.01965
#
# Static dielectric constant tensor:
#      x y z
#    x 3.682790 0.000000 0.000000 
#    y 0.000000 4.490170 0.000000 
#    z 0.000000 0.000000 4.084770 
# 
# 
# High freq. dielectric constant tensor:
#      x y z
#    x 1.818030 0.000000 0.000000 
#    y 0.000000 1.831260 0.000000 
#    z 0.000000 0.000000 1.858520 
# 
# From -- ./inp_files/17948.got.cif
#   From: 2010.03.12/outbox.cif.g09.slc.cpg/sg57_9_cif.got.tgz:17948.got - 2010.04.16 15:48:40.
