data_PCOD8232176
_publ_section_title
;
Structure prediction by ZEFSAII (Michael W. Deem and Ramdas Pophale) SiO2 
 PCOD8232176
Probable space group: P B C M
;
_chemical_formula_sum "Si O2"
_cell_formula_units_Z 64
_cell_length_a 21.315092
_cell_length_b 18.969320
_cell_length_c 8.918460
_cell_angle_alpha 90.000000
_cell_angle_beta 90.000000
_cell_angle_gamma 90.000000
_cell_volume 3606.025912
_symmetry_space_group_name_H-M "P B C M"
_symmetry_group_IT_number 57
_symmetry_cell_setting 'orthorhombic'
loop_
_space_group_symop_operation_xyz
x,y,z
-x,-y,1/2+z
x,1/2-y,-z
-x,1/2+y,1/2-z
-x,-y,-z
x,y,1/2-z
-x,1/2+y,z
x,1/2-y,1/2+z
loop_
_atom_site_type_symbol
_atom_site_label
_atom_site_fract_x
_atom_site_fract_y
_atom_site_fract_z
Si Si1 0.030507 0.176246 0.926631
Si Si2 0.728122 0.640035 0.082466
Si Si3 0.196965 0.942362 0.925245
Si Si4 0.393099 0.181269 0.573985
Si Si5 0.316715 0.519107 0.917787
Si Si6 0.154714 0.096421 0.923692
Si Si7 0.437083 0.472180 0.072613
Si Si8 0.098558 0.824475 0.928174
O O1 0.019667 0.187115 0.750000
O O2 0.083907 0.118853 0.960814
O O3 0.050810 0.250000 0.000000
O O4 0.966917 0.148174 0.003019
O O5 0.727015 0.671834 0.250000
O O6 0.710154 0.558793 0.083970
O O7 0.678981 0.681430 0.979784
O O8 0.797702 0.647013 0.014225
O O9 0.211280 0.941059 0.750000
O O10 0.152089 0.879169 0.975111
O O11 0.162733 0.015074 0.971371
O O12 0.263563 0.931658 0.008162
O O13 0.426486 0.250000 0.500000
O O14 0.395256 0.189973 0.750000
O O15 0.427787 0.109450 0.523314
O O16 0.331329 0.546140 0.750000
O O17 0.380427 0.520995 0.013921
O O18 0.170733 0.106972 0.750000
O O19 0.440389 0.479422 0.250000
O O20 0.500000 0.500000 0.000000
O O21 0.091806 0.817476 0.750000
O O22 0.117185 0.750000 0.000000
#
# Coordination Sequence:
#
# PCOD8232176 Si02
#       8
#     8   8   8   8   8   8   8   8
#     4  10  20  33  48  65  90 125 162 202 247 297
#     4   9  17  29  46  69  97 128 161 197 238 286
#     4   9  18  33  52  73  97 126 160 201 249 296
#     4  10  20  33  50  73 102 136 172 210 248 287
#     4   9  17  30  50  76 102 127 158 197 239 284
#     4   9  18  32  48  68  96 129 164 201 244 293
#     4  10  20  34  54  79 107 140 174 206 245 294
#     4  10  20  34  52  71  93 123 160 204 254 307
#
# _framework density 17.748069999999998
#
# number of rings (size 3 to 8) (size 9 to 14) (size 15 to 20)
#    0.000    2.500    0.000    3.000    0.000    7.500 
#    0.000    1.250    0.000    0.750    0.000    5.250 
#    0.000    0.000    0.000    0.000    0.000    0.000 
#
# Total GULP energy -793540.721392 kJ/mol
# GULP energy per Si atom -12399.073772 kJ/mol
# Density = 1.770767 g / cm^3
# Si number density = 17.748070 Si / 1000 Ang^3
#
#
#
# Elastic Constant Matrix: (Units=GPa)
#
#
# Indices 1 2 3 4 5 6 
#
# 1 141.5885 65.3708 60.4970 0.0000 0.0000 0.0000
# 2 65.3708 75.1689 41.7672 0.0000 0.0000 0.0000
# 3 60.4970 41.7672 91.6740 0.0000 0.0000 0.0000
# 4 0.0000 0.0000 0.0000 24.1919 0.0000 0.0000
# 5 0.0000 0.0000 0.0000 0.0000 34.1737 0.0000
# 6 0.0000 0.0000 0.0000 0.0000 0.0000 19.9328
#
#
#
# Elastic Compliance Matrix: (Units=1/GPa)
#
#
# Indices 1 2 3 4 5 6 
#
# 1 0.013123 -0.008838 -0.004633 0.000000 0.000000 0.000000
# 2 -0.008838 0.023765 -0.004995 0.000000 0.000000 0.000000
# 3 -0.004633 -0.004995 0.016242 0.000000 0.000000 0.000000
# 4 0.000000 0.000000 0.000000 0.041336 0.000000 0.000000
# 5 0.000000 0.000000 0.000000 0.000000 0.029262 0.000000
# 6 0.000000 0.000000 0.000000 0.000000 0.000000 0.050168
#
#
# Mechanical properties :
#
#
# Convention : Reuss Voigt Hill
#
# Bulk Modulus (GPa) = 61.74154 71.52237 66.63196
# Shear Modulus (GPa) = 23.12378 25.04611 24.08495
#
# Velocity S-wave (km/s) = 3.61347 3.76067 3.68781
# Velocity P-wave (km/s) = 7.23000 7.69695 7.46712
#
# Compressibility (1/GPa) = 0.01619655
#
# Stress axis : x y z
#
# Youngs Moduli (GPa) = 76.20316 42.07925 61.56994
#
# Poissons Ratio (x) = 0.37189 0.28528
# Poissons Ratio (y) = 0.67347 0.30755
# Poissons Ratio (z) = 0.35308 0.21019
#
# Static dielectric constant tensor:
#      x y z
#    x 3.273990 0.000000 0.000000 
#    y 0.000000 3.202790 0.000000 
#    z 0.000000 0.000000 3.439120 
# 
# 
# High freq. dielectric constant tensor:
#      x y z
#    x 1.678580 0.000000 0.000000 
#    y 0.000000 1.663760 0.000000 
#    z 0.000000 0.000000 1.699330 
# 
# From -- ./inp_files/8561.got.cif
#   From: 2010.03.12/outbox.cif.g09.slc.cpg/sg57_5_cif.got.tgz:8561.got - 2010.04.16 15:48:40.
