data_PCOD8232294
_publ_section_title
;
Structure prediction by ZEFSAII (Michael W. Deem and Ramdas Pophale) SiO2 
 PCOD8232294
Probable space group: P B C M
;
_chemical_formula_sum "Si O2"
_cell_formula_units_Z 64
_cell_length_a 24.431553
_cell_length_b 14.314097
_cell_length_c 9.272379
_cell_angle_alpha 90.000000
_cell_angle_beta 90.000000
_cell_angle_gamma 90.000000
_cell_volume 3242.695766
_symmetry_space_group_name_H-M "P B C M"
_symmetry_group_IT_number 57
_symmetry_cell_setting 'orthorhombic'
loop_
_space_group_symop_operation_xyz
x,y,z
-x,-y,1/2+z
x,1/2-y,-z
-x,1/2+y,1/2-z
-x,-y,-z
x,y,1/2-z
-x,1/2+y,z
x,1/2-y,1/2+z
loop_
_atom_site_type_symbol
_atom_site_label
_atom_site_fract_x
_atom_site_fract_y
_atom_site_fract_z
Si Si1 0.122975 0.475630 0.418280
Si Si2 0.360990 0.844690 0.078068
Si Si3 0.098076 0.655892 0.579656
Si Si4 0.028112 0.340173 0.416096
Si Si5 0.322992 0.483716 0.081625
Si Si6 0.478831 0.913026 0.412642
Si Si7 0.592687 0.664720 0.589513
Si Si8 0.775749 0.847434 0.418102
O O1 0.127232 0.503105 0.250000
O O2 0.131124 0.568712 0.513312
O O3 0.064356 0.430005 0.456294
O O4 0.169000 0.401042 0.461853
O O5 0.355232 0.834833 0.250000
O O6 0.423120 0.867909 0.027741
O O7 0.343003 0.750000 0.000000
O O8 0.320330 0.924401 0.017910
O O9 0.118153 0.750000 0.500000
O O10 0.109494 0.664287 0.750000
O O11 0.034433 0.637965 0.543894
O O12 0.050113 0.250000 0.500000
O O13 0.034831 0.314450 0.250000
O O14 0.320348 0.512597 0.250000
O O15 0.380346 0.432985 0.040520
O O16 0.274159 0.414738 0.038658
O O17 0.469039 0.947519 0.250000
O O18 0.527005 0.836553 0.421150
O O19 0.500000 0.000000 0.500000
O O20 0.616891 0.750000 0.500000
O O21 0.613297 0.684553 0.750000
O O22 0.771396 0.750000 0.500000
O O23 0.774781 0.823966 0.250000
#
# Coordination Sequence:
#
# PCOD8232294 Si02
#       8
#     8   8   8   8   8   8   8   8
#     4  10  20  35  54  80 113 147 185 230 278 328
#     4  11  23  38  59  85 112 146 186 228 276 329
#     4  10  20  34  53  79 110 148 189 228 275 328
#     4   9  18  31  50  78 113 149 185 227 274 329
#     4  10  21  39  59  80 110 144 182 228 274 321
#     4  10  20  34  53  80 111 146 181 218 267 322
#     4  10  20  33  52  78 108 141 175 214 262 315
#     4  10  22  39  61  87 114 145 181 226 278 329
#
# _framework density 19.736666
#
# number of rings (size 3 to 8) (size 9 to 14) (size 15 to 20)
#    0.000    2.000    1.250    2.250    0.000    3.500 
#    0.000    0.625    0.000    0.000    0.000    0.000 
#    0.000    0.000    0.000    0.000    0.000    0.000 
#
# Total GULP energy -793655.626115 kJ/mol
# GULP energy per Si atom -12400.869158 kJ/mol
# Density = 1.969174 g / cm^3
# Si number density = 19.736666 Si / 1000 Ang^3
#
#
#
# Elastic Constant Matrix: (Units=GPa)
#
#
# Indices 1 2 3 4 5 6 
#
# 1 64.4935 40.3511 27.5451 0.0000 0.0000 0.0000
# 2 40.3511 160.9347 79.6025 0.0000 0.0000 0.0000
# 3 27.5451 79.6025 86.6259 0.0000 0.0000 0.0000
# 4 0.0000 0.0000 0.0000 45.3465 0.0000 0.0000
# 5 0.0000 0.0000 0.0000 0.0000 20.6177 0.0000
# 6 0.0000 0.0000 0.0000 0.0000 0.0000 24.0507
#
#
#
# Elastic Compliance Matrix: (Units=1/GPa)
#
#
# Indices 1 2 3 4 5 6 
#
# 1 0.018812 -0.003223 -0.003020 0.000000 0.000000 0.000000
# 2 -0.003223 0.011943 -0.009950 0.000000 0.000000 0.000000
# 3 -0.003020 -0.009950 0.021648 0.000000 0.000000 0.000000
# 4 0.000000 0.000000 0.000000 0.022052 0.000000 0.000000
# 5 0.000000 0.000000 0.000000 0.000000 0.048502 0.000000
# 6 0.000000 0.000000 0.000000 0.000000 0.000000 0.041579
#
#
# Mechanical properties :
#
#
# Convention : Reuss Voigt Hill
#
# Bulk Modulus (GPa) = 49.95919 67.45020 58.70469
# Shear Modulus (GPa) = 24.55855 28.97333 26.76594
#
# Velocity S-wave (km/s) = 3.53131 3.83560 3.68659
# Velocity P-wave (km/s) = 6.48033 7.33928 6.92314
#
# Compressibility (1/GPa) = 0.02001634
#
# Stress axis : x y z
#
# Youngs Moduli (GPa) = 53.15831 83.72803 46.19402
#
# Poissons Ratio (x) = 0.26984 0.13952
# Poissons Ratio (y) = 0.17132 0.45965
# Poissons Ratio (z) = 0.16055 0.83312
#
# Static dielectric constant tensor:
#      x y z
#    x 3.616460 0.000000 0.000000 
#    y 0.000000 3.478310 0.000000 
#    z 0.000000 0.000000 3.500070 
# 
# 
# High freq. dielectric constant tensor:
#      x y z
#    x 1.755780 0.000000 0.000000 
#    y 0.000000 1.772150 0.000000 
#    z 0.000000 0.000000 1.765160 
# 
# From -- ./inp_files/9317.got.cif
#   From: 2010.03.12/outbox.cif.g09.slc.cpg/sg57_5_cif.got.tgz:9317.got - 2010.04.16 15:48:40.
