data_PCOD8232874
_publ_section_title
;
Structure prediction by ZEFSAII (Michael W. Deem and Ramdas Pophale) SiO2 
 PCOD8232874
Probable space group: P B C M
;
_chemical_formula_sum "Si O2"
_cell_formula_units_Z 48
_cell_length_a 5.079816
_cell_length_b 19.416738
_cell_length_c 21.794011
_cell_angle_alpha 90.000000
_cell_angle_beta 90.000000
_cell_angle_gamma 90.000000
_cell_volume 2149.618633
_symmetry_space_group_name_H-M "P B C M"
_symmetry_group_IT_number 57
_symmetry_cell_setting 'orthorhombic'
loop_
_space_group_symop_operation_xyz
x,y,z
-x,-y,1/2+z
x,1/2-y,-z
-x,1/2+y,1/2-z
-x,-y,-z
x,y,1/2-z
-x,1/2+y,z
x,1/2-y,1/2+z
loop_
_atom_site_type_symbol
_atom_site_label
_atom_site_fract_x
_atom_site_fract_y
_atom_site_fract_z
Si Si1 0.600824 0.889903 0.999781
Si Si2 0.495418 0.886970 0.181993
Si Si3 0.017102 0.298155 0.557856
Si Si4 0.808532 0.484229 0.943172
Si Si5 0.001702 0.025371 0.819075
Si Si6 0.516076 0.270579 0.087488
O O1 0.882029 0.875326 0.963144
O O2 0.380995 0.919074 0.953549
O O3 0.636976 0.943699 0.056100
O O4 0.496414 0.815365 0.023332
O O5 0.449422 0.858708 0.250000
O O6 0.796061 0.911233 0.174088
O O7 0.414575 0.824269 0.139532
O O8 0.296027 0.950298 0.170226
O O9 0.999166 0.250000 0.500000
O O10 0.241235 0.266558 0.602301
O O11 0.732457 0.291092 0.589358
O O12 0.938899 0.473322 0.875918
O O13 0.000000 0.500000 0.000000
O O14 0.032976 0.992277 0.750000
#
# Coordination Sequence:
#
# PCOD8232874 Si02
#       6
#     8   8   8   8   8   8
#     4  10  23  37  53  93 119 156 199 238 319 356
#     4  10  20  35  58  85 115 149 200 255 299 357
#     4  10  22  34  55  80 113 155 185 235 288 366
#     4  11  23  36  63  87 129 160 195 269 301 370
#     4  10  21  38  58  85 119 160 200 244 306 365
#     4  11  20  36  58  80 119 151 190 241 297 357
#
# _framework density 22.329543000000001
#
# number of rings (size 3 to 8) (size 9 to 14) (size 15 to 20)
#    0.000    1.667    1.667    3.500   11.667    0.000 
#    0.000    0.000    0.000    2.000    0.000    0.000 
#    0.000    0.000    0.000    0.000    0.000    0.000 
#
# Total GULP energy -594781.671633 kJ/mol
# GULP energy per Si atom -12391.284826 kJ/mol
# Density = 2.227872 g / cm^3
# Si number density = 22.329543 Si / 1000 Ang^3
#
#
#
# Elastic Constant Matrix: (Units=GPa)
#
#
# Indices 1 2 3 4 5 6 
#
# 1 106.0032 2.3601 6.8610 0.0000 0.0000 0.0000
# 2 2.3601 58.7099 -1.3664 0.0000 0.0000 0.0000
# 3 6.8610 -1.3664 96.2068 0.0000 0.0000 0.0000
# 4 0.0000 0.0000 0.0000 24.0359 0.0000 0.0000
# 5 0.0000 0.0000 0.0000 0.0000 27.1829 0.0000
# 6 0.0000 0.0000 0.0000 0.0000 0.0000 13.6671
#
#
#
# Elastic Compliance Matrix: (Units=1/GPa)
#
#
# Indices 1 2 3 4 5 6 
#
# 1 0.009487 -0.000397 -0.000682 0.000000 0.000000 0.000000
# 2 -0.000397 0.017055 0.000271 0.000000 0.000000 0.000000
# 3 -0.000682 0.000271 0.010447 0.000000 0.000000 0.000000
# 4 0.000000 0.000000 0.000000 0.041604 0.000000 0.000000
# 5 0.000000 0.000000 0.000000 0.000000 0.036788 0.000000
# 6 0.000000 0.000000 0.000000 0.000000 0.000000 0.073169
#
#
# Mechanical properties :
#
#
# Convention : Reuss Voigt Hill
#
# Bulk Modulus (GPa) = 28.27184 30.73659 29.50422
# Shear Modulus (GPa) = 24.75768 29.84818 27.30293
#
# Velocity S-wave (km/s) = 3.33339 3.66007 3.50054
# Velocity P-wave (km/s) = 5.24442 5.62640 5.43877
#
# Compressibility (1/GPa) = 0.03537088
#
# Stress axis : x y z
#
# Youngs Moduli (GPa) = 105.41100 58.63328 95.72338
#
# Poissons Ratio (x) = 0.02329 0.06530
# Poissons Ratio (y) = 0.04187 -0.02590
# Poissons Ratio (z) = 0.07191 -0.01586
#
# Static dielectric constant tensor:
#      x y z
#    x 4.669470 0.000000 0.000000 
#    y 0.000000 4.231310 0.000000 
#    z 0.000000 0.000000 4.017030 
# 
# 
# High freq. dielectric constant tensor:
#      x y z
#    x 1.906600 0.000000 0.000000 
#    y 0.000000 1.860180 0.000000 
#    z 0.000000 0.000000 1.850040 
# 
# From -- ./inp_files/23669.got.cif
#   From: 2010.03.12/outbox.cif.g09.slc.cpg/sg57_12_cif.got.tgz:23669.got - 2010.04.16 15:48:40.
