data_PCOD8232761
_publ_section_title
;
Structure prediction by ZEFSAII (Michael W. Deem and Ramdas Pophale) SiO2 
 PCOD8232761
Probable space group: P B C M
;
_chemical_formula_sum "Si O2"
_cell_formula_units_Z 64
_cell_length_a 11.220297
_cell_length_b 16.132263
_cell_length_c 18.159738
_cell_angle_alpha 90.000000
_cell_angle_beta 90.000000
_cell_angle_gamma 90.000000
_cell_volume 3287.072059
_symmetry_space_group_name_H-M "P B C M"
_symmetry_group_IT_number 57
_symmetry_cell_setting 'orthorhombic'
loop_
_space_group_symop_operation_xyz
x,y,z
-x,-y,1/2+z
x,1/2-y,-z
-x,1/2+y,1/2-z
-x,-y,-z
x,y,1/2-z
-x,1/2+y,z
x,1/2-y,1/2+z
loop_
_atom_site_type_symbol
_atom_site_label
_atom_site_fract_x
_atom_site_fract_y
_atom_site_fract_z
Si Si1 0.413890 0.066022 0.165091
Si Si2 0.549978 0.893447 0.165320
Si Si3 0.043438 0.971579 0.665365
Si Si4 0.795310 0.904980 0.089691
Si Si5 0.055358 0.252719 0.582720
Si Si6 0.573427 0.279137 0.836814
Si Si7 0.829081 0.573598 0.079197
Si Si8 0.161340 0.701954 0.164278
O O1 0.379925 0.082796 0.250000
O O2 0.495566 0.142203 0.134685
O O3 0.297294 0.060674 0.116151
O O4 0.473853 0.976508 0.156586
O O5 0.593379 0.883895 0.250000
O O6 0.656974 0.903541 0.108518
O O7 0.479465 0.810361 0.140777
O O8 0.001957 0.970603 0.750000
O O9 0.116092 0.889342 0.644276
O O10 0.927743 0.988319 0.613840
O O11 0.136588 0.043966 0.651669
O O12 0.841999 0.812668 0.096863
O O13 0.817192 0.941484 0.008040
O O14 0.008202 0.250000 0.500000
O O15 0.121693 0.337208 0.602342
O O16 0.937000 0.235386 0.630930
O O17 0.583214 0.288120 0.750000
O O18 0.707125 0.285063 0.870563
O O19 0.166556 0.720002 0.250000
#
# Coordination Sequence:
#
# PCOD8232761 Si02
#       8
#     8   8   8   8   8   8   8   8
#     4  10  20  36  57  78 106 143 180 224 273 320
#     4  10  21  35  53  80 109 140 184 227 265 323
#     4  10  20  35  56  80 105 137 180 225 270 323
#     4  11  21  35  55  79 109 141 177 222 272 323
#     4   9  20  36  53  77 109 141 173 217 269 325
#     4   9  18  34  55  78 107 141 177 222 271 317
#     4  10  21  37  55  78 109 142 178 219 270 328
#     4   9  18  34  55  77 103 139 181 222 269 324
#
# _framework density 19.470215
#
# number of rings (size 3 to 8) (size 9 to 14) (size 15 to 20)
#    0.000    2.250    0.000    2.625    0.000    5.000 
#    0.000    2.500    0.000    0.000    0.000    0.000 
#    0.000    0.000    0.000    0.000    0.000    0.000 
#
# Total GULP energy -793453.988457 kJ/mol
# GULP energy per Si atom -12397.718570 kJ/mol
# Density = 1.942590 g / cm^3
# Si number density = 19.470215 Si / 1000 Ang^3
#
#
#
# Elastic Constant Matrix: (Units=GPa)
#
#
# Indices 1 2 3 4 5 6 
#
# 1 137.8758 33.5294 47.4394 0.0000 0.0000 0.0000
# 2 33.5294 81.3755 24.6094 0.0000 0.0000 0.0000
# 3 47.4394 24.6094 51.5984 0.0000 0.0000 0.0000
# 4 0.0000 0.0000 0.0000 19.1532 0.0000 0.0000
# 5 0.0000 0.0000 0.0000 0.0000 217.2211 0.0000
# 6 0.0000 0.0000 0.0000 0.0000 0.0000 74.9714
#
#
#
# Elastic Compliance Matrix: (Units=1/GPa)
#
#
# Indices 1 2 3 4 5 6 
#
# 1 0.010805 -0.001692 -0.009127 0.000000 0.000000 0.000000
# 2 -0.001692 0.014625 -0.005420 0.000000 0.000000 0.000000
# 3 -0.009127 -0.005420 0.030357 0.000000 0.000000 0.000000
# 4 0.000000 0.000000 0.000000 0.052210 0.000000 0.000000
# 5 0.000000 0.000000 0.000000 0.000000 0.004604 0.000000
# 6 0.000000 0.000000 0.000000 0.000000 0.000000 0.013338
#
#
# Mechanical properties :
#
#
# Convention : Reuss Voigt Hill
#
# Bulk Modulus (GPa) = 42.90151 53.55622 48.22886
# Shear Modulus (GPa) = 30.08696 73.28724 51.68710
#
# Velocity S-wave (km/s) = 3.93527 6.14186 5.15794
# Velocity P-wave (km/s) = 6.53688 8.82400 7.76511
#
# Compressibility (1/GPa) = 0.02330921
#
# Stress axis : x y z
#
# Youngs Moduli (GPa) = 92.55300 68.37700 32.94185
#
# Poissons Ratio (x) = 0.11568 0.30066
# Poissons Ratio (y) = 0.15658 0.17854
# Poissons Ratio (z) = 0.84472 0.37059
#
# Static dielectric constant tensor:
#      x y z
#    x 3.715840 0.000000 0.000000 
#    y 0.000000 3.932040 0.000000 
#    z 0.000000 0.000000 3.531690 
# 
# 
# High freq. dielectric constant tensor:
#      x y z
#    x 1.769310 0.000000 0.000000 
#    y 0.000000 1.757170 0.000000 
#    z 0.000000 0.000000 1.741710 
# 
# From -- ./inp_files/24597.got.cif
#   From: 2010.03.12/outbox.cif.g09.slc.cpg/sg57_13_cif.got.tgz:24597.got - 2010.04.16 15:48:40.
