data_PCOD8232248
_publ_section_title
;
Structure prediction by ZEFSAII (Michael W. Deem and Ramdas Pophale) SiO2 
 PCOD8232248
Probable space group: P B C M
;
_chemical_formula_sum "Si O2"
_cell_formula_units_Z 64
_cell_length_a 28.318314
_cell_length_b 14.026332
_cell_length_c 8.843170
_cell_angle_alpha 90.000000
_cell_angle_beta 90.000000
_cell_angle_gamma 90.000000
_cell_volume 3512.525463
_symmetry_space_group_name_H-M "P B C M"
_symmetry_group_IT_number 57
_symmetry_cell_setting 'orthorhombic'
loop_
_space_group_symop_operation_xyz
x,y,z
-x,-y,1/2+z
x,1/2-y,-z
-x,1/2+y,1/2-z
-x,-y,-z
x,y,1/2-z
-x,1/2+y,z
x,1/2-y,1/2+z
loop_
_atom_site_type_symbol
_atom_site_label
_atom_site_fract_x
_atom_site_fract_y
_atom_site_fract_z
Si Si1 0.645938 0.349152 0.925650
Si Si2 0.756065 0.348757 0.574494
Si Si3 0.020514 0.351438 0.073977
Si Si4 0.919058 0.353400 0.428372
Si Si5 0.877053 0.646511 0.928785
Si Si6 0.570808 0.024124 0.927543
Si Si7 0.831543 0.476455 0.070705
Si Si8 0.479615 0.146220 0.572279
O O1 0.632696 0.344485 0.750000
O O2 0.701022 0.367367 0.952765
O O3 0.629730 0.250000 0.000000
O O4 0.619345 0.436628 0.004068
O O5 0.772421 0.250000 0.500000
O O6 0.769097 0.344477 0.750000
O O7 0.783367 0.434264 0.494447
O O8 0.021271 0.332308 0.250000
O O9 0.070814 0.399052 0.028949
O O10 0.970530 0.402897 0.029787
O O11 0.018156 0.250000 0.000000
O O12 0.914260 0.250000 0.500000
O O13 0.914080 0.341801 0.250000
O O14 0.876466 0.417089 0.491024
O O15 0.868945 0.651906 0.750000
O O16 0.872018 0.750000 0.000000
O O17 0.836895 0.582302 0.004884
O O18 0.576165 0.008643 0.750000
O O19 0.530212 0.100524 0.967118
O O20 0.560552 0.921908 0.002793
O O21 0.828753 0.479596 0.250000
O O22 0.476197 0.250000 0.500000
O O23 0.471346 0.154685 0.750000
#
# Coordination Sequence:
#
# PCOD8232248 Si02
#       8
#     8   8   8   8   8   8   8   8
#     4  10  20  34  54  79 107 139 175 216 260 307
#     4  10  21  37  56  79 107 137 169 208 256 308
#     4   8  15  29  47  67  93 125 159 196 239 287
#     4   9  18  31  47  70 100 131 162 196 238 291
#     4  10  20  35  54  73  95 125 163 206 250 297
#     4  10  20  33  52  78 108 144 185 226 266 311
#     4  11  22  34  51  75 102 132 166 205 250 302
#     4  10  20  33  50  75 110 149 187 226 267 311
#
# _framework density 18.220507999999999
#
# number of rings (size 3 to 8) (size 9 to 14) (size 15 to 20)
#    0.000    2.250    0.000    3.000    0.000    7.000 
#    0.000    0.000    0.000    0.750    0.000    0.000 
#    0.000    0.000    0.000    0.000    0.000    0.000 
#
# Total GULP energy -793339.956141 kJ/mol
# GULP energy per Si atom -12395.936815 kJ/mol
# Density = 1.817904 g / cm^3
# Si number density = 18.220508 Si / 1000 Ang^3
#
#
#
# Elastic Constant Matrix: (Units=GPa)
#
#
# Indices 1 2 3 4 5 6 
#
# 1 72.5233 51.8076 45.9876 0.0000 0.0000 0.0000
# 2 51.8076 108.7441 52.8325 0.0000 0.0000 0.0000
# 3 45.9876 52.8325 88.9934 0.0000 0.0000 0.0000
# 4 0.0000 0.0000 0.0000 32.6752 0.0000 0.0000
# 5 0.0000 0.0000 0.0000 0.0000 28.3904 0.0000
# 6 0.0000 0.0000 0.0000 0.0000 0.0000 59.7677
#
#
#
# Elastic Compliance Matrix: (Units=1/GPa)
#
#
# Indices 1 2 3 4 5 6 
#
# 1 0.024391 -0.007725 -0.008018 0.000000 0.000000 0.000000
# 2 -0.007725 0.015370 -0.005133 0.000000 0.000000 0.000000
# 3 -0.008018 -0.005133 0.018427 0.000000 0.000000 0.000000
# 4 0.000000 0.000000 0.000000 0.030604 0.000000 0.000000
# 5 0.000000 0.000000 0.000000 0.000000 0.035223 0.000000
# 6 0.000000 0.000000 0.000000 0.000000 0.000000 0.016731
#
#
# Mechanical properties :
#
#
# Convention : Reuss Voigt Hill
#
# Bulk Modulus (GPa) = 60.83894 63.50181 62.17037
# Shear Modulus (GPa) = 26.59879 32.14222 29.37050
#
# Velocity S-wave (km/s) = 3.82491 4.20464 4.01926
# Velocity P-wave (km/s) = 7.27801 7.64849 7.46555
#
# Compressibility (1/GPa) = 0.01643684
#
# Stress axis : x y z
#
# Youngs Moduli (GPa) = 40.99789 65.06238 54.26689
#
# Poissons Ratio (x) = 0.50260 0.43513
# Poissons Ratio (y) = 0.31670 0.27854
# Poissons Ratio (z) = 0.32874 0.33395
#
# Static dielectric constant tensor:
#      x y z
#    x 3.446170 0.000000 0.000000 
#    y 0.000000 3.174780 0.000000 
#    z 0.000000 0.000000 3.325600 
# 
# 
# High freq. dielectric constant tensor:
#      x y z
#    x 1.697420 0.000000 0.000000 
#    y 0.000000 1.691580 0.000000 
#    z 0.000000 0.000000 1.719750 
# 
# From -- ./inp_files/10291.got.cif
#   From: 2010.03.12/outbox.cif.g09.slc.cpg/sg57_6_cif.got.tgz:10291.got - 2010.04.16 15:48:40.
