data_PCOD8232816
_publ_section_title
;
Structure prediction by ZEFSAII (Michael W. Deem and Ramdas Pophale) SiO2 
 PCOD8232816
Probable space group: P B C M
;
_chemical_formula_sum "Si O2"
_cell_formula_units_Z 64
_cell_length_a 23.017293
_cell_length_b 15.934979
_cell_length_c 8.709558
_cell_angle_alpha 90.000000
_cell_angle_beta 90.000000
_cell_angle_gamma 90.000000
_cell_volume 3194.492385
_symmetry_space_group_name_H-M "P B C M"
_symmetry_group_IT_number 57
_symmetry_cell_setting 'orthorhombic'
loop_
_space_group_symop_operation_xyz
x,y,z
-x,-y,1/2+z
x,1/2-y,-z
-x,1/2+y,1/2-z
-x,-y,-z
x,y,1/2-z
-x,1/2+y,z
x,1/2-y,1/2+z
loop_
_atom_site_type_symbol
_atom_site_label
_atom_site_fract_x
_atom_site_fract_y
_atom_site_fract_z
Si Si1 0.366384 0.918173 0.429792
Si Si2 0.055643 0.836759 0.068645
Si Si3 0.316387 0.335766 0.423377
Si Si4 0.863743 0.006662 0.569961
Si Si5 0.570252 0.572438 0.927004
Si Si6 0.468217 0.665064 0.069099
Si Si7 0.260325 0.994938 0.931335
Si Si8 0.929228 0.837086 0.931702
O O1 0.365946 0.900273 0.250000
O O2 0.401389 0.843981 0.515167
O O3 0.300479 0.923149 0.491668
O O4 0.400822 0.002138 0.469528
O O5 0.050240 0.826736 0.250000
O O6 0.094345 0.916807 0.023312
O O7 0.082145 0.750000 0.000000
O O8 0.992683 0.853397 0.998697
O O9 0.296552 0.250000 0.500000
O O10 0.296064 0.327873 0.250000
O O11 0.386026 0.348195 0.436469
O O12 0.281356 0.414466 0.496078
O O13 0.850006 0.007926 0.750000
O O14 0.805557 0.021817 0.475282
O O15 0.890285 0.916880 0.520533
O O16 0.563784 0.541826 0.750000
O O17 0.507401 0.591270 0.997674
O O18 0.473666 0.665237 0.250000
O O19 0.493983 0.750000 0.000000
O O20 0.269747 0.989648 0.750000
O O21 0.933544 0.828325 0.750000
O O22 0.902935 0.750000 0.000000
#
# Coordination Sequence:
#
# PCOD8232816 Si02
#       8
#     8   8   8   8   8   8   8   8
#     4  11  22  39  60  80 106 143 182 224 275 329
#     4  10  20  36  58  85 116 148 188 234 283 335
#     4   9  19  33  51  76 107 141 178 221 270 325
#     4  10  22  38  57  83 114 150 191 236 282 334
#     4  10  20  36  56  82 112 142 180 223 271 331
#     4  12  24  38  56  82 112 141 177 223 276 332
#     4  10  22  39  57  79 107 143 188 234 276 328
#     4  10  20  35  56  85 121 156 190 227 275 332
#
# _framework density 20.034482000000001
#
# number of rings (size 3 to 8) (size 9 to 14) (size 15 to 20)
#    0.000    1.750    0.000    6.375    0.000    6.500 
#    0.000    3.125    0.000    1.500    0.000    0.000 
#    0.000    0.000    0.000    0.000    0.000    0.000 
#
# Total GULP energy -793578.604688 kJ/mol
# GULP energy per Si atom -12399.665698 kJ/mol
# Density = 1.998888 g / cm^3
# Si number density = 20.034482 Si / 1000 Ang^3
#
#
#
# Elastic Constant Matrix: (Units=GPa)
#
#
# Indices 1 2 3 4 5 6 
#
# 1 98.3021 31.0083 30.6370 0.0000 0.0000 0.0000
# 2 31.0083 79.5406 22.8328 0.0000 0.0000 0.0000
# 3 30.6370 22.8328 85.2269 0.0000 0.0000 0.0000
# 4 0.0000 0.0000 0.0000 30.2208 0.0000 0.0000
# 5 0.0000 0.0000 0.0000 0.0000 33.9651 0.0000
# 6 0.0000 0.0000 0.0000 0.0000 0.0000 22.8613
#
#
#
# Elastic Compliance Matrix: (Units=1/GPa)
#
#
# Indices 1 2 3 4 5 6 
#
# 1 0.012467 -0.003872 -0.003445 0.000000 0.000000 0.000000
# 2 -0.003872 0.014822 -0.002579 0.000000 0.000000 0.000000
# 3 -0.003445 -0.002579 0.013663 0.000000 0.000000 0.000000
# 4 0.000000 0.000000 0.000000 0.033090 0.000000 0.000000
# 5 0.000000 0.000000 0.000000 0.000000 0.029442 0.000000
# 6 0.000000 0.000000 0.000000 0.000000 0.000000 0.043742
#
#
# Mechanical properties :
#
#
# Convention : Reuss Voigt Hill
#
# Bulk Modulus (GPa) = 47.25576 48.00286 47.62931
# Shear Modulus (GPa) = 28.72405 29.31553 29.01979
#
# Velocity S-wave (km/s) = 3.79057 3.82940 3.81004
# Velocity P-wave (km/s) = 6.54189 6.60034 6.57118
#
# Compressibility (1/GPa) = 0.02116144
#
# Stress axis : x y z
#
# Youngs Moduli (GPa) = 80.20856 67.46792 73.19264
#
# Poissons Ratio (x) = 0.26121 0.25211
# Poissons Ratio (y) = 0.31053 0.18877
# Poissons Ratio (z) = 0.27628 0.17401
#
# Static dielectric constant tensor:
#      x y z
#    x 3.627740 0.000000 0.000000 
#    y 0.000000 3.857460 0.000000 
#    z 0.000000 0.000000 3.608470 
# 
# 
# High freq. dielectric constant tensor:
#      x y z
#    x 1.773340 0.000000 0.000000 
#    y 0.000000 1.781040 0.000000 
#    z 0.000000 0.000000 1.788450 
# 
# From -- ./inp_files/9435.got.cif
#   From: 2010.03.12/outbox.cif.g09.slc.cpg/sg57_5_cif.got.tgz:9435.got - 2010.04.16 15:48:40.
