data_PCOD8232916
_publ_section_title
;
Structure prediction by ZEFSAII (Michael W. Deem and Ramdas Pophale) SiO2 
 PCOD8232916
Probable space group: P B C M
;
_chemical_formula_sum "Si O2"
_cell_formula_units_Z 64
_cell_length_a 23.232298
_cell_length_b 15.362241
_cell_length_c 8.998582
_cell_angle_alpha 90.000000
_cell_angle_beta 90.000000
_cell_angle_gamma 90.000000
_cell_volume 3211.595363
_symmetry_space_group_name_H-M "P B C M"
_symmetry_group_IT_number 57
_symmetry_cell_setting 'orthorhombic'
loop_
_space_group_symop_operation_xyz
x,y,z
-x,-y,1/2+z
x,1/2-y,-z
-x,1/2+y,1/2-z
-x,-y,-z
x,y,1/2-z
-x,1/2+y,z
x,1/2-y,1/2+z
loop_
_atom_site_type_symbol
_atom_site_label
_atom_site_fract_x
_atom_site_fract_y
_atom_site_fract_z
Si Si1 0.315400 0.160426 0.927327
Si Si2 0.129395 0.999456 0.420239
Si Si3 0.674929 0.162687 0.423710
Si Si4 0.438772 0.095971 0.575598
Si Si5 0.945467 0.338110 0.424157
Si Si6 0.922519 0.838555 0.424471
Si Si7 0.449186 0.898920 0.920859
Si Si8 0.262728 0.503416 0.921616
O O1 0.308920 0.162953 0.750000
O O2 0.381269 0.144355 0.978324
O O3 0.294086 0.250000 0.000000
O O4 0.274923 0.085517 0.991858
O O5 0.112424 0.019814 0.250000
O O6 0.092522 0.918448 0.482434
O O7 0.195751 0.974276 0.435032
O O8 0.116615 0.083274 0.518797
O O9 0.699074 0.250000 0.500000
O O10 0.690817 0.161754 0.250000
O O11 0.606252 0.160635 0.448516
O O12 0.702694 0.080253 0.501307
O O13 0.444254 0.102503 0.750000
O O14 0.495688 0.140646 0.506476
O O15 0.434679 0.996070 0.521013
O O16 0.922951 0.250000 0.500000
O O17 0.937912 0.325242 0.250000
O O18 0.011379 0.357100 0.468857
O O19 0.900584 0.750000 0.500000
O O20 0.914458 0.828487 0.250000
O O21 0.466489 0.902471 0.750000
O O22 0.281746 0.494785 0.750000
#
# Coordination Sequence:
#
# PCOD8232916 Si02
#       8
#     8   8   8   8   8   8   8   8
#     4  11  23  41  62  86 116 151 194 242 293 350
#     4  10  22  39  59  85 118 152 194 243 287 339
#     4  11  23  41  62  86 117 153 195 242 291 347
#     4   9  18  34  56  83 114 147 183 230 288 347
#     4   9  19  36  58  87 122 155 189 234 283 338
#     4  10  20  35  59  89 120 156 193 231 284 340
#     4   9  18  34  56  83 114 148 184 229 287 346
#     4  11  24  42  62  85 114 154 199 245 296 343
#
# _framework density 19.927792
#
# number of rings (size 3 to 8) (size 9 to 14) (size 15 to 20)
#    0.000    2.000    1.250    1.875    0.000    5.500 
#    0.000    3.750    0.000    0.000    0.000    0.000 
#    0.000    0.000    0.000    0.000    0.000    0.000 
#
# Total GULP energy -793833.934886 kJ/mol
# GULP energy per Si atom -12403.655233 kJ/mol
# Density = 1.988244 g / cm^3
# Si number density = 19.927792 Si / 1000 Ang^3
#
#
#
# Elastic Constant Matrix: (Units=GPa)
#
#
# Indices 1 2 3 4 5 6 
#
# 1 53.5450 16.6334 27.6041 0.0000 0.0000 0.0000
# 2 16.6334 103.8230 39.2512 0.0000 0.0000 0.0000
# 3 27.6041 39.2512 79.6096 0.0000 0.0000 0.0000
# 4 0.0000 0.0000 0.0000 36.9217 0.0000 0.0000
# 5 0.0000 0.0000 0.0000 0.0000 28.0511 0.0000
# 6 0.0000 0.0000 0.0000 0.0000 0.0000 -6.2022
#
#
#
# Elastic Compliance Matrix: (Units=1/GPa)
#
#
# Indices 1 2 3 4 5 6 
#
# 1 0.022797 -0.000816 -0.007502 0.000000 0.000000 0.000000
# 2 -0.000816 0.011868 -0.005568 0.000000 0.000000 0.000000
# 3 -0.007502 -0.005568 0.017908 0.000000 0.000000 0.000000
# 4 0.000000 0.000000 0.000000 0.027084 0.000000 0.000000
# 5 0.000000 0.000000 0.000000 0.000000 0.035649 0.000000
# 6 0.000000 0.000000 0.000000 0.000000 0.000000 -0.161233
#
#
# Mechanical properties :
#
#
# Convention : Reuss Voigt Hill
#
# Bulk Modulus (GPa) = 40.32354 44.88389 42.60371
# Shear Modulus (GPa) = -505.74566 21.98670 -241.87948
#
# Velocity S-wave (km/s) = -15.94804 3.32523 -11.02912
# Velocity P-wave (km/s) = 17.85613 6.10860 11.86437
#
# Compressibility (1/GPa) = 0.02479941
#
# Stress axis : x y z
#
# Youngs Moduli (GPa) = 43.86527 84.26247 55.84035
#
# Poissons Ratio (x) = 0.06875 0.41894
# Poissons Ratio (y) = 0.03579 0.31094
# Poissons Ratio (z) = 0.32910 0.46921
#
# Static dielectric constant tensor:
#      x y z
#    x 3.608940 0.000000 0.000000 
#    y 0.000000 3.737880 0.000000 
#    z 0.000000 0.000000 3.602130 
# 
# 
# High freq. dielectric constant tensor:
#      x y z
#    x 1.772800 0.000000 0.000000 
#    y 0.000000 1.779690 0.000000 
#    z 0.000000 0.000000 1.778620 
# 
# From -- ./inp_files/9370.got.cif
#   From: 2010.03.12/outbox.cif.g09.slc.cpg/sg57_5_cif.got.tgz:9370.got - 2010.04.16 15:48:40.
