data_PCOD8232158
_publ_section_title
;
Structure prediction by ZEFSAII (Michael W. Deem and Ramdas Pophale) SiO2 
 PCOD8232158
Probable space group: P B C M
;
_chemical_formula_sum "Si O2"
_cell_formula_units_Z 56
_cell_length_a 15.106232
_cell_length_b 20.600667
_cell_length_c 8.907011
_cell_angle_alpha 90.000000
_cell_angle_beta 90.000000
_cell_angle_gamma 90.000000
_cell_volume 2771.848062
_symmetry_space_group_name_H-M "P B C M"
_symmetry_group_IT_number 57
_symmetry_cell_setting 'orthorhombic'
loop_
_space_group_symop_operation_xyz
x,y,z
-x,-y,1/2+z
x,1/2-y,-z
-x,1/2+y,1/2-z
-x,-y,-z
x,y,1/2-z
-x,1/2+y,z
x,1/2-y,1/2+z
loop_
_atom_site_type_symbol
_atom_site_label
_atom_site_fract_x
_atom_site_fract_y
_atom_site_fract_z
Si Si1 0.719158 0.622347 0.584563
Si Si2 0.542736 0.816414 0.073435
Si Si3 0.919954 0.456036 0.069048
Si Si4 0.265265 0.522362 0.419844
Si Si5 0.060571 0.683503 0.421168
Si Si6 0.560732 0.055699 0.572571
Si Si7 0.147783 0.311440 0.914037
O O1 0.740691 0.648317 0.750000
O O2 0.640049 0.664237 0.511528
O O3 0.689923 0.548080 0.590213
O O4 0.810145 0.625570 0.490836
O O5 0.546783 0.806966 0.250000
O O6 0.476970 0.874051 0.030610
O O7 0.508956 0.750000 0.000000
O O8 0.926841 0.459483 0.250000
O O9 0.826465 0.482897 0.011179
O O10 0.918347 0.380708 0.016628
O O11 0.000000 0.500000 0.000000
O O12 0.248587 0.549333 0.250000
O O13 0.339490 0.562541 0.508128
O O14 0.096932 0.750000 0.500000
O O15 0.098185 0.679127 0.250000
O O16 0.956166 0.686404 0.415591
O O17 0.564024 0.042784 0.750000
O O18 0.500000 0.000000 0.500000
O O19 0.186994 0.307486 0.750000
O O20 0.186596 0.250000 0.000000
#
# Coordination Sequence:
#
# PCOD8232158 Si02
#       7
#     8   8   8   8   8   8   8
#     4  10  20  35  54  81 118 155 195 248 308 373
#     4  10  22  39  58  87 123 161 204 255 311 370
#     4  12  25  42  64  95 131 170 216 269 325 385
#     4  11  23  41  64  92 123 160 208 262 321 382
#     4  10  21  39  61  86 119 163 212 265 325 385
#     4  11  22  41  65  91 124 163 210 258 309 374
#     4  10  20  32  50  78 112 152 198 244 300 370
#
# _framework density 20.203128
#
# number of rings (size 3 to 8) (size 9 to 14) (size 15 to 20)
#    0.000    1.429    1.429    4.286    0.000    8.000 
#    0.000    0.714    0.000    1.714    0.000    0.000 
#    0.000    0.000    0.000    0.000    0.000    0.000 
#
# Total GULP energy -694008.723263 kJ/mol
# GULP energy per Si atom -12393.012915 kJ/mol
# Density = 2.015714 g / cm^3
# Si number density = 20.203128 Si / 1000 Ang^3
#
#
#
# Elastic Constant Matrix: (Units=GPa)
#
#
# Indices 1 2 3 4 5 6 
#
# 1 87.6482 39.7825 55.0247 0.0000 0.0000 0.0000
# 2 39.7825 123.9521 47.4691 0.0000 0.0000 0.0000
# 3 55.0247 47.4691 134.3448 0.0000 0.0000 0.0000
# 4 0.0000 0.0000 0.0000 35.0009 0.0000 0.0000
# 5 0.0000 0.0000 0.0000 0.0000 30.5215 0.0000
# 6 0.0000 0.0000 0.0000 0.0000 0.0000 30.1756
#
#
#
# Elastic Compliance Matrix: (Units=1/GPa)
#
#
# Indices 1 2 3 4 5 6 
#
# 1 0.016326 -0.003098 -0.005592 0.000000 0.000000 0.000000
# 2 -0.003098 0.009918 -0.002235 0.000000 0.000000 0.000000
# 3 -0.005592 -0.002235 0.010524 0.000000 0.000000 0.000000
# 4 0.000000 0.000000 0.000000 0.028571 0.000000 0.000000
# 5 0.000000 0.000000 0.000000 0.000000 0.032764 0.000000
# 6 0.000000 0.000000 0.000000 0.000000 0.000000 0.033139
#
#
# Mechanical properties :
#
#
# Convention : Reuss Voigt Hill
#
# Bulk Modulus (GPa) = 67.04034 70.05530 68.54782
# Shear Modulus (GPa) = 31.63239 32.71753 32.17496
#
# Velocity S-wave (km/s) = 3.96121 4.02858 3.99504
# Velocity P-wave (km/s) = 7.36049 7.50933 7.43528
#
# Compressibility (1/GPa) = 0.01491639
#
# Stress axis : x y z
#
# Youngs Moduli (GPa) = 61.25117 100.82536 95.02272
#
# Poissons Ratio (x) = 0.31239 0.53138
# Poissons Ratio (y) = 0.18978 0.21242
# Poissons Ratio (z) = 0.34252 0.22539
#
# Static dielectric constant tensor:
#      x y z
#    x 3.533890 0.000000 0.000000 
#    y 0.000000 3.968460 0.000000 
#    z 0.000000 0.000000 3.907640 
# 
# 
# High freq. dielectric constant tensor:
#      x y z
#    x 1.778250 0.000000 0.000000 
#    y 0.000000 1.791600 0.000000 
#    z 0.000000 0.000000 1.799080 
# 
# From -- ./inp_files/5113.got.cif
#   From: 2010.03.12/outbox.cif.g09.slc.cpg/sg57_3_cif.got.tgz:5113.got - 2010.04.16 15:48:40.
