data_PCOD8232565
_publ_section_title
;
Structure prediction by ZEFSAII (Michael W. Deem and Ramdas Pophale) SiO2 
 PCOD8232565
Probable space group: P B C M
;
_chemical_formula_sum "Si O2"
_cell_formula_units_Z 64
_cell_length_a 11.838001
_cell_length_b 31.367688
_cell_length_c 8.868641
_cell_angle_alpha 90.000000
_cell_angle_beta 90.000000
_cell_angle_gamma 90.000000
_cell_volume 3293.198865
_symmetry_space_group_name_H-M "P B C M"
_symmetry_group_IT_number 57
_symmetry_cell_setting 'orthorhombic'
loop_
_space_group_symop_operation_xyz
x,y,z
-x,-y,1/2+z
x,1/2-y,-z
-x,1/2+y,1/2-z
-x,-y,-z
x,y,1/2-z
-x,1/2+y,z
x,1/2-y,1/2+z
loop_
_atom_site_type_symbol
_atom_site_label
_atom_site_fract_x
_atom_site_fract_y
_atom_site_fract_z
Si Si1 0.879185 0.498499 0.924431
Si Si2 0.137445 0.078570 0.416472
Si Si3 0.947050 0.793254 0.073435
Si Si4 0.501284 0.547155 0.925746
Si Si5 0.639398 0.621543 0.078488
Si Si6 0.920397 0.367832 0.923031
Si Si7 0.748883 0.423942 0.423784
Si Si8 0.686762 0.705578 0.927743
O O1 0.886485 0.486878 0.750000
O O2 0.827704 0.545352 0.953119
O O3 0.797731 0.466485 0.006587
O O4 0.000000 0.500000 0.000000
O O5 0.147420 0.057228 0.250000
O O6 0.224277 0.117710 0.426557
O O7 0.008614 0.093390 0.440031
O O8 0.958742 0.789322 0.250000
O O9 0.817377 0.802068 0.027486
O O10 0.990466 0.750000 0.000000
O O11 0.032036 0.828945 0.017134
O O12 0.530861 0.540814 0.750000
O O13 0.384657 0.572769 0.946118
O O14 0.500000 0.500000 0.000000
O O15 0.590688 0.578772 0.002719
O O16 0.594701 0.624803 0.250000
O O17 0.612626 0.665887 0.991998
O O18 0.904632 0.354206 0.750000
O O19 0.800003 0.382892 0.989883
O O20 0.783649 0.420382 0.250000
O O21 0.668237 0.708049 0.750000
O O22 0.643674 0.750000 0.000000
#
# Coordination Sequence:
#
# PCOD8232565 Si02
#       8
#     8   8   8   8   8   8   8   8
#     4  12  23  34  52  77 109 146 186 231 281 337
#     4  10  21  35  52  80 115 149 188 233 283 338
#     4  10  20  34  55  84 122 161 197 236 288 350
#     4  11  25  44  64  87 116 154 203 255 303 357
#     4  11  22  38  61  86 118 156 196 244 296 352
#     4  11  21  35  57  84 117 151 190 235 286 347
#     4  11  24  41  59  81 113 150 193 241 289 341
#     4  10  20  34  56  87 123 159 197 242 295 354
#
# _framework density 19.433992
#
# number of rings (size 3 to 8) (size 9 to 14) (size 15 to 20)
#    0.000    1.250    2.500    4.125    0.000    7.500 
#    0.000    0.000    0.000    0.750    0.000    0.000 
#    0.000    0.000    0.000    0.000    0.000    0.000 
#
# Total GULP energy -793507.133191 kJ/mol
# GULP energy per Si atom -12398.548956 kJ/mol
# Density = 1.938976 g / cm^3
# Si number density = 19.433992 Si / 1000 Ang^3
#
#
#
# Elastic Constant Matrix: (Units=GPa)
#
#
# Indices 1 2 3 4 5 6 
#
# 1 48.7049 22.1335 36.9971 0.0000 0.0000 0.0000
# 2 22.1335 120.3286 42.2263 0.0000 0.0000 0.0000
# 3 36.9971 42.2263 89.0339 0.0000 0.0000 0.0000
# 4 0.0000 0.0000 0.0000 41.0181 0.0000 0.0000
# 5 0.0000 0.0000 0.0000 0.0000 25.2329 0.0000
# 6 0.0000 0.0000 0.0000 0.0000 0.0000 32.5419
#
#
#
# Elastic Compliance Matrix: (Units=1/GPa)
#
#
# Indices 1 2 3 4 5 6 
#
# 1 0.030192 -0.001381 -0.011891 0.000000 0.000000 0.000000
# 2 -0.001381 0.010033 -0.004185 0.000000 0.000000 0.000000
# 3 -0.011891 -0.004185 0.018158 0.000000 0.000000 0.000000
# 4 0.000000 0.000000 0.000000 0.024379 0.000000 0.000000
# 5 0.000000 0.000000 0.000000 0.000000 0.039631 0.000000
# 6 0.000000 0.000000 0.000000 0.000000 0.000000 0.030730
#
#
# Mechanical properties :
#
#
# Convention : Reuss Voigt Hill
#
# Bulk Modulus (GPa) = 42.60826 51.19791 46.90309
# Shear Modulus (GPa) = 25.52863 30.20595 27.86729
#
# Velocity S-wave (km/s) = 3.62830 3.94672 3.79086
# Velocity P-wave (km/s) = 6.28689 6.86808 6.58390
#
# Compressibility (1/GPa) = 0.02346963
#
# Stress axis : x y z
#
# Youngs Moduli (GPa) = 33.12143 99.67067 55.07354
#
# Poissons Ratio (x) = 0.13762 0.65488
# Poissons Ratio (y) = 0.04573 0.23046
# Poissons Ratio (z) = 0.39385 0.41709
#
# Static dielectric constant tensor:
#      x y z
#    x 3.396240 0.000000 0.000000 
#    y 0.000000 3.553710 0.000000 
#    z 0.000000 0.000000 3.726460 
# 
# 
# High freq. dielectric constant tensor:
#      x y z
#    x 1.729330 0.000000 0.000000 
#    y 0.000000 1.757980 0.000000 
#    z 0.000000 0.000000 1.772680 
# 
# From -- ./inp_files/3834.got.cif
#   From: 2010.03.12/outbox.cif.g09.slc.cpg/sg57_2_cif.got.tgz:3834.got - 2010.04.16 15:48:40.
