data_PCOD8232461
_publ_section_title
;
Structure prediction by ZEFSAII (Michael W. Deem and Ramdas Pophale) SiO2 
 PCOD8232461
Probable space group: P B C M
;
_chemical_formula_sum "Si O2"
_cell_formula_units_Z 60
_cell_length_a 11.205055
_cell_length_b 18.698281
_cell_length_c 14.396235
_cell_angle_alpha 90.000000
_cell_angle_beta 90.000000
_cell_angle_gamma 90.000000
_cell_volume 3016.231020
_symmetry_space_group_name_H-M "P B C M"
_symmetry_group_IT_number 57
_symmetry_cell_setting 'orthorhombic'
loop_
_space_group_symop_operation_xyz
x,y,z
-x,-y,1/2+z
x,1/2-y,-z
-x,1/2+y,1/2-z
-x,-y,-z
x,y,1/2-z
-x,1/2+y,z
x,1/2-y,1/2+z
loop_
_atom_site_type_symbol
_atom_site_label
_atom_site_fract_x
_atom_site_fract_y
_atom_site_fract_z
Si Si1 0.173913 0.991482 0.140915
Si Si2 0.327314 0.116578 0.148346
Si Si3 0.699279 0.599203 0.648340
Si Si4 0.898746 0.006147 0.358810
Si Si5 0.431080 0.237818 0.862418
Si Si6 0.541331 0.023540 0.400211
Si Si7 0.756018 0.102721 0.022878
Si Si8 0.644456 0.250000 0.000000
O O1 0.206247 0.981281 0.250000
O O2 0.218337 0.070396 0.104668
O O3 0.033814 0.983303 0.123595
O O4 0.241983 0.931852 0.080423
O O5 0.286605 0.140493 0.250000
O O6 0.365247 0.190337 0.098263
O O7 0.437990 0.062183 0.156292
O O8 0.742422 0.621736 0.750000
O O9 0.812198 0.557964 0.601422
O O10 0.651607 0.671992 0.600241
O O11 0.586666 0.545797 0.654933
O O12 0.873143 0.020811 0.250000
O O13 0.873230 0.077846 0.418895
O O14 0.448574 0.236948 0.750000
O O15 0.561047 0.234359 0.910333
O O16 0.646959 0.079283 0.412811
O O17 0.500000 0.000000 0.500000
O O18 0.740108 0.186953 0.013852
#
# Coordination Sequence:
#
# PCOD8232461 Si02
#       8
#     8   8   8   8   8   8   8   4
#     4  10  21  38  60  85 112 148 193 241 284 332
#     4  10  20  34  53  80 113 146 185 229 283 342
#     4   9  19  34  54  77 105 143 185 228 278 333
#     4   9  20  39  62  85 109 145 196 244 284 330
#     4  10  22  36  52  80 117 151 182 227 287 351
#     4  11  18  31  51  80 107 140 182 230 281 330
#     4  11  22  36  58  80 115 149 189 232 283 341
#     4  12  24  38  54  82 120 156 180 228 286 350
#
# _framework density 19.892374
#
# number of rings (size 3 to 8) (size 9 to 14) (size 15 to 20)
#    0.000    1.867    2.667    1.600    0.000    1.600 
#    0.000    1.333    0.000    3.200    0.000    0.000 
#    0.000    0.000    0.000    0.000    0.000    0.000 
#
# Total GULP energy -743297.755845 kJ/mol
# GULP energy per Si atom -12388.295931 kJ/mol
# Density = 1.984710 g / cm^3
# Si number density = 19.892374 Si / 1000 Ang^3
#
#
#
# Elastic Constant Matrix: (Units=GPa)
#
#
# Indices 1 2 3 4 5 6 
#
# 1 82.9258 50.6617 15.6869 0.0000 0.0000 0.0000
# 2 50.6617 156.0111 21.5507 0.0000 0.0000 0.0000
# 3 15.6869 21.5507 69.9980 0.0000 0.0000 0.0000
# 4 0.0000 0.0000 0.0000 22.0041 0.0000 0.0000
# 5 0.0000 0.0000 0.0000 0.0000 19.6334 0.0000
# 6 0.0000 0.0000 0.0000 0.0000 0.0000 21.9400
#
#
#
# Elastic Compliance Matrix: (Units=1/GPa)
#
#
# Indices 1 2 3 4 5 6 
#
# 1 0.015303 -0.004695 -0.001984 0.000000 0.000000 0.000000
# 2 -0.004695 0.008135 -0.001452 0.000000 0.000000 0.000000
# 3 -0.001984 -0.001452 0.015178 0.000000 0.000000 0.000000
# 4 0.000000 0.000000 0.000000 0.045446 0.000000 0.000000
# 5 0.000000 0.000000 0.000000 0.000000 0.050934 0.000000
# 6 0.000000 0.000000 0.000000 0.000000 0.000000 0.045579
#
#
# Mechanical properties :
#
#
# Convention : Reuss Voigt Hill
#
# Bulk Modulus (GPa) = 44.73724 53.85928 49.29826
# Shear Modulus (GPa) = 24.47524 27.45121 25.96322
#
# Velocity S-wave (km/s) = 3.51149 3.71885 3.61665
# Velocity P-wave (km/s) = 6.24333 6.75084 6.50204
#
# Compressibility (1/GPa) = 0.02235274
#
# Stress axis : x y z
#
# Youngs Moduli (GPa) = 65.34792 122.92396 65.88540
#
# Poissons Ratio (x) = 0.57716 0.13071
# Poissons Ratio (y) = 0.30682 0.09569
# Poissons Ratio (z) = 0.12964 0.17853
#
# Static dielectric constant tensor:
#      x y z
#    x 3.725510 0.000000 0.000000 
#    y 0.000000 3.775220 0.000000 
#    z 0.000000 0.000000 3.352270 
# 
# 
# High freq. dielectric constant tensor:
#      x y z
#    x 1.759770 0.000000 0.000000 
#    y 0.000000 1.766180 0.000000 
#    z 0.000000 0.000000 1.781990 
# 
# From -- ./inp_files/17926.got.cif
#   From: 2010.03.12/outbox.cif.g09.slc.cpg/sg57_9_cif.got.tgz:17926.got - 2010.04.16 15:48:40.
