data_PCOD8232908
_publ_section_title
;
Structure prediction by ZEFSAII (Michael W. Deem and Ramdas Pophale) SiO2 
 PCOD8232908
Probable space group: P B C M
;
_chemical_formula_sum "Si O2"
_cell_formula_units_Z 56
_cell_length_a 21.016391
_cell_length_b 15.374322
_cell_length_c 8.624354
_cell_angle_alpha 90.000000
_cell_angle_beta 90.000000
_cell_angle_gamma 90.000000
_cell_volume 2786.638846
_symmetry_space_group_name_H-M "P B C M"
_symmetry_group_IT_number 57
_symmetry_cell_setting 'orthorhombic'
loop_
_space_group_symop_operation_xyz
x,y,z
-x,-y,1/2+z
x,1/2-y,-z
-x,1/2+y,1/2-z
-x,-y,-z
x,y,1/2-z
-x,1/2+y,z
x,1/2-y,1/2+z
loop_
_atom_site_type_symbol
_atom_site_label
_atom_site_fract_x
_atom_site_fract_y
_atom_site_fract_z
Si Si1 0.507323 0.905304 0.933134
Si Si2 0.857075 0.008592 0.070541
Si Si3 0.626926 0.339405 0.932532
Si Si4 0.078458 0.343427 0.934534
Si Si5 0.059230 0.841807 0.066510
Si Si6 0.709218 0.499713 0.928753
Si Si7 0.642036 0.840619 0.932035
O O1 0.510536 0.913310 0.750000
O O2 0.446382 0.849279 0.986186
O O3 0.571671 0.862087 0.999776
O O4 0.500000 0.000000 0.000000
O O5 0.877681 0.014415 0.250000
O O6 0.782528 0.023511 0.049214
O O7 0.890905 0.083458 0.972375
O O8 0.874041 0.914560 0.003081
O O9 0.633978 0.336232 0.750000
O O10 0.668287 0.419685 0.997473
O O11 0.654565 0.250000 0.000000
O O12 0.082081 0.342838 0.750000
O O13 0.099754 0.250000 0.000000
O O14 0.007380 0.366778 0.987835
O O15 0.049626 0.834074 0.250000
O O16 0.084475 0.750000 0.000000
O O17 0.691937 0.516612 0.750000
O O18 0.692421 0.585890 0.023149
O O19 0.639145 0.832066 0.750000
O O20 0.666619 0.750000 0.000000
#
# Coordination Sequence:
#
# PCOD8232908 Si02
#       7
#     8   8   8   8   8   8   8
#     4  10  20  35  59  87 116 148 189 240 296 350
#     4  11  23  40  61  87 119 159 203 244 296 351
#     4  10  21  38  59  85 115 150 191 238 292 348
#     4  11  22  39  63  92 123 156 195 244 297 350
#     4  11  22  39  63  92 124 158 196 243 294 347
#     4  10  23  42  61  82 116 158 198 246 291 343
#     4  11  23  38  60  88 116 153 195 242 297 354
#
# _framework density 20.095894000000001
#
# number of rings (size 3 to 8) (size 9 to 14) (size 15 to 20)
#    0.000    1.429    1.429    5.143    0.000    4.000 
#    0.000    1.429    0.000    0.000    0.000    0.000 
#    0.000    0.000    0.000    0.000    0.000    0.000 
#
# Total GULP energy -694668.106198 kJ/mol
# GULP energy per Si atom -12404.787611 kJ/mol
# Density = 2.005016 g / cm^3
# Si number density = 20.095894 Si / 1000 Ang^3
#
#
#
# Elastic Constant Matrix: (Units=GPa)
#
#
# Indices 1 2 3 4 5 6 
#
# 1 56.2459 21.4282 17.7111 0.0000 0.0000 0.0000
# 2 21.4282 122.3162 19.6662 0.0000 0.0000 0.0000
# 3 17.7111 19.6662 60.7779 0.0000 0.0000 0.0000
# 4 0.0000 0.0000 0.0000 40.0109 0.0000 0.0000
# 5 0.0000 0.0000 0.0000 0.0000 25.1189 0.0000
# 6 0.0000 0.0000 0.0000 0.0000 0.0000 14.2040
#
#
#
# Elastic Compliance Matrix: (Units=1/GPa)
#
#
# Indices 1 2 3 4 5 6 
#
# 1 0.020425 -0.002765 -0.005057 0.000000 0.000000 0.000000
# 2 -0.002765 0.008999 -0.002106 0.000000 0.000000 0.000000
# 3 -0.005057 -0.002106 0.018609 0.000000 0.000000 0.000000
# 4 0.000000 0.000000 0.000000 0.024993 0.000000 0.000000
# 5 0.000000 0.000000 0.000000 0.000000 0.039811 0.000000
# 6 0.000000 0.000000 0.000000 0.000000 0.000000 0.070403
#
#
# Mechanical properties :
#
#
# Convention : Reuss Voigt Hill
#
# Bulk Modulus (GPa) = 35.49188 39.66120 37.57654
# Shear Modulus (GPa) = 23.53084 27.90239 25.71662
#
# Velocity S-wave (km/s) = 3.42559 3.73025 3.58116
# Velocity P-wave (km/s) = 5.77459 6.19127 5.98656
#
# Compressibility (1/GPa) = 0.02817546
#
# Stress axis : x y z
#
# Youngs Moduli (GPa) = 48.95966 111.12923 53.73888
#
# Poissons Ratio (x) = 0.30728 0.27177
# Poissons Ratio (y) = 0.13538 0.11317
# Poissons Ratio (z) = 0.24760 0.23403
#
# Static dielectric constant tensor:
#      x y z
#    x 3.660030 0.000000 0.000000 
#    y 0.000000 3.777620 0.000000 
#    z 0.000000 0.000000 3.600040 
# 
# 
# High freq. dielectric constant tensor:
#      x y z
#    x 1.779750 0.000000 0.000000 
#    y 0.000000 1.798530 0.000000 
#    z 0.000000 0.000000 1.786630 
# 
# From -- ./inp_files/8044.got.cif
#   From: 2010.03.12/outbox.cif.g09.slc.cpg/sg57_5_cif.got.tgz:8044.got - 2010.04.16 15:48:40.
