data_PCOD8232102
_publ_section_title
;
Structure prediction by ZEFSAII (Michael W. Deem and Ramdas Pophale) SiO2 
 PCOD8232102
Probable space group: P B C M
;
_chemical_formula_sum "Si O2"
_cell_formula_units_Z 52
_cell_length_a 11.843769
_cell_length_b 8.753076
_cell_length_c 25.847426
_cell_angle_alpha 90.000000
_cell_angle_beta 90.000000
_cell_angle_gamma 90.000000
_cell_volume 2679.587408
_symmetry_space_group_name_H-M "P B C M"
_symmetry_group_IT_number 57
_symmetry_cell_setting 'orthorhombic'
loop_
_space_group_symop_operation_xyz
x,y,z
-x,-y,1/2+z
x,1/2-y,-z
-x,1/2+y,1/2-z
-x,-y,-z
x,y,1/2-z
-x,1/2+y,z
x,1/2-y,1/2+z
loop_
_atom_site_type_symbol
_atom_site_label
_atom_site_fract_x
_atom_site_fract_y
_atom_site_fract_z
Si Si1 0.033495 0.358410 0.750000
Si Si2 0.849992 0.539680 0.354818
Si Si3 0.656970 0.140328 0.809061
Si Si4 0.246374 0.137153 0.641930
Si Si5 0.567721 0.023821 0.310012
Si Si6 0.850407 0.932289 0.250000
Si Si7 0.065087 0.501960 0.072546
Si Si8 0.009199 0.750000 0.000000
O O1 0.092218 0.423281 0.800861
O O2 0.037945 0.175682 0.750000
O O3 0.900214 0.396560 0.750000
O O4 0.762717 0.399561 0.346725
O O5 0.780002 0.689082 0.374469
O O6 0.945810 0.496238 0.396540
O O7 0.700060 0.143899 0.750000
O O8 0.565978 0.003532 0.815515
O O9 0.600349 0.301779 0.823873
O O10 0.377244 0.086231 0.644874
O O11 0.223043 0.103526 0.701329
O O12 0.171731 0.019418 0.609160
O O13 0.603221 0.988091 0.250000
O O14 0.069718 0.370978 0.029165
O O15 0.083491 0.663128 0.043359
#
# Coordination Sequence:
#
# PCOD8232102 Si02
#       8
#     4   8   8   8   8   4   8   4
#     4  10  20  30  45  76 119 148 181 217 265 327
#     4  11  21  34  54  83 114 155 187 227 273 341
#     4  10  21  35  53  79 117 159 194 227 265 320
#     4  11  21  34  54  83 114 155 187 227 273 341
#     4  10  21  35  53  79 117 159 194 227 265 320
#     4  10  20  30  45  76 119 148 181 217 265 327
#     4  11  22  39  60  84 112 149 188 237 296 342
#     4  10  24  42  56  80 114 142 192 246 294 344
#
# _framework density 19.405971999999998
#
# number of rings (size 3 to 8) (size 9 to 14) (size 15 to 20)
#    0.000    1.538    4.615    0.923    2.154    2.462 
#    0.000    0.000    0.000    0.000    0.000    6.462 
#    0.000    0.000    0.000    0.000    0.000    0.000 
#
# Total GULP energy -644298.989347 kJ/mol
# GULP energy per Si atom -12390.365180 kJ/mol
# Density = 1.936180 g / cm^3
# Si number density = 19.405972 Si / 1000 Ang^3
#
#
#
# Elastic Constant Matrix: (Units=GPa)
#
#
# Indices 1 2 3 4 5 6 
#
# 1 57.1218 9.9707 21.9205 0.0000 0.0000 0.0000
# 2 9.9707 53.9196 19.1178 0.0000 0.0000 0.0000
# 3 21.9205 19.1178 68.0574 0.0000 0.0000 0.0000
# 4 0.0000 0.0000 0.0000 32.5287 0.0000 0.0000
# 5 0.0000 0.0000 0.0000 0.0000 9.2712 0.0000
# 6 0.0000 0.0000 0.0000 0.0000 0.0000 31.5483
#
#
#
# Elastic Compliance Matrix: (Units=1/GPa)
#
#
# Indices 1 2 3 4 5 6 
#
# 1 0.020096 -0.001578 -0.006029 0.000000 0.000000 0.000000
# 2 -0.001578 0.020722 -0.005312 0.000000 0.000000 0.000000
# 3 -0.006029 -0.005312 0.018128 0.000000 0.000000 0.000000
# 4 0.000000 0.000000 0.000000 0.030742 0.000000 0.000000
# 5 0.000000 0.000000 0.000000 0.000000 0.107861 0.000000
# 6 0.000000 0.000000 0.000000 0.000000 0.000000 0.031697
#
#
# Mechanical properties :
#
#
# Convention : Reuss Voigt Hill
#
# Bulk Modulus (GPa) = 30.20695 31.23518 30.72107
# Shear Modulus (GPa) = 18.78848 23.20896 20.99872
#
# Velocity S-wave (km/s) = 3.11494 3.46203 3.29306
# Velocity P-wave (km/s) = 5.34197 5.66670 5.50673
#
# Compressibility (1/GPa) = 0.03310496
#
# Stress axis : x y z
#
# Youngs Moduli (GPa) = 49.76198 48.25890 55.16409
#
# Poissons Ratio (x) = 0.07617 0.33260
# Poissons Ratio (y) = 0.07854 0.29306
# Poissons Ratio (z) = 0.30003 0.25637
#
# Static dielectric constant tensor:
#      x y z
#    x 3.472880 0.000000 0.000000 
#    y 0.000000 3.851470 0.000000 
#    z 0.000000 0.000000 3.407420 
# 
# 
# High freq. dielectric constant tensor:
#      x y z
#    x 1.739140 0.000000 0.000000 
#    y 0.000000 1.770680 0.000000 
#    z 0.000000 0.000000 1.721360 
# 
# From -- ./inp_files/28589.got.cif
#   From: 2010.03.12/outbox.cif.g09.slc.cpg/sg57_15_cif.got.tgz:28589.got - 2010.04.16 15:48:40.
