data_PCOD8232152
_publ_section_title
;
Structure prediction by ZEFSAII (Michael W. Deem and Ramdas Pophale) SiO2 
 PCOD8232152
Probable space group: P B C M
;
_chemical_formula_sum "Si O2"
_cell_formula_units_Z 40
_cell_length_a 9.525103
_cell_length_b 25.771417
_cell_length_c 9.090146
_cell_angle_alpha 90.000000
_cell_angle_beta 90.000000
_cell_angle_gamma 90.000000
_cell_volume 2231.407238
_symmetry_space_group_name_H-M "P B C M"
_symmetry_group_IT_number 57
_symmetry_cell_setting 'orthorhombic'
loop_
_space_group_symop_operation_xyz
x,y,z
-x,-y,1/2+z
x,1/2-y,-z
-x,1/2+y,1/2-z
-x,-y,-z
x,y,1/2-z
-x,1/2+y,z
x,1/2-y,1/2+z
loop_
_atom_site_type_symbol
_atom_site_label
_atom_site_fract_x
_atom_site_fract_y
_atom_site_fract_z
Si Si1 0.243044 0.417222 0.080438
Si Si2 0.258580 0.695213 0.423434
Si Si3 0.262571 0.966033 0.577020
Si Si4 0.552115 0.384685 0.078247
Si Si5 0.025213 0.886998 0.581842
O O1 0.206471 0.422555 0.250000
O O2 0.254493 0.475500 0.016171
O O3 0.385425 0.385672 0.053235
O O4 0.117474 0.385050 0.008956
O O5 0.241458 0.750000 0.500000
O O6 0.284456 0.701405 0.250000
O O7 0.391084 0.665405 0.492516
O O8 0.117474 0.663274 0.457516
O O9 0.300396 0.962652 0.750000
O O10 0.384563 0.937602 0.486708
O O11 0.113954 0.938574 0.544669
O O12 0.590868 0.380791 0.250000
O O13 0.980178 0.886368 0.750000
#
# Coordination Sequence:
#
# PCOD8232152 Si02
#       5
#     8   8   8   8   8
#     4  10  20  32  49  76 110 141 172 210 252 298
#     4  10  21  39  60  79  98 127 168 214 260 310
#     4   9  18  33  50  73 106 143 179 213 247 293
#     4  10  20  33  51  78 106 137 175 211 251 302
#     4   9  19  33  51  76 104 134 171 210 254 303
#
# _framework density 17.925906999999999
#
# number of rings (size 3 to 8) (size 9 to 14) (size 15 to 20)
#    0.000    2.400    0.000    3.600    0.000    6.400 
#    0.000    1.000    0.000    2.400    0.000    0.000 
#    0.000    0.000    0.000    0.000    0.000    0.000 
#
# Total GULP energy -496088.553725 kJ/mol
# GULP energy per Si atom -12402.213843 kJ/mol
# Density = 1.788511 g / cm^3
# Si number density = 17.925907 Si / 1000 Ang^3
#
#
#
# Elastic Constant Matrix: (Units=GPa)
#
#
# Indices 1 2 3 4 5 6 
#
# 1 114.4177 53.7054 65.2464 0.0000 0.0000 0.0000
# 2 53.7054 117.8689 56.0499 0.0000 0.0000 0.0000
# 3 65.2464 56.0499 89.7819 0.0000 0.0000 0.0000
# 4 0.0000 0.0000 0.0000 29.9256 0.0000 0.0000
# 5 0.0000 0.0000 0.0000 0.0000 34.5120 0.0000
# 6 0.0000 0.0000 0.0000 0.0000 0.0000 11.7157
#
#
#
# Elastic Compliance Matrix: (Units=1/GPa)
#
#
# Indices 1 2 3 4 5 6 
#
# 1 0.015391 -0.002409 -0.009681 0.000000 0.000000 0.000000
# 2 -0.002409 0.012443 -0.006017 0.000000 0.000000 0.000000
# 3 -0.009681 -0.006017 0.021930 0.000000 0.000000 0.000000
# 4 0.000000 0.000000 0.000000 0.033416 0.000000 0.000000
# 5 0.000000 0.000000 0.000000 0.000000 0.028975 0.000000
# 6 0.000000 0.000000 0.000000 0.000000 0.000000 0.085356
#
#
# Mechanical properties :
#
#
# Convention : Reuss Voigt Hill
#
# Bulk Modulus (GPa) = 73.80465 74.67464 74.23965
# Shear Modulus (GPa) = 20.98691 25.03511 23.01101
#
# Velocity S-wave (km/s) = 3.42535 3.74115 3.58673
# Velocity P-wave (km/s) = 7.54357 7.77235 7.65881
#
# Compressibility (1/GPa) = 0.01354928
#
# Stress axis : x y z
#
# Youngs Moduli (GPa) = 64.97123 80.36581 45.59931
#
# Poissons Ratio (x) = 0.19362 0.44146
# Poissons Ratio (y) = 0.15653 0.27438
# Poissons Ratio (z) = 0.62900 0.48358
#
# Static dielectric constant tensor:
#      x y z
#    x 3.209010 0.000000 0.000000 
#    y 0.000000 3.245670 0.000000 
#    z 0.000000 0.000000 3.326850 
# 
# 
# High freq. dielectric constant tensor:
#      x y z
#    x 1.692480 0.000000 0.000000 
#    y 0.000000 1.683350 0.000000 
#    z 0.000000 0.000000 1.698450 
# 
# From -- ./inp_files/1514.got.cif
#   From: 2010.03.12/outbox.cif.g09.slc.cpg/sg57_1_cif.got.tgz:1514.got - 2010.04.16 15:48:40.
