data_PCOD8232890
_publ_section_title
;
Structure prediction by ZEFSAII (Michael W. Deem and Ramdas Pophale) SiO2 
 PCOD8232890
Probable space group: P B C M
;
_chemical_formula_sum "Si O2"
_cell_formula_units_Z 56
_cell_length_a 17.448010
_cell_length_b 19.253993
_cell_length_c 8.603832
_cell_angle_alpha 90.000000
_cell_angle_beta 90.000000
_cell_angle_gamma 90.000000
_cell_volume 2890.404554
_symmetry_space_group_name_H-M "P B C M"
_symmetry_group_IT_number 57
_symmetry_cell_setting 'orthorhombic'
loop_
_space_group_symop_operation_xyz
x,y,z
-x,-y,1/2+z
x,1/2-y,-z
-x,1/2+y,1/2-z
-x,-y,-z
x,y,1/2-z
-x,1/2+y,z
x,1/2-y,1/2+z
loop_
_atom_site_type_symbol
_atom_site_label
_atom_site_fract_x
_atom_site_fract_y
_atom_site_fract_z
Si Si1 0.580152 0.324915 0.932233
Si Si2 0.980770 0.673369 0.432543
Si Si3 0.463936 0.068976 0.932147
Si Si4 0.696255 0.943648 0.571558
Si Si5 0.719395 0.395507 0.072119
Si Si6 0.121755 0.921044 0.566389
Si Si7 0.855754 0.921966 0.431482
O O1 0.561775 0.329122 0.750000
O O2 0.567421 0.250000 0.000000
O O3 0.522029 0.370148 0.031707
O O4 0.667321 0.348148 0.962328
O O5 0.991325 0.750000 0.500000
O O6 0.982877 0.680689 0.250000
O O7 0.901064 0.638982 0.482365
O O8 0.048106 0.621952 0.490519
O O9 0.452334 0.059312 0.750000
O O10 0.382461 0.088104 0.008260
O O11 0.500000 0.000000 0.000000
O O12 0.707976 0.922415 0.750000
O O13 0.766683 0.912916 0.473615
O O14 0.691599 0.026024 0.550581
O O15 0.711157 0.371060 0.250000
O O16 0.806678 0.386097 0.019376
O O17 0.135031 0.916581 0.750000
O O18 0.113829 0.001855 0.515026
O O19 0.867500 0.911437 0.250000
#
# Coordination Sequence:
#
# PCOD8232890 Si02
#       7
#     8   8   8   8   8   8   8
#     4  12  25  41  60  84 121 162 201 247 300 361
#     4  11  23  39  58  83 116 156 198 244 298 358
#     4  12  23  38  62  91 121 157 201 247 296 349
#     4  10  20  36  60  90 120 152 195 244 293 348
#     4  10  20  35  58  87 119 153 194 240 292 352
#     4   9  20  37  59  86 118 154 197 244 295 352
#     4  10  20  37  61  88 117 151 195 247 300 353
#
# _framework density 19.37445
#
# number of rings (size 3 to 8) (size 9 to 14) (size 15 to 20)
#    0.000    1.429    1.429    4.714    0.000    3.429 
#    0.000    2.143    0.000    0.000    0.000    0.000 
#    0.000    0.000    0.000    0.000    0.000    0.000 
#
# Total GULP energy -694664.951670 kJ/mol
# GULP energy per Si atom -12404.731280 kJ/mol
# Density = 1.933035 g / cm^3
# Si number density = 19.374450 Si / 1000 Ang^3
#
#
#
# Elastic Constant Matrix: (Units=GPa)
#
#
# Indices 1 2 3 4 5 6 
#
# 1 109.3599 43.3145 18.7555 0.0000 0.0000 0.0000
# 2 43.3145 80.0921 25.0259 0.0000 0.0000 0.0000
# 3 18.7555 25.0259 61.7704 0.0000 0.0000 0.0000
# 4 0.0000 0.0000 0.0000 29.8733 0.0000 0.0000
# 5 0.0000 0.0000 0.0000 0.0000 37.1209 0.0000
# 6 0.0000 0.0000 0.0000 0.0000 0.0000 29.0538
#
#
#
# Elastic Compliance Matrix: (Units=1/GPa)
#
#
# Indices 1 2 3 4 5 6 
#
# 1 0.011706 -0.005976 -0.001133 0.000000 0.000000 0.000000
# 2 -0.005976 0.017347 -0.005213 0.000000 0.000000 0.000000
# 3 -0.001133 -0.005213 0.018645 0.000000 0.000000 0.000000
# 4 0.000000 0.000000 0.000000 0.033475 0.000000 0.000000
# 5 0.000000 0.000000 0.000000 0.000000 0.026939 0.000000
# 6 0.000000 0.000000 0.000000 0.000000 0.000000 0.034419
#
#
# Mechanical properties :
#
#
# Convention : Reuss Voigt Hill
#
# Bulk Modulus (GPa) = 43.37990 47.26824 45.32407
# Shear Modulus (GPa) = 28.59444 30.15136 29.37290
#
# Velocity S-wave (km/s) = 3.84589 3.94920 3.89789
# Velocity P-wave (km/s) = 6.49308 6.72645 6.61079
#
# Compressibility (1/GPa) = 0.02305215
#
# Stress axis : x y z
#
# Youngs Moduli (GPa) = 85.42978 57.64781 53.63348
#
# Poissons Ratio (x) = 0.34453 0.06076
# Poissons Ratio (y) = 0.51057 0.27961
# Poissons Ratio (z) = 0.09678 0.30053
#
# Static dielectric constant tensor:
#      x y z
#    x 3.627100 0.000000 0.000000 
#    y 0.000000 3.486310 0.000000 
#    z 0.000000 0.000000 3.484220 
# 
# 
# High freq. dielectric constant tensor:
#      x y z
#    x 1.765830 0.000000 0.000000 
#    y 0.000000 1.736600 0.000000 
#    z 0.000000 0.000000 1.766910 
# 
# From -- ./inp_files/5237.got.cif
#   From: 2010.03.12/outbox.cif.g09.slc.cpg/sg57_3_cif.got.tgz:5237.got - 2010.04.16 15:48:40.
