data_PCOD8232588
_publ_section_title
;
Structure prediction by ZEFSAII (Michael W. Deem and Ramdas Pophale) SiO2 
 PCOD8232588
Probable space group: P B C M
;
_chemical_formula_sum "Si O2"
_cell_formula_units_Z 44
_cell_length_a 11.361802
_cell_length_b 11.434329
_cell_length_c 17.277550
_cell_angle_alpha 90.000000
_cell_angle_beta 90.000000
_cell_angle_gamma 90.000000
_cell_volume 2244.605688
_symmetry_space_group_name_H-M "P B C M"
_symmetry_group_IT_number 57
_symmetry_cell_setting 'orthorhombic'
loop_
_space_group_symop_operation_xyz
x,y,z
-x,-y,1/2+z
x,1/2-y,-z
-x,1/2+y,1/2-z
-x,-y,-z
x,y,1/2-z
-x,1/2+y,z
x,1/2-y,1/2+z
loop_
_atom_site_type_symbol
_atom_site_label
_atom_site_fract_x
_atom_site_fract_y
_atom_site_fract_z
Si Si1 0.332253 0.569174 0.030594
Si Si2 0.218213 0.181556 0.161927
Si Si3 0.006081 0.423077 0.921708
Si Si4 0.577774 0.851018 0.942710
Si Si5 0.147798 0.750000 0.000000
Si Si6 0.815465 0.548410 0.662937
O O1 0.435992 0.652930 0.064644
O O2 0.278359 0.505936 0.104743
O O3 0.386087 0.478462 0.971316
O O4 0.235014 0.641472 0.980972
O O5 0.203942 0.138605 0.250000
O O6 0.355665 0.170085 0.138538
O O7 0.175752 0.313564 0.152145
O O8 0.139525 0.102341 0.104024
O O9 0.944301 0.495687 0.853590
O O10 0.937586 0.298182 0.932056
O O11 0.000000 0.500000 0.000000
O O12 0.622723 0.750000 0.000000
O O13 0.776925 0.516138 0.750000
#
# Coordination Sequence:
#
# PCOD8232588 Si02
#       6
#     8   8   8   8   4   8
#     4  10  21  37  60  88 113 150 195 252 286 353
#     4  11  23  38  57  86 122 156 194 244 305 364
#     4  11  22  36  59  85 116 155 201 245 289 349
#     4  11  21  37  62  85 116 148 198 245 296 349
#     4  10  20  34  56  86 114 144 198 240 292 332
#     4  10  21  37  57  82 116 154 190 240 303 355
#
# _framework density 19.602551999999999
#
# number of rings (size 3 to 8) (size 9 to 14) (size 15 to 20)
#    0.000    1.455    2.727    3.818    1.273    0.727 
#    0.000    0.000    0.000    9.818    0.000    0.000 
#    0.000    0.000    0.000    0.000    0.000    0.000 
#
# Total GULP energy -545343.250506 kJ/mol
# GULP energy per Si atom -12394.164784 kJ/mol
# Density = 1.955794 g / cm^3
# Si number density = 19.602552 Si / 1000 Ang^3
#
#
#
# Elastic Constant Matrix: (Units=GPa)
#
#
# Indices 1 2 3 4 5 6 
#
# 1 96.8898 18.2434 30.9452 0.0000 0.0000 0.0000
# 2 18.2434 66.7746 35.7564 0.0000 0.0000 0.0000
# 3 30.9452 35.7564 96.9659 0.0000 0.0000 0.0000
# 4 0.0000 0.0000 0.0000 26.9637 0.0000 0.0000
# 5 0.0000 0.0000 0.0000 0.0000 11.2621 0.0000
# 6 0.0000 0.0000 0.0000 0.0000 0.0000 29.9945
#
#
#
# Elastic Compliance Matrix: (Units=1/GPa)
#
#
# Indices 1 2 3 4 5 6 
#
# 1 0.011609 -0.001480 -0.003159 0.000000 0.000000 0.000000
# 2 -0.001480 0.018849 -0.006478 0.000000 0.000000 0.000000
# 3 -0.003159 -0.006478 0.013710 0.000000 0.000000 0.000000
# 4 0.000000 0.000000 0.000000 0.037087 0.000000 0.000000
# 5 0.000000 0.000000 0.000000 0.000000 0.088793 0.000000
# 6 0.000000 0.000000 0.000000 0.000000 0.000000 0.033339
#
#
# Mechanical properties :
#
#
# Convention : Reuss Voigt Hill
#
# Bulk Modulus (GPa) = 45.59330 47.83560 46.71445
# Shear Modulus (GPa) = 21.46542 25.35643 23.41092
#
# Velocity S-wave (km/s) = 3.31272 3.60047 3.45958
# Velocity P-wave (km/s) = 6.15966 6.46066 6.31196
#
# Compressibility (1/GPa) = 0.02193305
#
# Stress axis : x y z
#
# Youngs Moduli (GPa) = 86.14309 53.05291 72.93985
#
# Poissons Ratio (x) = 0.07852 0.23041
# Poissons Ratio (y) = 0.12749 0.47253
# Poissons Ratio (z) = 0.27212 0.34369
#
# Static dielectric constant tensor:
#      x y z
#    x 3.878910 0.000000 0.000000 
#    y 0.000000 3.780790 0.000000 
#    z 0.000000 0.000000 3.351860 
# 
# 
# High freq. dielectric constant tensor:
#      x y z
#    x 1.777690 0.000000 0.000000 
#    y 0.000000 1.774420 0.000000 
#    z 0.000000 0.000000 1.732710 
# 
# From -- ./inp_files/21729.got.cif
#   From: 2010.03.12/outbox.cif.g09.slc.cpg/sg57_11_cif.got.tgz:21729.got - 2010.04.16 15:48:40.
