data_PCOD8232387
_publ_section_title
;
Structure prediction by ZEFSAII (Michael W. Deem and Ramdas Pophale) SiO2 
 PCOD8232387
Probable space group: P B C M
;
_chemical_formula_sum "Si O2"
_cell_formula_units_Z 64
_cell_length_a 20.921301
_cell_length_b 18.415151
_cell_length_c 9.339609
_cell_angle_alpha 90.000000
_cell_angle_beta 90.000000
_cell_angle_gamma 90.000000
_cell_volume 3598.261045
_symmetry_space_group_name_H-M "P B C M"
_symmetry_group_IT_number 57
_symmetry_cell_setting 'orthorhombic'
loop_
_space_group_symop_operation_xyz
x,y,z
-x,-y,1/2+z
x,1/2-y,-z
-x,1/2+y,1/2-z
-x,-y,-z
x,y,1/2-z
-x,1/2+y,z
x,1/2-y,1/2+z
loop_
_atom_site_type_symbol
_atom_site_label
_atom_site_fract_x
_atom_site_fract_y
_atom_site_fract_z
Si Si1 0.610828 0.180196 0.585351
Si Si2 0.499523 0.925852 0.083362
Si Si3 0.382301 0.325434 0.080462
Si Si4 0.242439 0.677093 0.918628
Si Si5 0.941799 0.531301 0.587147
Si Si6 0.877461 0.821654 0.080784
Si Si7 0.807480 0.043078 0.084724
Si Si8 0.749556 0.605181 0.919543
O O1 0.587004 0.250000 0.500000
O O2 0.601883 0.200588 0.750000
O O3 0.566722 0.112860 0.542089
O O4 0.683507 0.159910 0.548797
O O5 0.503945 0.943755 0.250000
O O6 0.558629 0.875828 0.036189
O O7 0.500000 0.000000 0.000000
O O8 0.379922 0.311033 0.250000
O O9 0.318150 0.365341 0.024628
O O10 0.390166 0.250000 0.000000
O O11 0.228889 0.685683 0.750000
O O12 0.221187 0.750000 0.000000
O O13 0.201819 0.611457 0.982208
O O14 0.964042 0.532357 0.750000
O O15 0.925209 0.613206 0.538164
O O16 0.880516 0.480438 0.567497
O O17 0.000000 0.500000 0.500000
O O18 0.878051 0.807862 0.250000
O O19 0.806169 0.842223 0.025631
O O20 0.901226 0.750000 0.000000
O O21 0.792151 0.063285 0.250000
O O22 0.761480 0.977699 0.029521
O O23 0.752890 0.603989 0.750000
#
# Coordination Sequence:
#
# PCOD8232387 Si02
#       8
#     8   8   8   8   8   8   8   8
#     4   9  19  35  52  72  99 130 168 215 260 309
#     4  10  22  36  50  72 101 132 171 214 256 304
#     4  10  20  34  52  75 101 133 169 206 252 305
#     4  10  20  34  53  77 103 133 171 217 266 313
#     4   9  19  35  54  77 106 140 175 211 251 297
#     4   9  17  31  51  76 105 135 168 207 248 293
#     4   9  18  34  55  77 104 137 171 211 256 302
#     4   8  16  31  51  75 104 134 166 205 250 302
#
# _framework density 17.786369000000001
#
# number of rings (size 3 to 8) (size 9 to 14) (size 15 to 20)
#    0.000    2.750    0.000    2.625    1.750    2.500 
#    0.000    3.125    0.000    1.500    0.000    0.000 
#    0.000    0.000    0.000    0.000    0.000    0.000 
#
# Total GULP energy -793583.953195 kJ/mol
# GULP energy per Si atom -12399.749269 kJ/mol
# Density = 1.774589 g / cm^3
# Si number density = 17.786369 Si / 1000 Ang^3
#
#
#
# Elastic Constant Matrix: (Units=GPa)
#
#
# Indices 1 2 3 4 5 6 
#
# 1 80.5299 60.5794 38.9019 0.0000 0.0000 0.0000
# 2 60.5794 155.8094 65.7999 0.0000 0.0000 0.0000
# 3 38.9019 65.7999 62.6681 0.0000 0.0000 0.0000
# 4 0.0000 0.0000 0.0000 38.3297 0.0000 0.0000
# 5 0.0000 0.0000 0.0000 0.0000 23.8824 0.0000
# 6 0.0000 0.0000 0.0000 0.0000 0.0000 23.1093
#
#
#
# Elastic Compliance Matrix: (Units=1/GPa)
#
#
# Indices 1 2 3 4 5 6 
#
# 1 0.019271 -0.004385 -0.007358 0.000000 0.000000 0.000000
# 2 -0.004385 0.012529 -0.010433 0.000000 0.000000 0.000000
# 3 -0.007358 -0.010433 0.031479 0.000000 0.000000 0.000000
# 4 0.000000 0.000000 0.000000 0.026089 0.000000 0.000000
# 5 0.000000 0.000000 0.000000 0.000000 0.041872 0.000000
# 6 0.000000 0.000000 0.000000 0.000000 0.000000 0.043273
#
#
# Mechanical properties :
#
#
# Convention : Reuss Voigt Hill
#
# Bulk Modulus (GPa) = 52.83673 69.95222 61.39447
# Shear Modulus (GPa) = 22.20489 25.97938 24.09213
#
# Velocity S-wave (km/s) = 3.53713 3.82597 3.68438
# Velocity P-wave (km/s) = 6.81561 7.67671 7.25894
#
# Compressibility (1/GPa) = 0.01892623
#
# Stress axis : x y z
#
# Youngs Moduli (GPa) = 51.89086 79.81446 31.76686
#
# Poissons Ratio (x) = 0.35000 0.23376
# Poissons Ratio (y) = 0.22755 0.33143
# Poissons Ratio (z) = 0.38184 0.83271
#
# Static dielectric constant tensor:
#      x y z
#    x 3.386290 0.000000 0.000000 
#    y 0.000000 3.287320 0.000000 
#    z 0.000000 0.000000 3.123960 
# 
# 
# High freq. dielectric constant tensor:
#      x y z
#    x 1.684560 0.000000 0.000000 
#    y 0.000000 1.694300 0.000000 
#    z 0.000000 0.000000 1.673700 
# 
# From -- ./inp_files/14190.got.cif
#   From: 2010.03.12/outbox.cif.g09.slc.cpg/sg57_8_cif.got.tgz:14190.got - 2010.04.16 15:48:40.
