data_PCOD8232431
_publ_section_title
;
Structure prediction by ZEFSAII (Michael W. Deem and Ramdas Pophale) SiO2 
 PCOD8232431
Probable space group: P B C M
;
_chemical_formula_sum "Si O2"
_cell_formula_units_Z 64
_cell_length_a 19.519560
_cell_length_b 20.293544
_cell_length_c 8.697984
_cell_angle_alpha 90.000000
_cell_angle_beta 90.000000
_cell_angle_gamma 90.000000
_cell_volume 3445.454553
_symmetry_space_group_name_H-M "P B C M"
_symmetry_group_IT_number 57
_symmetry_cell_setting 'orthorhombic'
loop_
_space_group_symop_operation_xyz
x,y,z
-x,-y,1/2+z
x,1/2-y,-z
-x,1/2+y,1/2-z
-x,-y,-z
x,y,1/2-z
-x,1/2+y,z
x,1/2-y,1/2+z
loop_
_atom_site_type_symbol
_atom_site_label
_atom_site_fract_x
_atom_site_fract_y
_atom_site_fract_z
Si Si1 0.421043 0.318828 0.431159
Si Si2 0.174427 0.072402 0.568906
Si Si3 0.678349 0.428231 0.069154
Si Si4 0.167807 0.932233 0.069148
Si Si5 0.319932 0.424174 0.932329
Si Si6 0.079844 0.681438 0.073109
Si Si7 0.081634 0.318722 0.572639
Si Si8 0.577232 0.318637 0.431891
O O1 0.394566 0.250000 0.500000
O O2 0.413247 0.315506 0.250000
O O3 0.376286 0.377455 0.496085
O O4 0.499191 0.332218 0.482664
O O5 0.184977 0.073156 0.750000
O O6 0.244603 0.095647 0.489047
O O7 0.115301 0.122503 0.521587
O O8 0.150625 0.000213 0.515914
O O9 0.668881 0.427316 0.250000
O O10 0.755751 0.408214 0.024042
O O11 0.662703 0.501931 0.009415
O O12 0.624698 0.376449 0.996607
O O13 0.162128 0.945483 0.250000
O O14 0.114338 0.877613 0.018655
O O15 0.321456 0.418574 0.750000
O O16 0.102768 0.679727 0.250000
O O17 0.999207 0.672836 0.054243
O O18 0.104785 0.750000 0.000000
O O19 0.106368 0.250000 0.500000
O O20 0.104277 0.321015 0.750000
O O21 0.603898 0.250000 0.500000
O O22 0.583900 0.314823 0.250000
#
# Coordination Sequence:
#
# PCOD8232431 Si02
#       8
#     8   8   8   8   8   8   8   8
#     4  10  20  34  53  77 105 137 174 217 262 311
#     4  11  22  37  57  81 109 140 178 221 266 318
#     4   8  17  34  54  76 104 139 174 214 264 313
#     4  10  20  36  57  80 110 145 181 222 268 317
#     4  10  20  36  56  77 105 139 175 216 264 316
#     4  10  21  37  57  81 110 143 180 222 267 318
#     4  10  21  38  58  81 109 141 178 220 268 319
#     4   9  18  34  53  75 105 138 174 215 260 310
#
# _framework density 18.575196999999999
#
# number of rings (size 3 to 8) (size 9 to 14) (size 15 to 20)
#    0.000    2.250    0.000    3.750    0.000    4.000 
#    0.000    7.500    0.000    0.000    0.000    0.000 
#    0.000    0.000    0.000    0.000    0.000    0.000 
#
# Total GULP energy -793736.088167 kJ/mol
# GULP energy per Si atom -12402.126378 kJ/mol
# Density = 1.853292 g / cm^3
# Si number density = 18.575197 Si / 1000 Ang^3
#
#
#
# Elastic Constant Matrix: (Units=GPa)
#
#
# Indices 1 2 3 4 5 6 
#
# 1 58.5967 57.5740 20.8126 0.0000 0.0000 0.0000
# 2 57.5740 118.9619 33.3241 0.0000 0.0000 0.0000
# 3 20.8126 33.3241 54.7661 0.0000 0.0000 0.0000
# 4 0.0000 0.0000 0.0000 35.2734 0.0000 0.0000
# 5 0.0000 0.0000 0.0000 0.0000 21.6817 0.0000
# 6 0.0000 0.0000 0.0000 0.0000 0.0000 30.9866
#
#
#
# Elastic Compliance Matrix: (Units=1/GPa)
#
#
# Indices 1 2 3 4 5 6 
#
# 1 0.033058 -0.015044 -0.003409 0.000000 0.000000 0.000000
# 2 -0.015044 0.016980 -0.004615 0.000000 0.000000 0.000000
# 3 -0.003409 -0.004615 0.022363 0.000000 0.000000 0.000000
# 4 0.000000 0.000000 0.000000 0.028350 0.000000 0.000000
# 5 0.000000 0.000000 0.000000 0.000000 0.046122 0.000000
# 6 0.000000 0.000000 0.000000 0.000000 0.000000 0.032272
#
#
# Mechanical properties :
#
#
# Convention : Reuss Voigt Hill
#
# Bulk Modulus (GPa) = 38.07305 50.63845 44.35575
# Shear Modulus (GPa) = 21.36430 25.62928 23.49679
#
# Velocity S-wave (km/s) = 3.39507 3.71854 3.56048
# Velocity P-wave (km/s) = 5.99248 6.76441 6.39011
#
# Compressibility (1/GPa) = 0.02626530
#
# Stress axis : x y z
#
# Youngs Moduli (GPa) = 30.24959 58.89389 44.71709
#
# Poissons Ratio (x) = 0.88602 0.15244
# Poissons Ratio (y) = 0.45508 0.20635
# Poissons Ratio (z) = 0.10312 0.27177
#
# Static dielectric constant tensor:
#      x y z
#    x 3.461690 0.000000 0.000000 
#    y 0.000000 3.591250 0.000000 
#    z 0.000000 0.000000 3.419590 
# 
# 
# High freq. dielectric constant tensor:
#      x y z
#    x 1.718490 0.000000 0.000000 
#    y 0.000000 1.729470 0.000000 
#    z 0.000000 0.000000 1.723220 
# 
# From -- ./inp_files/7228.got.cif
#   From: 2010.03.12/outbox.cif.g09.slc.cpg/sg57_4_cif.got.tgz:7228.got - 2010.04.16 15:48:40.
