data_PCOD8232481
_publ_section_title
;
Structure prediction by ZEFSAII (Michael W. Deem and Ramdas Pophale) SiO2 
 PCOD8232481
Probable space group: P B C M
;
_chemical_formula_sum "Si O2"
_cell_formula_units_Z 56
_cell_length_a 11.387307
_cell_length_b 12.039586
_cell_length_c 19.519636
_cell_angle_alpha 90.000000
_cell_angle_beta 90.000000
_cell_angle_gamma 90.000000
_cell_volume 2676.112073
_symmetry_space_group_name_H-M "P B C M"
_symmetry_group_IT_number 57
_symmetry_cell_setting 'orthorhombic'
loop_
_space_group_symop_operation_xyz
x,y,z
-x,-y,1/2+z
x,1/2-y,-z
-x,1/2+y,1/2-z
-x,-y,-z
x,y,1/2-z
-x,1/2+y,z
x,1/2-y,1/2+z
loop_
_atom_site_type_symbol
_atom_site_label
_atom_site_fract_x
_atom_site_fract_y
_atom_site_fract_z
Si Si1 0.671128 0.328693 0.933096
Si Si2 0.406037 0.182841 0.429868
Si Si3 0.044742 0.446422 0.174231
Si Si4 0.777311 0.740485 0.828641
Si Si5 0.955457 0.634328 0.418077
Si Si6 0.866428 0.191458 0.893256
Si Si7 0.766699 0.508426 0.479869
O O1 0.539114 0.339361 0.905592
O O2 0.754502 0.270831 0.875407
O O3 0.676013 0.250000 0.000000
O O4 0.721160 0.452429 0.949968
O O5 0.399860 0.250000 0.500000
O O6 0.344093 0.255455 0.370955
O O7 0.343871 0.064172 0.441587
O O8 0.042089 0.500777 0.250000
O O9 0.035031 0.536019 0.113837
O O10 0.937737 0.355425 0.171865
O O11 0.167626 0.382062 0.163276
O O12 0.751032 0.769937 0.750000
O O13 0.864656 0.833184 0.858354
O O14 0.876555 0.596799 0.484969
O O15 0.042572 0.733858 0.438919
O O16 0.821998 0.086971 0.934372
#
# Coordination Sequence:
#
# PCOD8232481 Si02
#       7
#     8   8   8   8   8   8   8
#     4   9  18  33  51  73 104 141 179 222 268 321
#     4  10  20  34  54  79 106 143 190 231 272 323
#     4   9  17  31  51  74 102 137 175 217 269 327
#     4   9  18  33  52  75 104 137 177 223 270 322
#     4   9  17  30  51  78 104 134 175 221 272 331
#     4   9  18  32  49  75 105 135 173 219 271 324
#     4   9  18  33  52  74 105 142 176 219 274 326
#
# _framework density 20.925879999999999
#
# number of rings (size 3 to 8) (size 9 to 14) (size 15 to 20)
#    0.000    2.857    0.000    0.857    0.000    2.286 
#    0.000   22.857    0.000    0.000    0.000   16.000 
#    0.000    0.000    0.000    0.000    0.000    0.000 
#
# Total GULP energy -693736.234793 kJ/mol
# GULP energy per Si atom -12388.147050 kJ/mol
# Density = 2.087825 g / cm^3
# Si number density = 20.925880 Si / 1000 Ang^3
#
#
#
# Elastic Constant Matrix: (Units=GPa)
#
#
# Indices 1 2 3 4 5 6 
#
# 1 122.6818 34.5663 17.3407 0.0000 0.0000 0.0000
# 2 34.5663 67.7718 5.0452 0.0000 0.0000 0.0000
# 3 17.3407 5.0452 46.3506 0.0000 0.0000 0.0000
# 4 0.0000 0.0000 0.0000 14.8695 0.0000 0.0000
# 5 0.0000 0.0000 0.0000 0.0000 19.4940 0.0000
# 6 0.0000 0.0000 0.0000 0.0000 0.0000 33.7590
#
#
#
# Elastic Compliance Matrix: (Units=1/GPa)
#
#
# Indices 1 2 3 4 5 6 
#
# 1 0.009969 -0.004846 -0.003202 0.000000 0.000000 0.000000
# 2 -0.004846 0.017232 -0.000063 0.000000 0.000000 0.000000
# 3 -0.003202 -0.000063 0.022779 0.000000 0.000000 0.000000
# 4 0.000000 0.000000 0.000000 0.067252 0.000000 0.000000
# 5 0.000000 0.000000 0.000000 0.000000 0.051298 0.000000
# 6 0.000000 0.000000 0.000000 0.000000 0.000000 0.029622
#
#
# Mechanical properties :
#
#
# Convention : Reuss Voigt Hill
#
# Bulk Modulus (GPa) = 29.62220 38.96763 34.29492
# Shear Modulus (GPa) = 22.16049 25.61464 23.88757
#
# Velocity S-wave (km/s) = 3.25776 3.50246 3.38232
# Velocity P-wave (km/s) = 5.32326 5.91764 5.62830
#
# Compressibility (1/GPa) = 0.03375847
#
# Stress axis : x y z
#
# Youngs Moduli (GPa) = 100.30829 58.03195 43.89915
#
# Poissons Ratio (x) = 0.28124 0.14057
# Poissons Ratio (y) = 0.48613 0.00275
# Poissons Ratio (z) = 0.32121 0.00363
#
# Static dielectric constant tensor:
#      x y z
#    x 4.182290 0.000000 0.000000 
#    y 0.000000 4.087850 0.000000 
#    z 0.000000 0.000000 3.369570 
# 
# 
# High freq. dielectric constant tensor:
#      x y z
#    x 1.825450 0.000000 0.000000 
#    y 0.000000 1.830600 0.000000 
#    z 0.000000 0.000000 1.766660 
# 
# From -- ./inp_files/27210.got.cif
#   From: 2010.03.12/outbox.cif.g09.slc.cpg/sg57_14_cif.got.tgz:27210.got - 2010.04.16 15:48:40.
