data_PCOD8232272
_publ_section_title
;
Structure prediction by ZEFSAII (Michael W. Deem and Ramdas Pophale) SiO2 
 PCOD8232272
Probable space group: P B C M
;
_chemical_formula_sum "Si O2"
_cell_formula_units_Z 56
_cell_length_a 15.369025
_cell_length_b 13.832727
_cell_length_c 13.437239
_cell_angle_alpha 90.000000
_cell_angle_beta 90.000000
_cell_angle_gamma 90.000000
_cell_volume 2856.696908
_symmetry_space_group_name_H-M "P B C M"
_symmetry_group_IT_number 57
_symmetry_cell_setting 'orthorhombic'
loop_
_space_group_symop_operation_xyz
x,y,z
-x,-y,1/2+z
x,1/2-y,-z
-x,1/2+y,1/2-z
-x,-y,-z
x,y,1/2-z
-x,1/2+y,z
x,1/2-y,1/2+z
loop_
_atom_site_type_symbol
_atom_site_label
_atom_site_fract_x
_atom_site_fract_y
_atom_site_fract_z
Si Si1 0.845120 0.118805 0.633338
Si Si2 0.564182 0.641400 0.473703
Si Si3 0.924167 0.923566 0.862761
Si Si4 0.908257 0.324351 0.633889
Si Si5 0.757290 0.052168 0.450461
Si Si6 0.760726 0.644937 0.462200
Si Si7 0.575212 0.478255 0.633026
O O1 0.817572 0.120093 0.750000
O O2 0.885428 0.218092 0.591167
O O3 0.760880 0.093943 0.564418
O O4 0.917468 0.036863 0.608429
O O5 0.535009 0.750000 0.500000
O O6 0.660819 0.640579 0.425392
O O7 0.560450 0.578922 0.575145
O O8 0.501628 0.596940 0.390301
O O9 0.951679 0.916824 0.750000
O O10 0.829701 0.874669 0.875049
O O11 0.003704 0.867527 0.917777
O O12 0.920356 0.307484 0.750000
O O13 0.830165 0.398813 0.616915
O O14 0.663700 0.073785 0.402996
O O15 0.774259 0.936190 0.451815
O O16 0.784409 0.750000 0.500000
O O17 0.578229 0.500793 0.750000
#
# Coordination Sequence:
#
# PCOD8232272 Si02
#       7
#     8   8   8   8   8   8   8
#     4   9  19  35  53  75 106 143 184 229 275 326
#     4   9  20  39  59  84 116 147 184 230 282 336
#     4   9  19  34  51  74 104 139 182 226 268 323
#     4  10  20  33  51  78 111 145 181 224 276 331
#     4  10  20  35  54  77 109 143 178 223 273 326
#     4   9  19  35  54  77 104 136 177 221 268 321
#     4  10  21  38  60  86 115 147 186 231 278 333
#
# _framework density 19.603058999999998
#
# number of rings (size 3 to 8) (size 9 to 14) (size 15 to 20)
#    0.000    2.571    0.000    0.857    0.000    6.857 
#    0.000   15.000    0.000    0.000    0.000    0.000 
#    0.000    0.000    0.000    0.000    0.000    0.000 
#
# Total GULP energy -693948.018448 kJ/mol
# GULP energy per Si atom -12391.928901 kJ/mol
# Density = 1.955844 g / cm^3
# Si number density = 19.603059 Si / 1000 Ang^3
#
#
#
# Elastic Constant Matrix: (Units=GPa)
#
#
# Indices 1 2 3 4 5 6 
#
# 1 112.2512 61.8902 30.1765 0.0000 0.0000 0.0000
# 2 61.8902 146.2889 25.2151 0.0000 0.0000 0.0000
# 3 30.1765 25.2151 73.8994 0.0000 0.0000 0.0000
# 4 0.0000 0.0000 0.0000 17.8442 0.0000 0.0000
# 5 0.0000 0.0000 0.0000 0.0000 25.3033 0.0000
# 6 0.0000 0.0000 0.0000 0.0000 0.0000 26.1273
#
#
#
# Elastic Compliance Matrix: (Units=1/GPa)
#
#
# Indices 1 2 3 4 5 6 
#
# 1 0.012408 -0.004649 -0.003480 0.000000 0.000000 0.000000
# 2 -0.004649 0.009005 -0.001174 0.000000 0.000000 0.000000
# 3 -0.003480 -0.001174 0.015354 0.000000 0.000000 0.000000
# 4 0.000000 0.000000 0.000000 0.056041 0.000000 0.000000
# 5 0.000000 0.000000 0.000000 0.000000 0.039521 0.000000
# 6 0.000000 0.000000 0.000000 0.000000 0.000000 0.038274
#
#
# Mechanical properties :
#
#
# Convention : Reuss Voigt Hill
#
# Bulk Modulus (GPa) = 55.06882 63.00035 59.03459
# Shear Modulus (GPa) = 25.60659 28.19880 26.90269
#
# Velocity S-wave (km/s) = 3.61814 3.79686 3.70857
# Velocity P-wave (km/s) = 6.75333 7.17142 6.96551
#
# Compressibility (1/GPa) = 0.01815910
#
# Stress axis : x y z
#
# Youngs Moduli (GPa) = 80.59550 111.04721 65.13111
#
# Poissons Ratio (x) = 0.51630 0.22667
# Poissons Ratio (y) = 0.37472 0.07647
# Poissons Ratio (z) = 0.28049 0.13038
#
# Static dielectric constant tensor:
#      x y z
#    x 3.667320 0.000000 0.000000 
#    y 0.000000 3.855210 0.000000 
#    z 0.000000 0.000000 3.390780 
# 
# 
# High freq. dielectric constant tensor:
#      x y z
#    x 1.760670 0.000000 0.000000 
#    y 0.000000 1.777700 0.000000 
#    z 0.000000 0.000000 1.746540 
# 
# From -- ./inp_files/18625.got.cif
#   From: 2010.03.12/outbox.cif.g09.slc.cpg/sg57_10_cif.got.tgz:18625.got - 2010.04.16 15:48:40.
