data_PCOD8232069
_publ_section_title
;
Structure prediction by ZEFSAII (Michael W. Deem and Ramdas Pophale) SiO2 
 PCOD8232069
Probable space group: P B C M
;
_chemical_formula_sum "Si O2"
_cell_formula_units_Z 52
_cell_length_a 21.856035
_cell_length_b 5.114370
_cell_length_c 22.507755
_cell_angle_alpha 90.000000
_cell_angle_beta 90.000000
_cell_angle_gamma 90.000000
_cell_volume 2515.913472
_symmetry_space_group_name_H-M "P B C M"
_symmetry_group_IT_number 57
_symmetry_cell_setting 'orthorhombic'
loop_
_space_group_symop_operation_xyz
x,y,z
-x,-y,1/2+z
x,1/2-y,-z
-x,1/2+y,1/2-z
-x,-y,-z
x,y,1/2-z
-x,1/2+y,z
x,1/2-y,1/2+z
loop_
_atom_site_type_symbol
_atom_site_label
_atom_site_fract_x
_atom_site_fract_y
_atom_site_fract_z
Si Si1 0.347060 0.001382 0.038243
Si Si2 0.152598 0.479085 0.121118
Si Si3 0.027250 0.016442 0.933303
Si Si4 0.846269 0.614226 0.750000
Si Si5 0.537740 0.508314 0.250000
Si Si6 0.234902 0.978516 0.122467
Si Si7 0.458723 0.106650 0.122795
Si Si8 0.228875 0.613268 0.750000
O O1 0.406204 0.080055 0.075118
O O2 0.289599 0.924039 0.078033
O O3 0.327229 0.250000 0.000000
O O4 0.364927 0.750000 0.000000
O O5 0.100569 0.451783 0.070487
O O6 0.120580 0.450773 0.186985
O O7 0.182665 0.762037 0.113358
O O8 0.204694 0.261138 0.111645
O O9 0.994137 0.255293 0.899596
O O10 0.000000 0.000000 0.000000
O O11 0.786883 0.421516 0.750000
O O12 0.830660 0.922086 0.750000
O O13 0.521899 0.200183 0.250000
O O14 0.572620 0.576891 0.311488
O O15 0.264311 0.956104 0.189005
O O16 0.488453 0.391002 0.114420
#
# Coordination Sequence:
#
# PCOD8232069 Si02
#       8
#     8   8   8   4   4   8   8   4
#     4  12  26  42  55  86 127 151 205 249 270 355
#     4  10  19  38  61  82 114 150 186 231 300 344
#     4  10  21  38  53  80 112 142 192 239 259 329
#     4   8  16  30  56  86 108 138 184 236 278 354
#     4   8  16  33  58  91 116 139 196 249 292 350
#     4  10  21  39  60  88 112 154 188 241 301 338
#     4  10  21  39  64  87 116 160 196 244 303 342
#     4   8  16  33  60  83 110 139 196 233 284 362
#
# _framework density 20.668437000000001
#
# number of rings (size 3 to 8) (size 9 to 14) (size 15 to 20)
#    0.000    2.154    0.000    2.769    0.000    2.462 
#   16.615    0.769    0.000   12.923    0.000    0.000 
#    0.000    0.000    0.000    0.000    0.000    0.000 
#
# Total GULP energy -644228.116852 kJ/mol
# GULP energy per Si atom -12389.002247 kJ/mol
# Density = 2.062139 g / cm^3
# Si number density = 20.668437 Si / 1000 Ang^3
#
#
#
# Elastic Constant Matrix: (Units=GPa)
#
#
# Indices 1 2 3 4 5 6 
#
# 1 61.8831 4.1134 40.0290 0.0000 0.0000 0.0000
# 2 4.1134 119.0650 7.5485 0.0000 0.0000 0.0000
# 3 40.0290 7.5485 105.1313 0.0000 0.0000 0.0000
# 4 0.0000 0.0000 0.0000 20.1731 0.0000 0.0000
# 5 0.0000 0.0000 0.0000 0.0000 -13.1399 0.0000
# 6 0.0000 0.0000 0.0000 0.0000 0.0000 25.8393
#
#
#
# Elastic Compliance Matrix: (Units=1/GPa)
#
#
# Indices 1 2 3 4 5 6 
#
# 1 0.021446 -0.000224 -0.008149 0.000000 0.000000 0.000000
# 2 -0.000224 0.008440 -0.000521 0.000000 0.000000 0.000000
# 3 -0.008149 -0.000521 0.012652 0.000000 0.000000 0.000000
# 4 0.000000 0.000000 0.000000 0.049571 0.000000 0.000000
# 5 0.000000 0.000000 0.000000 0.000000 -0.076104 0.000000
# 6 0.000000 0.000000 0.000000 0.000000 0.000000 0.038701
#
#
# Mechanical properties :
#
#
# Convention : Reuss Voigt Hill
#
# Bulk Modulus (GPa) = 40.40560 43.27346 41.83953
# Shear Modulus (GPa) = 61.92446 22.20040 42.06243
#
# Velocity S-wave (km/s) = 5.47959 3.28093 4.51611
# Velocity P-wave (km/s) = 7.72181 5.94434 6.89063
#
# Compressibility (1/GPa) = 0.02474904
#
# Stress axis : x y z
#
# Youngs Moduli (GPa) = 46.62899 118.49007 79.03752
#
# Poissons Ratio (x) = 0.02657 0.64411
# Poissons Ratio (y) = 0.01046 0.04115
# Poissons Ratio (z) = 0.38000 0.06168
#
# Static dielectric constant tensor:
#      x y z
#    x 3.189700 0.000000 0.000000 
#    y 0.000000 1.385680 0.000000 
#    z 0.000000 0.000000 4.092720 
# 
# 
# High freq. dielectric constant tensor:
#      x y z
#    x 1.756850 0.000000 0.000000 
#    y 0.000000 1.840940 0.000000 
#    z 0.000000 0.000000 1.816420 
# 
# From -- ./inp_files/25770.got.cif
#   From: 2010.03.12/outbox.cif.g09.slc.cpg/sg57_13_cif.got.tgz:25770.got - 2010.04.16 15:48:40.
