data_PCOD8232847
_publ_section_title
;
Structure prediction by ZEFSAII (Michael W. Deem and Ramdas Pophale) SiO2 
 PCOD8232847
Probable space group: P B C M
;
_chemical_formula_sum "Si O2"
_cell_formula_units_Z 64
_cell_length_a 19.844701
_cell_length_b 19.807827
_cell_length_c 8.857068
_cell_angle_alpha 90.000000
_cell_angle_beta 90.000000
_cell_angle_gamma 90.000000
_cell_volume 3481.539870
_symmetry_space_group_name_H-M "P B C M"
_symmetry_group_IT_number 57
_symmetry_cell_setting 'orthorhombic'
loop_
_space_group_symop_operation_xyz
x,y,z
-x,-y,1/2+z
x,1/2-y,-z
-x,1/2+y,1/2-z
-x,-y,-z
x,y,1/2-z
-x,1/2+y,z
x,1/2-y,1/2+z
loop_
_atom_site_type_symbol
_atom_site_label
_atom_site_fract_x
_atom_site_fract_y
_atom_site_fract_z
Si Si1 0.518926 0.569936 0.573749
Si Si2 0.304291 0.593282 0.422861
Si Si3 0.911565 0.820967 0.427878
Si Si4 0.842179 0.050663 0.073900
Si Si5 0.330492 0.440828 0.074776
Si Si6 0.023765 0.930706 0.072852
Si Si7 0.196709 0.089766 0.071254
Si Si8 0.587779 0.321678 0.072430
O O1 0.500000 0.500000 0.500000
O O2 0.507912 0.560024 0.750000
O O3 0.596326 0.590172 0.538392
O O4 0.470855 0.628826 0.511086
O O5 0.321709 0.609859 0.250000
O O6 0.224134 0.596002 0.451591
O O7 0.332270 0.519842 0.468233
O O8 0.339327 0.649333 0.526247
O O9 0.931976 0.750000 0.500000
O O10 0.900217 0.813576 0.250000
O O11 0.842753 0.846384 0.504569
O O12 0.971708 0.872030 0.467017
O O13 0.855880 0.037867 0.250000
O O14 0.904298 0.090048 0.998462
O O15 0.834650 0.977808 0.998036
O O16 0.310060 0.433091 0.250000
O O17 0.275140 0.402387 0.974553
O O18 0.031656 0.941295 0.250000
O O19 0.000000 0.000000 0.000000
O O20 0.189551 0.087987 0.250000
O O21 0.585128 0.313531 0.250000
O O22 0.574337 0.250000 0.000000
#
# Coordination Sequence:
#
# PCOD8232847 Si02
#       8
#     8   8   8   8   8   8   8   8
#     4  10  20  35  57  85 113 148 191 239 292 343
#     4   9  18  34  56  81 111 148 185 231 287 338
#     4  11  24  41  60  84 117 155 195 239 292 351
#     4  10  20  35  57  85 117 148 186 236 289 337
#     4   9  18  34  56  82 115 147 181 234 292 338
#     4  11  22  36  59  88 118 153 195 240 288 343
#     4  11  21  34  56  85 115 149 191 235 283 341
#     4  11  23  37  56  82 114 152 193 235 286 348
#
# _framework density 18.382670000000001
#
# number of rings (size 3 to 8) (size 9 to 14) (size 15 to 20)
#    0.000    1.750    2.500    3.375    0.000    5.000 
#    0.000    1.250    0.000    3.000    0.000    0.000 
#    0.000    0.000    0.000    0.000    0.000    0.000 
#
# Total GULP energy -793810.909571 kJ/mol
# GULP energy per Si atom -12403.295462 kJ/mol
# Density = 1.834083 g / cm^3
# Si number density = 18.382670 Si / 1000 Ang^3
#
#
#
# Elastic Constant Matrix: (Units=GPa)
#
#
# Indices 1 2 3 4 5 6 
#
# 1 130.3001 66.5679 59.0849 0.0000 0.0000 0.0000
# 2 66.5679 116.5929 59.9715 0.0000 0.0000 0.0000
# 3 59.0849 59.9715 103.3168 0.0000 0.0000 0.0000
# 4 0.0000 0.0000 0.0000 28.9095 0.0000 0.0000
# 5 0.0000 0.0000 0.0000 0.0000 33.2021 0.0000
# 6 0.0000 0.0000 0.0000 0.0000 0.0000 24.5362
#
#
#
# Elastic Compliance Matrix: (Units=1/GPa)
#
#
# Indices 1 2 3 4 5 6 
#
# 1 0.011937 -0.004710 -0.004092 0.000000 0.000000 0.000000
# 2 -0.004710 0.014086 -0.005483 0.000000 0.000000 0.000000
# 3 -0.004092 -0.005483 0.015202 0.000000 0.000000 0.000000
# 4 0.000000 0.000000 0.000000 0.034591 0.000000 0.000000
# 5 0.000000 0.000000 0.000000 0.000000 0.030119 0.000000
# 6 0.000000 0.000000 0.000000 0.000000 0.000000 0.040756
#
#
# Mechanical properties :
#
#
# Convention : Reuss Voigt Hill
#
# Bulk Modulus (GPa) = 79.02569 80.16206 79.59388
# Shear Modulus (GPa) = 27.85845 28.30193 28.08019
#
# Velocity S-wave (km/s) = 3.89713 3.92803 3.91261
# Velocity P-wave (km/s) = 7.95819 8.01715 7.98772
#
# Compressibility (1/GPa) = 0.01265411
#
# Stress axis : x y z
#
# Youngs Moduli (GPa) = 83.77622 70.99079 65.78154
#
# Poissons Ratio (x) = 0.33438 0.26919
# Poissons Ratio (y) = 0.39460 0.36067
# Poissons Ratio (z) = 0.34283 0.38924
#
# Static dielectric constant tensor:
#      x y z
#    x 3.744420 0.000000 0.000000 
#    y 0.000000 3.165860 0.000000 
#    z 0.000000 0.000000 3.410630 
# 
# 
# High freq. dielectric constant tensor:
#      x y z
#    x 1.728180 0.000000 0.000000 
#    y 0.000000 1.683660 0.000000 
#    z 0.000000 0.000000 1.720610 
# 
# From -- ./inp_files/8457.got.cif
#   From: 2010.03.12/outbox.cif.g09.slc.cpg/sg57_5_cif.got.tgz:8457.got - 2010.04.16 15:48:40.
