data_PCOD8232432
_publ_section_title
;
Structure prediction by ZEFSAII (Michael W. Deem and Ramdas Pophale) SiO2 
 PCOD8232432
Probable space group: P B C M
;
_chemical_formula_sum "Si O2"
_cell_formula_units_Z 64
_cell_length_a 19.336302
_cell_length_b 20.208741
_cell_length_c 8.888252
_cell_angle_alpha 90.000000
_cell_angle_beta 90.000000
_cell_angle_gamma 90.000000
_cell_volume 3473.193964
_symmetry_space_group_name_H-M "P B C M"
_symmetry_group_IT_number 57
_symmetry_cell_setting 'orthorhombic'
loop_
_space_group_symop_operation_xyz
x,y,z
-x,-y,1/2+z
x,1/2-y,-z
-x,1/2+y,1/2-z
-x,-y,-z
x,y,1/2-z
-x,1/2+y,z
x,1/2-y,1/2+z
loop_
_atom_site_type_symbol
_atom_site_label
_atom_site_fract_x
_atom_site_fract_y
_atom_site_fract_z
Si Si1 0.666188 0.431396 0.925150
Si Si2 0.824786 0.076777 0.078444
Si Si3 0.182867 0.426032 0.073785
Si Si4 0.326936 0.428789 0.928297
Si Si5 0.416906 0.317875 0.423146
Si Si6 0.925759 0.682690 0.927050
Si Si7 0.917635 0.317290 0.073708
Si Si8 0.419948 0.682271 0.577120
O O1 0.650960 0.443089 0.750000
O O2 0.744543 0.407147 0.950263
O O3 0.652437 0.499556 0.010422
O O4 0.614832 0.377593 0.990178
O O5 0.845462 0.091970 0.250000
O O6 0.840495 0.000655 0.037389
O O7 0.870319 0.121337 0.969975
O O8 0.199952 0.418801 0.250000
O O9 0.121553 0.378151 0.019589
O O10 0.251261 0.406610 0.983057
O O11 0.328857 0.429892 0.750000
O O12 0.382995 0.377924 0.988897
O O13 0.392351 0.250000 0.500000
O O14 0.392967 0.317368 0.250000
O O15 0.498558 0.326869 0.437619
O O16 0.922133 0.691452 0.750000
O O17 0.004038 0.668526 0.981387
O O18 0.897163 0.750000 0.000000
O O19 0.914413 0.307352 0.250000
O O20 0.889020 0.250000 0.000000
O O21 0.395259 0.750000 0.500000
O O22 0.395836 0.683044 0.750000
#
# Coordination Sequence:
#
# PCOD8232432 Si02
#       8
#     8   8   8   8   8   8   8   8
#     4  10  21  38  58  79 108 144 180 221 269 318
#     4   9  19  35  54  76 103 138 175 214 263 314
#     4   9  19  37  56  75 106 142 175 216 266 317
#     4  11  22  36  56  82 110 141 180 222 266 318
#     4  10  21  38  58  81 110 143 179 220 267 317
#     4   9  19  35  54  77 105 138 175 215 261 312
#     4  10  20  34  53  77 105 137 174 217 262 311
#     4  10  21  37  58  83 110 141 179 222 267 318
#
# _framework density 18.426843000000002
#
# number of rings (size 3 to 8) (size 9 to 14) (size 15 to 20)
#    0.000    2.250    0.000    3.375    0.000    7.000 
#    0.000    1.250    0.000    0.000    0.000    0.000 
#    0.000    0.000    0.000    0.000    0.000    0.000 
#
# Total GULP energy -793837.019772 kJ/mol
# GULP energy per Si atom -12403.703434 kJ/mol
# Density = 1.838490 g / cm^3
# Si number density = 18.426843 Si / 1000 Ang^3
#
#
#
# Elastic Constant Matrix: (Units=GPa)
#
#
# Indices 1 2 3 4 5 6 
#
# 1 53.2741 53.4970 41.1166 0.0000 0.0000 0.0000
# 2 53.4970 111.7302 53.9236 0.0000 0.0000 0.0000
# 3 41.1166 53.9236 108.1253 0.0000 0.0000 0.0000
# 4 0.0000 0.0000 0.0000 37.5436 0.0000 0.0000
# 5 0.0000 0.0000 0.0000 0.0000 27.4606 0.0000
# 6 0.0000 0.0000 0.0000 0.0000 0.0000 9.4402
#
#
#
# Elastic Compliance Matrix: (Units=1/GPa)
#
#
# Indices 1 2 3 4 5 6 
#
# 1 0.040308 -0.015675 -0.007511 0.000000 0.000000 0.000000
# 2 -0.015675 0.017883 -0.002958 0.000000 0.000000 0.000000
# 3 -0.007511 -0.002958 0.013580 0.000000 0.000000 0.000000
# 4 0.000000 0.000000 0.000000 0.026636 0.000000 0.000000
# 5 0.000000 0.000000 0.000000 0.000000 0.036416 0.000000
# 6 0.000000 0.000000 0.000000 0.000000 0.000000 0.105929
#
#
# Mechanical properties :
#
#
# Convention : Reuss Voigt Hill
#
# Bulk Modulus (GPa) = 51.32416 63.35600 57.34008
# Shear Modulus (GPa) = 16.69270 23.19504 19.94387
#
# Velocity S-wave (km/s) = 3.01307 3.55175 3.29344
# Velocity P-wave (km/s) = 6.32599 7.16080 6.75630
#
# Compressibility (1/GPa) = 0.01948400
#
# Stress axis : x y z
#
# Youngs Moduli (GPa) = 24.80908 55.91958 73.63976
#
# Poissons Ratio (x) = 0.87653 0.55307
# Poissons Ratio (y) = 0.38888 0.21781
# Poissons Ratio (z) = 0.18633 0.16540
#
# Static dielectric constant tensor:
#      x y z
#    x 3.388520 0.000000 0.000000 
#    y 0.000000 3.438370 0.000000 
#    z 0.000000 0.000000 3.570410 
# 
# 
# High freq. dielectric constant tensor:
#      x y z
#    x 1.710090 0.000000 0.000000 
#    y 0.000000 1.722530 0.000000 
#    z 0.000000 0.000000 1.723250 
# 
# From -- ./inp_files/7267.got.cif
#   From: 2010.03.12/outbox.cif.g09.slc.cpg/sg57_4_cif.got.tgz:7267.got - 2010.04.16 15:48:40.
