data_PCOD8232507
_publ_section_title
;
Structure prediction by ZEFSAII (Michael W. Deem and Ramdas Pophale) SiO2 
 PCOD8232507
Probable space group: P B C M
;
_chemical_formula_sum "Si O2"
_cell_formula_units_Z 64
_cell_length_a 23.564212
_cell_length_b 14.802231
_cell_length_c 9.438738
_cell_angle_alpha 90.000000
_cell_angle_beta 90.000000
_cell_angle_gamma 90.000000
_cell_volume 3292.259275
_symmetry_space_group_name_H-M "P B C M"
_symmetry_group_IT_number 57
_symmetry_cell_setting 'orthorhombic'
loop_
_space_group_symop_operation_xyz
x,y,z
-x,-y,1/2+z
x,1/2-y,-z
-x,1/2+y,1/2-z
-x,-y,-z
x,y,1/2-z
-x,1/2+y,z
x,1/2-y,1/2+z
loop_
_atom_site_type_symbol
_atom_site_label
_atom_site_fract_x
_atom_site_fract_y
_atom_site_fract_z
Si Si1 0.625787 0.490503 0.413498
Si Si2 0.408981 0.340092 0.416561
Si Si3 0.248216 0.972752 0.087189
Si Si4 0.149733 0.843542 0.417884
Si Si5 0.459381 0.837063 0.086739
Si Si6 0.762995 0.670990 0.093660
Si Si7 0.057411 0.511759 0.915310
Si Si8 0.894518 0.674023 0.403194
O O1 0.615585 0.519647 0.250000
O O2 0.625669 0.578175 0.513301
O O3 0.686703 0.440298 0.429512
O O4 0.577556 0.421775 0.465844
O O5 0.391303 0.250000 0.500000
O O6 0.394531 0.331220 0.250000
O O7 0.475289 0.360595 0.440859
O O8 0.229561 0.985291 0.250000
O O9 0.204517 0.899616 0.023034
O O10 0.243717 0.073076 0.018395
O O11 0.147431 0.750000 0.500000
O O12 0.154832 0.825604 0.250000
O O13 0.092374 0.898330 0.455504
O O14 0.447097 0.815689 0.250000
O O15 0.439780 0.750000 0.000000
O O16 0.734000 0.671174 0.250000
O O17 0.828559 0.694926 0.109606
O O18 0.733488 0.750000 0.000000
O O19 0.042853 0.512319 0.750000
O O20 0.096618 0.427116 0.960120
O O21 0.000000 0.500000 0.000000
O O22 0.924306 0.750000 0.500000
O O23 0.923888 0.683418 0.250000
#
# Coordination Sequence:
#
# PCOD8232507 Si02
#       8
#     8   8   8   8   8   8   8   8
#     4  10  20  34  54  81 109 141 182 229 278 328
#     4  10  20  35  54  77 108 146 183 225 276 333
#     4   9  18  35  57  77 106 146 181 216 267 324
#     4  10  21  40  61  81 109 148 187 224 267 318
#     4   9  19  34  53  77 106 141 183 228 278 330
#     4   9  16  30  52  75  98 130 167 204 252 310
#     4  10  21  37  57  80 110 143 177 218 266 318
#     4   9  17  31  52  76 101 131 165 204 252 307
#
# _framework density 19.439539
#
# number of rings (size 3 to 8) (size 9 to 14) (size 15 to 20)
#    0.000    2.500    1.250    0.750    0.000    3.500 
#    0.000    5.625    0.000    0.000    0.000    0.000 
#    0.000    0.000    0.000    0.000    0.000    0.000 
#
# Total GULP energy -793362.024085 kJ/mol
# GULP energy per Si atom -12396.281626 kJ/mol
# Density = 1.939529 g / cm^3
# Si number density = 19.439539 Si / 1000 Ang^3
#
#
#
# Elastic Constant Matrix: (Units=GPa)
#
#
# Indices 1 2 3 4 5 6 
#
# 1 76.1892 40.7888 32.2189 0.0000 0.0000 0.0000
# 2 40.7888 144.1388 56.6800 0.0000 0.0000 0.0000
# 3 32.2189 56.6800 68.0588 0.0000 0.0000 0.0000
# 4 0.0000 0.0000 0.0000 38.2567 0.0000 0.0000
# 5 0.0000 0.0000 0.0000 0.0000 17.4121 0.0000
# 6 0.0000 0.0000 0.0000 0.0000 0.0000 15.4317
#
#
#
# Elastic Compliance Matrix: (Units=1/GPa)
#
#
# Indices 1 2 3 4 5 6 
#
# 1 0.016970 -0.002443 -0.005999 0.000000 0.000000 0.000000
# 2 -0.002443 0.010668 -0.007728 0.000000 0.000000 0.000000
# 3 -0.005999 -0.007728 0.023969 0.000000 0.000000 0.000000
# 4 0.000000 0.000000 0.000000 0.026139 0.000000 0.000000
# 5 0.000000 0.000000 0.000000 0.000000 0.057431 0.000000
# 6 0.000000 0.000000 0.000000 0.000000 0.000000 0.064802
#
#
# Mechanical properties :
#
#
# Convention : Reuss Voigt Hill
#
# Bulk Modulus (GPa) = 51.90196 60.86246 56.38221
# Shear Modulus (GPa) = 20.94323 24.80005 22.87164
#
# Velocity S-wave (km/s) = 3.28587 3.57564 3.43381
# Velocity P-wave (km/s) = 6.41506 6.95870 6.69240
#
# Compressibility (1/GPa) = 0.01926710
#
# Stress axis : x y z
#
# Youngs Moduli (GPa) = 58.92732 93.73865 41.72108
#
# Poissons Ratio (x) = 0.22903 0.25028
# Poissons Ratio (y) = 0.14398 0.32241
# Poissons Ratio (z) = 0.35349 0.72438
#
# Static dielectric constant tensor:
#      x y z
#    x 3.463310 0.000000 0.000000 
#    y 0.000000 3.622080 0.000000 
#    z 0.000000 0.000000 3.569010 
# 
# 
# High freq. dielectric constant tensor:
#      x y z
#    x 1.752460 0.000000 0.000000 
#    y 0.000000 1.759180 0.000000 
#    z 0.000000 0.000000 1.735090 
# 
# From -- ./inp_files/9425.got.cif
#   From: 2010.03.12/outbox.cif.g09.slc.cpg/sg57_5_cif.got.tgz:9425.got - 2010.04.16 15:48:40.
