data_PCOD8232780
_publ_section_title
;
Structure prediction by ZEFSAII (Michael W. Deem and Ramdas Pophale) SiO2 
 PCOD8232780
Probable space group: P B C M
;
_chemical_formula_sum "Si O2"
_cell_formula_units_Z 64
_cell_length_a 19.366987
_cell_length_b 20.293565
_cell_length_c 8.797828
_cell_angle_alpha 90.000000
_cell_angle_beta 90.000000
_cell_angle_gamma 90.000000
_cell_volume 3457.768193
_symmetry_space_group_name_H-M "P B C M"
_symmetry_group_IT_number 57
_symmetry_cell_setting 'orthorhombic'
loop_
_space_group_symop_operation_xyz
x,y,z
-x,-y,1/2+z
x,1/2-y,-z
-x,1/2+y,1/2-z
-x,-y,-z
x,y,1/2-z
-x,1/2+y,z
x,1/2-y,1/2+z
loop_
_atom_site_type_symbol
_atom_site_label
_atom_site_fract_x
_atom_site_fract_y
_atom_site_fract_z
Si Si1 0.657057 0.576650 0.929346
Si Si2 0.319594 0.560964 0.572785
Si Si3 0.167343 0.527022 0.922302
Si Si4 0.020070 0.568611 0.925637
Si Si5 0.602559 0.318157 0.927138
Si Si6 0.811319 0.606071 0.573216
Si Si7 0.929547 0.819293 0.929391
Si Si8 0.442301 0.181486 0.427781
O O1 0.649263 0.569635 0.750000
O O2 0.730989 0.608024 0.973947
O O3 0.648257 0.504849 0.001571
O O4 0.597466 0.622050 0.994434
O O5 0.336487 0.560974 0.750000
O O6 0.237735 0.565419 0.538744
O O7 0.353635 0.623543 0.497005
O O8 0.170538 0.499024 0.750000
O O9 0.103122 0.576746 0.940857
O O10 0.156739 0.465147 0.033773
O O11 0.996549 0.570089 0.750000
O O12 0.000000 0.500000 0.000000
O O13 0.984754 0.627550 0.014966
O O14 0.617175 0.314395 0.750000
O O15 0.522412 0.330546 0.963174
O O16 0.627780 0.250000 0.000000
O O17 0.821860 0.619889 0.750000
O O18 0.852014 0.662078 0.481294
O O19 0.932071 0.814403 0.750000
O O20 0.951289 0.750000 0.000000
O O21 0.416936 0.250000 0.500000
O O22 0.426071 0.183256 0.250000
#
# Coordination Sequence:
#
# PCOD8232780 Si02
#       8
#     8   8   8   8   8   8   8   8
#     4  10  21  36  56  84 116 149 187 232 280 332
#     4  10  20  36  58  85 115 148 186 232 282 332
#     4   9  19  35  57  84 113 144 183 227 273 330
#     4  11  21  36  60  88 114 147 189 231 279 337
#     4  10  21  38  59  83 110 145 189 234 284 341
#     4  10  20  35  56  81 110 145 185 227 275 333
#     4  12  25  40  57  81 114 151 191 238 286 336
#     4  10  21  37  57  80 109 147 189 233 281 338
#
# _framework density 18.509049000000001
#
# number of rings (size 3 to 8) (size 9 to 14) (size 15 to 20)
#    0.000    1.750    1.250    3.375    0.000    5.000 
#    0.000    0.625    0.000    0.000    0.000    0.000 
#    0.000    0.000    0.000    0.000    0.000    0.000 
#
# Total GULP energy -793837.773503 kJ/mol
# GULP energy per Si atom -12403.715211 kJ/mol
# Density = 1.846692 g / cm^3
# Si number density = 18.509049 Si / 1000 Ang^3
#
#
#
# Elastic Constant Matrix: (Units=GPa)
#
#
# Indices 1 2 3 4 5 6 
#
# 1 82.3884 74.0521 50.2846 0.0000 0.0000 0.0000
# 2 74.0521 153.5461 72.1287 0.0000 0.0000 0.0000
# 3 50.2846 72.1287 120.9842 0.0000 0.0000 0.0000
# 4 0.0000 0.0000 0.0000 39.0670 0.0000 0.0000
# 5 0.0000 0.0000 0.0000 0.0000 29.4431 0.0000
# 6 0.0000 0.0000 0.0000 0.0000 0.0000 27.5986
#
#
#
# Elastic Compliance Matrix: (Units=1/GPa)
#
#
# Indices 1 2 3 4 5 6 
#
# 1 0.022770 -0.009078 -0.004052 0.000000 0.000000 0.000000
# 2 -0.009078 0.012666 -0.003778 0.000000 0.000000 0.000000
# 3 -0.004052 -0.003778 0.012202 0.000000 0.000000 0.000000
# 4 0.000000 0.000000 0.000000 0.025597 0.000000 0.000000
# 5 0.000000 0.000000 0.000000 0.000000 0.033964 0.000000
# 6 0.000000 0.000000 0.000000 0.000000 0.000000 0.036234
#
#
# Mechanical properties :
#
#
# Convention : Reuss Voigt Hill
#
# Bulk Modulus (GPa) = 72.34793 83.31663 77.83228
# Shear Modulus (GPa) = 27.49437 29.91861 28.70649
#
# Velocity S-wave (km/s) = 3.85834 4.02485 3.94247
# Velocity P-wave (km/s) = 7.68256 8.16768 7.92883
#
# Compressibility (1/GPa) = 0.01382210
#
# Stress axis : x y z
#
# Youngs Moduli (GPa) = 43.91688 78.95365 81.95525
#
# Poissons Ratio (x) = 0.71677 0.33205
# Poissons Ratio (y) = 0.39869 0.30961
# Poissons Ratio (z) = 0.17793 0.29827
#
# Static dielectric constant tensor:
#      x y z
#    x 3.586690 0.000000 0.000000 
#    y 0.000000 3.315610 0.000000 
#    z 0.000000 0.000000 3.541260 
# 
# 
# High freq. dielectric constant tensor:
#      x y z
#    x 1.722610 0.000000 0.000000 
#    y 0.000000 1.707410 0.000000 
#    z 0.000000 0.000000 1.736390 
# 
# From -- ./inp_files/8624.got.cif
#   From: 2010.03.12/outbox.cif.g09.slc.cpg/sg57_5_cif.got.tgz:8624.got - 2010.04.16 15:48:40.
