data_PCOD8232385
_publ_section_title
;
Structure prediction by ZEFSAII (Michael W. Deem and Ramdas Pophale) SiO2 
 PCOD8232385
Probable space group: P B C M
;
_chemical_formula_sum "Si O2"
_cell_formula_units_Z 64
_cell_length_a 22.505739
_cell_length_b 17.387571
_cell_length_c 9.132140
_cell_angle_alpha 90.000000
_cell_angle_beta 90.000000
_cell_angle_gamma 90.000000
_cell_volume 3573.590256
_symmetry_space_group_name_H-M "P B C M"
_symmetry_group_IT_number 57
_symmetry_cell_setting 'orthorhombic'
loop_
_space_group_symop_operation_xyz
x,y,z
-x,-y,1/2+z
x,1/2-y,-z
-x,1/2+y,1/2-z
-x,-y,-z
x,y,1/2-z
-x,1/2+y,z
x,1/2-y,1/2+z
loop_
_atom_site_type_symbol
_atom_site_label
_atom_site_fract_x
_atom_site_fract_y
_atom_site_fract_z
Si Si1 0.244540 0.509843 0.076826
Si Si2 0.468857 0.930723 0.419239
Si Si3 0.045373 0.325394 0.917244
Si Si4 0.202029 0.825409 0.582226
Si Si5 0.077112 0.605232 0.420447
Si Si6 0.130187 0.034311 0.418678
Si Si7 0.552091 0.828257 0.922601
Si Si8 0.361065 0.029754 0.084390
O O1 0.237485 0.502092 0.250000
O O2 0.237572 0.598973 0.027512
O O3 0.192678 0.460367 0.002371
O O4 0.307120 0.475269 0.027896
O O5 0.489139 0.926250 0.250000
O O6 0.488844 0.852994 0.503458
O O7 0.500000 0.000000 0.500000
O O8 0.398825 0.950319 0.429903
O O9 0.034537 0.303663 0.750000
O O10 0.098667 0.384482 0.937165
O O11 0.983044 0.356794 0.981308
O O12 0.066087 0.250000 0.000000
O O13 0.225333 0.750000 0.500000
O O14 0.216161 0.810685 0.750000
O O15 0.131867 0.836781 0.554129
O O16 0.071825 0.582185 0.250000
O O17 0.086628 0.528408 0.512332
O O18 0.141670 0.013356 0.250000
O O19 0.542642 0.815500 0.750000
O O20 0.600392 0.894628 0.954645
O O21 0.574046 0.750000 0.000000
O O22 0.336943 0.037287 0.250000
#
# Coordination Sequence:
#
# PCOD8232385 Si02
#       8
#     8   8   8   8   8   8   8   8
#     4  10  21  36  54  75 100 135 177 217 256 303
#     4   9  17  31  52  78 107 137 168 205 252 303
#     4  10  21  34  50  74 102 131 165 208 257 310
#     4   9  18  31  48  72  99 126 159 202 251 303
#     4   9  18  33  51  74 101 126 161 206 253 312
#     4  10  20  34  52  74  99 131 171 212 256 307
#     4  10  20  34  54  82 113 142 175 217 262 306
#     4   9  19  35  55  79 105 136 176 217 255 302
#
# _framework density 17.90916
#
# number of rings (size 3 to 8) (size 9 to 14) (size 15 to 20)
#    0.000    2.500    0.000    3.750    0.000    7.000 
#    0.000    1.250    0.000    1.500    0.000    0.000 
#    0.000    0.000    0.000    0.000    0.000    0.000 
#
# Total GULP energy -793487.010565 kJ/mol
# GULP energy per Si atom -12398.234540 kJ/mol
# Density = 1.786840 g / cm^3
# Si number density = 17.909160 Si / 1000 Ang^3
#
#
#
# Elastic Constant Matrix: (Units=GPa)
#
#
# Indices 1 2 3 4 5 6 
#
# 1 82.8999 44.8445 46.5309 0.0000 0.0000 0.0000
# 2 44.8445 93.8512 55.3274 0.0000 0.0000 0.0000
# 3 46.5309 55.3274 98.5576 0.0000 0.0000 0.0000
# 4 0.0000 0.0000 0.0000 34.2294 0.0000 0.0000
# 5 0.0000 0.0000 0.0000 0.0000 29.2566 0.0000
# 6 0.0000 0.0000 0.0000 0.0000 0.0000 15.7677
#
#
#
# Elastic Compliance Matrix: (Units=1/GPa)
#
#
# Indices 1 2 3 4 5 6 
#
# 1 0.018067 -0.005387 -0.005506 0.000000 0.000000 0.000000
# 2 -0.005387 0.017532 -0.007299 0.000000 0.000000 0.000000
# 3 -0.005506 -0.007299 0.016843 0.000000 0.000000 0.000000
# 4 0.000000 0.000000 0.000000 0.029215 0.000000 0.000000
# 5 0.000000 0.000000 0.000000 0.000000 0.034180 0.000000
# 6 0.000000 0.000000 0.000000 0.000000 0.000000 0.063421
#
#
# Mechanical properties :
#
#
# Convention : Reuss Voigt Hill
#
# Bulk Modulus (GPa) = 62.26956 63.19049 62.73002
# Shear Modulus (GPa) = 22.62510 24.42448 23.52479
#
# Velocity S-wave (km/s) = 3.55818 3.69697 3.62824
# Velocity P-wave (km/s) = 7.19208 7.32011 7.25638
#
# Compressibility (1/GPa) = 0.01605921
#
# Stress axis : x y z
#
# Youngs Moduli (GPa) = 55.34885 57.03864 59.37247
#
# Poissons Ratio (x) = 0.30728 0.32688
# Poissons Ratio (y) = 0.29818 0.43333
# Poissons Ratio (z) = 0.30473 0.41630
#
# Static dielectric constant tensor:
#      x y z
#    x 3.299680 0.000000 0.000000 
#    y 0.000000 3.218170 0.000000 
#    z 0.000000 0.000000 3.406230 
# 
# 
# High freq. dielectric constant tensor:
#      x y z
#    x 1.678960 0.000000 0.000000 
#    y 0.000000 1.683080 0.000000 
#    z 0.000000 0.000000 1.702330 
# 
# From -- ./inp_files/8436.got.cif
#   From: 2010.03.12/outbox.cif.g09.slc.cpg/sg57_5_cif.got.tgz:8436.got - 2010.04.16 15:48:40.
