data_PCOD8232835
_publ_section_title
;
Structure prediction by ZEFSAII (Michael W. Deem and Ramdas Pophale) SiO2 
 PCOD8232835
Probable space group: P B C M
;
_chemical_formula_sum "Si O2"
_cell_formula_units_Z 56
_cell_length_a 20.743076
_cell_length_b 15.110351
_cell_length_c 9.365347
_cell_angle_alpha 90.000000
_cell_angle_beta 90.000000
_cell_angle_gamma 90.000000
_cell_volume 2935.429028
_symmetry_space_group_name_H-M "P B C M"
_symmetry_group_IT_number 57
_symmetry_cell_setting 'orthorhombic'
loop_
_space_group_symop_operation_xyz
x,y,z
-x,-y,1/2+z
x,1/2-y,-z
-x,1/2+y,1/2-z
-x,-y,-z
x,y,1/2-z
-x,1/2+y,z
x,1/2-y,1/2+z
loop_
_atom_site_type_symbol
_atom_site_label
_atom_site_fract_x
_atom_site_fract_y
_atom_site_fract_z
Si Si1 0.356433 0.164739 0.915364
Si Si2 0.965145 0.076533 0.914048
Si Si3 0.854460 0.020955 0.084076
Si Si4 0.294332 0.519255 0.414236
Si Si5 0.908145 0.833176 0.088702
Si Si6 0.491247 0.088983 0.913809
Si Si7 0.628837 0.336762 0.084482
O O1 0.357227 0.190107 0.750000
O O2 0.428195 0.140056 0.969759
O O3 0.308338 0.083483 0.946378
O O4 0.330890 0.250000 0.000000
O O5 0.953593 0.048734 0.750000
O O6 0.013603 0.160018 0.922360
O O7 0.896050 0.092097 0.991538
O O8 0.000000 0.000000 0.000000
O O9 0.872484 0.032670 0.250000
O O10 0.873153 0.922035 0.032706
O O11 0.780015 0.039604 0.054466
O O12 0.312302 0.541224 0.250000
O O13 0.336763 0.577920 0.519184
O O14 0.886369 0.816092 0.250000
O O15 0.883021 0.750000 0.000000
O O16 0.481277 0.060896 0.750000
O O17 0.552253 0.152791 0.933452
O O18 0.500000 0.000000 0.000000
O O19 0.648469 0.327437 0.250000
O O20 0.651926 0.250000 0.000000
#
# Coordination Sequence:
#
# PCOD8232835 Si02
#       7
#     8   8   8   8   8   8   8
#     4  10  21  36  55  81 113 149 186 228 283 339
#     4   9  17  31  51  75 102 133 170 213 257 307
#     4   9  19  35  54  76 104 141 180 219 267 321
#     4  10  21  39  59  79 112 153 190 233 283 335
#     4   9  18  31  49  77 108 135 169 211 259 313
#     4  10  20  35  57  84 111 143 183 232 287 341
#     4  11  23  38  59  85 111 144 188 237 288 342
#
# _framework density 19.077279999999998
#
# number of rings (size 3 to 8) (size 9 to 14) (size 15 to 20)
#    0.000    2.286    1.429    2.143    0.000    5.714 
#    0.000    0.714    0.000    1.714    0.000    0.000 
#    0.000    0.000    0.000    0.000    0.000    0.000 
#
# Total GULP energy -694336.250141 kJ/mol
# GULP energy per Si atom -12398.861610 kJ/mol
# Density = 1.903386 g / cm^3
# Si number density = 19.077280 Si / 1000 Ang^3
#
#
#
# Elastic Constant Matrix: (Units=GPa)
#
#
# Indices 1 2 3 4 5 6 
#
# 1 66.9995 -7.5136 22.2696 0.0000 0.0000 0.0000
# 2 -7.5136 54.4283 29.8030 0.0000 0.0000 0.0000
# 3 22.2696 29.8030 82.4562 0.0000 0.0000 0.0000
# 4 0.0000 0.0000 0.0000 36.4427 0.0000 0.0000
# 5 0.0000 0.0000 0.0000 0.0000 27.1464 0.0000
# 6 0.0000 0.0000 0.0000 0.0000 0.0000 16.1808
#
#
#
# Elastic Compliance Matrix: (Units=1/GPa)
#
#
# Indices 1 2 3 4 5 6 
#
# 1 0.018038 0.006430 -0.007196 0.000000 0.000000 0.000000
# 2 0.006430 0.025199 -0.010844 0.000000 0.000000 0.000000
# 3 -0.007196 -0.010844 0.017991 0.000000 0.000000 0.000000
# 4 0.000000 0.000000 0.000000 0.027440 0.000000 0.000000
# 5 0.000000 0.000000 0.000000 0.000000 0.036837 0.000000
# 6 0.000000 0.000000 0.000000 0.000000 0.000000 0.061802
#
#
# Mechanical properties :
#
#
# Convention : Reuss Voigt Hill
#
# Bulk Modulus (GPa) = 26.31055 32.55580 29.43317
# Shear Modulus (GPa) = 22.40179 26.57564 24.48872
#
# Velocity S-wave (km/s) = 3.43047 3.73641 3.58671
# Velocity P-wave (km/s) = 5.43253 5.97634 5.71091
#
# Compressibility (1/GPa) = 0.03800757
#
# Stress axis : x y z
#
# Youngs Moduli (GPa) = 55.43716 39.68486 55.58407
#
# Poissons Ratio (x) = -0.25519 0.39998
# Poissons Ratio (y) = -0.35648 0.60278
# Poissons Ratio (z) = 0.39893 0.43036
#
# Static dielectric constant tensor:
#      x y z
#    x 3.754670 0.000000 0.000000 
#    y 0.000000 3.267090 0.000000 
#    z 0.000000 0.000000 3.649010 
# 
# 
# High freq. dielectric constant tensor:
#      x y z
#    x 1.741180 0.000000 0.000000 
#    y 0.000000 1.721180 0.000000 
#    z 0.000000 0.000000 1.742370 
# 
# From -- ./inp_files/8045.got.cif
#   From: 2010.03.12/outbox.cif.g09.slc.cpg/sg57_5_cif.got.tgz:8045.got - 2010.04.16 15:48:40.
