data_PCOD8232239
_publ_section_title
;
Structure prediction by ZEFSAII (Michael W. Deem and Ramdas Pophale) SiO2 
 PCOD8232239
Probable space group: P B C M
;
_chemical_formula_sum "Si O2"
_cell_formula_units_Z 48
_cell_length_a 15.504866
_cell_length_b 18.657759
_cell_length_c 8.872570
_cell_angle_alpha 90.000000
_cell_angle_beta 90.000000
_cell_angle_gamma 90.000000
_cell_volume 2566.710757
_symmetry_space_group_name_H-M "P B C M"
_symmetry_group_IT_number 57
_symmetry_cell_setting 'orthorhombic'
loop_
_space_group_symop_operation_xyz
x,y,z
-x,-y,1/2+z
x,1/2-y,-z
-x,1/2+y,1/2-z
-x,-y,-z
x,y,1/2-z
-x,1/2+y,z
x,1/2-y,1/2+z
loop_
_atom_site_type_symbol
_atom_site_label
_atom_site_fract_x
_atom_site_fract_y
_atom_site_fract_z
Si Si1 0.745202 0.462054 0.577460
Si Si2 0.484984 0.324173 0.425259
Si Si3 0.661601 0.908289 0.926861
Si Si4 0.077210 0.458125 0.076952
Si Si5 0.316118 0.824722 0.073777
Si Si6 0.834807 0.672609 0.428263
O O1 0.714350 0.459264 0.750000
O O2 0.680986 0.512292 0.484247
O O3 0.841687 0.489911 0.563090
O O4 0.743102 0.383869 0.504335
O O5 0.457171 0.250000 0.500000
O O6 0.465729 0.317295 0.250000
O O7 0.426951 0.386158 0.494869
O O8 0.584050 0.342749 0.459156
O O9 0.647354 0.910714 0.750000
O O10 0.738947 0.854312 0.971832
O O11 0.054575 0.441285 0.250000
O O12 0.094956 0.382809 0.993634
O O13 0.000000 0.500000 0.000000
O O14 0.296223 0.821479 0.250000
O O15 0.289694 0.750000 0.000000
O O16 0.850614 0.750000 0.500000
O O17 0.847079 0.677231 0.250000
#
# Coordination Sequence:
#
# PCOD8232239 Si02
#       6
#     8   8   8   8   8   8
#     4  10  21  37  57  80 106 137 174 216 264 318
#     4  10  20  33  50  74 105 142 182 223 266 311
#     4  10  20  33  52  78 108 143 180 219 264 314
#     4  10  21  38  60  84 110 140 174 215 265 320
#     4  10  21  37  56  77 104 140 181 224 268 312
#     4  10  20  34  54  81 112 144 178 217 263 315
#
# _framework density 18.700976000000001
#
# number of rings (size 3 to 8) (size 9 to 14) (size 15 to 20)
#    0.000    2.000    0.000    3.500    0.000    8.000 
#    0.000    0.833    0.000    4.000    0.000    0.000 
#    0.000    0.000    0.000    0.000    0.000    0.000 
#
# Total GULP energy -595437.282539 kJ/mol
# GULP energy per Si atom -12404.943386 kJ/mol
# Density = 1.865841 g / cm^3
# Si number density = 18.700976 Si / 1000 Ang^3
#
#
#
# Elastic Constant Matrix: (Units=GPa)
#
#
# Indices 1 2 3 4 5 6 
#
# 1 38.1267 41.2258 35.7964 0.0000 0.0000 0.0000
# 2 41.2258 140.6403 60.6447 0.0000 0.0000 0.0000
# 3 35.7964 60.6447 106.8171 0.0000 0.0000 0.0000
# 4 0.0000 0.0000 0.0000 41.8377 0.0000 0.0000
# 5 0.0000 0.0000 0.0000 0.0000 31.2794 0.0000
# 6 0.0000 0.0000 0.0000 0.0000 0.0000 31.2407
#
#
#
# Elastic Compliance Matrix: (Units=1/GPa)
#
#
# Indices 1 2 3 4 5 6 
#
# 1 0.045420 -0.008939 -0.010146 0.000000 0.000000 0.000000
# 2 -0.008939 0.011175 -0.003349 0.000000 0.000000 0.000000
# 3 -0.010146 -0.003349 0.014663 0.000000 0.000000 0.000000
# 4 0.000000 0.000000 0.000000 0.023902 0.000000 0.000000
# 5 0.000000 0.000000 0.000000 0.000000 0.031970 0.000000
# 6 0.000000 0.000000 0.000000 0.000000 0.000000 0.032009
#
#
# Mechanical properties :
#
#
# Convention : Reuss Voigt Hill
#
# Bulk Modulus (GPa) = 37.89280 62.32421 50.10850
# Shear Modulus (GPa) = 23.49595 30.73272 27.11433
#
# Velocity S-wave (km/s) = 3.54842 4.05825 3.81187
# Velocity P-wave (km/s) = 6.09055 7.44032 6.79901
#
# Compressibility (1/GPa) = 0.02639024
#
# Stress axis : x y z
#
# Youngs Moduli (GPa) = 22.01686 89.48906 68.19834
#
# Poissons Ratio (x) = 0.79993 0.69194
# Poissons Ratio (y) = 0.19681 0.22838
# Poissons Ratio (z) = 0.22338 0.29967
#
# Static dielectric constant tensor:
#      x y z
#    x 3.270910 0.000000 0.000000 
#    y 0.000000 3.419590 0.000000 
#    z 0.000000 0.000000 3.666430 
# 
# 
# High freq. dielectric constant tensor:
#      x y z
#    x 1.707840 0.000000 0.000000 
#    y 0.000000 1.730960 0.000000 
#    z 0.000000 0.000000 1.746630 
# 
# From -- ./inp_files/4547.got.cif
#   From: 2010.03.12/outbox.cif.g09.slc.cpg/sg57_3_cif.got.tgz:4547.got - 2010.04.16 15:48:40.
