data_PCOD8232701
_publ_section_title
;
Structure prediction by ZEFSAII (Michael W. Deem and Ramdas Pophale) SiO2 
 PCOD8232701
Probable space group: P B C M
;
_chemical_formula_sum "Si O2"
_cell_formula_units_Z 56
_cell_length_a 21.371489
_cell_length_b 15.087472
_cell_length_c 9.220412
_cell_angle_alpha 90.000000
_cell_angle_beta 90.000000
_cell_angle_gamma 90.000000
_cell_volume 2973.045706
_symmetry_space_group_name_H-M "P B C M"
_symmetry_group_IT_number 57
_symmetry_cell_setting 'orthorhombic'
loop_
_space_group_symop_operation_xyz
x,y,z
-x,-y,1/2+z
x,1/2-y,-z
-x,1/2+y,1/2-z
-x,-y,-z
x,y,1/2-z
-x,1/2+y,z
x,1/2-y,1/2+z
loop_
_atom_site_type_symbol
_atom_site_label
_atom_site_fract_x
_atom_site_fract_y
_atom_site_fract_z
Si Si1 0.642572 0.501969 0.583322
Si Si2 0.788339 0.486160 0.916772
Si Si3 0.415852 0.338990 0.579845
Si Si4 0.559616 0.337677 0.581522
Si Si5 0.996286 0.838892 0.084884
Si Si6 0.860168 0.657317 0.580961
Si Si7 0.131766 0.655713 0.579371
O O1 0.626242 0.525875 0.750000
O O2 0.714586 0.477823 0.565094
O O3 0.627201 0.583385 0.480108
O O4 0.602063 0.418783 0.528930
O O5 0.809119 0.471769 0.750000
O O6 0.810666 0.583387 0.970464
O O7 0.817636 0.410781 0.016032
O O8 0.394433 0.250000 0.500000
O O9 0.404362 0.327578 0.750000
O O10 0.487955 0.360735 0.543403
O O11 0.582462 0.250000 0.500000
O O12 0.568672 0.318700 0.750000
O O13 0.995554 0.809918 0.250000
O O14 0.929727 0.885288 0.047288
O O15 0.062172 0.888759 0.051946
O O16 0.998576 0.750000 0.000000
O O17 0.848017 0.750000 0.500000
O O18 0.851817 0.678203 0.750000
O O19 0.138136 0.750000 0.500000
O O20 0.144493 0.669460 0.750000
#
# Coordination Sequence:
#
# PCOD8232701 Si02
#       7
#     8   8   8   8   8   8   8
#     4  10  21  37  54  76 109 144 177 215 257 304
#     4  10  22  37  52  75 108 144 178 212 256 309
#     4  10  20  35  57  83 107 135 172 215 263 311
#     4   9  19  35  56  81 107 135 171 216 263 310
#     4   8  15  29  50  75  99 127 167 214 265 313
#     4   9  18  34  54  75 102 135 172 217 265 312
#     4  10  20  35  55  77 103 135 173 219 266 313
#
# _framework density 18.835902000000001
#
# number of rings (size 3 to 8) (size 9 to 14) (size 15 to 20)
#    0.000    2.571    0.000    1.286    0.000    4.571 
#    0.000    2.857    0.000    0.000    0.000    0.000 
#    0.000    0.000    0.000    0.000    0.000    0.000 
#
# Total GULP energy -694056.546093 kJ/mol
# GULP energy per Si atom -12393.866895 kJ/mol
# Density = 1.879303 g / cm^3
# Si number density = 18.835902 Si / 1000 Ang^3
#
#
#
# Elastic Constant Matrix: (Units=GPa)
#
#
# Indices 1 2 3 4 5 6 
#
# 1 41.0401 12.2852 19.6236 0.0000 0.0000 0.0000
# 2 12.2852 75.2343 34.6713 0.0000 0.0000 0.0000
# 3 19.6236 34.6713 62.9930 0.0000 0.0000 0.0000
# 4 0.0000 0.0000 0.0000 35.2209 0.0000 0.0000
# 5 0.0000 0.0000 0.0000 0.0000 24.4338 0.0000
# 6 0.0000 0.0000 0.0000 0.0000 0.0000 13.5789
#
#
#
# Elastic Compliance Matrix: (Units=1/GPa)
#
#
# Indices 1 2 3 4 5 6 
#
# 1 0.028663 -0.000758 -0.008512 0.000000 0.000000 0.000000
# 2 -0.000758 0.017829 -0.009577 0.000000 0.000000 0.000000
# 3 -0.008512 -0.009577 0.023798 0.000000 0.000000 0.000000
# 4 0.000000 0.000000 0.000000 0.028392 0.000000 0.000000
# 5 0.000000 0.000000 0.000000 0.000000 0.040927 0.000000
# 6 0.000000 0.000000 0.000000 0.000000 0.000000 0.073643
#
#
# Mechanical properties :
#
#
# Convention : Reuss Voigt Hill
#
# Bulk Modulus (GPa) = 30.67836 34.71415 32.69625
# Shear Modulus (GPa) = 19.09766 22.15921 20.62843
#
# Velocity S-wave (km/s) = 3.18763 3.43364 3.31292
# Velocity P-wave (km/s) = 5.46539 5.84719 5.65951
#
# Compressibility (1/GPa) = 0.03259627
#
# Stress axis : x y z
#
# Youngs Moduli (GPa) = 34.88769 56.08816 42.02086
#
# Poissons Ratio (x) = 0.04250 0.35769
# Poissons Ratio (y) = 0.02643 0.40244
# Poissons Ratio (z) = 0.29697 0.53716
#
# Static dielectric constant tensor:
#      x y z
#    x 3.956880 0.000000 0.000000 
#    y 0.000000 3.273280 0.000000 
#    z 0.000000 0.000000 3.450950 
# 
# 
# High freq. dielectric constant tensor:
#      x y z
#    x 1.738560 0.000000 0.000000 
#    y 0.000000 1.718020 0.000000 
#    z 0.000000 0.000000 1.732580 
# 
# From -- ./inp_files/8034.got.cif
#   From: 2010.03.12/outbox.cif.g09.slc.cpg/sg57_5_cif.got.tgz:8034.got - 2010.04.16 15:48:40.
