data_PCOD8232976
_publ_section_title
;
Structure prediction by ZEFSAII (Michael W. Deem and Ramdas Pophale) SiO2 
 PCOD8232976
Probable space group: P B C M
;
_chemical_formula_sum "Si O2"
_cell_formula_units_Z 56
_cell_length_a 16.502048
_cell_length_b 9.935056
_cell_length_c 16.424031
_cell_angle_alpha 90.000000
_cell_angle_beta 90.000000
_cell_angle_gamma 90.000000
_cell_volume 2692.699697
_symmetry_space_group_name_H-M "P B C M"
_symmetry_group_IT_number 57
_symmetry_cell_setting 'orthorhombic'
loop_
_space_group_symop_operation_xyz
x,y,z
-x,-y,1/2+z
x,1/2-y,-z
-x,1/2+y,1/2-z
-x,-y,-z
x,y,1/2-z
-x,1/2+y,z
x,1/2-y,1/2+z
loop_
_atom_site_type_symbol
_atom_site_label
_atom_site_fract_x
_atom_site_fract_y
_atom_site_fract_z
Si Si1 0.271274 0.394993 0.657346
Si Si2 0.436630 0.276657 0.847609
Si Si3 0.241534 0.570777 0.345803
Si Si4 0.173571 0.640454 0.846123
Si Si5 0.574152 0.474605 0.654145
Si Si6 0.160953 0.314212 0.412600
Si Si7 0.983086 0.129095 0.554933
O O1 0.292807 0.425011 0.750000
O O2 0.353873 0.341495 0.615815
O O3 0.239215 0.534291 0.617744
O O4 0.200683 0.282856 0.654193
O O5 0.433900 0.272834 0.750000
O O6 0.443754 0.123894 0.881308
O O7 0.510990 0.365655 0.881766
O O8 0.228437 0.538514 0.250000
O O9 0.201472 0.711393 0.371238
O O10 0.336054 0.574399 0.368073
O O11 0.198558 0.461808 0.402819
O O12 0.167702 0.624873 0.750000
O O13 0.085734 0.598923 0.879520
O O14 0.562179 0.479474 0.750000
O O15 0.182094 0.250000 0.500000
O O16 0.064693 0.324389 0.398859
O O17 0.950271 0.250000 0.500000
O O18 0.000000 0.000000 0.500000
#
# Coordination Sequence:
#
# PCOD8232976 Si02
#       7
#     8   8   8   8   8   8   8
#     4  10  20  36  55  83 117 148 184 232 286 341
#     4   9  17  29  50  80 113 146 183 227 277 337
#     4  10  20  36  56  85 120 150 186 238 294 346
#     4  10  22  36  56  86 119 150 188 241 299 349
#     4   9  17  29  50  81 113 147 184 226 280 338
#     4  11  22  37  59  81 106 149 195 238 283 344
#     4  11  23  41  60  82 113 149 195 242 284 345
#
# _framework density 20.796972
#
# number of rings (size 3 to 8) (size 9 to 14) (size 15 to 20)
#    0.000    2.000    1.429    3.000    2.000    1.143 
#    0.000    3.571    0.000    0.857    0.000    0.000 
#    0.000    0.000    0.000    0.000    0.000    0.000 
#
# Total GULP energy -694317.916839 kJ/mol
# GULP energy per Si atom -12398.534229 kJ/mol
# Density = 2.074964 g / cm^3
# Si number density = 20.796972 Si / 1000 Ang^3
#
#
#
# Elastic Constant Matrix: (Units=GPa)
#
#
# Indices 1 2 3 4 5 6 
#
# 1 149.6972 64.2270 27.2924 0.0000 0.0000 0.0000
# 2 64.2270 160.6617 26.3397 0.0000 0.0000 0.0000
# 3 27.2924 26.3397 18.0886 0.0000 0.0000 0.0000
# 4 0.0000 0.0000 0.0000 27.6725 0.0000 0.0000
# 5 0.0000 0.0000 0.0000 0.0000 10.2561 0.0000
# 6 0.0000 0.0000 0.0000 0.0000 0.0000 44.4562
#
#
#
# Elastic Compliance Matrix: (Units=1/GPa)
#
#
# Indices 1 2 3 4 5 6 
#
# 1 0.009651 -0.001932 -0.011748 0.000000 0.000000 0.000000
# 2 -0.001932 0.008563 -0.009554 0.000000 0.000000 0.000000
# 3 -0.011748 -0.009554 0.086921 0.000000 0.000000 0.000000
# 4 0.000000 0.000000 0.000000 0.036137 0.000000 0.000000
# 5 0.000000 0.000000 0.000000 0.000000 0.097503 0.000000
# 6 0.000000 0.000000 0.000000 0.000000 0.000000 0.022494
#
#
# Mechanical properties :
#
#
# Convention : Reuss Voigt Hill
#
# Bulk Modulus (GPa) = 17.04533 62.68507 39.86520
# Shear Modulus (GPa) = 15.27681 30.51618 22.89649
#
# Velocity S-wave (km/s) = 2.71323 3.83474 3.32166
# Velocity P-wave (km/s) = 4.24610 7.05789 5.82423
#
# Compressibility (1/GPa) = 0.05866710
#
# Stress axis : x y z
#
# Youngs Moduli (GPa) = 103.61596 116.78250 11.50464
#
# Poissons Ratio (x) = 0.22563 0.13516
# Poissons Ratio (y) = 0.20019 0.10991
# Poissons Ratio (z) = 1.21731 1.11571
#
# Static dielectric constant tensor:
#      x y z
#    x 3.929970 0.000000 0.000000 
#    y 0.000000 4.089970 0.000000 
#    z 0.000000 0.000000 3.253790 
# 
# 
# High freq. dielectric constant tensor:
#      x y z
#    x 1.824040 0.000000 0.000000 
#    y 0.000000 1.833910 0.000000 
#    z 0.000000 0.000000 1.765430 
# 
# From -- ./inp_files/25379.got.cif
#   From: 2010.03.12/outbox.cif.g09.slc.cpg/sg57_13_cif.got.tgz:25379.got - 2010.04.16 15:48:40.
