data_PCOD8232482
_publ_section_title
;
Structure prediction by ZEFSAII (Michael W. Deem and Ramdas Pophale) SiO2 
 PCOD8232482
Probable space group: P B C M
;
_chemical_formula_sum "Si O2"
_cell_formula_units_Z 64
_cell_length_a 20.933550
_cell_length_b 18.483396
_cell_length_c 8.906094
_cell_angle_alpha 90.000000
_cell_angle_beta 90.000000
_cell_angle_gamma 90.000000
_cell_volume 3445.973449
_symmetry_space_group_name_H-M "P B C M"
_symmetry_group_IT_number 57
_symmetry_cell_setting 'orthorhombic'
loop_
_space_group_symop_operation_xyz
x,y,z
-x,-y,1/2+z
x,1/2-y,-z
-x,1/2+y,1/2-z
-x,-y,-z
x,y,1/2-z
-x,1/2+y,z
x,1/2-y,1/2+z
loop_
_atom_site_type_symbol
_atom_site_label
_atom_site_fract_x
_atom_site_fract_y
_atom_site_fract_z
Si Si1 0.618994 0.672279 0.426785
Si Si2 0.877700 0.826004 0.429109
Si Si3 0.243479 0.823939 0.926058
Si Si4 0.755491 0.610118 0.073920
Si Si5 0.190129 0.959239 0.080417
Si Si6 0.058952 0.039050 0.423723
Si Si7 0.612257 0.322817 0.926010
Si Si8 0.500869 0.922882 0.573067
O O1 0.614268 0.750000 0.500000
O O2 0.614608 0.682659 0.250000
O O3 0.684850 0.633710 0.473503
O O4 0.560898 0.623315 0.487283
O O5 0.899259 0.750000 0.500000
O O6 0.881569 0.822624 0.250000
O O7 0.805215 0.842746 0.478742
O O8 0.926260 0.886472 0.490382
O O9 0.239049 0.813497 0.750000
O O10 0.315895 0.840313 0.980268
O O11 0.217890 0.750000 0.000000
O O12 0.200103 0.891277 0.972662
O O13 0.770263 0.623136 0.250000
O O14 0.762962 0.525233 0.035030
O O15 0.204390 0.934427 0.250000
O O16 0.117828 0.984579 0.061315
O O17 0.044415 0.056648 0.250000
O O18 0.000000 0.000000 0.500000
O O19 0.609637 0.310932 0.750000
O O20 0.565427 0.386392 0.977328
O O21 0.586286 0.250000 0.000000
O O22 0.505953 0.931610 0.750000
O O23 0.500000 0.000000 0.500000
#
# Coordination Sequence:
#
# PCOD8232482 Si02
#       8
#     8   8   8   8   8   8   8   8
#     4  10  21  36  54  77 106 141 179 222 274 330
#     4  11  21  35  57  85 116 151 190 231 276 325
#     4  10  20  34  54  79 107 139 180 229 277 327
#     4   9  19  35  54  80 112 144 181 225 275 332
#     4   9  19  35  56  81 112 145 177 219 268 319
#     4  10  21  39  61  86 117 152 189 227 271 324
#     4   9  19  35  53  75 101 133 176 225 272 325
#     4  10  22  37  52  74 104 137 178 225 273 327
#
# _framework density 18.572400999999999
#
# number of rings (size 3 to 8) (size 9 to 14) (size 15 to 20)
#    0.000    2.250    0.000    3.375    1.750    5.500 
#    0.000    0.625    0.000    3.000    0.000    0.000 
#    0.000    0.000    0.000    0.000    0.000    0.000 
#
# Total GULP energy -793756.650150 kJ/mol
# GULP energy per Si atom -12402.447659 kJ/mol
# Density = 1.853013 g / cm^3
# Si number density = 18.572401 Si / 1000 Ang^3
#
#
#
# Elastic Constant Matrix: (Units=GPa)
#
#
# Indices 1 2 3 4 5 6 
#
# 1 82.8695 60.4398 38.4871 0.0000 0.0000 0.0000
# 2 60.4398 152.9203 59.5167 0.0000 0.0000 0.0000
# 3 38.4871 59.5167 82.4643 0.0000 0.0000 0.0000
# 4 0.0000 0.0000 0.0000 38.9607 0.0000 0.0000
# 5 0.0000 0.0000 0.0000 0.0000 25.2147 0.0000
# 6 0.0000 0.0000 0.0000 0.0000 0.0000 21.9280
#
#
#
# Elastic Compliance Matrix: (Units=1/GPa)
#
#
# Indices 1 2 3 4 5 6 
#
# 1 0.018114 -0.005380 -0.004571 0.000000 0.000000 0.000000
# 2 -0.005380 0.010692 -0.005206 0.000000 0.000000 0.000000
# 3 -0.004571 -0.005206 0.018017 0.000000 0.000000 0.000000
# 4 0.000000 0.000000 0.000000 0.025667 0.000000 0.000000
# 5 0.000000 0.000000 0.000000 0.000000 0.039659 0.000000
# 6 0.000000 0.000000 0.000000 0.000000 0.000000 0.045604
#
#
# Mechanical properties :
#
#
# Convention : Reuss Voigt Hill
#
# Bulk Modulus (GPa) = 60.57268 70.57125 65.57196
# Shear Modulus (GPa) = 25.83051 27.87471 26.85261
#
# Velocity S-wave (km/s) = 3.73339 3.87831 3.80654
# Velocity P-wave (km/s) = 7.16027 7.62466 7.39611
#
# Compressibility (1/GPa) = 0.01650909
#
# Stress axis : x y z
#
# Youngs Moduli (GPa) = 55.20546 93.52902 55.50395
#
# Poissons Ratio (x) = 0.50322 0.25370
# Poissons Ratio (y) = 0.29703 0.28893
# Poissons Ratio (z) = 0.25234 0.48687
#
# Static dielectric constant tensor:
#      x y z
#    x 3.526810 0.000000 0.000000 
#    y 0.000000 3.658870 0.000000 
#    z 0.000000 0.000000 3.330030 
# 
# 
# High freq. dielectric constant tensor:
#      x y z
#    x 1.715490 0.000000 0.000000 
#    y 0.000000 1.728170 0.000000 
#    z 0.000000 0.000000 1.720330 
# 
# From -- ./inp_files/8382.got.cif
#   From: 2010.03.12/outbox.cif.g09.slc.cpg/sg57_5_cif.got.tgz:8382.got - 2010.04.16 15:48:40.
