data_PCOD8232440
_publ_section_title
;
Structure prediction by ZEFSAII (Michael W. Deem and Ramdas Pophale) SiO2 
 PCOD8232440
Probable space group: P B C M
;
_chemical_formula_sum "Si O2"
_cell_formula_units_Z 64
_cell_length_a 20.087294
_cell_length_b 18.689003
_cell_length_c 8.922654
_cell_angle_alpha 90.000000
_cell_angle_beta 90.000000
_cell_angle_gamma 90.000000
_cell_volume 3349.666903
_symmetry_space_group_name_H-M "P B C M"
_symmetry_group_IT_number 57
_symmetry_cell_setting 'orthorhombic'
loop_
_space_group_symop_operation_xyz
x,y,z
-x,-y,1/2+z
x,1/2-y,-z
-x,1/2+y,1/2-z
-x,-y,-z
x,y,1/2-z
-x,1/2+y,z
x,1/2-y,1/2+z
loop_
_atom_site_type_symbol
_atom_site_label
_atom_site_fract_x
_atom_site_fract_y
_atom_site_fract_z
Si Si1 0.921631 0.434379 0.424033
Si Si2 0.318329 0.915861 0.427894
Si Si3 0.579792 0.823335 0.574217
Si Si4 0.191173 0.673704 0.574008
Si Si5 0.695956 0.576555 0.427484
Si Si6 0.428016 0.675388 0.073302
Si Si7 0.925813 0.918113 0.424290
Si Si8 0.182232 0.326458 0.928221
O O1 0.911006 0.454136 0.250000
O O2 0.872572 0.371945 0.476910
O O3 0.903170 0.504226 0.518839
O O4 0.996033 0.407354 0.455990
O O5 0.328601 0.914721 0.250000
O O6 0.257708 0.866017 0.479904
O O7 0.385167 0.889002 0.506808
O O8 0.302953 0.995585 0.487920
O O9 0.603415 0.750000 0.500000
O O10 0.587132 0.812620 0.750000
O O11 0.628180 0.885853 0.515017
O O12 0.504170 0.842298 0.529887
O O13 0.186464 0.750000 0.500000
O O14 0.191818 0.684460 0.750000
O O15 0.697563 0.575575 0.250000
O O16 0.760332 0.619533 0.485634
O O17 0.417269 0.681509 0.250000
O O18 0.405047 0.750000 0.000000
O O19 0.908614 0.911137 0.250000
O O20 0.888356 0.856209 0.514961
O O21 0.180824 0.318927 0.750000
O O22 0.196886 0.250000 0.000000
#
# Coordination Sequence:
#
# PCOD8232440 Si02
#       8
#     8   8   8   8   8   8   8   8
#     4   9  19  37  58  80 108 142 179 218 263 316
#     4  10  20  35  55  77 103 137 175 214 260 314
#     4   9  18  34  55  78 105 137 174 214 258 311
#     4  10  21  36  54  76 103 137 177 219 262 309
#     4   9  19  36  57  78 103 139 178 217 265 317
#     4  10  20  34  53  78 107 138 172 213 260 310
#     4  10  20  35  57  84 111 140 176 218 265 318
#     4  11  22  37  57  80 109 143 180 222 267 317
#
# _framework density 19.106379
#
# number of rings (size 3 to 8) (size 9 to 14) (size 15 to 20)
#    0.000    2.250    0.000    2.625    0.000    6.000 
#    0.000    5.000    0.000    0.000    0.000    0.000 
#    0.000    0.000    0.000    0.000    0.000    0.000 
#
# Total GULP energy -793811.301705 kJ/mol
# GULP energy per Si atom -12403.301589 kJ/mol
# Density = 1.906289 g / cm^3
# Si number density = 19.106379 Si / 1000 Ang^3
#
#
#
# Elastic Constant Matrix: (Units=GPa)
#
#
# Indices 1 2 3 4 5 6 
#
# 1 95.7721 53.9759 30.0866 0.0000 0.0000 0.0000
# 2 53.9759 115.5082 34.3133 0.0000 0.0000 0.0000
# 3 30.0866 34.3133 50.7185 0.0000 0.0000 0.0000
# 4 0.0000 0.0000 0.0000 33.8263 0.0000 0.0000
# 5 0.0000 0.0000 0.0000 0.0000 23.0112 0.0000
# 6 0.0000 0.0000 0.0000 0.0000 0.0000 40.7779
#
#
#
# Elastic Compliance Matrix: (Units=1/GPa)
#
#
# Indices 1 2 3 4 5 6 
#
# 1 0.015226 -0.005547 -0.005280 0.000000 0.000000 0.000000
# 2 -0.005547 0.012856 -0.005407 0.000000 0.000000 0.000000
# 3 -0.005280 -0.005407 0.026507 0.000000 0.000000 0.000000
# 4 0.000000 0.000000 0.000000 0.029563 0.000000 0.000000
# 5 0.000000 0.000000 0.000000 0.000000 0.043457 0.000000
# 6 0.000000 0.000000 0.000000 0.000000 0.000000 0.024523
#
#
# Mechanical properties :
#
#
# Convention : Reuss Voigt Hill
#
# Bulk Modulus (GPa) = 45.20463 55.41673 50.31068
# Shear Modulus (GPa) = 26.04550 29.09793 27.57172
#
# Velocity S-wave (km/s) = 3.69614 3.90672 3.80289
# Velocity P-wave (km/s) = 6.47503 7.02974 6.75808
#
# Compressibility (1/GPa) = 0.02212163
#
# Stress axis : x y z
#
# Youngs Moduli (GPa) = 65.67698 77.78769 37.72626
#
# Poissons Ratio (x) = 0.43146 0.19918
# Poissons Ratio (y) = 0.36428 0.20399
# Poissons Ratio (z) = 0.34675 0.42060
#
# Static dielectric constant tensor:
#      x y z
#    x 3.678820 0.000000 0.000000 
#    y 0.000000 3.634810 0.000000 
#    z 0.000000 0.000000 3.352320 
# 
# 
# High freq. dielectric constant tensor:
#      x y z
#    x 1.755590 0.000000 0.000000 
#    y 0.000000 1.745910 0.000000 
#    z 0.000000 0.000000 1.728910 
# 
# From -- ./inp_files/8486.got.cif
#   From: 2010.03.12/outbox.cif.g09.slc.cpg/sg57_5_cif.got.tgz:8486.got - 2010.04.16 15:48:40.
