data_PCOD8232690
_publ_section_title
;
Structure prediction by ZEFSAII (Michael W. Deem and Ramdas Pophale) SiO2 
 PCOD8232690
Probable space group: P B C M
;
_chemical_formula_sum "Si O2"
_cell_formula_units_Z 56
_cell_length_a 18.742026
_cell_length_b 17.101586
_cell_length_c 8.774129
_cell_angle_alpha 90.000000
_cell_angle_beta 90.000000
_cell_angle_gamma 90.000000
_cell_volume 2812.269520
_symmetry_space_group_name_H-M "P B C M"
_symmetry_group_IT_number 57
_symmetry_cell_setting 'orthorhombic'
loop_
_space_group_symop_operation_xyz
x,y,z
-x,-y,1/2+z
x,1/2-y,-z
-x,1/2+y,1/2-z
-x,-y,-z
x,y,1/2-z
-x,1/2+y,z
x,1/2-y,1/2+z
loop_
_atom_site_type_symbol
_atom_site_label
_atom_site_fract_x
_atom_site_fract_y
_atom_site_fract_z
Si Si1 0.673990 0.334229 0.432117
Si Si2 0.537854 0.427345 0.421206
Si Si3 0.853709 0.669877 0.422547
Si Si4 0.077401 0.489468 0.931984
Si Si5 0.209247 0.935111 0.929862
Si Si6 0.282958 0.079397 0.425091
Si Si7 0.402711 0.168002 0.576945
O O1 0.654605 0.250000 0.500000
O O2 0.675340 0.328939 0.250000
O O3 0.613703 0.397375 0.488292
O O4 0.750910 0.360610 0.496408
O O5 0.500000 0.500000 0.500000
O O6 0.550792 0.455208 0.250000
O O7 0.485865 0.352527 0.429109
O O8 0.876848 0.750000 0.500000
O O9 0.876717 0.680038 0.250000
O O10 0.895833 0.595382 0.489917
O O11 0.769110 0.654352 0.440368
O O12 0.077627 0.495718 0.750000
O O13 0.130273 0.556003 0.997971
O O14 0.000000 0.500000 0.000000
O O15 0.202471 0.923026 0.750000
O O16 0.255590 0.011015 0.967432
O O17 0.285128 0.049587 0.250000
O O18 0.361073 0.102040 0.481724
O O19 0.388555 0.250000 0.500000
O O20 0.374047 0.170489 0.750000
#
# Coordination Sequence:
#
# PCOD8232690 Si02
#       7
#     8   8   8   8   8   8   8
#     4  11  23  41  62  86 116 154 199 252 306 358
#     4  10  23  39  57  80 109 146 192 243 298 354
#     4   9  19  33  52  79 112 145 182 224 273 331
#     4  10  21  39  61  88 119 153 192 237 286 343
#     4  11  22  38  61  88 115 149 190 233 283 346
#     4  10  20  35  54  80 113 149 187 232 279 334
#     4  11  22  35  51  77 109 144 184 229 282 340
#
# _framework density 19.912742999999999
#
# number of rings (size 3 to 8) (size 9 to 14) (size 15 to 20)
#    0.000    1.714    0.000    5.571    0.000    9.143 
#    0.000    0.714    0.000    1.714    0.000    0.000 
#    0.000    0.000    0.000    0.000    0.000    0.000 
#
# Total GULP energy -694381.259134 kJ/mol
# GULP energy per Si atom -12399.665342 kJ/mol
# Density = 1.986742 g / cm^3
# Si number density = 19.912743 Si / 1000 Ang^3
#
#
#
# Elastic Constant Matrix: (Units=GPa)
#
#
# Indices 1 2 3 4 5 6 
#
# 1 126.9282 37.0362 45.7706 0.0000 0.0000 0.0000
# 2 37.0362 83.9340 40.3989 0.0000 0.0000 0.0000
# 3 45.7706 40.3989 105.8946 0.0000 0.0000 0.0000
# 4 0.0000 0.0000 0.0000 36.9385 0.0000 0.0000
# 5 0.0000 0.0000 0.0000 0.0000 32.2217 0.0000
# 6 0.0000 0.0000 0.0000 0.0000 0.0000 25.7935
#
#
#
# Elastic Compliance Matrix: (Units=1/GPa)
#
#
# Indices 1 2 3 4 5 6 
#
# 1 0.009847 -0.002813 -0.003183 0.000000 0.000000 0.000000
# 2 -0.002813 0.015397 -0.004658 0.000000 0.000000 0.000000
# 3 -0.003183 -0.004658 0.012596 0.000000 0.000000 0.000000
# 4 0.000000 0.000000 0.000000 0.027072 0.000000 0.000000
# 5 0.000000 0.000000 0.000000 0.000000 0.031035 0.000000
# 6 0.000000 0.000000 0.000000 0.000000 0.000000 0.038769
#
#
# Mechanical properties :
#
#
# Convention : Reuss Voigt Hill
#
# Bulk Modulus (GPa) = 60.48799 62.57423 61.53111
# Shear Modulus (GPa) = 30.95271 31.89415 31.42343
#
# Velocity S-wave (km/s) = 3.94689 4.00646 3.97679
# Velocity P-wave (km/s) = 7.15633 7.27288 7.21484
#
# Compressibility (1/GPa) = 0.01653221
#
# Stress axis : x y z
#
# Youngs Moduli (GPa) = 101.55291 64.94562 79.38844
#
# Poissons Ratio (x) = 0.18269 0.25270
# Poissons Ratio (y) = 0.28567 0.36981
# Poissons Ratio (z) = 0.32325 0.30254
#
# Static dielectric constant tensor:
#      x y z
#    x 3.740250 0.000000 0.000000 
#    y 0.000000 3.681910 0.000000 
#    z 0.000000 0.000000 3.625730 
# 
# 
# High freq. dielectric constant tensor:
#      x y z
#    x 1.774880 0.000000 0.000000 
#    y 0.000000 1.770910 0.000000 
#    z 0.000000 0.000000 1.780950 
# 
# From -- ./inp_files/8271.got.cif
#   From: 2010.03.12/outbox.cif.g09.slc.cpg/sg57_5_cif.got.tgz:8271.got - 2010.04.16 15:48:40.
