data_PCOD8232509
_publ_section_title
;
Structure prediction by ZEFSAII (Michael W. Deem and Ramdas Pophale) SiO2 
 PCOD8232509
Probable space group: P B C M
;
_chemical_formula_sum "Si O2"
_cell_formula_units_Z 48
_cell_length_a 14.870472
_cell_length_b 19.437252
_cell_length_c 8.822675
_cell_angle_alpha 90.000000
_cell_angle_beta 90.000000
_cell_angle_gamma 90.000000
_cell_volume 2550.115789
_symmetry_space_group_name_H-M "P B C M"
_symmetry_group_IT_number 57
_symmetry_cell_setting 'orthorhombic'
loop_
_space_group_symop_operation_xyz
x,y,z
-x,-y,1/2+z
x,1/2-y,-z
-x,1/2+y,1/2-z
-x,-y,-z
x,y,1/2-z
-x,1/2+y,z
x,1/2-y,1/2+z
loop_
_atom_site_type_symbol
_atom_site_label
_atom_site_fract_x
_atom_site_fract_y
_atom_site_fract_z
Si Si1 0.572550 0.178750 0.071887
Si Si2 0.279613 0.589659 0.928560
Si Si3 0.632941 0.821083 0.571247
Si Si4 0.967611 0.571011 0.429690
Si Si5 0.763631 0.561625 0.070922
Si Si6 0.896353 0.324809 0.070882
O O1 0.584493 0.184968 0.250000
O O2 0.469826 0.163794 0.024467
O O3 0.606794 0.250000 0.000000
O O4 0.631177 0.116269 0.009901
O O5 0.296357 0.589549 0.750000
O O6 0.260768 0.513554 0.993659
O O7 0.195504 0.637015 0.972356
O O8 0.667009 0.750000 0.500000
O O9 0.643662 0.814938 0.750000
O O10 0.694411 0.882242 0.504336
O O11 0.980848 0.567744 0.250000
O O12 0.864107 0.582487 0.475915
O O13 0.000000 0.500000 0.500000
O O14 0.020774 0.634708 0.498798
O O15 0.754759 0.558281 0.250000
O O16 0.910382 0.320443 0.250000
O O17 0.892697 0.250000 0.000000
#
# Coordination Sequence:
#
# PCOD8232509 Si02
#       6
#     8   8   8   8   8   8
#     4  10  20  34  54  81 110 146 186 228 277 329
#     4  10  20  36  57  81 112 148 185 227 280 339
#     4   9  19  37  58  79 110 146 185 229 276 330
#     4  11  21  38  61  84 113 151 190 232 283 340
#     4   9  19  37  59  82 110 148 184 225 283 336
#     4  11  23  39  58  85 115 150 192 235 285 338
#
# _framework density 18.822673999999999
#
# number of rings (size 3 to 8) (size 9 to 14) (size 15 to 20)
#    0.000    2.000    1.667    2.000    0.000    4.667 
#    0.000    4.167    0.000    0.000    0.000    0.000 
#    0.000    0.000    0.000    0.000    0.000    0.000 
#
# Total GULP energy -595350.823591 kJ/mol
# GULP energy per Si atom -12403.142158 kJ/mol
# Density = 1.877983 g / cm^3
# Si number density = 18.822674 Si / 1000 Ang^3
#
#
#
# Elastic Constant Matrix: (Units=GPa)
#
#
# Indices 1 2 3 4 5 6 
#
# 1 134.3973 96.8452 45.7370 0.0000 0.0000 0.0000
# 2 96.8452 181.5666 49.7095 0.0000 0.0000 0.0000
# 3 45.7370 49.7095 54.0009 0.0000 0.0000 0.0000
# 4 0.0000 0.0000 0.0000 33.2583 0.0000 0.0000
# 5 0.0000 0.0000 0.0000 0.0000 21.3078 0.0000
# 6 0.0000 0.0000 0.0000 0.0000 0.0000 38.7349
#
#
#
# Elastic Compliance Matrix: (Units=1/GPa)
#
#
# Indices 1 2 3 4 5 6 
#
# 1 0.013588 -0.005477 -0.006467 0.000000 0.000000 0.000000
# 2 -0.005477 0.009571 -0.004172 0.000000 0.000000 0.000000
# 3 -0.006467 -0.004172 0.027835 0.000000 0.000000 0.000000
# 4 0.000000 0.000000 0.000000 0.030068 0.000000 0.000000
# 5 0.000000 0.000000 0.000000 0.000000 0.046931 0.000000
# 6 0.000000 0.000000 0.000000 0.000000 0.000000 0.025817
#
#
# Mechanical properties :
#
#
# Convention : Reuss Voigt Hill
#
# Bulk Modulus (GPa) = 53.29450 83.83870 68.56660
# Shear Modulus (GPa) = 26.00160 30.50507 28.25334
#
# Velocity S-wave (km/s) = 3.72075 4.03010 3.87851
# Velocity P-wave (km/s) = 6.84354 8.14209 7.52090
#
# Compressibility (1/GPa) = 0.01876366
#
# Stress axis : x y z
#
# Youngs Moduli (GPa) = 73.59309 104.47984 35.92550
#
# Poissons Ratio (x) = 0.57227 0.23232
# Poissons Ratio (y) = 0.40309 0.14986
# Poissons Ratio (z) = 0.47591 0.43584
#
# Static dielectric constant tensor:
#      x y z
#    x 3.692130 0.000000 0.000000 
#    y 0.000000 3.648580 0.000000 
#    z 0.000000 0.000000 3.349160 
# 
# 
# High freq. dielectric constant tensor:
#      x y z
#    x 1.740220 0.000000 0.000000 
#    y 0.000000 1.739810 0.000000 
#    z 0.000000 0.000000 1.720030 
# 
# From -- ./inp_files/4557.got.cif
#   From: 2010.03.12/outbox.cif.g09.slc.cpg/sg57_3_cif.got.tgz:4557.got - 2010.04.16 15:48:40.
