data_PCOD8232945
_publ_section_title
;
Structure prediction by ZEFSAII (Michael W. Deem and Ramdas Pophale) SiO2 
 PCOD8232945
Probable space group: P B C M
;
_chemical_formula_sum "Si O2"
_cell_formula_units_Z 48
_cell_length_a 15.231197
_cell_length_b 8.723872
_cell_length_c 17.689556
_cell_angle_alpha 90.000000
_cell_angle_beta 90.000000
_cell_angle_gamma 90.000000
_cell_volume 2350.499984
_symmetry_space_group_name_H-M "P B C M"
_symmetry_group_IT_number 57
_symmetry_cell_setting 'orthorhombic'
loop_
_space_group_symop_operation_xyz
x,y,z
-x,-y,1/2+z
x,1/2-y,-z
-x,1/2+y,1/2-z
-x,-y,-z
x,y,1/2-z
-x,1/2+y,z
x,1/2-y,1/2+z
loop_
_atom_site_type_symbol
_atom_site_label
_atom_site_fract_x
_atom_site_fract_y
_atom_site_fract_z
Si Si1 0.075524 0.555883 0.914445
Si Si2 0.424298 0.608138 0.098340
Si Si3 0.597660 0.454196 0.423355
Si Si4 0.905641 0.107068 0.090623
Si Si5 0.236859 0.340240 0.580008
Si Si6 0.258150 0.043152 0.836116
O O1 0.095734 0.720049 0.875455
O O2 0.144764 0.420193 0.902705
O O3 0.985204 0.495286 0.876055
O O4 0.073524 0.599064 0.002231
O O5 0.408779 0.787014 0.113987
O O6 0.524637 0.561299 0.117149
O O7 0.356225 0.517056 0.150066
O O8 0.412676 0.558848 0.012467
O O9 0.692480 0.525906 0.411885
O O10 0.810675 0.037853 0.108007
O O11 0.239226 0.250000 0.500000
O O12 0.256149 0.223132 0.647363
O O13 0.230969 0.012125 0.750000
#
# Coordination Sequence:
#
# PCOD8232945 Si02
#       6
#     8   8   8   8   8   8
#     4  10  20  35  65  93 120 149 212 261 302 347
#     4  10  20  37  61  94 120 158 200 259 308 364
#     4  10  20  35  65  93 120 149 212 261 302 347
#     4  10  20  37  61  94 120 158 200 259 308 364
#     4  12  21  37  62  93 122 165 209 258 299 367
#     4  12  25  41  59  89 131 168 200 252 323 377
#
# _framework density 20.421188000000001
#
# number of rings (size 3 to 8) (size 9 to 14) (size 15 to 20)
#    0.000    1.333    3.333    3.000    4.667    2.667 
#    0.000   10.000    0.000    0.000    0.000    0.000 
#    0.000    0.000    0.000    0.000    0.000    0.000 
#
# Total GULP energy -595020.948042 kJ/mol
# GULP energy per Si atom -12396.269751 kJ/mol
# Density = 2.037471 g / cm^3
# Si number density = 20.421188 Si / 1000 Ang^3
#
#
#
# Elastic Constant Matrix: (Units=GPa)
#
#
# Indices 1 2 3 4 5 6 
#
# 1 91.6473 21.4726 8.0860 0.0000 0.0000 0.0000
# 2 21.4726 124.9356 19.2161 0.0000 0.0000 0.0000
# 3 8.0860 19.2161 28.4429 0.0000 0.0000 0.0000
# 4 0.0000 0.0000 0.0000 10.3412 0.0000 0.0000
# 5 0.0000 0.0000 0.0000 0.0000 8.8442 0.0000
# 6 0.0000 0.0000 0.0000 0.0000 0.0000 27.9771
#
#
#
# Elastic Compliance Matrix: (Units=1/GPa)
#
#
# Indices 1 2 3 4 5 6 
#
# 1 0.011486 -0.001643 -0.002156 0.000000 0.000000 0.000000
# 2 -0.001643 0.009167 -0.005726 0.000000 0.000000 0.000000
# 3 -0.002156 -0.005726 0.039640 0.000000 0.000000 0.000000
# 4 0.000000 0.000000 0.000000 0.096701 0.000000 0.000000
# 5 0.000000 0.000000 0.000000 0.000000 0.113068 0.000000
# 6 0.000000 0.000000 0.000000 0.000000 0.000000 0.035744
#
#
# Mechanical properties :
#
#
# Convention : Reuss Voigt Hill
#
# Bulk Modulus (GPa) = 24.24599 38.06390 31.15495
# Shear Modulus (GPa) = 14.76654 22.51590 18.64122
#
# Velocity S-wave (km/s) = 2.69197 3.32411 3.02460
# Velocity P-wave (km/s) = 4.64338 5.78038 5.24279
#
# Compressibility (1/GPa) = 0.04124393
#
# Stress axis : x y z
#
# Youngs Moduli (GPa) = 87.05913 109.08450 25.22724
#
# Poissons Ratio (x) = 0.17918 0.05438
# Poissons Ratio (y) = 0.14300 0.14446
# Poissons Ratio (z) = 0.18767 0.62466
#
# Static dielectric constant tensor:
#      x y z
#    x 3.853570 0.000000 0.000000 
#    y 0.000000 4.079720 0.000000 
#    z 0.000000 0.000000 3.157080 
# 
# 
# High freq. dielectric constant tensor:
#      x y z
#    x 1.813900 0.000000 0.000000 
#    y 0.000000 1.821650 0.000000 
#    z 0.000000 0.000000 1.734380 
# 
# From -- ./inp_files/22400.got.cif
#   From: 2010.03.12/outbox.cif.g09.slc.cpg/sg57_12_cif.got.tgz:22400.got - 2010.04.16 15:48:40.
