data_PCOD8232349
_publ_section_title
;
Structure prediction by ZEFSAII (Michael W. Deem and Ramdas Pophale) SiO2 
 PCOD8232349
Probable space group: P B C M
;
_chemical_formula_sum "Si O2"
_cell_formula_units_Z 64
_cell_length_a 14.310865
_cell_length_b 30.305963
_cell_length_c 8.694091
_cell_angle_alpha 90.000000
_cell_angle_beta 90.000000
_cell_angle_gamma 90.000000
_cell_volume 3770.666783
_symmetry_space_group_name_H-M "P B C M"
_symmetry_group_IT_number 57
_symmetry_cell_setting 'orthorhombic'
loop_
_space_group_symop_operation_xyz
x,y,z
-x,-y,1/2+z
x,1/2-y,-z
-x,1/2+y,1/2-z
-x,-y,-z
x,y,1/2-z
-x,1/2+y,z
x,1/2-y,1/2+z
loop_
_atom_site_type_symbol
_atom_site_label
_atom_site_fract_x
_atom_site_fract_y
_atom_site_fract_z
Si Si1 0.344791 0.296025 0.430979
Si Si2 0.570756 0.875701 0.922350
Si Si3 0.251127 0.982085 0.571603
Si Si4 0.059158 0.959482 0.068237
Si Si5 0.455478 0.956584 0.927893
Si Si6 0.238606 0.426329 0.921486
Si Si7 0.142823 0.203768 0.431455
Si Si8 0.928693 0.619603 0.927580
O O1 0.380356 0.250000 0.500000
O O2 0.332644 0.291928 0.250000
O O3 0.423759 0.332154 0.472234
O O4 0.244366 0.308674 0.502256
O O5 0.538318 0.862518 0.750000
O O6 0.500236 0.911648 0.997416
O O7 0.673421 0.895225 0.917234
O O8 0.233664 0.992982 0.750000
O O9 0.162037 0.956931 0.503562
O O10 0.344114 0.952891 0.548138
O O11 0.270673 0.026187 0.477859
O O12 0.064162 0.966576 0.250000
O O13 0.014132 0.912265 0.025914
O O14 0.000000 0.000000 0.000000
O O15 0.483426 0.958620 0.750000
O O16 0.500000 0.000000 0.000000
O O17 0.194244 0.429541 0.750000
O O18 0.164820 0.407711 0.041635
O O19 0.106234 0.250000 0.500000
O O20 0.150815 0.208053 0.250000
O O21 0.070030 0.164906 0.474619
O O22 0.932821 0.632808 0.750000
#
# Coordination Sequence:
#
# PCOD8232349 Si02
#       8
#     8   8   8   8   8   8   8   8
#     4  11  21  33  51  74 103 136 170 210 254 305
#     4  10  20  34  50  73 103 137 175 211 253 304
#     4  11  22  35  51  73 104 138 177 219 260 304
#     4  11  23  36  53  74 102 137 177 218 260 307
#     4  10  21  35  52  74 102 137 175 216 256 303
#     4  11  20  30  50  73 102 140 175 212 256 301
#     4  11  21  34  52  75 104 137 169 208 254 307
#     4  11  22  35  51  74 102 136 176 216 256 305
#
# _framework density 16.973126000000001
#
# number of rings (size 3 to 8) (size 9 to 14) (size 15 to 20)
#    0.000    1.250    3.750    4.500    0.000    3.000 
#    0.000    0.000    0.000    0.000    0.000    0.875 
#    0.000    6.000    0.000    0.000    0.000    0.000 
#
# Total GULP energy -793603.212343 kJ/mol
# GULP energy per Si atom -12400.050193 kJ/mol
# Density = 1.693449 g / cm^3
# Si number density = 16.973126 Si / 1000 Ang^3
#
#
#
# Elastic Constant Matrix: (Units=GPa)
#
#
# Indices 1 2 3 4 5 6 
#
# 1 79.2605 44.9597 35.2982 0.0000 0.0000 0.0000
# 2 44.9597 129.3947 53.9891 0.0000 0.0000 0.0000
# 3 35.2982 53.9891 95.9910 0.0000 0.0000 0.0000
# 4 0.0000 0.0000 0.0000 28.9506 0.0000 0.0000
# 5 0.0000 0.0000 0.0000 0.0000 20.4954 0.0000
# 6 0.0000 0.0000 0.0000 0.0000 0.0000 22.9830
#
#
#
# Elastic Compliance Matrix: (Units=1/GPa)
#
#
# Indices 1 2 3 4 5 6 
#
# 1 0.016690 -0.004231 -0.003757 0.000000 0.000000 0.000000
# 2 -0.004231 0.011171 -0.004727 0.000000 0.000000 0.000000
# 3 -0.003757 -0.004727 0.014458 0.000000 0.000000 0.000000
# 4 0.000000 0.000000 0.000000 0.034542 0.000000 0.000000
# 5 0.000000 0.000000 0.000000 0.000000 0.048791 0.000000
# 6 0.000000 0.000000 0.000000 0.000000 0.000000 0.043510
#
#
# Mechanical properties :
#
#
# Convention : Reuss Voigt Hill
#
# Bulk Modulus (GPa) = 59.21582 63.68222 61.44902
# Shear Modulus (GPa) = 24.97214 25.84575 25.40895
#
# Velocity S-wave (km/s) = 3.83988 3.90647 3.87332
# Velocity P-wave (km/s) = 7.39076 7.61237 7.50239
#
# Compressibility (1/GPa) = 0.01688738
#
# Stress axis : x y z
#
# Youngs Moduli (GPa) = 59.91525 89.51889 69.16600
#
# Poissons Ratio (x) = 0.37879 0.25989
# Poissons Ratio (y) = 0.25353 0.32694
# Poissons Ratio (z) = 0.22513 0.42315
#
# Static dielectric constant tensor:
#      x y z
#    x 3.067710 0.000000 0.000000 
#    y 0.000000 3.250560 0.000000 
#    z 0.000000 0.000000 3.366310 
# 
# 
# High freq. dielectric constant tensor:
#      x y z
#    x 1.621750 0.000000 0.000000 
#    y 0.000000 1.653550 0.000000 
#    z 0.000000 0.000000 1.668800 
# 
# From -- ./inp_files/5947.got.cif
#   From: 2010.03.12/outbox.cif.g09.slc.cpg/sg57_3_cif.got.tgz:5947.got - 2010.04.16 15:48:40.
