data_PCOD8232521
_publ_section_title
;
Structure prediction by ZEFSAII (Michael W. Deem and Ramdas Pophale) SiO2 
 PCOD8232521
Probable space group: P B C M
;
_chemical_formula_sum "Si O2"
_cell_formula_units_Z 64
_cell_length_a 8.944216
_cell_length_b 18.278910
_cell_length_c 20.011688
_cell_angle_alpha 90.000000
_cell_angle_beta 90.000000
_cell_angle_gamma 90.000000
_cell_volume 3271.721263
_symmetry_space_group_name_H-M "P B C M"
_symmetry_group_IT_number 57
_symmetry_cell_setting 'orthorhombic'
loop_
_space_group_symop_operation_xyz
x,y,z
-x,-y,1/2+z
x,1/2-y,-z
-x,1/2+y,1/2-z
-x,-y,-z
x,y,1/2-z
-x,1/2+y,z
x,1/2-y,1/2+z
loop_
_atom_site_type_symbol
_atom_site_label
_atom_site_fract_x
_atom_site_fract_y
_atom_site_fract_z
Si Si1 0.404685 0.789087 0.327262
Si Si2 0.074015 0.058607 0.593254
Si Si3 0.836279 0.717496 0.123330
Si Si4 0.649934 0.849112 0.421120
Si Si5 0.408974 0.060920 0.458486
Si Si6 0.445190 0.361189 0.825305
Si Si7 0.080172 0.822369 0.174021
Si Si8 0.072693 0.076508 0.445293
O O1 0.423139 0.812125 0.250000
O O2 0.516108 0.840909 0.368862
O O3 0.436496 0.703338 0.336009
O O4 0.239424 0.800256 0.357636
O O5 0.248882 0.080463 0.601130
O O6 0.011048 0.080665 0.520367
O O7 0.974595 0.100973 0.646008
O O8 0.040769 0.971510 0.600973
O O9 0.751214 0.776327 0.076698
O O10 0.720598 0.673699 0.169950
O O11 0.924094 0.659732 0.078372
O O12 0.958022 0.758684 0.167705
O O13 0.589555 0.864885 0.496123
O O14 0.475721 0.079370 0.384520
O O15 0.236844 0.037682 0.446433
O O16 0.500000 0.000000 0.500000
O O17 0.461448 0.395244 0.750000
O O18 0.112513 0.837438 0.250000
#
# Coordination Sequence:
#
# PCOD8232521 Si02
#       8
#     8   8   8   8   8   8   8   8
#     4   9  19  35  55  82 116 150 191 244 287 340
#     4   9  19  35  55  79 111 149 184 230 285 348
#     4   9  18  35  60  84 108 149 198 242 289 345
#     4   9  19  35  57  81 111 151 195 234 290 348
#     4  10  21  35  55  83 116 151 194 243 293 354
#     4   9  18  36  58  79 108 148 191 236 292 352
#     4  10  20  34  54  83 116 147 189 241 286 337
#     4   9  19  37  57  81 114 146 187 243 293 342
#
# _framework density 19.561568999999999
#
# number of rings (size 3 to 8) (size 9 to 14) (size 15 to 20)
#    0.000    2.750    0.000    0.375    1.750   14.500 
#    6.750    5.000    0.000    0.750    0.000    0.000 
#    0.000    0.000    0.000    0.000    0.000    0.000 
#
# Total GULP energy -793070.972893 kJ/mol
# GULP energy per Si atom -12391.733951 kJ/mol
# Density = 1.951705 g / cm^3
# Si number density = 19.561569 Si / 1000 Ang^3
#
#
#
# Elastic Constant Matrix: (Units=GPa)
#
#
# Indices 1 2 3 4 5 6 
#
# 1 74.2586 30.4996 32.0777 0.0000 0.0000 0.0000
# 2 30.4996 83.2045 41.9744 0.0000 0.0000 0.0000
# 3 32.0777 41.9744 95.8976 0.0000 0.0000 0.0000
# 4 0.0000 0.0000 0.0000 32.7952 0.0000 0.0000
# 5 0.0000 0.0000 0.0000 0.0000 26.2084 0.0000
# 6 0.0000 0.0000 0.0000 0.0000 0.0000 27.9535
#
#
#
# Elastic Compliance Matrix: (Units=1/GPa)
#
#
# Indices 1 2 3 4 5 6 
#
# 1 0.016849 -0.004278 -0.003764 0.000000 0.000000 0.000000
# 2 -0.004278 0.016510 -0.005796 0.000000 0.000000 0.000000
# 3 -0.003764 -0.005796 0.014224 0.000000 0.000000 0.000000
# 4 0.000000 0.000000 0.000000 0.030492 0.000000 0.000000
# 5 0.000000 0.000000 0.000000 0.000000 0.038156 0.000000
# 6 0.000000 0.000000 0.000000 0.000000 0.000000 0.035774
#
#
# Mechanical properties :
#
#
# Convention : Reuss Voigt Hill
#
# Bulk Modulus (GPa) = 50.22857 51.38490 50.80673
# Shear Modulus (GPa) = 26.83622 27.31200 27.07411
#
# Velocity S-wave (km/s) = 3.70791 3.74064 3.72431
# Velocity P-wave (km/s) = 6.63810 6.70685 6.67256
#
# Compressibility (1/GPa) = 0.01990899
#
# Stress axis : x y z
#
# Youngs Moduli (GPa) = 59.35005 60.56806 70.30584
#
# Poissons Ratio (x) = 0.25908 0.26461
# Poissons Ratio (y) = 0.25387 0.40747
# Poissons Ratio (z) = 0.22338 0.35104
#
# Static dielectric constant tensor:
#      x y z
#    x 3.639720 0.000000 0.000000 
#    y 0.000000 3.498800 0.000000 
#    z 0.000000 0.000000 3.549410 
# 
# 
# High freq. dielectric constant tensor:
#      x y z
#    x 1.756200 0.000000 0.000000 
#    y 0.000000 1.745390 0.000000 
#    z 0.000000 0.000000 1.755450 
# 
# From -- ./inp_files/24629.got.cif
#   From: 2010.03.12/outbox.cif.g09.slc.cpg/sg57_13_cif.got.tgz:24629.got - 2010.04.16 15:48:40.
