data_PCOD8232829
_publ_section_title
;
Structure prediction by ZEFSAII (Michael W. Deem and Ramdas Pophale) SiO2 
 PCOD8232829
Probable space group: P B C M
;
_chemical_formula_sum "Si O2"
_cell_formula_units_Z 64
_cell_length_a 11.950086
_cell_length_b 31.635402
_cell_length_c 8.852026
_cell_angle_alpha 90.000000
_cell_angle_beta 90.000000
_cell_angle_gamma 90.000000
_cell_volume 3346.471025
_symmetry_space_group_name_H-M "P B C M"
_symmetry_group_IT_number 57
_symmetry_cell_setting 'orthorhombic'
loop_
_space_group_symop_operation_xyz
x,y,z
-x,-y,1/2+z
x,1/2-y,-z
-x,1/2+y,1/2-z
-x,-y,-z
x,y,1/2-z
-x,1/2+y,z
x,1/2-y,1/2+z
loop_
_atom_site_type_symbol
_atom_site_label
_atom_site_fract_x
_atom_site_fract_y
_atom_site_fract_z
Si Si1 0.413515 0.631062 0.427680
Si Si2 0.611349 0.982054 0.572587
Si Si3 0.866726 0.874633 0.930048
Si Si4 0.992669 0.293300 0.928095
Si Si5 0.261963 0.551673 0.422941
Si Si6 0.638747 0.891935 0.429010
Si Si7 0.990729 0.045635 0.076330
Si Si8 0.261131 0.707437 0.071835
O O1 0.438836 0.633183 0.250000
O O2 0.344656 0.589185 0.469378
O O3 0.528944 0.633301 0.518802
O O4 0.339112 0.669765 0.485333
O O5 0.594655 0.977533 0.750000
O O6 0.639963 0.937350 0.504490
O O7 0.500000 0.000000 0.500000
O O8 0.714504 0.012557 0.533702
O O9 0.851954 0.875791 0.750000
O O10 0.938793 0.834226 0.981873
O O11 0.924813 0.918472 0.987251
O O12 0.748400 0.867968 0.011743
O O13 0.999416 0.288120 0.750000
O O14 0.865493 0.300621 0.983687
O O15 0.041252 0.250000 0.000000
O O16 0.284141 0.537955 0.250000
O O17 0.133387 0.565082 0.445076
O O18 0.640443 0.895849 0.250000
O O19 0.018338 0.037782 0.250000
O O20 0.000000 0.000000 0.000000
O O21 0.265214 0.711212 0.250000
O O22 0.309922 0.750000 0.000000
#
# Coordination Sequence:
#
# PCOD8232829 Si02
#       8
#     8   8   8   8   8   8   8   8
#     4  10  20  36  58  81 109 145 185 227 279 336
#     4  12  23  37  56  80 111 149 191 233 280 332
#     4  10  21  39  60  82 114 156 196 236 288 349
#     4   9  18  35  61  90 118 147 186 233 286 347
#     4  10  20  35  57  83 110 142 185 235 282 330
#     4  12  25  39  56  81 113 149 193 240 284 334
#     4  10  21  36  55  81 112 148 189 232 281 338
#     4   9  18  34  58  88 117 147 180 223 282 342
#
# _framework density 19.124625000000002
#
# number of rings (size 3 to 8) (size 9 to 14) (size 15 to 20)
#    0.000    1.750    1.250    3.750    0.000    7.000 
#    0.000    0.625    0.000    4.500    0.000    0.000 
#    0.000    0.000    0.000    0.000    0.000    0.000 
#
# Total GULP energy -793704.240341 kJ/mol
# GULP energy per Si atom -12401.628755 kJ/mol
# Density = 1.908110 g / cm^3
# Si number density = 19.124625 Si / 1000 Ang^3
#
#
#
# Elastic Constant Matrix: (Units=GPa)
#
#
# Indices 1 2 3 4 5 6 
#
# 1 119.6397 60.3973 45.3351 0.0000 0.0000 0.0000
# 2 60.3973 136.8234 47.8793 0.0000 0.0000 0.0000
# 3 45.3351 47.8793 71.5794 0.0000 0.0000 0.0000
# 4 0.0000 0.0000 0.0000 32.0427 0.0000 0.0000
# 5 0.0000 0.0000 0.0000 0.0000 26.7134 0.0000
# 6 0.0000 0.0000 0.0000 0.0000 0.0000 29.8624
#
#
#
# Elastic Compliance Matrix: (Units=1/GPa)
#
#
# Indices 1 2 3 4 5 6 
#
# 1 0.012151 -0.003487 -0.005364 0.000000 0.000000 0.000000
# 2 -0.003487 0.010543 -0.004844 0.000000 0.000000 0.000000
# 3 -0.005364 -0.004844 0.020607 0.000000 0.000000 0.000000
# 4 0.000000 0.000000 0.000000 0.031208 0.000000 0.000000
# 5 0.000000 0.000000 0.000000 0.000000 0.037434 0.000000
# 6 0.000000 0.000000 0.000000 0.000000 0.000000 0.033487
#
#
# Mechanical properties :
#
#
# Convention : Reuss Voigt Hill
#
# Bulk Modulus (GPa) = 62.84105 70.58508 66.71307
# Shear Modulus (GPa) = 28.07037 29.35242 28.71140
#
# Velocity S-wave (km/s) = 3.83529 3.92190 3.87884
# Velocity P-wave (km/s) = 7.24863 7.58264 7.41752
#
# Compressibility (1/GPa) = 0.01591317
#
# Stress axis : x y z
#
# Youngs Moduli (GPa) = 82.29680 94.85091 48.52621
#
# Poissons Ratio (x) = 0.33074 0.26027
# Poissons Ratio (y) = 0.28696 0.23504
# Poissons Ratio (z) = 0.44140 0.45942
#
# Static dielectric constant tensor:
#      x y z
#    x 3.500940 0.000000 0.000000 
#    y 0.000000 3.568390 0.000000 
#    z 0.000000 0.000000 3.344100 
# 
# 
# High freq. dielectric constant tensor:
#      x y z
#    x 1.751490 0.000000 0.000000 
#    y 0.000000 1.741920 0.000000 
#    z 0.000000 0.000000 1.732770 
# 
# From -- ./inp_files/3805.got.cif
#   From: 2010.03.12/outbox.cif.g09.slc.cpg/sg57_2_cif.got.tgz:3805.got - 2010.04.16 15:48:40.
