data_PCOD8232448
_publ_section_title
;
Structure prediction by ZEFSAII (Michael W. Deem and Ramdas Pophale) SiO2 
 PCOD8232448
Probable space group: P B C M
;
_chemical_formula_sum "Si O2"
_cell_formula_units_Z 56
_cell_length_a 16.748594
_cell_length_b 21.439298
_cell_length_c 8.733905
_cell_angle_alpha 90.000000
_cell_angle_beta 90.000000
_cell_angle_gamma 90.000000
_cell_volume 3136.153994
_symmetry_space_group_name_H-M "P B C M"
_symmetry_group_IT_number 57
_symmetry_cell_setting 'orthorhombic'
loop_
_space_group_symop_operation_xyz
x,y,z
-x,-y,1/2+z
x,1/2-y,-z
-x,1/2+y,1/2-z
-x,-y,-z
x,y,1/2-z
-x,1/2+y,z
x,1/2-y,1/2+z
loop_
_atom_site_type_symbol
_atom_site_label
_atom_site_fract_x
_atom_site_fract_y
_atom_site_fract_z
Si Si1 0.475233 0.591995 0.576180
Si Si2 0.800234 0.371462 0.931871
Si Si3 0.949185 0.557119 0.431830
Si Si4 0.208874 0.012672 0.567763
Si Si5 0.621316 0.534903 0.074567
Si Si6 0.035376 0.816020 0.569207
Si Si7 0.362146 0.684858 0.071392
O O1 0.478780 0.616378 0.750000
O O2 0.419697 0.531890 0.563821
O O3 0.564883 0.582404 0.516689
O O4 0.437033 0.641967 0.464204
O O5 0.797038 0.372632 0.750000
O O6 0.807829 0.442359 0.989842
O O7 0.874793 0.330474 0.989595
O O8 0.719573 0.342221 0.001902
O O9 0.952627 0.550658 0.250000
O O10 0.859079 0.555591 0.493494
O O11 0.000000 0.500000 0.500000
O O12 0.982149 0.624953 0.483793
O O13 0.206404 0.018290 0.750000
O O14 0.293889 0.035687 0.508065
O O15 0.631234 0.556265 0.250000
O O16 0.005633 0.750000 0.500000
O O17 0.032397 0.809145 0.750000
O O18 0.350691 0.691789 0.250000
O O19 0.382962 0.750000 0.000000
#
# Coordination Sequence:
#
# PCOD8232448 Si02
#       7
#     8   8   8   8   8   8   8
#     4  10  20  34  53  78 107 142 183 222 268 324
#     4   9  18  33  52  77 111 147 181 223 274 326
#     4  11  22  37  57  83 114 148 189 236 285 339
#     4  11  20  35  57  82 114 147 184 231 282 332
#     4  10  20  34  54  81 109 139 178 223 274 326
#     4  10  21  38  56  79 111 148 189 233 279 334
#     4  11  21  34  52  76 111 150 186 226 271 325
#
# _framework density 17.856266999999999
#
# number of rings (size 3 to 8) (size 9 to 14) (size 15 to 20)
#    0.000    1.714    2.857    2.571    0.000    2.286 
#    0.000    0.714    0.000    0.857    0.000    4.000 
#    0.000    0.000    0.000    0.000    0.000    0.000 
#
# Total GULP energy -694417.485203 kJ/mol
# GULP energy per Si atom -12400.312236 kJ/mol
# Density = 1.781563 g / cm^3
# Si number density = 17.856267 Si / 1000 Ang^3
#
#
#
# Elastic Constant Matrix: (Units=GPa)
#
#
# Indices 1 2 3 4 5 6 
#
# 1 107.2713 38.5824 28.1128 0.0000 0.0000 0.0000
# 2 38.5824 78.0264 25.2491 0.0000 0.0000 0.0000
# 3 28.1128 25.2491 65.8344 0.0000 0.0000 0.0000
# 4 0.0000 0.0000 0.0000 25.6232 0.0000 0.0000
# 5 0.0000 0.0000 0.0000 0.0000 31.8751 0.0000
# 6 0.0000 0.0000 0.0000 0.0000 0.0000 47.4465
#
#
#
# Elastic Compliance Matrix: (Units=1/GPa)
#
#
# Indices 1 2 3 4 5 6 
#
# 1 0.011911 -0.004845 -0.003228 0.000000 0.000000 0.000000
# 2 -0.004845 0.016603 -0.004299 0.000000 0.000000 0.000000
# 3 -0.003228 -0.004299 0.018217 0.000000 0.000000 0.000000
# 4 0.000000 0.000000 0.000000 0.039027 0.000000 0.000000
# 5 0.000000 0.000000 0.000000 0.000000 0.031372 0.000000
# 6 0.000000 0.000000 0.000000 0.000000 0.000000 0.021076
#
#
# Mechanical properties :
#
#
# Convention : Reuss Voigt Hill
#
# Bulk Modulus (GPa) = 45.48142 48.33563 46.90852
# Shear Modulus (GPa) = 29.36359 31.60147 30.48253
#
# Velocity S-wave (km/s) = 4.05957 4.21143 4.13620
# Velocity P-wave (km/s) = 6.89200 7.12574 7.00984
#
# Compressibility (1/GPa) = 0.02198700
#
# Stress axis : x y z
#
# Youngs Moduli (GPa) = 83.95784 60.23012 54.89463
#
# Poissons Ratio (x) = 0.29182 0.17720
# Poissons Ratio (y) = 0.40678 0.23598
# Poissons Ratio (z) = 0.27101 0.25891
#
# Static dielectric constant tensor:
#      x y z
#    x 3.418760 0.000000 0.000000 
#    y 0.000000 3.230110 0.000000 
#    z 0.000000 0.000000 3.263840 
# 
# 
# High freq. dielectric constant tensor:
#      x y z
#    x 1.694140 0.000000 0.000000 
#    y 0.000000 1.674070 0.000000 
#    z 0.000000 0.000000 1.690550 
# 
# From -- ./inp_files/5156.got.cif
#   From: 2010.03.12/outbox.cif.g09.slc.cpg/sg57_3_cif.got.tgz:5156.got - 2010.04.16 15:48:40.
