data_PCOD8232181
_publ_section_title
;
Structure prediction by ZEFSAII (Michael W. Deem and Ramdas Pophale) SiO2 
 PCOD8232181
Probable space group: P B C M
;
_chemical_formula_sum "Si O2"
_cell_formula_units_Z 56
_cell_length_a 20.702525
_cell_length_b 15.883091
_cell_length_c 8.923649
_cell_angle_alpha 90.000000
_cell_angle_beta 90.000000
_cell_angle_gamma 90.000000
_cell_volume 2934.275054
_symmetry_space_group_name_H-M "P B C M"
_symmetry_group_IT_number 57
_symmetry_cell_setting 'orthorhombic'
loop_
_space_group_symop_operation_xyz
x,y,z
-x,-y,1/2+z
x,1/2-y,-z
-x,1/2+y,1/2-z
-x,-y,-z
x,y,1/2-z
-x,1/2+y,z
x,1/2-y,1/2+z
loop_
_atom_site_type_symbol
_atom_site_label
_atom_site_fract_x
_atom_site_fract_y
_atom_site_fract_z
Si Si1 0.464590 0.576838 0.075410
Si Si2 0.159554 0.334083 0.572636
Si Si3 0.652514 0.488192 0.071822
Si Si4 0.409171 0.164797 0.422179
Si Si5 0.917415 0.427226 0.585359
Si Si6 0.965114 0.616621 0.915418
Si Si7 0.786141 0.998639 0.071592
O O1 0.452455 0.558791 0.250000
O O2 0.513030 0.655943 0.053712
O O3 0.500000 0.500000 0.000000
O O4 0.396139 0.584498 0.989751
O O5 0.189252 0.250000 0.500000
O O6 0.167542 0.333489 0.750000
O O7 0.083930 0.338932 0.529366
O O8 0.200687 0.409420 0.504396
O O9 0.656913 0.481543 0.250000
O O10 0.628508 0.581351 0.019160
O O11 0.720341 0.465526 0.995994
O O12 0.384431 0.250000 0.500000
O O13 0.391935 0.175280 0.250000
O O14 0.918667 0.385251 0.750000
O O15 0.948087 0.519221 0.596275
O O16 0.843448 0.435840 0.528279
O O17 0.961269 0.371337 0.474137
O O18 0.959467 0.657903 0.750000
O O19 0.782640 0.986739 0.250000
#
# Coordination Sequence:
#
# PCOD8232181 Si02
#       7
#     8   8   8   8   8   8   8
#     4   9  17  31  49  70  94 122 158 200 242 285
#     4  11  21  33  47  64  91 125 160 196 234 280
#     4  10  20  33  48  70  98 130 165 198 238 290
#     4   9  19  32  48  71  97 124 158 197 237 283
#     4   8  15  27  43  64  88 113 145 185 228 270
#     4   9  16  27  44  65  87 113 148 188 230 271
#     4  10  20  33  48  68  94 125 159 194 233 277
#
# _framework density 19.084781
#
# number of rings (size 3 to 8) (size 9 to 14) (size 15 to 20)
#    0.000    2.571    0.000    4.714    0.000    8.000 
#    0.000    1.429    0.000    0.000    0.000    1.000 
#    0.000    4.571    0.000    0.000    0.000    0.000 
#
# Total GULP energy -694004.939961 kJ/mol
# GULP energy per Si atom -12392.945356 kJ/mol
# Density = 1.904134 g / cm^3
# Si number density = 19.084781 Si / 1000 Ang^3
#
#
#
# Elastic Constant Matrix: (Units=GPa)
#
#
# Indices 1 2 3 4 5 6 
#
# 1 119.4754 -8.8648 33.1622 0.0000 0.0000 0.0000
# 2 -8.8648 6.2504 1.0842 0.0000 0.0000 0.0000
# 3 33.1622 1.0842 99.2869 0.0000 0.0000 0.0000
# 4 0.0000 0.0000 0.0000 20.7108 0.0000 0.0000
# 5 0.0000 0.0000 0.0000 0.0000 33.6648 0.0000
# 6 0.0000 0.0000 0.0000 0.0000 0.0000 10.4994
#
#
#
# Elastic Compliance Matrix: (Units=1/GPa)
#
#
# Indices 1 2 3 4 5 6 
#
# 1 0.010554 0.015609 -0.003695 0.000000 0.000000 0.000000
# 2 0.015609 0.183380 -0.007216 0.000000 0.000000 0.000000
# 3 -0.003695 -0.007216 0.011385 0.000000 0.000000 0.000000
# 4 0.000000 0.000000 0.000000 0.048284 0.000000 0.000000
# 5 0.000000 0.000000 0.000000 0.000000 0.029705 0.000000
# 6 0.000000 0.000000 0.000000 0.000000 0.000000 0.095244
#
#
# Mechanical properties :
#
#
# Convention : Reuss Voigt Hill
#
# Bulk Modulus (GPa) = 4.65736 30.64178 17.64957
# Shear Modulus (GPa) = 11.34489 26.28372 18.81431
#
# Velocity S-wave (km/s) = 2.44077 3.71510 3.14320
# Velocity P-wave (km/s) = 3.22317 5.87308 4.73719
#
# Compressibility (1/GPa) = 0.21471402
#
# Stress axis : x y z
#
# Youngs Moduli (GPa) = 94.75238 5.45316 87.83542
#
# Poissons Ratio (x) = -0.08512 0.32459
# Poissons Ratio (y) = -1.47901 0.63383
# Poissons Ratio (z) = 0.35016 0.03935
#
# Static dielectric constant tensor:
#      x y z
#    x 3.824480 0.000000 0.000000 
#    y 0.000000 3.140930 0.000000 
#    z 0.000000 0.000000 3.709690 
# 
# 
# High freq. dielectric constant tensor:
#      x y z
#    x 1.743620 0.000000 0.000000 
#    y 0.000000 1.686480 0.000000 
#    z 0.000000 0.000000 1.753010 
# 
# From -- ./inp_files/8275.got.cif
#   From: 2010.03.12/outbox.cif.g09.slc.cpg/sg57_5_cif.got.tgz:8275.got - 2010.04.16 15:48:40.
