data_PCOD8232462
_publ_section_title
;
Structure prediction by ZEFSAII (Michael W. Deem and Ramdas Pophale) SiO2 
 PCOD8232462
Probable space group: P B C M
;
_chemical_formula_sum "Si O2"
_cell_formula_units_Z 32
_cell_length_a 12.091706
_cell_length_b 5.359051
_cell_length_c 20.822592
_cell_angle_alpha 90.000000
_cell_angle_beta 90.000000
_cell_angle_gamma 90.000000
_cell_volume 1349.305401
_symmetry_space_group_name_H-M "P B C M"
_symmetry_group_IT_number 57
_symmetry_cell_setting 'orthorhombic'
loop_
_space_group_symop_operation_xyz
x,y,z
-x,-y,1/2+z
x,1/2-y,-z
-x,1/2+y,1/2-z
-x,-y,-z
x,y,1/2-z
-x,1/2+y,z
x,1/2-y,1/2+z
loop_
_atom_site_type_symbol
_atom_site_label
_atom_site_fract_x
_atom_site_fract_y
_atom_site_fract_z
Si Si1 0.102256 0.250000 0.500000
Si Si2 0.432257 0.349640 0.824386
Si Si3 0.741436 0.431869 0.088759
Si Si4 0.429341 0.750000 0.500000
Si Si5 0.962631 0.200702 0.874802
O O1 0.186804 0.444737 0.532063
O O2 0.023086 0.129247 0.555704
O O3 0.399732 0.358610 0.750000
O O4 0.491206 0.089059 0.841939
O O5 0.318621 0.366507 0.865153
O O6 0.647704 0.247071 0.062389
O O7 0.830425 0.259084 0.125546
O O8 0.500000 0.500000 0.500000
O O9 0.016170 0.436128 0.838285
#
# Coordination Sequence:
#
# PCOD8232462 Si02
#       5
#     4   8   8   4   8
#     4  10  20  36  56  88 120 154 188 230 288 358
#     4  10  23  43  63  84 113 154 204 248 286 338
#     4  11  21  37  60  84 118 157 193 234 295 353
#     4  12  24  34  48  80 116 142 178 232 288 340
#     4  10  20  34  53  80 113 149 188 225 275 346
#
# _framework density 23.715906
#
# number of rings (size 3 to 8) (size 9 to 14) (size 15 to 20)
#    0.000    1.500    0.000    7.500    0.000    8.000 
#    0.000    0.000    0.000    6.000    0.000    0.000 
#    0.000    0.000    0.000    0.000    0.000    0.000 
#
# Total GULP energy -396449.084332 kJ/mol
# GULP energy per Si atom -12389.033885 kJ/mol
# Density = 2.366193 g / cm^3
# Si number density = 23.715906 Si / 1000 Ang^3
#
#
#
# Elastic Constant Matrix: (Units=GPa)
#
#
# Indices 1 2 3 4 5 6 
#
# 1 156.7900 60.4242 23.7225 0.0000 0.0000 0.0000
# 2 60.4242 155.0258 5.6150 0.0000 0.0000 0.0000
# 3 23.7225 5.6150 32.6715 0.0000 0.0000 0.0000
# 4 0.0000 0.0000 0.0000 15.0008 0.0000 0.0000
# 5 0.0000 0.0000 0.0000 0.0000 26.3333 0.0000
# 6 0.0000 0.0000 0.0000 0.0000 0.0000 24.1873
#
#
#
# Elastic Compliance Matrix: (Units=1/GPa)
#
#
# Indices 1 2 3 4 5 6 
#
# 1 0.008406 -0.003075 -0.005575 0.000000 0.000000 0.000000
# 2 -0.003075 0.007615 0.000924 0.000000 0.000000 0.000000
# 3 -0.005575 0.000924 0.034497 0.000000 0.000000 0.000000
# 4 0.000000 0.000000 0.000000 0.066663 0.000000 0.000000
# 5 0.000000 0.000000 0.000000 0.000000 0.037975 0.000000
# 6 0.000000 0.000000 0.000000 0.000000 0.000000 0.041344
#
#
# Mechanical properties :
#
#
# Convention : Reuss Voigt Hill
#
# Bulk Modulus (GPa) = 28.51736 58.22340 43.37038
# Shear Modulus (GPa) = 22.35708 30.08598 26.22153
#
# Velocity S-wave (km/s) = 3.07368 3.56560 3.32874
# Velocity P-wave (km/s) = 4.96461 6.44632 5.75336
#
# Compressibility (1/GPa) = 0.03506636
#
# Stress axis : x y z
#
# Youngs Moduli (GPa) = 118.95649 131.31153 28.98779
#
# Poissons Ratio (x) = 0.40373 0.16162
# Poissons Ratio (y) = 0.36575 -0.02677
# Poissons Ratio (z) = 0.66323 -0.12128
#
# Static dielectric constant tensor:
#      x y z
#    x 4.720320 0.000000 0.000000 
#    y 0.000000 4.345540 0.000000 
#    z 0.000000 0.000000 3.921080 
# 
# 
# High freq. dielectric constant tensor:
#      x y z
#    x 1.961120 0.000000 0.000000 
#    y 0.000000 1.953230 0.000000 
#    z 0.000000 0.000000 1.884170 
# 
# From -- ./inp_files/26997.got.cif
#   From: 2010.03.12/outbox.cif.g09.slc.cpg/sg57_14_cif.got.tgz:26997.got - 2010.04.16 15:48:40.
