data_PCOD8232755
_publ_section_title
;
Structure prediction by ZEFSAII (Michael W. Deem and Ramdas Pophale) SiO2 
 PCOD8232755
Probable space group: P B C M
;
_chemical_formula_sum "Si O2"
_cell_formula_units_Z 64
_cell_length_a 24.584826
_cell_length_b 14.245303
_cell_length_c 9.161363
_cell_angle_alpha 90.000000
_cell_angle_beta 90.000000
_cell_angle_gamma 90.000000
_cell_volume 3208.476935
_symmetry_space_group_name_H-M "P B C M"
_symmetry_group_IT_number 57
_symmetry_cell_setting 'orthorhombic'
loop_
_space_group_symop_operation_xyz
x,y,z
-x,-y,1/2+z
x,1/2-y,-z
-x,1/2+y,1/2-z
-x,-y,-z
x,y,1/2-z
-x,1/2+y,z
x,1/2-y,1/2+z
loop_
_atom_site_type_symbol
_atom_site_label
_atom_site_fract_x
_atom_site_fract_y
_atom_site_fract_z
Si Si1 0.408916 0.335414 0.411402
Si Si2 0.321556 0.022581 0.577224
Si Si3 0.522037 0.412078 0.415026
Si Si4 0.879755 0.952041 0.581476
Si Si5 0.360493 0.846296 0.075301
Si Si6 0.233157 0.349736 0.577830
Si Si7 0.021466 0.410715 0.083431
Si Si8 0.907359 0.339882 0.415405
O O1 0.383381 0.250000 0.500000
O O2 0.389981 0.311581 0.250000
O O3 0.381788 0.434725 0.454324
O O4 0.474114 0.335553 0.426360
O O5 0.310238 0.007791 0.750000
O O6 0.279747 0.094575 0.506354
O O7 0.319941 0.924463 0.490537
O O8 0.500000 0.500000 0.500000
O O9 0.531977 0.445162 0.250000
O O10 0.577641 0.368088 0.476304
O O11 0.897451 0.950311 0.750000
O O12 0.820211 0.912357 0.556281
O O13 0.921642 0.883340 0.494691
O O14 0.883965 0.060424 0.523861
O O15 0.354507 0.840140 0.250000
O O16 0.342517 0.750000 0.000000
O O17 0.225038 0.250000 0.500000
O O18 0.246532 0.336645 0.750000
O O19 0.034481 0.435799 0.250000
O O20 0.973395 0.334093 0.073005
O O21 0.000000 0.500000 0.000000
O O22 0.882888 0.250000 0.500000
O O23 0.887773 0.328867 0.250000
#
# Coordination Sequence:
#
# PCOD8232755 Si02
#       8
#     8   8   8   8   8   8   8   8
#     4  10  21  35  54  82 114 148 186 229 280 337
#     4  11  23  41  63  86 116 150 193 244 293 350
#     4  10  20  35  55  83 117 155 192 232 284 341
#     4   9  20  38  57  80 114 153 193 241 292 345
#     4  11  23  39  62  89 119 157 197 240 292 351
#     4  11  24  43  65  88 116 149 191 244 302 359
#     4   9  17  30  50  77 112 151 192 235 281 337
#     4   9  18  32  51  80 115 152 190 228 277 333
#
# _framework density 19.947158000000002
#
# number of rings (size 3 to 8) (size 9 to 14) (size 15 to 20)
#    0.000    2.000    1.250    3.000    0.000    7.000 
#    0.000    3.125    0.000    1.500    0.000    0.000 
#    0.000    0.000    0.000    0.000    0.000    0.000 
#
# Total GULP energy -793226.232033 kJ/mol
# GULP energy per Si atom -12394.159876 kJ/mol
# Density = 1.990176 g / cm^3
# Si number density = 19.947158 Si / 1000 Ang^3
#
#
#
# Elastic Constant Matrix: (Units=GPa)
#
#
# Indices 1 2 3 4 5 6 
#
# 1 66.7694 27.0700 31.7260 0.0000 0.0000 0.0000
# 2 27.0700 127.1348 57.4740 0.0000 0.0000 0.0000
# 3 31.7260 57.4740 100.9474 0.0000 0.0000 0.0000
# 4 0.0000 0.0000 0.0000 37.3601 0.0000 0.0000
# 5 0.0000 0.0000 0.0000 0.0000 27.4842 0.0000
# 6 0.0000 0.0000 0.0000 0.0000 0.0000 23.2283
#
#
#
# Elastic Compliance Matrix: (Units=1/GPa)
#
#
# Indices 1 2 3 4 5 6 
#
# 1 0.017877 -0.001705 -0.004647 0.000000 0.000000 0.000000
# 2 -0.001705 0.010755 -0.005587 0.000000 0.000000 0.000000
# 3 -0.004647 -0.005587 0.014548 0.000000 0.000000 0.000000
# 4 0.000000 0.000000 0.000000 0.026766 0.000000 0.000000
# 5 0.000000 0.000000 0.000000 0.000000 0.036384 0.000000
# 6 0.000000 0.000000 0.000000 0.000000 0.000000 0.043051
#
#
# Mechanical properties :
#
#
# Convention : Reuss Voigt Hill
#
# Bulk Modulus (GPa) = 51.81568 58.59908 55.20738
# Shear Modulus (GPa) = 27.82516 29.51996 28.67256
#
# Velocity S-wave (km/s) = 3.73895 3.85113 3.79545
# Velocity P-wave (km/s) = 6.68375 7.01540 6.85158
#
# Compressibility (1/GPa) = 0.01929918
#
# Stress axis : x y z
#
# Youngs Moduli (GPa) = 55.93919 92.98389 68.73936
#
# Poissons Ratio (x) = 0.15858 0.31945
# Poissons Ratio (y) = 0.09540 0.38405
# Poissons Ratio (z) = 0.25997 0.51951
#
# Static dielectric constant tensor:
#      x y z
#    x 3.669910 0.000000 0.000000 
#    y 0.000000 3.519840 0.000000 
#    z 0.000000 0.000000 3.809490 
# 
# 
# High freq. dielectric constant tensor:
#      x y z
#    x 1.764180 0.000000 0.000000 
#    y 0.000000 1.772910 0.000000 
#    z 0.000000 0.000000 1.783870 
# 
# From -- ./inp_files/9463.got.cif
#   From: 2010.03.12/outbox.cif.g09.slc.cpg/sg57_5_cif.got.tgz:9463.got - 2010.04.16 15:48:40.
