data_PCOD8232335
_publ_section_title
;
Structure prediction by ZEFSAII (Michael W. Deem and Ramdas Pophale) SiO2 
 PCOD8232335
Probable space group: P B C M
;
_chemical_formula_sum "Si O2"
_cell_formula_units_Z 48
_cell_length_a 6.866866
_cell_length_b 17.799578
_cell_length_c 20.894036
_cell_angle_alpha 90.000000
_cell_angle_beta 90.000000
_cell_angle_gamma 90.000000
_cell_volume 2553.821961
_symmetry_space_group_name_H-M "P B C M"
_symmetry_group_IT_number 57
_symmetry_cell_setting 'orthorhombic'
loop_
_space_group_symop_operation_xyz
x,y,z
-x,-y,1/2+z
x,1/2-y,-z
-x,1/2+y,1/2-z
-x,-y,-z
x,y,1/2-z
-x,1/2+y,z
x,1/2-y,1/2+z
loop_
_atom_site_type_symbol
_atom_site_label
_atom_site_fract_x
_atom_site_fract_y
_atom_site_fract_z
Si Si1 0.735753 0.852945 0.871677
Si Si2 0.408002 0.546537 0.179733
Si Si3 0.199372 0.031185 0.475432
Si Si4 0.514031 0.576315 0.923875
Si Si5 0.579372 0.244161 0.575530
Si Si6 0.142279 0.819882 0.676500
O O1 0.588528 0.895874 0.824830
O O2 0.838573 0.914638 0.916133
O O3 0.615090 0.792679 0.913183
O O4 0.909106 0.813536 0.832316
O O5 0.404871 0.511646 0.250000
O O6 0.421180 0.475387 0.134518
O O7 0.211827 0.593982 0.166159
O O8 0.304402 0.081704 0.528559
O O9 0.328752 0.958729 0.459335
O O10 0.000000 0.000000 0.500000
O O11 0.461526 0.659557 0.901946
O O12 0.638243 0.250000 0.500000
O O13 0.754543 0.269644 0.622086
O O14 0.192618 0.794308 0.750000
#
# Coordination Sequence:
#
# PCOD8232335 Si02
#       6
#     8   8   8   8   8   8
#     4  10  20  36  58  83 113 150 192 236 288 347
#     4   9  19  37  59  80 107 148 194 242 288 342
#     4  10  20  33  56  82 111 144 187 243 291 329
#     4  10  21  36  53  83 115 145 191 236 287 348
#     4  11  23  38  57  87 124 157 192 235 294 355
#     4  10  22  39  61  86 114 154 198 240 291 350
#
# _framework density 18.795358
#
# number of rings (size 3 to 8) (size 9 to 14) (size 15 to 20)
#    0.000    2.000    1.667    1.500    4.667    3.333 
#    0.000    0.000    0.000    4.000    0.000    0.000 
#    0.000    0.000    0.000    0.000    0.000    0.000 
#
# Total GULP energy -595106.754313 kJ/mol
# GULP energy per Si atom -12398.057382 kJ/mol
# Density = 1.875258 g / cm^3
# Si number density = 18.795358 Si / 1000 Ang^3
#
#
#
# Elastic Constant Matrix: (Units=GPa)
#
#
# Indices 1 2 3 4 5 6 
#
# 1 88.9906 14.3216 32.1280 0.0000 0.0000 0.0000
# 2 14.3216 80.2636 22.8169 0.0000 0.0000 0.0000
# 3 32.1280 22.8169 103.0988 0.0000 0.0000 0.0000
# 4 0.0000 0.0000 0.0000 20.4245 0.0000 0.0000
# 5 0.0000 0.0000 0.0000 0.0000 24.1971 0.0000
# 6 0.0000 0.0000 0.0000 0.0000 0.0000 19.3352
#
#
#
# Elastic Compliance Matrix: (Units=1/GPa)
#
#
# Indices 1 2 3 4 5 6 
#
# 1 0.012773 -0.001225 -0.003709 0.000000 0.000000 0.000000
# 2 -0.001225 0.013413 -0.002587 0.000000 0.000000 0.000000
# 3 -0.003709 -0.002587 0.011428 0.000000 0.000000 0.000000
# 4 0.000000 0.000000 0.000000 0.048961 0.000000 0.000000
# 5 0.000000 0.000000 0.000000 0.000000 0.041327 0.000000
# 6 0.000000 0.000000 0.000000 0.000000 0.000000 0.051719
#
#
# Mechanical properties :
#
#
# Convention : Reuss Voigt Hill
#
# Bulk Modulus (GPa) = 44.30206 45.65399 44.97803
# Shear Modulus (GPa) = 24.72955 26.33046 25.53001
#
# Velocity S-wave (km/s) = 3.63123 3.74692 3.68953
# Velocity P-wave (km/s) = 6.41896 6.56217 6.49096
#
# Compressibility (1/GPa) = 0.02257231
#
# Stress axis : x y z
#
# Youngs Moduli (GPa) = 78.28736 74.55548 87.50542
#
# Poissons Ratio (x) = 0.09131 0.32460
# Poissons Ratio (y) = 0.09588 0.22636
# Poissons Ratio (z) = 0.29040 0.19286
#
# Static dielectric constant tensor:
#      x y z
#    x 3.521310 0.000000 0.000000 
#    y 0.000000 3.395430 0.000000 
#    z 0.000000 0.000000 3.500310 
# 
# 
# High freq. dielectric constant tensor:
#      x y z
#    x 1.731030 0.000000 0.000000 
#    y 0.000000 1.717400 0.000000 
#    z 0.000000 0.000000 1.737570 
# 
# From -- ./inp_files/23661.got.cif
#   From: 2010.03.12/outbox.cif.g09.slc.cpg/sg57_12_cif.got.tgz:23661.got - 2010.04.16 15:48:40.
