data_PCOD8232665
_publ_section_title
;
Structure prediction by ZEFSAII (Michael W. Deem and Ramdas Pophale) SiO2 
 PCOD8232665
Probable space group: P B C M
;
_chemical_formula_sum "Si O2"
_cell_formula_units_Z 48
_cell_length_a 30.118032
_cell_length_b 9.492919
_cell_length_c 9.070810
_cell_angle_alpha 90.000000
_cell_angle_beta 90.000000
_cell_angle_gamma 90.000000
_cell_volume 2593.417492
_symmetry_space_group_name_H-M "P B C M"
_symmetry_group_IT_number 57
_symmetry_cell_setting 'orthorhombic'
loop_
_space_group_symop_operation_xyz
x,y,z
-x,-y,1/2+z
x,1/2-y,-z
-x,1/2+y,1/2-z
-x,-y,-z
x,y,1/2-z
-x,1/2+y,z
x,1/2-y,1/2+z
loop_
_atom_site_type_symbol
_atom_site_label
_atom_site_fract_x
_atom_site_fract_y
_atom_site_fract_z
Si Si1 0.113596 0.390405 0.079198
Si Si2 0.963739 0.098117 0.075389
Si Si3 0.466557 0.396853 0.077987
Si Si4 0.289751 0.898814 0.576392
Si Si5 0.633997 0.895564 0.420263
Si Si6 0.786066 0.891557 0.422957
O O1 0.112124 0.353418 0.250000
O O2 0.083716 0.525937 0.043283
O O3 0.163594 0.426562 0.026897
O O4 0.095224 0.250000 0.000000
O O5 0.973102 0.112698 0.250000
O O6 0.964098 0.250000 0.000000
O O7 0.000000 0.000000 0.000000
O O8 0.477998 0.383554 0.250000
O O9 0.416154 0.449529 0.052848
O O10 0.473752 0.250000 0.000000
O O11 0.500000 0.500000 0.000000
O O12 0.289829 0.750000 0.500000
O O13 0.291510 0.875286 0.750000
O O14 0.332691 0.985256 0.520394
O O15 0.245138 0.980115 0.527763
O O16 0.643953 0.750000 0.500000
O O17 0.643171 0.865583 0.250000
O O18 0.768823 0.750000 0.500000
O O19 0.782680 0.865882 0.250000
#
# Coordination Sequence:
#
# PCOD8232665 Si02
#       6
#     8   8   8   8   8   8
#     4   9  19  35  55  79 106 136 171 213 258 306
#     4  11  23  38  56  79 108 141 178 219 264 312
#     4  10  20  35  54  77 105 136 172 213 259 309
#     4  10  21  35  51  75 106 136 169 210 255 303
#     4   9  19  35  54  76 101 132 171 212 253 303
#     4   9  18  34  55  78 104 135 172 211 253 305
#
# _framework density 18.508396999999999
#
# number of rings (size 3 to 8) (size 9 to 14) (size 15 to 20)
#    0.000    2.333    0.000    2.000    0.000    6.000 
#    0.000    1.667    0.000    0.000    0.000    0.000 
#    0.000    0.000    0.000    0.000    0.000    0.000 
#
# Total GULP energy -595240.019080 kJ/mol
# GULP energy per Si atom -12400.833731 kJ/mol
# Density = 1.846627 g / cm^3
# Si number density = 18.508397 Si / 1000 Ang^3
#
#
#
# Elastic Constant Matrix: (Units=GPa)
#
#
# Indices 1 2 3 4 5 6 
#
# 1 123.0833 92.9270 58.5089 0.0000 0.0000 0.0000
# 2 92.9270 161.6522 70.1458 0.0000 0.0000 0.0000
# 3 58.5089 70.1458 77.5246 0.0000 0.0000 0.0000
# 4 0.0000 0.0000 0.0000 40.6853 0.0000 0.0000
# 5 0.0000 0.0000 0.0000 0.0000 24.8476 0.0000
# 6 0.0000 0.0000 0.0000 0.0000 0.0000 35.1057
#
#
#
# Elastic Compliance Matrix: (Units=1/GPa)
#
#
# Indices 1 2 3 4 5 6 
#
# 1 0.015964 -0.006502 -0.006165 0.000000 0.000000 0.000000
# 2 -0.006502 0.012833 -0.006705 0.000000 0.000000 0.000000
# 3 -0.006165 -0.006705 0.023619 0.000000 0.000000 0.000000
# 4 0.000000 0.000000 0.000000 0.024579 0.000000 0.000000
# 5 0.000000 0.000000 0.000000 0.000000 0.040245 0.000000
# 6 0.000000 0.000000 0.000000 0.000000 0.000000 0.028485
#
#
# Mechanical properties :
#
#
# Convention : Reuss Voigt Hill
#
# Bulk Modulus (GPa) = 73.14063 89.49151 81.31607
# Shear Modulus (GPa) = 26.45127 29.50627 27.97877
#
# Velocity S-wave (km/s) = 3.78451 3.99709 3.89225
# Velocity P-wave (km/s) = 7.66159 8.35219 8.01433
#
# Compressibility (1/GPa) = 0.01367229
#
# Stress axis : x y z
#
# Youngs Moduli (GPa) = 62.64028 77.92384 42.33914
#
# Poissons Ratio (x) = 0.50664 0.26104
# Poissons Ratio (y) = 0.40727 0.28387
# Poissons Ratio (z) = 0.38621 0.52245
#
# Static dielectric constant tensor:
#      x y z
#    x 3.854270 0.000000 0.000000 
#    y 0.000000 4.804880 0.000000 
#    z 0.000000 0.000000 3.421060 
# 
# 
# High freq. dielectric constant tensor:
#      x y z
#    x 1.732620 0.000000 0.000000 
#    y 0.000000 1.714730 0.000000 
#    z 0.000000 0.000000 1.719190 
# 
# From -- ./inp_files/9958.got.cif
#   From: 2010.03.12/outbox.cif.g09.slc.cpg/sg57_5_cif.got.tgz:9958.got - 2010.04.16 15:48:40.
