data_PCOD8232220
_publ_section_title
;
Structure prediction by ZEFSAII (Michael W. Deem and Ramdas Pophale) SiO2 
 PCOD8232220
Probable space group: P B C M
;
_chemical_formula_sum "Si O2"
_cell_formula_units_Z 48
_cell_length_a 31.341596
_cell_length_b 9.146263
_cell_length_c 8.971526
_cell_angle_alpha 90.000000
_cell_angle_beta 90.000000
_cell_angle_gamma 90.000000
_cell_volume 2571.764005
_symmetry_space_group_name_H-M "P B C M"
_symmetry_group_IT_number 57
_symmetry_cell_setting 'orthorhombic'
loop_
_space_group_symop_operation_xyz
x,y,z
-x,-y,1/2+z
x,1/2-y,-z
-x,1/2+y,1/2-z
-x,-y,-z
x,y,1/2-z
-x,1/2+y,z
x,1/2-y,1/2+z
loop_
_atom_site_type_symbol
_atom_site_label
_atom_site_fract_x
_atom_site_fract_y
_atom_site_fract_z
Si Si1 0.463009 0.907296 0.074672
Si Si2 0.208667 0.907063 0.423835
Si Si3 0.964392 0.405188 0.576886
Si Si4 0.380270 0.403564 0.923331
Si Si5 0.870806 0.406368 0.577514
Si Si6 0.302657 0.906057 0.075909
O O1 0.472008 0.890690 0.250000
O O2 0.418763 0.987616 0.041687
O O3 0.461025 0.750000 0.000000
O O4 0.500000 0.000000 0.000000
O O5 0.209523 0.750000 0.500000
O O6 0.199405 0.892737 0.250000
O O7 0.168739 0.995527 0.499682
O O8 0.255497 0.975985 0.453828
O O9 0.964745 0.250000 0.500000
O O10 0.975381 0.385780 0.750000
O O11 0.917448 0.480972 0.556627
O O12 0.000000 0.500000 0.500000
O O13 0.375802 0.371193 0.750000
O O14 0.337108 0.478604 0.986369
O O15 0.388916 0.250000 0.000000
O O16 0.873517 0.250000 0.500000
O O17 0.859856 0.386832 0.750000
O O18 0.310054 0.878282 0.250000
O O19 0.308958 0.750000 0.000000
#
# Coordination Sequence:
#
# PCOD8232220 Si02
#       6
#     8   8   8   8   8   8
#     4  11  23  39  60  85 113 144 179 220 265 313
#     4   9  15  24  42  67  95 124 156 199 248 296
#     4  10  20  33  50  72  99 131 167 209 255 305
#     4  10  22  38  55  77 106 140 177 216 257 304
#     4   9  16  26  42  66  95 125 160 201 246 297
#     4   9  18  32  50  75 103 130 165 207 252 301
#
# _framework density 18.664231999999998
#
# number of rings (size 3 to 8) (size 9 to 14) (size 15 to 20)
#    0.000    2.333    0.000    4.000    0.000    6.000 
#    0.000    0.000    0.000    1.000    0.000    4.667 
#    0.000    0.000    0.000    0.000    0.000    0.000 
#
# Total GULP energy -594783.162136 kJ/mol
# GULP energy per Si atom -12391.315878 kJ/mol
# Density = 1.862175 g / cm^3
# Si number density = 18.664232 Si / 1000 Ang^3
#
#
#
# Elastic Constant Matrix: (Units=GPa)
#
#
# Indices 1 2 3 4 5 6 
#
# 1 177.4644 58.5534 83.1881 0.0000 0.0000 0.0000
# 2 58.5534 86.6304 47.8023 0.0000 0.0000 0.0000
# 3 83.1881 47.8023 118.3749 0.0000 0.0000 0.0000
# 4 0.0000 0.0000 0.0000 26.2327 0.0000 0.0000
# 5 0.0000 0.0000 0.0000 0.0000 32.8672 0.0000
# 6 0.0000 0.0000 0.0000 0.0000 0.0000 26.4037
#
#
#
# Elastic Compliance Matrix: (Units=1/GPa)
#
#
# Indices 1 2 3 4 5 6 
#
# 1 0.009112 -0.003378 -0.005039 0.000000 0.000000 0.000000
# 2 -0.003378 0.016105 -0.004130 0.000000 0.000000 0.000000
# 3 -0.005039 -0.004130 0.013657 0.000000 0.000000 0.000000
# 4 0.000000 0.000000 0.000000 0.038120 0.000000 0.000000
# 5 0.000000 0.000000 0.000000 0.000000 0.030425 0.000000
# 6 0.000000 0.000000 0.000000 0.000000 0.000000 0.037873
#
#
# Mechanical properties :
#
#
# Convention : Reuss Voigt Hill
#
# Bulk Modulus (GPa) = 72.56975 84.61746 78.59361
# Shear Modulus (GPa) = 28.57473 29.96244 29.26859
#
# Velocity S-wave (km/s) = 3.91703 4.01102 3.96430
# Velocity P-wave (km/s) = 7.70867 8.17839 7.94700
#
# Compressibility (1/GPa) = 0.01377985
#
# Stress axis : x y z
#
# Youngs Moduli (GPa) = 109.75023 62.09156 73.22435
#
# Poissons Ratio (x) = 0.20974 0.36898
# Poissons Ratio (y) = 0.37073 0.30240
# Poissons Ratio (z) = 0.55304 0.25642
#
# Static dielectric constant tensor:
#      x y z
#    x 4.759740 0.000000 0.000000 
#    y 0.000000 2.975780 0.000000 
#    z 0.000000 0.000000 3.571830 
# 
# 
# High freq. dielectric constant tensor:
#      x y z
#    x 1.759540 0.000000 0.000000 
#    y 0.000000 1.670110 0.000000 
#    z 0.000000 0.000000 1.736580 
# 
# From -- ./inp_files/10088.got.cif
#   From: 2010.03.12/outbox.cif.g09.slc.cpg/sg57_6_cif.got.tgz:10088.got - 2010.04.16 15:48:40.
