data_PCOD8232634
_publ_section_title
;
Structure prediction by ZEFSAII (Michael W. Deem and Ramdas Pophale) SiO2 
 PCOD8232634
Probable space group: P B C M
;
_chemical_formula_sum "Si O2"
_cell_formula_units_Z 64
_cell_length_a 17.870010
_cell_length_b 23.160841
_cell_length_c 9.128556
_cell_angle_alpha 90.000000
_cell_angle_beta 90.000000
_cell_angle_gamma 90.000000
_cell_volume 3778.167473
_symmetry_space_group_name_H-M "P B C M"
_symmetry_group_IT_number 57
_symmetry_cell_setting 'orthorhombic'
loop_
_space_group_symop_operation_xyz
x,y,z
-x,-y,1/2+z
x,1/2-y,-z
-x,1/2+y,1/2-z
-x,-y,-z
x,y,1/2-z
-x,1/2+y,z
x,1/2-y,1/2+z
loop_
_atom_site_type_symbol
_atom_site_label
_atom_site_fract_x
_atom_site_fract_y
_atom_site_fract_z
Si Si1 0.283668 0.567406 0.583756
Si Si2 0.872674 0.390117 0.080512
Si Si3 0.428448 0.431435 0.085726
Si Si4 0.715315 0.564949 0.414741
Si Si5 0.992812 0.189451 0.421085
Si Si6 0.428672 0.568926 0.414388
Si Si7 0.077399 0.500696 0.078869
Si Si8 0.126054 0.396098 0.585261
O O1 0.312263 0.565709 0.750000
O O2 0.217479 0.615950 0.570154
O O3 0.260376 0.500941 0.539574
O O4 0.351489 0.590777 0.485495
O O5 0.899564 0.391467 0.250000
O O6 0.922948 0.344342 0.993198
O O7 0.876104 0.451200 0.002192
O O8 0.431837 0.407601 0.250000
O O9 0.430740 0.500180 0.080543
O O10 0.350731 0.410183 0.015304
O O11 0.499690 0.405654 0.999818
O O12 0.684092 0.563326 0.250000
O O13 0.784128 0.611186 0.424760
O O14 0.999131 0.250000 0.500000
O O15 0.974314 0.197333 0.250000
O O16 0.074015 0.159599 0.442964
O O17 0.431831 0.592694 0.250000
O O18 0.071029 0.514144 0.250000
O O19 0.111460 0.438457 0.049566
O O20 0.000000 0.500000 0.000000
O O21 0.106759 0.420193 0.750000
#
# Coordination Sequence:
#
# PCOD8232634 Si02
#       8
#     8   8   8   8   8   8   8   8
#     4   9  17  28  44  66  95 127 157 196 242 287
#     4  11  21  35  53  74 100 129 164 206 251 297
#     4   9  16  25  37  57  87 125 165 197 231 277
#     4   9  16  28  44  65  94 125 159 197 240 287
#     4  11  24  40  57  73  95 129 168 209 252 300
#     4   9  16  25  38  57  86 126 166 198 229 274
#     4  12  22  31  48  73 100 128 160 199 247 297
#     4  10  20  35  52  72  97 128 164 205 250 296
#
# _framework density 16.939430000000002
#
# number of rings (size 3 to 8) (size 9 to 14) (size 15 to 20)
#    0.000    2.000    2.500    2.625    0.000    5.000 
#    0.000    0.000    0.000    0.000    0.000    0.000 
#    0.000    1.000    0.000    9.250    0.000    4.375 
#
# Total GULP energy -792836.842321 kJ/mol
# GULP energy per Si atom -12388.075661 kJ/mol
# Density = 1.690087 g / cm^3
# Si number density = 16.939430 Si / 1000 Ang^3
#
#
#
# Elastic Constant Matrix: (Units=GPa)
#
#
# Indices 1 2 3 4 5 6 
#
# 1 132.5505 35.5847 76.5872 0.0000 0.0000 0.0000
# 2 35.5847 53.4274 36.1834 0.0000 0.0000 0.0000
# 3 76.5872 36.1834 130.6012 0.0000 0.0000 0.0000
# 4 0.0000 0.0000 0.0000 16.8832 0.0000 0.0000
# 5 0.0000 0.0000 0.0000 0.0000 31.4014 0.0000
# 6 0.0000 0.0000 0.0000 0.0000 0.0000 6.8654
#
#
#
# Elastic Compliance Matrix: (Units=1/GPa)
#
#
# Indices 1 2 3 4 5 6 
#
# 1 0.012065 -0.003994 -0.005969 0.000000 0.000000 0.000000
# 2 -0.003994 0.024362 -0.004408 0.000000 0.000000 0.000000
# 3 -0.005969 -0.004408 0.012378 0.000000 0.000000 0.000000
# 4 0.000000 0.000000 0.000000 0.059230 0.000000 0.000000
# 5 0.000000 0.000000 0.000000 0.000000 0.031846 0.000000
# 6 0.000000 0.000000 0.000000 0.000000 0.000000 0.145657
#
#
# Mechanical properties :
#
#
# Convention : Reuss Voigt Hill
#
# Bulk Modulus (GPa) = 49.83719 68.14329 58.99024
# Shear Modulus (GPa) = 15.57792 22.24494 18.91143
#
# Velocity S-wave (km/s) = 3.03582 3.62775 3.34490
# Velocity P-wave (km/s) = 6.46320 7.60673 7.05816
#
# Compressibility (1/GPa) = 0.02006533
#
# Stress axis : x y z
#
# Youngs Moduli (GPa) = 82.88312 41.04779 80.78652
#
# Poissons Ratio (x) = 0.16392 0.48220
# Poissons Ratio (y) = 0.33099 0.35608
# Poissons Ratio (z) = 0.49472 0.18092
#
# Static dielectric constant tensor:
#      x y z
#    x 3.350290 0.000000 0.000000 
#    y 0.000000 2.619770 0.000000 
#    z 0.000000 0.000000 3.275570 
# 
# 
# High freq. dielectric constant tensor:
#      x y z
#    x 1.668350 0.000000 0.000000 
#    y 0.000000 1.572240 0.000000 
#    z 0.000000 0.000000 1.669310 
# 
# From -- ./inp_files/7416.got.cif
#   From: 2010.03.12/outbox.cif.g09.slc.cpg/sg57_4_cif.got.tgz:7416.got - 2010.04.16 15:48:40.
