data_PCOD8232606
_publ_section_title
;
Structure prediction by ZEFSAII (Michael W. Deem and Ramdas Pophale) SiO2 
 PCOD8232606
Probable space group: P B C M
;
_chemical_formula_sum "Si O2"
_cell_formula_units_Z 40
_cell_length_a 6.339484
_cell_length_b 22.792043
_cell_length_c 13.838959
_cell_angle_alpha 90.000000
_cell_angle_beta 90.000000
_cell_angle_gamma 90.000000
_cell_volume 1999.588306
_symmetry_space_group_name_H-M "P B C M"
_symmetry_group_IT_number 57
_symmetry_cell_setting 'orthorhombic'
loop_
_space_group_symop_operation_xyz
x,y,z
-x,-y,1/2+z
x,1/2-y,-z
-x,1/2+y,1/2-z
-x,-y,-z
x,y,1/2-z
-x,1/2+y,z
x,1/2-y,1/2+z
loop_
_atom_site_type_symbol
_atom_site_label
_atom_site_fract_x
_atom_site_fract_y
_atom_site_fract_z
Si Si1 0.891367 0.899604 0.493185
Si Si2 0.611457 0.976782 0.359174
Si Si3 0.272122 0.885913 0.358619
Si Si4 0.515176 0.680844 0.005480
Si Si5 0.756124 0.102350 0.139109
O O1 0.758700 0.952487 0.445471
O O2 0.746508 0.845089 0.525372
O O3 0.053167 0.878566 0.412169
O O4 0.023332 0.917228 0.588954
O O5 0.697626 0.961392 0.250000
O O6 0.374461 0.951110 0.370095
O O7 0.597171 0.047009 0.370607
O O8 0.228373 0.868121 0.250000
O O9 0.442894 0.840623 0.400201
O O10 0.350972 0.657985 0.086936
O O11 0.525611 0.750000 0.000000
O O12 0.801162 0.118812 0.250000
#
# Coordination Sequence:
#
# PCOD8232606 Si02
#       5
#     8   8   8   8   8
#     4  10  20  34  58  85 112 143 182 227 275 327
#     4   9  18  34  57  88 120 144 172 217 276 338
#     4   9  19  36  59  84 109 140 178 223 275 331
#     4  10  23  40  54  74 108 147 188 232 273 316
#     4  10  22  38  57  83 114 147 182 222 274 333
#
# _framework density 20.004117999999998
#
# number of rings (size 3 to 8) (size 9 to 14) (size 15 to 20)
#    0.000    2.400    0.000    1.200    0.000   14.400 
#    0.000    4.000    0.000    0.000    0.000    0.000 
#    0.000    0.000    0.000    0.000    0.000    0.000 
#
# Total GULP energy -495834.650429 kJ/mol
# GULP energy per Si atom -12395.866261 kJ/mol
# Density = 1.995859 g / cm^3
# Si number density = 20.004118 Si / 1000 Ang^3
#
#
#
# Elastic Constant Matrix: (Units=GPa)
#
#
# Indices 1 2 3 4 5 6 
#
# 1 68.6656 8.0321 32.8058 0.0000 0.0000 0.0000
# 2 8.0321 102.1701 26.3166 0.0000 0.0000 0.0000
# 3 32.8058 26.3166 143.9256 0.0000 0.0000 0.0000
# 4 0.0000 0.0000 0.0000 17.5010 0.0000 0.0000
# 5 0.0000 0.0000 0.0000 0.0000 23.4894 0.0000
# 6 0.0000 0.0000 0.0000 0.0000 0.0000 16.2919
#
#
#
# Elastic Compliance Matrix: (Units=1/GPa)
#
#
# Indices 1 2 3 4 5 6 
#
# 1 0.016354 -0.000342 -0.003665 0.000000 0.000000 0.000000
# 2 -0.000342 0.010278 -0.001802 0.000000 0.000000 0.000000
# 3 -0.003665 -0.001802 0.008113 0.000000 0.000000 0.000000
# 4 0.000000 0.000000 0.000000 0.057139 0.000000 0.000000
# 5 0.000000 0.000000 0.000000 0.000000 0.042572 0.000000
# 6 0.000000 0.000000 0.000000 0.000000 0.000000 0.061380
#
#
# Mechanical properties :
#
#
# Convention : Reuss Voigt Hill
#
# Bulk Modulus (GPa) = 43.23590 49.89670 46.56630
# Shear Modulus (GPa) = 23.23804 27.96358 25.60081
#
# Velocity S-wave (km/s) = 3.41202 3.74289 3.58128
# Velocity P-wave (km/s) = 6.09778 6.60881 6.35843
#
# Compressibility (1/GPa) = 0.02312893
#
# Stress axis : x y z
#
# Youngs Moduli (GPa) = 61.14547 97.29049 123.26049
#
# Poissons Ratio (x) = 0.03323 0.45179
# Poissons Ratio (y) = 0.02089 0.22206
# Poissons Ratio (z) = 0.22412 0.17527
#
# Static dielectric constant tensor:
#      x y z
#    x 3.649920 0.000000 0.000000 
#    y 0.000000 3.309140 0.000000 
#    z 0.000000 0.000000 3.907750 
# 
# 
# High freq. dielectric constant tensor:
#      x y z
#    x 1.779360 0.000000 0.000000 
#    y 0.000000 1.751570 0.000000 
#    z 0.000000 0.000000 1.794440 
# 
# From -- ./inp_files/14934.got.cif
#   From: 2010.03.12/outbox.cif.g09.slc.cpg/sg57_8_cif.got.tgz:14934.got - 2010.04.16 15:48:40.
