data_PCOD8232888
_publ_section_title
;
Structure prediction by ZEFSAII (Michael W. Deem and Ramdas Pophale) SiO2 
 PCOD8232888
Probable space group: P B C M
;
_chemical_formula_sum "Si O2"
_cell_formula_units_Z 32
_cell_length_a 8.451685
_cell_length_b 11.089982
_cell_length_c 14.249675
_cell_angle_alpha 90.000000
_cell_angle_beta 90.000000
_cell_angle_gamma 90.000000
_cell_volume 1335.608280
_symmetry_space_group_name_H-M "P B C M"
_symmetry_group_IT_number 57
_symmetry_cell_setting 'orthorhombic'
loop_
_space_group_symop_operation_xyz
x,y,z
-x,-y,1/2+z
x,1/2-y,-z
-x,1/2+y,1/2-z
-x,-y,-z
x,y,1/2-z
-x,1/2+y,z
x,1/2-y,1/2+z
loop_
_atom_site_type_symbol
_atom_site_label
_atom_site_fract_x
_atom_site_fract_y
_atom_site_fract_z
Si Si1 0.648267 0.306197 0.859038
Si Si2 0.200286 0.434419 0.356768
Si Si3 0.378363 0.399345 0.971794
Si Si4 0.168721 0.570999 0.858657
O O1 0.606895 0.292219 0.750000
O O2 0.749263 0.427421 0.875727
O O3 0.481814 0.300523 0.915480
O O4 0.750380 0.193474 0.896484
O O5 0.241413 0.394973 0.250000
O O6 0.294402 0.349810 0.431926
O O7 0.016464 0.421272 0.378224
O O8 0.239611 0.453738 0.907884
O O9 0.500000 0.500000 0.000000
O O10 0.205355 0.554730 0.750000
#
# Coordination Sequence:
#
# PCOD8232888 Si02
#       4
#     8   8   8   8
#     4   9  19  37  60  87 119 154 196 246 298 355
#     4   9  19  36  58  87 121 156 198 246 296 355
#     4  10  20  35  58  87 118 153 193 242 296 357
#     4  10  20  37  60  85 119 160 199 246 301 351
#
# _framework density 23.959123000000002
#
# number of rings (size 3 to 8) (size 9 to 14) (size 15 to 20)
#    0.000    2.500    0.000    1.500    0.000    5.000 
#    0.000    7.500    0.000   16.500    0.000    0.000 
#    0.000    0.000    0.000    0.000    0.000    0.000 
#
# Total GULP energy -396696.230377 kJ/mol
# GULP energy per Si atom -12396.757199 kJ/mol
# Density = 2.390459 g / cm^3
# Si number density = 23.959123 Si / 1000 Ang^3
#
#
#
# Elastic Constant Matrix: (Units=GPa)
#
#
# Indices 1 2 3 4 5 6 
#
# 1 173.4838 60.1783 109.6433 0.0000 0.0000 0.0000
# 2 60.1783 71.9915 46.7740 0.0000 0.0000 0.0000
# 3 109.6433 46.7740 126.3539 0.0000 0.0000 0.0000
# 4 0.0000 0.0000 0.0000 24.9553 0.0000 0.0000
# 5 0.0000 0.0000 0.0000 0.0000 51.4706 0.0000
# 6 0.0000 0.0000 0.0000 0.0000 0.0000 38.3836
#
#
#
# Elastic Compliance Matrix: (Units=1/GPa)
#
#
# Indices 1 2 3 4 5 6 
#
# 1 0.014021 -0.005024 -0.010307 0.000000 0.000000 0.000000
# 2 -0.005024 0.020089 -0.003077 0.000000 0.000000 0.000000
# 3 -0.010307 -0.003077 0.017997 0.000000 0.000000 0.000000
# 4 0.000000 0.000000 0.000000 0.040072 0.000000 0.000000
# 5 0.000000 0.000000 0.000000 0.000000 0.019429 0.000000
# 6 0.000000 0.000000 0.000000 0.000000 0.000000 0.026053
#
#
# Mechanical properties :
#
#
# Convention : Reuss Voigt Hill
#
# Bulk Modulus (GPa) = 65.39598 89.44669 77.42134
# Shear Modulus (GPa) = 27.84372 33.31082 30.57727
#
# Velocity S-wave (km/s) = 3.41271 3.73274 3.57631
# Velocity P-wave (km/s) = 6.54850 7.48277 7.03117
#
# Compressibility (1/GPa) = 0.01529146
#
# Stress axis : x y z
#
# Youngs Moduli (GPa) = 71.32203 49.77777 55.56377
#
# Poissons Ratio (x) = 0.25006 0.57269
# Poissons Ratio (y) = 0.35829 0.17100
# Poissons Ratio (z) = 0.73511 0.15319
#
# Static dielectric constant tensor:
#      x y z
#    x 4.570500 0.000000 0.000000 
#    y 0.000000 4.533880 0.000000 
#    z 0.000000 0.000000 5.010040 
# 
# 
# High freq. dielectric constant tensor:
#      x y z
#    x 1.962390 0.000000 0.000000 
#    y 0.000000 1.937520 0.000000 
#    z 0.000000 0.000000 1.972740 
# 
# From -- ./inp_files/15498.got.cif
#   From: 2010.03.12/outbox.cif.g09.slc.cpg/sg57_8_cif.got.tgz:15498.got - 2010.04.16 15:48:40.
