data_PCOD8232313
_publ_section_title
;
Structure prediction by ZEFSAII (Michael W. Deem and Ramdas Pophale) SiO2 
 PCOD8232313
Probable space group: P B C M
;
_chemical_formula_sum "Si O2"
_cell_formula_units_Z 56
_cell_length_a 11.912191
_cell_length_b 11.419371
_cell_length_c 22.464555
_cell_angle_alpha 90.000000
_cell_angle_beta 90.000000
_cell_angle_gamma 90.000000
_cell_volume 3055.847316
_symmetry_space_group_name_H-M "P B C M"
_symmetry_group_IT_number 57
_symmetry_cell_setting 'orthorhombic'
loop_
_space_group_symop_operation_xyz
x,y,z
-x,-y,1/2+z
x,1/2-y,-z
-x,1/2+y,1/2-z
-x,-y,-z
x,y,1/2-z
-x,1/2+y,z
x,1/2-y,1/2+z
loop_
_atom_site_type_symbol
_atom_site_label
_atom_site_fract_x
_atom_site_fract_y
_atom_site_fract_z
Si Si1 0.053654 0.559391 0.682404
Si Si2 0.346096 0.945853 0.820554
Si Si3 0.603505 0.974242 0.680105
Si Si4 0.831744 0.897140 0.120138
Si Si5 0.918069 0.885834 0.995078
Si Si6 0.190279 0.364420 0.868904
Si Si7 0.738377 0.198798 0.820100
O O1 0.016810 0.584054 0.750000
O O2 0.124108 0.439766 0.680148
O O3 0.137263 0.661170 0.656736
O O4 0.944963 0.539944 0.642044
O O5 0.328653 0.959073 0.750000
O O6 0.475235 0.957653 0.838518
O O7 0.298089 0.823555 0.846061
O O8 0.280004 0.045798 0.854783
O O9 0.620448 0.948109 0.750000
O O10 0.676698 0.884296 0.640729
O O11 0.642751 0.105156 0.662880
O O12 0.838387 0.767764 0.146398
O O13 0.828812 0.897743 0.048693
O O14 0.847594 0.900594 0.935047
O O15 0.970781 0.750000 0.000000
O O16 0.000000 0.000000 0.000000
O O17 0.746878 0.207517 0.750000
#
# Coordination Sequence:
#
# PCOD8232313 Si02
#       7
#     8   8   8   8   8   8   8
#     4  10  20  33  53  81 114 147 179 225 288 345
#     4  10  21  34  54  83 115 148 186 231 282 342
#     4   9  19  36  57  80 110 151 189 228 284 341
#     4  11  23  35  56  85 111 146 187 236 285 339
#     4  10  21  40  61  83 112 152 196 239 285 339
#     4  10  21  38  58  79 109 149 191 234 281 334
#     4   8  17  33  50  74 110 147 182 222 270 334
#
# _framework density 18.325521999999999
#
# number of rings (size 3 to 8) (size 9 to 14) (size 15 to 20)
#    0.000    2.286    1.429    1.714    4.000    2.286 
#    0.000    0.714    0.000    0.000    0.000    0.000 
#    0.000    0.000    0.000    0.000    0.000    0.000 
#
# Total GULP energy -694041.352664 kJ/mol
# GULP energy per Si atom -12393.595583 kJ/mol
# Density = 1.828381 g / cm^3
# Si number density = 18.325522 Si / 1000 Ang^3
#
#
#
# Elastic Constant Matrix: (Units=GPa)
#
#
# Indices 1 2 3 4 5 6 
#
# 1 107.3042 27.1847 31.4957 0.0000 0.0000 0.0000
# 2 27.1847 79.0321 19.6877 0.0000 0.0000 0.0000
# 3 31.4957 19.6877 52.6362 0.0000 0.0000 0.0000
# 4 0.0000 0.0000 0.0000 24.1128 0.0000 0.0000
# 5 0.0000 0.0000 0.0000 0.0000 22.2653 0.0000
# 6 0.0000 0.0000 0.0000 0.0000 0.0000 24.4753
#
#
#
# Elastic Compliance Matrix: (Units=1/GPa)
#
#
# Indices 1 2 3 4 5 6 
#
# 1 0.011744 -0.002524 -0.006083 0.000000 0.000000 0.000000
# 2 -0.002524 0.014496 -0.003911 0.000000 0.000000 0.000000
# 3 -0.006083 -0.003911 0.024101 0.000000 0.000000 0.000000
# 4 0.000000 0.000000 0.000000 0.041472 0.000000 0.000000
# 5 0.000000 0.000000 0.000000 0.000000 0.044913 0.000000
# 6 0.000000 0.000000 0.000000 0.000000 0.000000 0.040858
#
#
# Mechanical properties :
#
#
# Convention : Reuss Voigt Hill
#
# Bulk Modulus (GPa) = 39.52026 43.96763 41.74395
# Shear Modulus (GPa) = 23.69037 24.87763 24.28400
#
# Velocity S-wave (km/s) = 3.59939 3.68848 3.64421
# Velocity P-wave (km/s) = 6.23591 6.49496 6.36675
#
# Compressibility (1/GPa) = 0.02530348
#
# Stress axis : x y z
#
# Youngs Moduli (GPa) = 85.14730 68.98573 41.49143
#
# Poissons Ratio (x) = 0.17414 0.25240
# Poissons Ratio (y) = 0.21494 0.16229
# Poissons Ratio (z) = 0.51797 0.26983
#
# Static dielectric constant tensor:
#      x y z
#    x 3.352980 0.000000 0.000000 
#    y 0.000000 3.745880 0.000000 
#    z 0.000000 0.000000 3.185600 
# 
# 
# High freq. dielectric constant tensor:
#      x y z
#    x 1.702970 0.000000 0.000000 
#    y 0.000000 1.721220 0.000000 
#    z 0.000000 0.000000 1.686760 
# 
# From -- ./inp_files/25018.got.cif
#   From: 2010.03.12/outbox.cif.g09.slc.cpg/sg57_13_cif.got.tgz:25018.got - 2010.04.16 15:48:40.
