data_PCOD8232712
_publ_section_title
;
Structure prediction by ZEFSAII (Michael W. Deem and Ramdas Pophale) SiO2 
 PCOD8232712
Probable space group: P B C M
;
_chemical_formula_sum "Si O2"
_cell_formula_units_Z 64
_cell_length_a 15.870065
_cell_length_b 24.162959
_cell_length_c 8.795217
_cell_angle_alpha 90.000000
_cell_angle_beta 90.000000
_cell_angle_gamma 90.000000
_cell_volume 3372.681897
_symmetry_space_group_name_H-M "P B C M"
_symmetry_group_IT_number 57
_symmetry_cell_setting 'orthorhombic'
loop_
_space_group_symop_operation_xyz
x,y,z
-x,-y,1/2+z
x,1/2-y,-z
-x,1/2+y,1/2-z
-x,-y,-z
x,y,1/2-z
-x,1/2+y,z
x,1/2-y,1/2+z
loop_
_atom_site_type_symbol
_atom_site_label
_atom_site_fract_x
_atom_site_fract_y
_atom_site_fract_z
Si Si1 0.065262 0.537806 0.582584
Si Si2 0.645916 0.690733 0.570445
Si Si3 0.019082 0.344768 0.082786
Si Si4 0.220565 0.584231 0.428175
Si Si5 0.823053 0.808092 0.928983
Si Si6 0.439538 0.077260 0.924823
Si Si7 0.622050 0.030455 0.924869
Si Si8 0.156928 0.694327 0.569943
O O1 0.087592 0.514401 0.750000
O O2 0.150517 0.541093 0.485758
O O3 0.000000 0.500000 0.500000
O O4 0.020948 0.595856 0.599253
O O5 0.616944 0.750000 0.500000
O O6 0.652906 0.699357 0.750000
O O7 0.736516 0.671895 0.505701
O O8 0.581624 0.640912 0.528205
O O9 0.049622 0.324283 0.250000
O O10 0.941879 0.307390 0.020514
O O11 0.098397 0.347844 0.968362
O O12 0.211262 0.592190 0.250000
O O13 0.310679 0.559312 0.467778
O O14 0.210732 0.643480 0.506894
O O15 0.809033 0.804460 0.750000
O O16 0.850776 0.750000 0.000000
O O17 0.413464 0.067284 0.750000
O O18 0.538004 0.066426 0.949599
O O19 0.388459 0.033646 0.027311
O O20 0.651208 0.031773 0.750000
O O21 0.196411 0.750000 0.500000
O O22 0.165953 0.693708 0.750000
#
# Coordination Sequence:
#
# PCOD8232712 Si02
#       8
#     8   8   8   8   8   8   8   8
#     4  10  21  37  55  76 105 141 179 222 271 322
#     4  10  20  36  56  79 111 145 179 220 269 325
#     4   9  19  34  51  72 100 135 175 219 264 311
#     4  11  22  37  57  81 111 147 185 227 276 328
#     4  11  21  32  49  73 102 136 174 214 256 305
#     4   9  20  38  60  85 111 142 178 222 276 330
#     4  10  20  37  61  86 112 141 180 229 275 327
#     4  10  20  35  55  79 107 141 183 229 279 331
#
# _framework density 18.975995999999999
#
# number of rings (size 3 to 8) (size 9 to 14) (size 15 to 20)
#    0.000    2.000    0.000    5.625    0.000    6.500 
#    0.000    1.875    0.000    1.500    0.000    0.000 
#    0.000    0.000    0.000    0.000    0.000    0.000 
#
# Total GULP energy -793496.187544 kJ/mol
# GULP energy per Si atom -12398.377930 kJ/mol
# Density = 1.893281 g / cm^3
# Si number density = 18.975996 Si / 1000 Ang^3
#
#
#
# Elastic Constant Matrix: (Units=GPa)
#
#
# Indices 1 2 3 4 5 6 
#
# 1 84.7330 50.2089 41.5607 0.0000 0.0000 0.0000
# 2 50.2089 84.0162 46.1294 0.0000 0.0000 0.0000
# 3 41.5607 46.1294 118.4160 0.0000 0.0000 0.0000
# 4 0.0000 0.0000 0.0000 32.7612 0.0000 0.0000
# 5 0.0000 0.0000 0.0000 0.0000 30.0343 0.0000
# 6 0.0000 0.0000 0.0000 0.0000 0.0000 13.7451
#
#
#
# Elastic Compliance Matrix: (Units=1/GPa)
#
#
# Indices 1 2 3 4 5 6 
#
# 1 0.019003 -0.009788 -0.002857 0.000000 0.000000 0.000000
# 2 -0.009788 0.020182 -0.004427 0.000000 0.000000 0.000000
# 3 -0.002857 -0.004427 0.011172 0.000000 0.000000 0.000000
# 4 0.000000 0.000000 0.000000 0.030524 0.000000 0.000000
# 5 0.000000 0.000000 0.000000 0.000000 0.033295 0.000000
# 6 0.000000 0.000000 0.000000 0.000000 0.000000 0.072753
#
#
# Mechanical properties :
#
#
# Convention : Reuss Voigt Hill
#
# Bulk Modulus (GPa) = 61.67320 62.55147 62.11233
# Shear Modulus (GPa) = 22.07735 25.25920 23.66828
#
# Velocity S-wave (km/s) = 3.41462 3.65240 3.53551
# Velocity P-wave (km/s) = 6.93667 7.12894 7.03346
#
# Compressibility (1/GPa) = 0.01621450
#
# Stress axis : x y z
#
# Youngs Moduli (GPa) = 52.62421 49.54831 89.51052
#
# Poissons Ratio (x) = 0.48497 0.25569
# Poissons Ratio (y) = 0.51507 0.39625
# Poissons Ratio (z) = 0.15032 0.21934
#
# Static dielectric constant tensor:
#      x y z
#    x 3.361320 0.000000 0.000000 
#    y 0.000000 3.312720 0.000000 
#    z 0.000000 0.000000 3.620450 
# 
# 
# High freq. dielectric constant tensor:
#      x y z
#    x 1.726480 0.000000 0.000000 
#    y 0.000000 1.734150 0.000000 
#    z 0.000000 0.000000 1.750890 
# 
# From -- ./inp_files/5539.got.cif
#   From: 2010.03.12/outbox.cif.g09.slc.cpg/sg57_3_cif.got.tgz:5539.got - 2010.04.16 15:48:40.
