data_PCOD8232298
_publ_section_title
;
Structure prediction by ZEFSAII (Michael W. Deem and Ramdas Pophale) SiO2 
 PCOD8232298
Probable space group: P B C M
;
_chemical_formula_sum "Si O2"
_cell_formula_units_Z 64
_cell_length_a 20.947964
_cell_length_b 18.547391
_cell_length_c 9.175738
_cell_angle_alpha 90.000000
_cell_angle_beta 90.000000
_cell_angle_gamma 90.000000
_cell_volume 3565.050210
_symmetry_space_group_name_H-M "P B C M"
_symmetry_group_IT_number 57
_symmetry_cell_setting 'orthorhombic'
loop_
_space_group_symop_operation_xyz
x,y,z
-x,-y,1/2+z
x,1/2-y,-z
-x,1/2+y,1/2-z
-x,-y,-z
x,y,1/2-z
-x,1/2+y,z
x,1/2-y,1/2+z
loop_
_atom_site_type_symbol
_atom_site_label
_atom_site_fract_x
_atom_site_fract_y
_atom_site_fract_z
Si Si1 0.895562 0.180925 0.418350
Si Si2 0.375109 0.177801 0.576997
Si Si3 0.742211 0.893131 0.578290
Si Si4 0.304580 0.971870 0.579141
Si Si5 0.879113 0.825655 0.920145
Si Si6 0.249192 0.820844 0.579597
Si Si7 0.994477 0.925451 0.919847
Si Si8 0.559590 0.531635 0.582829
O O1 0.923672 0.250000 0.500000
O O2 0.898037 0.200244 0.250000
O O3 0.823536 0.163959 0.469189
O O4 0.939146 0.113392 0.456401
O O5 0.401146 0.250000 0.500000
O O6 0.365811 0.188701 0.750000
O O7 0.307213 0.157806 0.506808
O O8 0.426628 0.115197 0.543736
O O9 0.726362 0.893112 0.750000
O O10 0.812119 0.863276 0.545132
O O11 0.738848 0.974144 0.515333
O O12 0.290079 0.985805 0.750000
O O13 0.289770 0.890288 0.532167
O O14 0.378457 0.984862 0.542496
O O15 0.887809 0.810385 0.750000
O O16 0.935002 0.878289 0.977869
O O17 0.884205 0.750000 0.000000
O O18 0.276692 0.750000 0.500000
O O19 0.254890 0.806557 0.750000
O O20 0.985662 0.940482 0.750000
O O21 0.000000 0.000000 0.000000
O O22 0.500000 0.500000 0.500000
O O23 0.542330 0.523811 0.750000
#
# Coordination Sequence:
#
# PCOD8232298 Si02
#       8
#     8   8   8   8   8   8   8   8
#     4   9  18  33  53  74  96 128 170 211 256 308
#     4  10  20  35  55  81 110 140 177 219 261 308
#     4  10  20  33  52  79 108 139 174 215 263 314
#     4   9  19  35  54  77 107 139 174 216 261 310
#     4  10  22  37  52  75 106 136 171 214 259 311
#     4   9  18  33  53  77 103 132 170 216 262 310
#     4  10  22  37  51  73 102 132 172 216 257 307
#     4   9  19  35  54  77 106 140 175 213 254 301
#
# _framework density 17.952061
#
# number of rings (size 3 to 8) (size 9 to 14) (size 15 to 20)
#    0.000    2.500    0.000    2.250    1.750    6.000 
#    0.000    0.625    0.000    3.000    0.000    0.000 
#    0.000    0.000    0.000    0.000    0.000    0.000 
#
# Total GULP energy -793650.182633 kJ/mol
# GULP energy per Si atom -12400.784104 kJ/mol
# Density = 1.791120 g / cm^3
# Si number density = 17.952061 Si / 1000 Ang^3
#
#
#
# Elastic Constant Matrix: (Units=GPa)
#
#
# Indices 1 2 3 4 5 6 
#
# 1 100.7931 81.6923 51.1805 0.0000 0.0000 0.0000
# 2 81.6923 179.0608 73.8022 0.0000 0.0000 0.0000
# 3 51.1805 73.8022 68.2143 0.0000 0.0000 0.0000
# 4 0.0000 0.0000 0.0000 39.2731 0.0000 0.0000
# 5 0.0000 0.0000 0.0000 0.0000 26.7213 0.0000
# 6 0.0000 0.0000 0.0000 0.0000 0.0000 19.4256
#
#
#
# Elastic Compliance Matrix: (Units=1/GPa)
#
#
# Indices 1 2 3 4 5 6 
#
# 1 0.018047 -0.004788 -0.008361 0.000000 0.000000 0.000000
# 2 -0.004788 0.011349 -0.008687 0.000000 0.000000 0.000000
# 3 -0.008361 -0.008687 0.030331 0.000000 0.000000 0.000000
# 4 0.000000 0.000000 0.000000 0.025463 0.000000 0.000000
# 5 0.000000 0.000000 0.000000 0.000000 0.037423 0.000000
# 6 0.000000 0.000000 0.000000 0.000000 0.000000 0.051478
#
#
# Mechanical properties :
#
#
# Convention : Reuss Voigt Hill
#
# Bulk Modulus (GPa) = 62.27806 84.60202 73.44004
# Shear Modulus (GPa) = 22.40996 26.51023 24.46010
#
# Velocity S-wave (km/s) = 3.53699 3.84699 3.69524
# Velocity P-wave (km/s) = 7.17266 8.18299 7.69443
#
# Compressibility (1/GPa) = 0.01605702
#
# Stress axis : x y z
#
# Youngs Moduli (GPa) = 55.41084 88.11079 32.96921
#
# Poissons Ratio (x) = 0.42183 0.27565
# Poissons Ratio (y) = 0.26528 0.28640
# Poissons Ratio (z) = 0.46328 0.76542
#
# Static dielectric constant tensor:
#      x y z
#    x 3.387940 0.000000 0.000000 
#    y 0.000000 3.464070 0.000000 
#    z 0.000000 0.000000 3.258110 
# 
# 
# High freq. dielectric constant tensor:
#      x y z
#    x 1.687150 0.000000 0.000000 
#    y 0.000000 1.703130 0.000000 
#    z 0.000000 0.000000 1.694370 
# 
# From -- ./inp_files/8545.got.cif
#   From: 2010.03.12/outbox.cif.g09.slc.cpg/sg57_5_cif.got.tgz:8545.got - 2010.04.16 15:48:40.
