data_PCOD8232390
_publ_section_title
;
Structure prediction by ZEFSAII (Michael W. Deem and Ramdas Pophale) SiO2 
 PCOD8232390
Probable space group: P B C M
;
_chemical_formula_sum "Si O2"
_cell_formula_units_Z 56
_cell_length_a 23.612336
_cell_length_b 14.259162
_cell_length_c 9.001919
_cell_angle_alpha 90.000000
_cell_angle_beta 90.000000
_cell_angle_gamma 90.000000
_cell_volume 3030.875230
_symmetry_space_group_name_H-M "P B C M"
_symmetry_group_IT_number 57
_symmetry_cell_setting 'orthorhombic'
loop_
_space_group_symop_operation_xyz
x,y,z
-x,-y,1/2+z
x,1/2-y,-z
-x,1/2+y,1/2-z
-x,-y,-z
x,y,1/2-z
-x,1/2+y,z
x,1/2-y,1/2+z
loop_
_atom_site_type_symbol
_atom_site_label
_atom_site_fract_x
_atom_site_fract_y
_atom_site_fract_z
Si Si1 0.145998 0.151500 0.922513
Si Si2 0.771562 0.516909 0.077357
Si Si3 0.569395 0.151856 0.077993
Si Si4 0.854901 0.350410 0.425509
Si Si5 0.940172 0.486267 0.924150
Si Si6 0.642017 0.002710 0.925037
Si Si7 0.443680 0.152436 0.078398
O O1 0.155865 0.170432 0.750000
O O2 0.093684 0.082226 0.952037
O O3 0.132788 0.250000 0.000000
O O4 0.202123 0.103264 0.987313
O O5 0.778207 0.540922 0.250000
O O6 0.801302 0.417566 0.040694
O O7 0.706645 0.511633 0.027762
O O8 0.582565 0.164373 0.250000
O O9 0.506423 0.108917 0.050917
O O10 0.571058 0.250000 0.000000
O O11 0.619429 0.093447 0.006655
O O12 0.843026 0.250000 0.500000
O O13 0.864810 0.337558 0.250000
O O14 0.910123 0.397705 0.498180
O O15 0.946665 0.464286 0.750000
O O16 0.000000 0.500000 0.000000
O O17 0.635361 0.017142 0.750000
O O18 0.604026 0.916990 0.984018
O O19 0.433623 0.171721 0.250000
O O20 0.434850 0.250000 0.000000
#
# Coordination Sequence:
#
# PCOD8232390 Si02
#       7
#     8   8   8   8   8   8   8
#     4  10  21  37  58  81 108 144 182 219 263 311
#     4   9  20  37  55  77 107 140 177 221 267 314
#     4  10  20  34  52  75 102 136 174 215 264 319
#     4  10  20  36  57  79 106 143 181 220 266 315
#     4  10  21  37  57  84 115 145 179 220 262 310
#     4  10  20  35  54  78 106 136 172 218 268 317
#     4   9  19  34  52  74 103 136 172 215 264 318
#
# _framework density 18.476512
#
# number of rings (size 3 to 8) (size 9 to 14) (size 15 to 20)
#    0.000    2.286    0.000    2.143    0.000    5.714 
#    0.000    4.286    0.000    0.000    0.000    0.000 
#    0.000    0.000    0.000    0.000    0.000    0.000 
#
# Total GULP energy -694445.396630 kJ/mol
# GULP energy per Si atom -12400.810654 kJ/mol
# Density = 1.843446 g / cm^3
# Si number density = 18.476512 Si / 1000 Ang^3
#
#
#
# Elastic Constant Matrix: (Units=GPa)
#
#
# Indices 1 2 3 4 5 6 
#
# 1 127.2253 37.6274 52.4997 0.0000 0.0000 0.0000
# 2 37.6274 81.9538 43.9910 0.0000 0.0000 0.0000
# 3 52.4997 43.9910 80.9614 0.0000 0.0000 0.0000
# 4 0.0000 0.0000 0.0000 38.1513 0.0000 0.0000
# 5 0.0000 0.0000 0.0000 0.0000 28.5138 0.0000
# 6 0.0000 0.0000 0.0000 0.0000 0.0000 28.3133
#
#
#
# Elastic Compliance Matrix: (Units=1/GPa)
#
#
# Indices 1 2 3 4 5 6 
#
# 1 0.010899 -0.001709 -0.006139 0.000000 0.000000 0.000000
# 2 -0.001709 0.017494 -0.008398 0.000000 0.000000 0.000000
# 3 -0.006139 -0.008398 0.020895 0.000000 0.000000 0.000000
# 4 0.000000 0.000000 0.000000 0.026211 0.000000 0.000000
# 5 0.000000 0.000000 0.000000 0.000000 0.035071 0.000000
# 6 0.000000 0.000000 0.000000 0.000000 0.000000 0.035319
#
#
# Mechanical properties :
#
#
# Convention : Reuss Voigt Hill
#
# Bulk Modulus (GPa) = 59.53166 62.04187 60.78676
# Shear Modulus (GPa) = 27.17708 29.39718 28.28713
#
# Velocity S-wave (km/s) = 3.83939 3.99313 3.91702
# Velocity P-wave (km/s) = 7.20727 7.41025 7.30946
#
# Compressibility (1/GPa) = 0.01679778
#
# Stress axis : x y z
#
# Youngs Moduli (GPa) = 91.75476 57.16198 47.85796
#
# Poissons Ratio (x) = 0.09767 0.29379
# Poissons Ratio (y) = 0.15678 0.40189
# Poissons Ratio (z) = 0.56326 0.48002
#
# Static dielectric constant tensor:
#      x y z
#    x 3.529780 0.000000 0.000000 
#    y 0.000000 3.353870 0.000000 
#    z 0.000000 0.000000 3.465770 
# 
# 
# High freq. dielectric constant tensor:
#      x y z
#    x 1.718750 0.000000 0.000000 
#    y 0.000000 1.718450 0.000000 
#    z 0.000000 0.000000 1.725020 
# 
# From -- ./inp_files/8094.got.cif
#   From: 2010.03.12/outbox.cif.g09.slc.cpg/sg57_5_cif.got.tgz:8094.got - 2010.04.16 15:48:40.
