data_PCOD8232148
_publ_section_title
;
Structure prediction by ZEFSAII (Michael W. Deem and Ramdas Pophale) SiO2 
 PCOD8232148
Probable space group: P B C M
;
_chemical_formula_sum "Si O2"
_cell_formula_units_Z 56
_cell_length_a 20.835160
_cell_length_b 15.132504
_cell_length_c 8.864518
_cell_angle_alpha 90.000000
_cell_angle_beta 90.000000
_cell_angle_gamma 90.000000
_cell_volume 2794.877410
_symmetry_space_group_name_H-M "P B C M"
_symmetry_group_IT_number 57
_symmetry_cell_setting 'orthorhombic'
loop_
_space_group_symop_operation_xyz
x,y,z
-x,-y,1/2+z
x,1/2-y,-z
-x,1/2+y,1/2-z
-x,-y,-z
x,y,1/2-z
-x,1/2+y,z
x,1/2-y,1/2+z
loop_
_atom_site_type_symbol
_atom_site_label
_atom_site_fract_x
_atom_site_fract_y
_atom_site_fract_z
Si Si1 0.642061 0.094713 0.423429
Si Si2 0.765625 0.002350 0.075334
Si Si3 0.088800 0.519027 0.426651
Si Si4 0.007925 0.348922 0.071600
Si Si5 0.576814 0.934817 0.576683
Si Si6 0.298032 0.161440 0.081357
Si Si7 0.529478 0.334905 0.425670
O O1 0.628012 0.119736 0.250000
O O2 0.718461 0.086882 0.455366
O O3 0.605515 0.164201 0.531949
O O4 0.610976 0.001576 0.464531
O O5 0.762348 0.976028 0.250000
O O6 0.837068 0.027754 0.026445
O O7 0.742113 0.919039 0.983684
O O8 0.077143 0.534688 0.250000
O O9 0.055598 0.600408 0.513976
O O10 0.064677 0.419459 0.470538
O O11 0.003358 0.334331 0.250000
O O12 0.017459 0.250000 0.000000
O O13 0.568812 0.971135 0.750000
O O14 0.624704 0.851138 0.575433
O O15 0.506938 0.916058 0.505235
O O16 0.273927 0.171696 0.250000
O O17 0.277640 0.250000 0.000000
O O18 0.497046 0.250000 0.500000
O O19 0.517817 0.334258 0.250000
#
# Coordination Sequence:
#
# PCOD8232148 Si02
#       7
#     8   8   8   8   8   8   8
#     4  10  20  36  56  77 102 134 171 211 259 314
#     4   9  19  36  57  78 105 141 178 218 264 315
#     4   9  19  37  59  85 116 149 187 229 273 321
#     4  10  20  35  58  87 119 152 186 226 270 319
#     4  10  20  35  54  76 101 133 172 215 266 321
#     4  10  20  32  49  74 106 140 177 221 268 323
#     4  12  24  37  53  74 100 130 169 219 270 318
#
# _framework density 20.036656000000001
#
# number of rings (size 3 to 8) (size 9 to 14) (size 15 to 20)
#    0.000    2.000    0.000    3.857    0.000    5.143 
#    0.000    2.143    0.000    0.000    0.000    0.000 
#    0.000    0.000    0.000    0.000    0.000    0.000 
#
# Total GULP energy -693839.998524 kJ/mol
# GULP energy per Si atom -12389.999974 kJ/mol
# Density = 1.999105 g / cm^3
# Si number density = 20.036656 Si / 1000 Ang^3
#
#
#
# Elastic Constant Matrix: (Units=GPa)
#
#
# Indices 1 2 3 4 5 6 
#
# 1 118.7501 16.0293 35.4472 0.0000 0.0000 0.0000
# 2 16.0293 80.6833 23.3717 0.0000 0.0000 0.0000
# 3 35.4472 23.3717 88.7733 0.0000 0.0000 0.0000
# 4 0.0000 0.0000 0.0000 32.0597 0.0000 0.0000
# 5 0.0000 0.0000 0.0000 0.0000 27.0605 0.0000
# 6 0.0000 0.0000 0.0000 0.0000 0.0000 21.1137
#
#
#
# Elastic Compliance Matrix: (Units=1/GPa)
#
#
# Indices 1 2 3 4 5 6 
#
# 1 0.009616 -0.000864 -0.003612 0.000000 0.000000 0.000000
# 2 -0.000864 0.013495 -0.003208 0.000000 0.000000 0.000000
# 3 -0.003612 -0.003208 0.013552 0.000000 0.000000 0.000000
# 4 0.000000 0.000000 0.000000 0.031192 0.000000 0.000000
# 5 0.000000 0.000000 0.000000 0.000000 0.036954 0.000000
# 6 0.000000 0.000000 0.000000 0.000000 0.000000 0.047363
#
#
# Mechanical properties :
#
#
# Convention : Reuss Voigt Hill
#
# Bulk Modulus (GPa) = 46.96088 48.65591 47.80839
# Shear Modulus (GPa) = 28.63075 30.27067 29.45071
#
# Velocity S-wave (km/s) = 3.78420 3.89107 3.83801
# Velocity P-wave (km/s) = 6.52549 6.67259 6.59945
#
# Compressibility (1/GPa) = 0.02129432
#
# Stress axis : x y z
#
# Youngs Moduli (GPa) = 103.99429 74.10129 73.79242
#
# Poissons Ratio (x) = 0.06403 0.26655
# Poissons Ratio (y) = 0.08986 0.23672
# Poissons Ratio (z) = 0.37564 0.23771
#
# Static dielectric constant tensor:
#      x y z
#    x 3.843240 0.000000 0.000000 
#    y 0.000000 3.647030 0.000000 
#    z 0.000000 0.000000 3.602730 
# 
# 
# High freq. dielectric constant tensor:
#      x y z
#    x 1.775850 0.000000 0.000000 
#    y 0.000000 1.774520 0.000000 
#    z 0.000000 0.000000 1.789120 
# 
# From -- ./inp_files/8071.got.cif
#   From: 2010.03.12/outbox.cif.g09.slc.cpg/sg57_5_cif.got.tgz:8071.got - 2010.04.16 15:48:40.
