data_PCOD8232196
_publ_section_title
;
Structure prediction by ZEFSAII (Michael W. Deem and Ramdas Pophale) SiO2 
 PCOD8232196
Probable space group: P B C M
;
_chemical_formula_sum "Si O2"
_cell_formula_units_Z 56
_cell_length_a 18.859383
_cell_length_b 19.224512
_cell_length_c 9.059137
_cell_angle_alpha 90.000000
_cell_angle_beta 90.000000
_cell_angle_gamma 90.000000
_cell_volume 3284.502768
_symmetry_space_group_name_H-M "P B C M"
_symmetry_group_IT_number 57
_symmetry_cell_setting 'orthorhombic'
loop_
_space_group_symop_operation_xyz
x,y,z
-x,-y,1/2+z
x,1/2-y,-z
-x,1/2+y,1/2-z
-x,-y,-z
x,y,1/2-z
-x,1/2+y,z
x,1/2-y,1/2+z
loop_
_atom_site_type_symbol
_atom_site_label
_atom_site_fract_x
_atom_site_fract_y
_atom_site_fract_z
Si Si1 0.486352 0.572764 0.923781
Si Si2 0.887819 0.683981 0.076572
Si Si3 0.664854 0.042028 0.914254
Si Si4 0.748663 0.850910 0.415601
Si Si5 0.794065 0.009064 0.413575
Si Si6 0.384569 0.117189 0.082016
Si Si7 0.068839 0.030134 0.076084
O O1 0.503172 0.567255 0.750000
O O2 0.403034 0.591585 0.950656
O O3 0.500000 0.500000 0.000000
O O4 0.539411 0.628064 0.000341
O O5 0.885590 0.695496 0.250000
O O6 0.926742 0.611974 0.035616
O O7 0.927778 0.750000 0.000000
O O8 0.808285 0.685053 0.014180
O O9 0.692718 0.057272 0.750000
O O10 0.638572 0.962858 0.924087
O O11 0.731118 0.057575 0.021774
O O12 0.747939 0.819438 0.250000
O O13 0.763687 0.932227 0.406943
O O14 0.673609 0.836896 0.495377
O O15 0.814085 0.035908 0.250000
O O16 0.863400 0.011928 0.515984
O O17 0.390746 0.143556 0.250000
O O18 0.064906 0.018499 0.250000
O O19 0.000000 0.000000 0.000000
#
# Coordination Sequence:
#
# PCOD8232196 Si02
#       7
#     8   8   8   8   8   8   8
#     4   9  15  21  29  43  65  95 131 170 210 251
#     4  10  20  33  49  69  92 119 151 188 228 272
#     4   8  14  22  31  45  68  98 132 170 210 251
#     4   9  16  26  40  57  78 106 140 177 215 257
#     4   9  16  25  39  57  77 104 139 176 215 261
#     4   9  15  22  32  47  69  98 133 172 210 249
#     4  10  20  33  49  68  91 118 150 187 229 279
#
# _framework density 17.049765000000001
#
# number of rings (size 3 to 8) (size 9 to 14) (size 15 to 20)
#    0.000    2.857    0.000    3.429    0.000    9.143 
#    0.000    0.000    0.000    0.000    0.000    0.000 
#    0.000    0.000    0.000    1.286    0.000   22.571 
#
# Total GULP energy -693959.014936 kJ/mol
# GULP energy per Si atom -12392.125267 kJ/mol
# Density = 1.701096 g / cm^3
# Si number density = 17.049765 Si / 1000 Ang^3
#
#
#
# Elastic Constant Matrix: (Units=GPa)
#
#
# Indices 1 2 3 4 5 6 
#
# 1 124.4674 32.4464 71.8839 0.0000 0.0000 0.0000
# 2 32.4464 32.3284 29.1779 0.0000 0.0000 0.0000
# 3 71.8839 29.1779 130.9460 0.0000 0.0000 0.0000
# 4 0.0000 0.0000 0.0000 15.1665 0.0000 0.0000
# 5 0.0000 0.0000 0.0000 0.0000 35.2361 0.0000
# 6 0.0000 0.0000 0.0000 0.0000 0.0000 8.6520
#
#
#
# Elastic Compliance Matrix: (Units=1/GPa)
#
#
# Indices 1 2 3 4 5 6 
#
# 1 0.013413 -0.008532 -0.005462 0.000000 0.000000 0.000000
# 2 -0.008532 0.044147 -0.005153 0.000000 0.000000 0.000000
# 3 -0.005462 -0.005153 0.011783 0.000000 0.000000 0.000000
# 4 0.000000 0.000000 0.000000 0.065935 0.000000 0.000000
# 5 0.000000 0.000000 0.000000 0.000000 0.028380 0.000000
# 6 0.000000 0.000000 0.000000 0.000000 0.000000 0.115581
#
#
# Mechanical properties :
#
#
# Convention : Reuss Voigt Hill
#
# Bulk Modulus (GPa) = 32.20760 61.63977 46.92369
# Shear Modulus (GPa) = 15.24935 22.09315 18.67125
#
# Velocity S-wave (km/s) = 2.99390 3.60363 3.31282
# Velocity P-wave (km/s) = 5.55721 7.31753 6.49726
#
# Compressibility (1/GPa) = 0.03104857
#
# Stress axis : x y z
#
# Youngs Moduli (GPa) = 74.55538 22.65165 84.86549
#
# Poissons Ratio (x) = 0.19327 0.46353
# Poissons Ratio (y) = 0.63612 0.43733
# Poissons Ratio (z) = 0.40722 0.11673
#
# Static dielectric constant tensor:
#      x y z
#    x 3.735260 0.000000 0.000000 
#    y 0.000000 2.926180 0.000000 
#    z 0.000000 0.000000 3.442640 
# 
# 
# High freq. dielectric constant tensor:
#      x y z
#    x 1.653860 0.000000 0.000000 
#    y 0.000000 1.582740 0.000000 
#    z 0.000000 0.000000 1.678710 
# 
# From -- ./inp_files/7310.got.cif
#   From: 2010.03.12/outbox.cif.g09.slc.cpg/sg57_4_cif.got.tgz:7310.got - 2010.04.16 15:48:40.
