data_PCOD8232187
_publ_section_title
;
Structure prediction by ZEFSAII (Michael W. Deem and Ramdas Pophale) SiO2 
 PCOD8232187
Probable space group: P B C M
;
_chemical_formula_sum "Si O2"
_cell_formula_units_Z 64
_cell_length_a 14.001128
_cell_length_b 29.524998
_cell_length_c 9.020411
_cell_angle_alpha 90.000000
_cell_angle_beta 90.000000
_cell_angle_gamma 90.000000
_cell_volume 3728.887052
_symmetry_space_group_name_H-M "P B C M"
_symmetry_group_IT_number 57
_symmetry_cell_setting 'orthorhombic'
loop_
_space_group_symop_operation_xyz
x,y,z
-x,-y,1/2+z
x,1/2-y,-z
-x,1/2+y,1/2-z
-x,-y,-z
x,y,1/2-z
-x,1/2+y,z
x,1/2-y,1/2+z
loop_
_atom_site_type_symbol
_atom_site_label
_atom_site_fract_x
_atom_site_fract_y
_atom_site_fract_z
Si Si1 0.876417 0.120495 0.574966
Si Si2 0.717225 0.423442 0.577145
Si Si3 0.682116 0.593615 0.082803
Si Si4 0.490739 0.951508 0.924910
Si Si5 0.995320 0.796757 0.080739
Si Si6 0.838814 0.863856 0.079012
Si Si7 0.809067 0.504256 0.416831
Si Si8 0.973005 0.933874 0.923540
O O1 0.874736 0.119197 0.750000
O O2 0.768939 0.118065 0.509669
O O3 0.931097 0.165282 0.517345
O O4 0.930052 0.074409 0.517337
O O5 0.726569 0.414004 0.750000
O O6 0.607209 0.426874 0.527126
O O7 0.770352 0.470048 0.538500
O O8 0.678078 0.612590 0.250000
O O9 0.575942 0.581869 0.024503
O O10 0.743512 0.548298 0.074524
O O11 0.729162 0.632732 0.978183
O O12 0.494663 0.960242 0.750000
O O13 0.500000 0.000000 0.000000
O O14 0.020966 0.787974 0.250000
O O15 0.885277 0.813735 0.063496
O O16 0.011751 0.750000 0.000000
O O17 0.846063 0.880005 0.250000
O O18 0.899553 0.895281 0.971820
O O19 0.802844 0.483545 0.250000
O O20 0.919348 0.518184 0.454636
O O21 0.996222 0.928444 0.750000
#
# Coordination Sequence:
#
# PCOD8232187 Si02
#       8
#     8   8   8   8   8   8   8   8
#     4  10  21  36  50  68  97 128 159 197 241 291
#     4  11  22  32  46  68  93 127 170 211 248 286
#     4   9  17  30  47  67  95 130 167 206 248 287
#     4  10  20  33  48  69  95 127 173 219 253 287
#     4   9  19  34  54  79 102 125 152 187 234 293
#     4   9  17  29  46  73 103 127 156 192 235 289
#     4   9  17  29  45  64  90 126 164 204 248 285
#     4   9  17  30  47  66  91 125 164 200 239 284
#
# _framework density 17.163298000000001
#
# number of rings (size 3 to 8) (size 9 to 14) (size 15 to 20)
#    0.000    2.500    1.250    3.000    0.000    7.000 
#    0.000    0.000    0.000    0.000    0.000    0.875 
#    0.000    0.000    0.000    0.000    0.000    0.000 
#
# Total GULP energy -793146.632705 kJ/mol
# GULP energy per Si atom -12392.916136 kJ/mol
# Density = 1.712423 g / cm^3
# Si number density = 17.163298 Si / 1000 Ang^3
#
#
#
# Elastic Constant Matrix: (Units=GPa)
#
#
# Indices 1 2 3 4 5 6 
#
# 1 129.7146 32.3220 38.6955 0.0000 0.0000 0.0000
# 2 32.3220 46.0377 12.3500 0.0000 0.0000 0.0000
# 3 38.6955 12.3500 50.1586 0.0000 0.0000 0.0000
# 4 0.0000 0.0000 0.0000 24.1165 0.0000 0.0000
# 5 0.0000 0.0000 0.0000 0.0000 21.2778 0.0000
# 6 0.0000 0.0000 0.0000 0.0000 0.0000 12.8988
#
#
#
# Elastic Compliance Matrix: (Units=1/GPa)
#
#
# Indices 1 2 3 4 5 6 
#
# 1 0.011392 -0.006040 -0.007302 0.000000 0.000000 0.000000
# 2 -0.006040 0.026459 -0.001855 0.000000 0.000000 0.000000
# 3 -0.007302 -0.001855 0.026027 0.000000 0.000000 0.000000
# 4 0.000000 0.000000 0.000000 0.041465 0.000000 0.000000
# 5 0.000000 0.000000 0.000000 0.000000 0.046997 0.000000
# 6 0.000000 0.000000 0.000000 0.000000 0.000000 0.077527
#
#
# Mechanical properties :
#
#
# Convention : Reuss Voigt Hill
#
# Bulk Modulus (GPa) = 29.86433 43.62730 36.74581
# Shear Modulus (GPa) = 18.42143 21.16150 19.79147
#
# Velocity S-wave (km/s) = 3.27969 3.51515 3.39946
# Velocity P-wave (km/s) = 5.63735 6.47682 6.07161
#
# Compressibility (1/GPa) = 0.03348477
#
# Stress axis : x y z
#
# Youngs Moduli (GPa) = 87.77821 37.79388 38.42223
#
# Poissons Ratio (x) = 0.22826 0.28055
# Poissons Ratio (y) = 0.53014 0.07129
# Poissons Ratio (z) = 0.64093 0.07013
#
# Static dielectric constant tensor:
#      x y z
#    x 3.702930 0.000000 0.000000 
#    y 0.000000 2.932270 0.000000 
#    z 0.000000 0.000000 3.390280 
# 
# 
# High freq. dielectric constant tensor:
#      x y z
#    x 1.665560 0.000000 0.000000 
#    y 0.000000 1.615090 0.000000 
#    z 0.000000 0.000000 1.667740 
# 
# From -- ./inp_files/6080.got.cif
#   From: 2010.03.12/outbox.cif.g09.slc.cpg/sg57_4_cif.got.tgz:6080.got - 2010.04.16 15:48:40.
