data_PCOD8232029
_publ_section_title
;
Structure prediction by ZEFSAII (Michael W. Deem and Ramdas Pophale) SiO2 
 PCOD8232029
Probable space group: P B C M
;
_chemical_formula_sum "Si O2"
_cell_formula_units_Z 28
_cell_length_a 9.552241
_cell_length_b 21.779551
_cell_length_c 7.487359
_cell_angle_alpha 90.000000
_cell_angle_beta 90.000000
_cell_angle_gamma 90.000000
_cell_volume 1557.696522
_symmetry_space_group_name_H-M "P B C M"
_symmetry_group_IT_number 57
_symmetry_cell_setting 'orthorhombic'
loop_
_space_group_symop_operation_xyz
x,y,z
-x,-y,1/2+z
x,1/2-y,-z
-x,1/2+y,1/2-z
-x,-y,-z
x,y,1/2-z
-x,1/2+y,z
x,1/2-y,1/2+z
loop_
_atom_site_type_symbol
_atom_site_label
_atom_site_fract_x
_atom_site_fract_y
_atom_site_fract_z
Si Si1 0.180146 0.132291 0.250000
Si Si2 0.513282 0.612264 0.250000
Si Si3 0.702267 0.388283 0.446322
Si Si4 0.021352 0.819921 0.457883
Si Si5 0.293224 0.005799 0.250000
O O1 0.344133 0.152637 0.250000
O O2 0.111869 0.158924 0.428663
O O3 0.170892 0.057495 0.250000
O O4 0.423998 0.628746 0.424161
O O5 0.555614 0.539957 0.250000
O O6 0.668938 0.359517 0.250000
O O7 0.719560 0.462452 0.426117
O O8 0.846379 0.360281 0.520527
O O9 0.058318 0.750000 0.500000
O O10 0.985935 0.829904 0.250000
#
# Coordination Sequence:
#
# PCOD8232029 Si02
#       5
#     4   4   8   8   4
#     4  10  23  36  57  91 118 151 183 240 300 345
#     4  10  19  37  59  86 121 148 183 238 293 348
#     4   9  20  37  60  88 109 155 199 233 280 346
#     4  11  22  41  63  79 114 157 201 242 284 339
#     4   8  20  37  56  89 123 149 186 232 303 343
#
# _framework density 17.975258
#
# number of rings (size 3 to 8) (size 9 to 14) (size 15 to 20)
#    1.714    0.571    1.429    1.714    0.000    2.286 
#    2.571    1.429    0.000    0.000    0.000    0.000 
#    0.000    0.000    0.000    0.000    0.000    0.000 
#
# Total GULP energy -346952.964651 kJ/mol
# GULP energy per Si atom -12391.177309 kJ/mol
# Density = 1.793435 g / cm^3
# Si number density = 17.975258 Si / 1000 Ang^3
#
#
#
# Elastic Constant Matrix: (Units=GPa)
#
#
# Indices 1 2 3 4 5 6 
#
# 1 112.6201 46.5013 62.7756 0.0000 0.0000 0.0000
# 2 46.5013 49.6799 32.2826 0.0000 0.0000 0.0000
# 3 62.7756 32.2826 103.9328 0.0000 0.0000 0.0000
# 4 0.0000 0.0000 0.0000 13.8175 0.0000 0.0000
# 5 0.0000 0.0000 0.0000 0.0000 19.0779 0.0000
# 6 0.0000 0.0000 0.0000 0.0000 0.0000 13.6288
#
#
#
# Elastic Compliance Matrix: (Units=1/GPa)
#
#
# Indices 1 2 3 4 5 6 
#
# 1 0.017757 -0.012092 -0.006969 0.000000 0.000000 0.000000
# 2 -0.012092 0.033454 -0.003087 0.000000 0.000000 0.000000
# 3 -0.006969 -0.003087 0.014790 0.000000 0.000000 0.000000
# 4 0.000000 0.000000 0.000000 0.072372 0.000000 0.000000
# 5 0.000000 0.000000 0.000000 0.000000 0.052417 0.000000
# 6 0.000000 0.000000 0.000000 0.000000 0.000000 0.073374
#
#
# Mechanical properties :
#
#
# Convention : Reuss Voigt Hill
#
# Bulk Modulus (GPa) = 46.07663 61.03910 53.55786
# Shear Modulus (GPa) = 15.83805 17.61640 16.72723
#
# Velocity S-wave (km/s) = 2.97156 3.13395 3.05383
# Velocity P-wave (km/s) = 6.12067 6.86488 6.50342
#
# Compressibility (1/GPa) = 0.02170298
#
# Stress axis : x y z
#
# Youngs Moduli (GPa) = 56.31537 29.89221 67.61295
#
# Poissons Ratio (x) = 0.36146 0.47122
# Poissons Ratio (y) = 0.68098 0.20874
# Poissons Ratio (z) = 0.39248 0.09229
#
# Static dielectric constant tensor:
#      x y z
#    x 3.116560 0.000000 0.000000 
#    y 0.000000 3.213020 0.000000 
#    z 0.000000 0.000000 3.233380 
# 
# 
# High freq. dielectric constant tensor:
#      x y z
#    x 1.686990 0.000000 0.000000 
#    y 0.000000 1.682930 0.000000 
#    z 0.000000 0.000000 1.696700 
# 
# From -- ./inp_files/1203.got.cif
#   From: 2010.03.12/outbox.cif.g09.slc.cpg/sg57_1_cif.got.tgz:1203.got - 2010.04.16 15:48:40.
