data_PCOD8232726
_publ_section_title
;
Structure prediction by ZEFSAII (Michael W. Deem and Ramdas Pophale) SiO2 
 PCOD8232726
Probable space group: P B C M
;
_chemical_formula_sum "Si O2"
_cell_formula_units_Z 64
_cell_length_a 19.672625
_cell_length_b 20.161626
_cell_length_c 8.707299
_cell_angle_alpha 90.000000
_cell_angle_beta 90.000000
_cell_angle_gamma 90.000000
_cell_volume 3453.594355
_symmetry_space_group_name_H-M "P B C M"
_symmetry_group_IT_number 57
_symmetry_cell_setting 'orthorhombic'
loop_
_space_group_symop_operation_xyz
x,y,z
-x,-y,1/2+z
x,1/2-y,-z
-x,1/2+y,1/2-z
-x,-y,-z
x,y,1/2-z
-x,1/2+y,z
x,1/2-y,1/2+z
loop_
_atom_site_type_symbol
_atom_site_label
_atom_site_fract_x
_atom_site_fract_y
_atom_site_fract_z
Si Si1 0.433832 0.320875 0.427463
Si Si2 0.183259 0.567148 0.570352
Si Si3 0.662914 0.043158 0.927298
Si Si4 0.473172 0.931956 0.930035
Si Si5 0.688267 0.590803 0.924486
Si Si6 0.094136 0.819994 0.568551
Si Si7 0.840396 0.571430 0.928136
Si Si8 0.948887 0.679709 0.567655
O O1 0.444411 0.250000 0.500000
O O2 0.453345 0.318100 0.250000
O O3 0.484080 0.370960 0.509280
O O4 0.355433 0.342967 0.452137
O O5 0.170200 0.578531 0.750000
O O6 0.262935 0.570832 0.528227
O O7 0.148649 0.624443 0.472326
O O8 0.152301 0.495990 0.524454
O O9 0.646681 0.054514 0.750000
O O10 0.605561 0.080606 0.025287
O O11 0.659981 0.964895 0.961540
O O12 0.480840 0.936784 0.750000
O O13 0.500000 0.000000 0.000000
O O14 0.678503 0.564747 0.750000
O O15 0.767280 0.605793 0.957304
O O16 0.119020 0.750000 0.500000
O O17 0.086509 0.813078 0.750000
O O18 0.022109 0.840761 0.496870
O O19 0.850941 0.553633 0.750000
O O20 0.896453 0.623317 0.986354
O O21 0.924717 0.750000 0.500000
O O22 0.952281 0.685533 0.750000
#
# Coordination Sequence:
#
# PCOD8232726 Si02
#       8
#     8   8   8   8   8   8   8   8
#     4  11  23  38  56  82 116 153 191 237 285 336
#     4  10  21  37  58  86 116 145 183 233 281 335
#     4  10  20  35  58  86 113 142 184 230 277 333
#     4  12  23  37  60  86 113 148 191 235 280 337
#     4   9  18  34  55  78 109 148 188 227 275 331
#     4  11  22  38  60  82 109 146 188 233 284 343
#     4   9  19  35  55  82 114 150 190 232 279 330
#     4  10  20  35  55  79 111 148 191 237 280 336
#
# _framework density 18.531419
#
# number of rings (size 3 to 8) (size 9 to 14) (size 15 to 20)
#    0.000    1.750    1.250    4.500    0.000    4.000 
#    0.000    0.625    0.000    3.000    0.000    0.000 
#    0.000    0.000    0.000    0.000    0.000    0.000 
#
# Total GULP energy -793780.825079 kJ/mol
# GULP energy per Si atom -12402.825392 kJ/mol
# Density = 1.848924 g / cm^3
# Si number density = 18.531419 Si / 1000 Ang^3
#
#
#
# Elastic Constant Matrix: (Units=GPa)
#
#
# Indices 1 2 3 4 5 6 
#
# 1 110.6323 78.4844 51.4225 0.0000 0.0000 0.0000
# 2 78.4844 126.9587 55.2044 0.0000 0.0000 0.0000
# 3 51.4225 55.2044 111.9734 0.0000 0.0000 0.0000
# 4 0.0000 0.0000 0.0000 34.2737 0.0000 0.0000
# 5 0.0000 0.0000 0.0000 0.0000 28.0948 0.0000
# 6 0.0000 0.0000 0.0000 0.0000 0.0000 32.5805
#
#
#
# Elastic Compliance Matrix: (Units=1/GPa)
#
#
# Indices 1 2 3 4 5 6 
#
# 1 0.017032 -0.009073 -0.003349 0.000000 0.000000 0.000000
# 2 -0.009073 0.014859 -0.003159 0.000000 0.000000 0.000000
# 3 -0.003349 -0.003159 0.012026 0.000000 0.000000 0.000000
# 4 0.000000 0.000000 0.000000 0.029177 0.000000 0.000000
# 5 0.000000 0.000000 0.000000 0.000000 0.035594 0.000000
# 6 0.000000 0.000000 0.000000 0.000000 0.000000 0.030693
#
#
# Mechanical properties :
#
#
# Convention : Reuss Voigt Hill
#
# Bulk Modulus (GPa) = 78.39648 79.97632 79.18640
# Shear Modulus (GPa) = 28.60518 29.95334 29.27926
#
# Velocity S-wave (km/s) = 3.93314 4.02475 3.97921
# Velocity P-wave (km/s) = 7.93867 8.05289 7.99599
#
# Compressibility (1/GPa) = 0.01275567
#
# Stress axis : x y z
#
# Youngs Moduli (GPa) = 58.71360 67.29964 83.15325
#
# Poissons Ratio (x) = 0.61060 0.27845
# Poissons Ratio (y) = 0.53270 0.26269
# Poissons Ratio (z) = 0.19661 0.21260
#
# Static dielectric constant tensor:
#      x y z
#    x 3.605340 0.000000 0.000000 
#    y 0.000000 3.285930 0.000000 
#    z 0.000000 0.000000 3.513120 
# 
# 
# High freq. dielectric constant tensor:
#      x y z
#    x 1.727410 0.000000 0.000000 
#    y 0.000000 1.704580 0.000000 
#    z 0.000000 0.000000 1.732100 
# 
# From -- ./inp_files/8461.got.cif
#   From: 2010.03.12/outbox.cif.g09.slc.cpg/sg57_5_cif.got.tgz:8461.got - 2010.04.16 15:48:40.
