data_PCOD8232120
_publ_section_title
;
Structure prediction by ZEFSAII (Michael W. Deem and Ramdas Pophale) SiO2 
 PCOD8232120
Probable space group: P B C M
;
_chemical_formula_sum "Si O2"
_cell_formula_units_Z 64
_cell_length_a 21.673646
_cell_length_b 19.912440
_cell_length_c 8.929846
_cell_angle_alpha 90.000000
_cell_angle_beta 90.000000
_cell_angle_gamma 90.000000
_cell_volume 3853.899855
_symmetry_space_group_name_H-M "P B C M"
_symmetry_group_IT_number 57
_symmetry_cell_setting 'orthorhombic'
loop_
_space_group_symop_operation_xyz
x,y,z
-x,-y,1/2+z
x,1/2-y,-z
-x,1/2+y,1/2-z
-x,-y,-z
x,y,1/2-z
-x,1/2+y,z
x,1/2-y,1/2+z
loop_
_atom_site_type_symbol
_atom_site_label
_atom_site_fract_x
_atom_site_fract_y
_atom_site_fract_z
Si Si1 0.085927 0.966480 0.417224
Si Si2 0.808903 0.958680 0.074815
Si Si3 0.547823 0.950832 0.573650
Si Si4 0.123789 0.321399 0.427697
Si Si5 0.540034 0.687446 0.914275
Si Si6 0.014650 0.394766 0.581946
Si Si7 0.313747 0.052419 0.424459
Si Si8 0.317552 0.311776 0.415781
O O1 0.102758 0.942623 0.250000
O O2 0.050907 0.904718 0.498757
O O3 0.147544 0.984978 0.505192
O O4 0.044490 0.032364 0.410650
O O5 0.813181 0.967007 0.250000
O O6 0.827408 0.881351 0.029940
O O7 0.740872 0.981172 0.019337
O O8 0.539331 0.950218 0.750000
O O9 0.531047 0.877928 0.513604
O O10 0.617772 0.973832 0.531070
O O11 0.500000 0.000000 0.500000
O O12 0.144337 0.250000 0.500000
O O13 0.118943 0.312813 0.250000
O O14 0.056841 0.342417 0.490883
O O15 0.509204 0.677543 0.750000
O O16 0.611312 0.704666 0.888619
O O17 0.508136 0.750000 0.000000
O O18 0.004421 0.366665 0.750000
O O19 0.300660 0.042280 0.250000
O O20 0.310052 0.129851 0.465866
O O21 0.284269 0.250000 0.500000
O O22 0.287231 0.326236 0.250000
#
# Coordination Sequence:
#
# PCOD8232120 Si02
#       8
#     8   8   8   8   8   8   8   8
#     4   9  16  27  44  64  85 110 143 183 224 263
#     4  10  20  32  45  62  86 117 153 191 231 275
#     4  10  20  33  49  69  93 123 158 198 246 297
#     4  10  20  32  45  63  89 122 158 192 226 265
#     4   9  16  27  44  65  89 116 147 184 225 272
#     4   9  16  27  44  64  86 113 145 182 222 261
#     4  10  20  32  45  62  86 116 151 190 232 278
#     4   9  16  26  40  57  78 107 143 180 216 255
#
# _framework density 16.606555
#
# number of rings (size 3 to 8) (size 9 to 14) (size 15 to 20)
#    0.000    2.500    0.000    3.000    0.000    9.500 
#    0.000    1.250    0.000    0.000    0.000    0.000 
#    0.000    1.000    0.000    5.500    0.000    6.000 
#
# Total GULP energy -793094.783707 kJ/mol
# GULP energy per Si atom -12392.105995 kJ/mol
# Density = 1.656876 g / cm^3
# Si number density = 16.606555 Si / 1000 Ang^3
#
#
#
# Elastic Constant Matrix: (Units=GPa)
#
#
# Indices 1 2 3 4 5 6 
#
# 1 94.9722 38.5451 53.2581 0.0000 0.0000 0.0000
# 2 38.5451 41.7013 33.0259 0.0000 0.0000 0.0000
# 3 53.2581 33.0259 108.8532 0.0000 0.0000 0.0000
# 4 0.0000 0.0000 0.0000 23.8988 0.0000 0.0000
# 5 0.0000 0.0000 0.0000 0.0000 23.4050 0.0000
# 6 0.0000 0.0000 0.0000 0.0000 0.0000 7.6504
#
#
#
# Elastic Compliance Matrix: (Units=1/GPa)
#
#
# Indices 1 2 3 4 5 6 
#
# 1 0.018834 -0.013308 -0.005177 0.000000 0.000000 0.000000
# 2 -0.013308 0.040968 -0.005918 0.000000 0.000000 0.000000
# 3 -0.005177 -0.005918 0.013515 0.000000 0.000000 0.000000
# 4 0.000000 0.000000 0.000000 0.041843 0.000000 0.000000
# 5 0.000000 0.000000 0.000000 0.000000 0.042726 0.000000
# 6 0.000000 0.000000 0.000000 0.000000 0.000000 0.130713
#
#
# Mechanical properties :
#
#
# Convention : Reuss Voigt Hill
#
# Bulk Modulus (GPa) = 40.79993 55.02052 47.91023
# Shear Modulus (GPa) = 14.46857 19.03736 16.75296
#
# Velocity S-wave (km/s) = 2.95491 3.38949 3.17963
# Velocity P-wave (km/s) = 6.02195 6.96577 6.51098
#
# Compressibility (1/GPa) = 0.02450984
#
# Stress axis : x y z
#
# Youngs Moduli (GPa) = 53.09601 24.40915 73.99056
#
# Poissons Ratio (x) = 0.32485 0.38305
# Poissons Ratio (y) = 0.70662 0.43790
# Poissons Ratio (z) = 0.27488 0.14446
#
# Static dielectric constant tensor:
#      x y z
#    x 3.138390 0.000000 0.000000 
#    y 0.000000 2.851380 0.000000 
#    z 0.000000 0.000000 3.480070 
# 
# 
# High freq. dielectric constant tensor:
#      x y z
#    x 1.613490 0.000000 0.000000 
#    y 0.000000 1.594310 0.000000 
#    z 0.000000 0.000000 1.664610 
# 
# From -- ./inp_files/8699.got.cif
#   From: 2010.03.12/outbox.cif.g09.slc.cpg/sg57_5_cif.got.tgz:8699.got - 2010.04.16 15:48:40.
