data_PCOD8232246
_publ_section_title
;
Structure prediction by ZEFSAII (Michael W. Deem and Ramdas Pophale) SiO2 
 PCOD8232246
Probable space group: P B C M
;
_chemical_formula_sum "Si O2"
_cell_formula_units_Z 56
_cell_length_a 15.565864
_cell_length_b 19.450696
_cell_length_c 9.725999
_cell_angle_alpha 90.000000
_cell_angle_beta 90.000000
_cell_angle_gamma 90.000000
_cell_volume 2944.710456
_symmetry_space_group_name_H-M "P B C M"
_symmetry_group_IT_number 57
_symmetry_cell_setting 'orthorhombic'
loop_
_space_group_symop_operation_xyz
x,y,z
-x,-y,1/2+z
x,1/2-y,-z
-x,1/2+y,1/2-z
-x,-y,-z
x,y,1/2-z
-x,1/2+y,z
x,1/2-y,1/2+z
loop_
_atom_site_type_symbol
_atom_site_label
_atom_site_fract_x
_atom_site_fract_y
_atom_site_fract_z
Si Si1 0.830885 0.424491 0.591460
Si Si2 0.504185 0.811577 0.906969
Si Si3 0.030699 0.686189 0.091583
Si Si4 0.762606 0.960333 0.909806
Si Si5 0.307391 0.687916 0.407449
Si Si6 0.566917 0.959229 0.908270
Si Si7 0.168068 0.186223 0.408259
O O1 0.834022 0.447593 0.750000
O O2 0.915557 0.381460 0.551074
O O3 0.826335 0.492218 0.498011
O O4 0.746651 0.379668 0.560044
O O5 0.513264 0.787750 0.750000
O O6 0.405703 0.829190 0.943957
O O7 0.560357 0.878291 0.938533
O O8 0.539983 0.750000 0.000000
O O9 0.048462 0.705777 0.250000
O O10 0.931571 0.669515 0.063419
O O11 0.062292 0.750000 0.000000
O O12 0.784505 0.971625 0.750000
O O13 0.664234 0.980667 0.942707
O O14 0.778124 0.880992 0.949970
O O15 0.272384 0.750000 0.500000
O O16 0.295837 0.710798 0.250000
O O17 0.543787 0.974616 0.750000
O O18 0.500000 0.000000 0.000000
O O19 0.200025 0.250000 0.500000
O O20 0.183683 0.206353 0.250000
#
# Coordination Sequence:
#
# PCOD8232246 Si02
#       7
#     8   8   8   8   8   8   8
#     4  10  20  33  50  75 106 138 174 213 253 303
#     4   9  18  32  49  70  96 125 160 205 254 302
#     4   9  18  33  54  79 107 140 176 213 254 302
#     4  10  22  37  53  76 105 137 172 213 262 311
#     4   9  17  29  46  69  98 130 163 203 250 299
#     4  10  21  37  55  75 102 136 173 214 261 312
#     4   9  19  37  57  78 106 138 174 216 260 307
#
# _framework density 19.017150000000001
#
# number of rings (size 3 to 8) (size 9 to 14) (size 15 to 20)
#    0.000    2.571    0.000    1.286    0.000    5.143 
#    0.000    2.857    0.000    0.000    0.000    0.000 
#    0.000    0.000    0.000    0.000    0.000    0.000 
#
# Total GULP energy -694535.419245 kJ/mol
# GULP energy per Si atom -12402.418201 kJ/mol
# Density = 1.897387 g / cm^3
# Si number density = 19.017150 Si / 1000 Ang^3
#
#
#
# Elastic Constant Matrix: (Units=GPa)
#
#
# Indices 1 2 3 4 5 6 
#
# 1 55.5988 37.4022 35.9096 0.0000 0.0000 0.0000
# 2 37.4022 113.4605 73.0207 0.0000 0.0000 0.0000
# 3 35.9096 73.0207 84.5257 0.0000 0.0000 0.0000
# 4 0.0000 0.0000 0.0000 42.7676 0.0000 0.0000
# 5 0.0000 0.0000 0.0000 0.0000 21.8376 0.0000
# 6 0.0000 0.0000 0.0000 0.0000 0.0000 29.6010
#
#
#
# Elastic Compliance Matrix: (Units=1/GPa)
#
#
# Indices 1 2 3 4 5 6 
#
# 1 0.025294 -0.003203 -0.007978 0.000000 0.000000 0.000000
# 2 -0.003203 0.020255 -0.016137 0.000000 0.000000 0.000000
# 3 -0.007978 -0.016137 0.029161 0.000000 0.000000 0.000000
# 4 0.000000 0.000000 0.000000 0.023382 0.000000 0.000000
# 5 0.000000 0.000000 0.000000 0.000000 0.045793 0.000000
# 6 0.000000 0.000000 0.000000 0.000000 0.000000 0.033783
#
#
# Mechanical properties :
#
#
# Convention : Reuss Voigt Hill
#
# Bulk Modulus (GPa) = 49.82064 60.69445 55.25755
# Shear Modulus (GPa) = 20.92076 25.99140 23.45608
#
# Velocity S-wave (km/s) = 3.32037 3.70095 3.51581
# Velocity P-wave (km/s) = 6.39957 7.08856 6.75285
#
# Compressibility (1/GPa) = 0.02007200
#
# Stress axis : x y z
#
# Youngs Moduli (GPa) = 39.53504 49.36978 34.29222
#
# Poissons Ratio (x) = 0.15815 0.27360
# Poissons Ratio (y) = 0.12665 0.55339
# Poissons Ratio (z) = 0.31543 0.79670
#
# Static dielectric constant tensor:
#      x y z
#    x 3.477160 0.000000 0.000000 
#    y 0.000000 3.377480 0.000000 
#    z 0.000000 0.000000 3.495150 
# 
# 
# High freq. dielectric constant tensor:
#      x y z
#    x 1.739870 0.000000 0.000000 
#    y 0.000000 1.732820 0.000000 
#    z 0.000000 0.000000 1.734560 
# 
# From -- ./inp_files/5227.got.cif
#   From: 2010.03.12/outbox.cif.g09.slc.cpg/sg57_3_cif.got.tgz:5227.got - 2010.04.16 15:48:40.
