data_PCOD8232122
_publ_section_title
;
Structure prediction by ZEFSAII (Michael W. Deem and Ramdas Pophale) SiO2 
 PCOD8232122
Probable space group: P B C M
;
_chemical_formula_sum "Si O2"
_cell_formula_units_Z 56
_cell_length_a 21.003945
_cell_length_b 17.893352
_cell_length_c 9.383764
_cell_angle_alpha 90.000000
_cell_angle_beta 90.000000
_cell_angle_gamma 90.000000
_cell_volume 3526.709232
_symmetry_space_group_name_H-M "P B C M"
_symmetry_group_IT_number 57
_symmetry_cell_setting 'orthorhombic'
loop_
_space_group_symop_operation_xyz
x,y,z
-x,-y,1/2+z
x,1/2-y,-z
-x,1/2+y,1/2-z
-x,-y,-z
x,y,1/2-z
-x,1/2+y,z
x,1/2-y,1/2+z
loop_
_atom_site_type_symbol
_atom_site_label
_atom_site_fract_x
_atom_site_fract_y
_atom_site_fract_z
Si Si1 0.440602 0.968948 0.085403
Si Si2 0.061799 0.975085 0.084259
Si Si3 0.749766 0.824825 0.084663
Si Si4 0.627262 0.919340 0.416059
Si Si5 0.879299 0.904496 0.417325
Si Si6 0.991582 0.322185 0.088020
Si Si7 0.493568 0.322847 0.411548
O O1 0.442911 0.994452 0.250000
O O2 0.445780 0.878919 0.074501
O O3 0.500000 0.000000 0.000000
O O4 0.378326 0.004010 0.008630
O O5 0.057466 0.998578 0.250000
O O6 0.064116 0.884778 0.070725
O O7 0.120496 0.017651 0.007451
O O8 0.000000 0.000000 0.000000
O O9 0.749835 0.803854 0.250000
O O10 0.695439 0.884616 0.048774
O O11 0.816822 0.859490 0.037369
O O12 0.735561 0.750000 0.000000
O O13 0.619544 0.939634 0.250000
O O14 0.571844 0.861875 0.464223
O O15 0.880312 0.924321 0.250000
O O16 0.940121 0.854694 0.461972
O O17 0.997609 0.296113 0.250000
O O18 0.971469 0.250000 0.000000
O O19 0.509688 0.250000 0.500000
O O20 0.483922 0.297097 0.250000
#
# Coordination Sequence:
#
# PCOD8232122 Si02
#       7
#     8   8   8   8   8   8   8
#     4   9  17  29  44  63  86 113 146 182 219 263
#     4   9  17  29  44  63  86 113 146 182 219 263
#     4  10  20  32  46  66  93 122 155 188 217 256
#     4   9  18  31  44  62  89 120 151 182 215 257
#     4   9  18  31  44  62  89 120 151 182 215 257
#     4   9  17  27  41  63  88 112 141 176 217 261
#     4   9  17  27  41  63  88 112 141 176 217 261
#
# _framework density 15.878826
#
# number of rings (size 3 to 8) (size 9 to 14) (size 15 to 20)
#    0.000    2.857    0.000    3.429    0.000    6.857 
#    0.000    0.000    0.000    0.000    0.000    1.000 
#    0.000    0.000    0.000    0.000    0.000    0.000 
#
# Total GULP energy -694049.635260 kJ/mol
# GULP energy per Si atom -12393.743487 kJ/mol
# Density = 1.584268 g / cm^3
# Si number density = 15.878826 Si / 1000 Ang^3
#
#
#
# Elastic Constant Matrix: (Units=GPa)
#
#
# Indices 1 2 3 4 5 6 
#
# 1 34.1860 19.0705 18.5294 0.0000 0.0000 0.0000
# 2 19.0705 81.8103 47.6007 0.0000 0.0000 0.0000
# 3 18.5294 47.6007 72.9560 0.0000 0.0000 0.0000
# 4 0.0000 0.0000 0.0000 35.7612 0.0000 0.0000
# 5 0.0000 0.0000 0.0000 0.0000 19.8641 0.0000
# 6 0.0000 0.0000 0.0000 0.0000 0.0000 20.0486
#
#
#
# Elastic Compliance Matrix: (Units=1/GPa)
#
#
# Indices 1 2 3 4 5 6 
#
# 1 0.035063 -0.004823 -0.005759 0.000000 0.000000 0.000000
# 2 -0.004823 0.020367 -0.012064 0.000000 0.000000 0.000000
# 3 -0.005759 -0.012064 0.023040 0.000000 0.000000 0.000000
# 4 0.000000 0.000000 0.000000 0.027963 0.000000 0.000000
# 5 0.000000 0.000000 0.000000 0.000000 0.050342 0.000000
# 6 0.000000 0.000000 0.000000 0.000000 0.000000 0.049879
#
#
# Mechanical properties :
#
#
# Convention : Reuss Voigt Hill
#
# Bulk Modulus (GPa) = 30.13827 39.92817 35.03322
# Shear Modulus (GPa) = 19.01105 22.05156 20.53131
#
# Velocity S-wave (km/s) = 3.46390 3.73062 3.59973
# Velocity P-wave (km/s) = 5.91772 6.61490 6.27600
#
# Compressibility (1/GPa) = 0.03318041
#
# Stress axis : x y z
#
# Youngs Moduli (GPa) = 28.51973 49.09975 43.40190
#
# Poissons Ratio (x) = 0.23680 0.24994
# Poissons Ratio (y) = 0.13754 0.52358
# Poissons Ratio (z) = 0.16424 0.59232
#
# Static dielectric constant tensor:
#      x y z
#    x 2.985860 0.000000 0.000000 
#    y 0.000000 3.252610 0.000000 
#    z 0.000000 0.000000 3.358000 
# 
# 
# High freq. dielectric constant tensor:
#      x y z
#    x 1.570770 0.000000 0.000000 
#    y 0.000000 1.605660 0.000000 
#    z 0.000000 0.000000 1.618880 
# 
# From -- ./inp_files/8272.got.cif
#   From: 2010.03.12/outbox.cif.g09.slc.cpg/sg57_5_cif.got.tgz:8272.got - 2010.04.16 15:48:40.
