data_PCOD8232497
_publ_section_title
;
Structure prediction by ZEFSAII (Michael W. Deem and Ramdas Pophale) SiO2 
 PCOD8232497
Probable space group: P B C M
;
_chemical_formula_sum "Si O2"
_cell_formula_units_Z 36
_cell_length_a 21.308285
_cell_length_b 8.903051
_cell_length_c 9.600533
_cell_angle_alpha 90.000000
_cell_angle_beta 90.000000
_cell_angle_gamma 90.000000
_cell_volume 1821.305096
_symmetry_space_group_name_H-M "P B C M"
_symmetry_group_IT_number 57
_symmetry_cell_setting 'orthorhombic'
loop_
_space_group_symop_operation_xyz
x,y,z
-x,-y,1/2+z
x,1/2-y,-z
-x,1/2+y,1/2-z
-x,-y,-z
x,y,1/2-z
-x,1/2+y,z
x,1/2-y,1/2+z
loop_
_atom_site_type_symbol
_atom_site_label
_atom_site_fract_x
_atom_site_fract_y
_atom_site_fract_z
Si Si1 0.450346 0.597081 0.414787
Si Si2 0.011217 0.250000 0.000000
Si Si3 0.779956 0.392682 0.915053
Si Si4 0.087298 0.971888 0.900929
Si Si5 0.669371 0.607213 0.907052
O O1 0.444748 0.750000 0.500000
O O2 0.500000 0.500000 0.500000
O O3 0.469178 0.620549 0.250000
O O4 0.383559 0.517592 0.424414
O O5 0.965294 0.341833 0.898601
O O6 0.056491 0.131911 0.928692
O O7 0.778998 0.354482 0.750000
O O8 0.849089 0.431927 0.984207
O O9 0.735713 0.533728 0.949176
O O10 0.754447 0.250000 0.000000
O O11 0.116302 0.985709 0.750000
O O12 0.671811 0.667133 0.750000
O O13 0.653830 0.750000 0.000000
#
# Coordination Sequence:
#
# PCOD8232497 Si02
#       5
#     8   4   8   8   8
#     4  11  23  40  63  94 126 164 201 247 293 349
#     4  10  20  34  54  80 106 144 184 228 290 344
#     4  10  21  39  58  82 113 150 192 239 287 346
#     4  10  20  35  54  78 110 143 185 235 286 343
#     4  10  23  40  61  87 120 154 198 244 292 344
#
# _framework density 19.766044999999998
#
# number of rings (size 3 to 8) (size 9 to 14) (size 15 to 20)
#    0.000    1.778    1.111    2.667    1.556    4.444 
#    0.000    1.111    0.000    0.000    0.000    0.000 
#    0.000    0.000    0.000    0.000    0.000    0.000 
#
# Total GULP energy -446019.465555 kJ/mol
# GULP energy per Si atom -12389.429599 kJ/mol
# Density = 1.972106 g / cm^3
# Si number density = 19.766045 Si / 1000 Ang^3
#
#
#
# Elastic Constant Matrix: (Units=GPa)
#
#
# Indices 1 2 3 4 5 6 
#
# 1 91.0589 39.2953 35.2601 0.0000 0.0000 0.0000
# 2 39.2953 139.2295 64.6351 0.0000 0.0000 0.0000
# 3 35.2601 64.6351 99.3277 0.0000 0.0000 0.0000
# 4 0.0000 0.0000 0.0000 28.8042 0.0000 0.0000
# 5 0.0000 0.0000 0.0000 0.0000 26.7875 0.0000
# 6 0.0000 0.0000 0.0000 0.0000 0.0000 -602.3899
#
#
#
# Elastic Compliance Matrix: (Units=1/GPa)
#
#
# Indices 1 2 3 4 5 6 
#
# 1 0.013194 -0.002220 -0.003239 0.000000 0.000000 0.000000
# 2 -0.002220 0.010665 -0.006152 0.000000 0.000000 0.000000
# 3 -0.003239 -0.006152 0.015221 0.000000 0.000000 0.000000
# 4 0.000000 0.000000 0.000000 0.034717 0.000000 0.000000
# 5 0.000000 0.000000 0.000000 0.000000 0.037331 0.000000
# 6 0.000000 0.000000 0.000000 0.000000 0.000000 -0.001660
#
#
# Mechanical properties :
#
#
# Convention : Reuss Voigt Hill
#
# Bulk Modulus (GPa) = 63.06082 67.55522 65.30802
# Shear Modulus (GPa) = 36.23829 -96.66460 -30.21316
#
# Velocity S-wave (km/s) = 4.28642 -7.00075 -3.91389
# Velocity P-wave (km/s) = 7.51470 5.57636 3.56195
#
# Compressibility (1/GPa) = 0.01585771
#
# Stress axis : x y z
#
# Youngs Moduli (GPa) = 75.79071 93.76589 65.70028
#
# Poissons Ratio (x) = 0.20818 0.21281
# Poissons Ratio (y) = 0.16827 0.40417
# Poissons Ratio (z) = 0.24549 0.57683
#
# Static dielectric constant tensor:
#      x y z
#    x 3.776740 0.000000 0.000000 
#    y 0.000000 3.938570 0.000000 
#    z 0.000000 0.000000 3.676100 
# 
# 
# High freq. dielectric constant tensor:
#      x y z
#    x 1.790260 0.000000 0.000000 
#    y 0.000000 1.777120 0.000000 
#    z 0.000000 0.000000 1.759190 
# 
# From -- ./inp_files/7615.got.cif
#   From: 2010.03.12/outbox.cif.g09.slc.cpg/sg57_4_cif.got.tgz:7615.got - 2010.04.16 15:48:40.
