data_PCOD8232089
_publ_section_title
;
Structure prediction by ZEFSAII (Michael W. Deem and Ramdas Pophale) SiO2 
 PCOD8232089
Probable space group: P B C M
;
_chemical_formula_sum "Si O2"
_cell_formula_units_Z 64
_cell_length_a 18.875586
_cell_length_b 9.112732
_cell_length_c 18.109590
_cell_angle_alpha 90.000000
_cell_angle_beta 90.000000
_cell_angle_gamma 90.000000
_cell_volume 3114.997192
_symmetry_space_group_name_H-M "P B C M"
_symmetry_group_IT_number 57
_symmetry_cell_setting 'orthorhombic'
loop_
_space_group_symop_operation_xyz
x,y,z
-x,-y,1/2+z
x,1/2-y,-z
-x,1/2+y,1/2-z
-x,-y,-z
x,y,1/2-z
-x,1/2+y,z
x,1/2-y,1/2+z
loop_
_atom_site_type_symbol
_atom_site_label
_atom_site_fract_x
_atom_site_fract_y
_atom_site_fract_z
Si Si1 0.942326 0.448156 0.661616
Si Si2 0.166117 0.318513 0.167956
Si Si3 0.578324 0.177738 0.921506
Si Si4 0.680010 0.841808 0.164478
Si Si5 0.563377 0.673451 0.078295
Si Si6 0.303375 0.672317 0.335909
Si Si7 0.160420 0.755442 0.412536
Si Si8 0.899620 0.504024 0.332241
O O1 0.941824 0.426841 0.750000
O O2 0.889187 0.571915 0.629991
O O3 0.914244 0.303641 0.620329
O O4 0.020896 0.489690 0.635134
O O5 0.181195 0.381877 0.250000
O O6 0.242429 0.313447 0.127903
O O7 0.128896 0.165545 0.172688
O O8 0.510476 0.264710 0.888439
O O9 0.644550 0.202813 0.867344
O O10 0.562855 0.003535 0.928450
O O11 0.597923 0.250000 0.000000
O O12 0.679902 0.800803 0.250000
O O13 0.626423 0.727435 0.129217
O O14 0.660462 0.012896 0.151473
O O15 0.574012 0.750000 0.000000
O O16 0.289972 0.704488 0.250000
O O17 0.228081 0.674684 0.377400
O O18 0.165093 0.750000 0.500000
O O19 0.155763 0.923643 0.386406
O O20 0.899773 0.432770 0.250000
#
# Coordination Sequence:
#
# PCOD8232089 Si02
#       8
#     8   8   8   8   8   8   8   8
#     4  10  19  39  65  88 116 162 212 259 316 374
#     4   9  18  35  59  87 119 155 202 261 312 360
#     4  11  23  42  67  96 131 165 207 251 307 374
#     4  10  21  39  62  88 123 163 211 264 313 368
#     4  11  23  41  67  95 131 169 202 248 305 379
#     4  11  23  42  66  89 122 167 215 265 313 370
#     4  12  25  39  59  89 130 168 205 257 317 382
#     4  10  21  37  63  92 119 155 212 267 312 372
#
# _framework density 20.545763000000001
#
# number of rings (size 3 to 8) (size 9 to 14) (size 15 to 20)
#    0.000    1.500    1.250    5.250    1.750    3.500 
#    0.000    0.625    0.000    0.000    0.000    0.000 
#    0.000    0.000    0.000    0.000    0.000    0.000 
#
# Total GULP energy -793397.153016 kJ/mol
# GULP energy per Si atom -12396.830516 kJ/mol
# Density = 2.049900 g / cm^3
# Si number density = 20.545763 Si / 1000 Ang^3
#
#
#
# Elastic Constant Matrix: (Units=GPa)
#
#
# Indices 1 2 3 4 5 6 
#
# 1 111.3898 39.6883 41.4240 0.0000 0.0000 0.0000
# 2 39.6883 103.0448 34.5978 0.0000 0.0000 0.0000
# 3 41.4240 34.5978 80.5716 0.0000 0.0000 0.0000
# 4 0.0000 0.0000 0.0000 27.8016 0.0000 0.0000
# 5 0.0000 0.0000 0.0000 0.0000 17.2983 0.0000
# 6 0.0000 0.0000 0.0000 0.0000 0.0000 39.5987
#
#
#
# Elastic Compliance Matrix: (Units=1/GPa)
#
#
# Indices 1 2 3 4 5 6 
#
# 1 0.011813 -0.002934 -0.004814 0.000000 0.000000 0.000000
# 2 -0.002934 0.012068 -0.003674 0.000000 0.000000 0.000000
# 3 -0.004814 -0.003674 0.016464 0.000000 0.000000 0.000000
# 4 0.000000 0.000000 0.000000 0.035969 0.000000 0.000000
# 5 0.000000 0.000000 0.000000 0.000000 0.057809 0.000000
# 6 0.000000 0.000000 0.000000 0.000000 0.000000 0.025253
#
#
# Mechanical properties :
#
#
# Convention : Reuss Voigt Hill
#
# Bulk Modulus (GPa) = 57.13481 58.49182 57.81332
# Shear Modulus (GPa) = 26.58837 28.89279 27.74058
#
# Velocity S-wave (km/s) = 3.60127 3.75409 3.67847
# Velocity P-wave (km/s) = 6.72020 6.87908 6.80011
#
# Compressibility (1/GPa) = 0.01750246
#
# Stress axis : x y z
#
# Youngs Moduli (GPa) = 84.65383 82.86456 60.73991
#
# Poissons Ratio (x) = 0.24309 0.29238
# Poissons Ratio (y) = 0.24834 0.22314
# Poissons Ratio (z) = 0.40749 0.30442
#
# Static dielectric constant tensor:
#      x y z
#    x 4.063550 0.000000 0.000000 
#    y 0.000000 3.783830 0.000000 
#    z 0.000000 0.000000 3.467370 
# 
# 
# High freq. dielectric constant tensor:
#      x y z
#    x 1.817720 0.000000 0.000000 
#    y 0.000000 1.814490 0.000000 
#    z 0.000000 0.000000 1.771100 
# 
# From -- ./inp_files/23035.got.cif
#   From: 2010.03.12/outbox.cif.g09.slc.cpg/sg57_12_cif.got.tgz:23035.got - 2010.04.16 15:48:40.
