data_PCOD8232511
_publ_section_title
;
Structure prediction by ZEFSAII (Michael W. Deem and Ramdas Pophale) SiO2 
 PCOD8232511
Probable space group: P B C M
;
_chemical_formula_sum "Si O2"
_cell_formula_units_Z 64
_cell_length_a 22.511893
_cell_length_b 16.095665
_cell_length_c 8.847491
_cell_angle_alpha 90.000000
_cell_angle_beta 90.000000
_cell_angle_gamma 90.000000
_cell_volume 3205.834290
_symmetry_space_group_name_H-M "P B C M"
_symmetry_group_IT_number 57
_symmetry_cell_setting 'orthorhombic'
loop_
_space_group_symop_operation_xyz
x,y,z
-x,-y,1/2+z
x,1/2-y,-z
-x,1/2+y,1/2-z
-x,-y,-z
x,y,1/2-z
-x,1/2+y,z
x,1/2-y,1/2+z
loop_
_atom_site_type_symbol
_atom_site_label
_atom_site_fract_x
_atom_site_fract_y
_atom_site_fract_z
Si Si1 0.386760 0.663477 0.569434
Si Si2 0.310942 0.507073 0.572733
Si Si3 0.500473 0.909061 0.927463
Si Si4 0.861515 0.837516 0.422015
Si Si5 0.991631 0.667340 0.578254
Si Si6 0.058642 0.540943 0.073995
Si Si7 0.369902 0.338947 0.925766
Si Si8 0.821670 0.512600 0.425225
O O1 0.362124 0.750000 0.500000
O O2 0.385847 0.669631 0.750000
O O3 0.347618 0.585554 0.508384
O O4 0.452964 0.649203 0.509673
O O5 0.323140 0.501746 0.750000
O O6 0.331387 0.417046 0.506341
O O7 0.241991 0.527648 0.537609
O O8 0.486658 0.917496 0.750000
O O9 0.562196 0.862799 0.956621
O O10 0.500000 0.000000 0.000000
O O11 0.861892 0.750000 0.500000
O O12 0.839748 0.828859 0.250000
O O13 0.816494 0.892423 0.519382
O O14 0.927747 0.883013 0.423827
O O15 0.969562 0.750000 0.500000
O O16 0.013627 0.678426 0.750000
O O17 0.045416 0.635630 0.474696
O O18 0.055445 0.525756 0.250000
O O19 0.125122 0.528693 0.016238
O O20 0.000000 0.500000 0.000000
O O21 0.356138 0.328095 0.750000
O O22 0.353560 0.250000 0.000000
O O23 0.837496 0.508401 0.250000
#
# Coordination Sequence:
#
# PCOD8232511 Si02
#       8
#     8   8   8   8   8   8   8   8
#     4  11  22  41  65  92 126 163 211 262 311 368
#     4   9  21  42  62  83 120 166 206 254 309 366
#     4  11  21  36  62  94 129 166 208 256 312 365
#     4  10  20  34  54  81 115 148 186 234 287 352
#     4  10  20  35  56  83 115 147 181 226 286 350
#     4  12  23  37  58  85 115 147 187 236 293 355
#     4  10  21  39  60  88 125 166 205 248 301 360
#     4  11  22  38  61  84 112 153 199 245 301 358
#
# _framework density 19.963602000000002
#
# number of rings (size 3 to 8) (size 9 to 14) (size 15 to 20)
#    0.000    1.500    2.500    3.375    0.000    3.500 
#    0.000    5.625    0.000    1.500    0.000    0.000 
#    0.000    0.000    0.000    0.000    0.000    0.000 
#
# Total GULP energy -793069.594205 kJ/mol
# GULP energy per Si atom -12391.712409 kJ/mol
# Density = 1.991816 g / cm^3
# Si number density = 19.963602 Si / 1000 Ang^3
#
#
#
# Elastic Constant Matrix: (Units=GPa)
#
#
# Indices 1 2 3 4 5 6 
#
# 1 87.2419 40.1964 44.4570 0.0000 0.0000 0.0000
# 2 40.1964 109.1696 33.2112 0.0000 0.0000 0.0000
# 3 44.4570 33.2112 108.9426 0.0000 0.0000 0.0000
# 4 0.0000 0.0000 0.0000 37.1409 0.0000 0.0000
# 5 0.0000 0.0000 0.0000 0.0000 25.6615 0.0000
# 6 0.0000 0.0000 0.0000 0.0000 0.0000 23.8466
#
#
#
# Elastic Compliance Matrix: (Units=1/GPa)
#
#
# Indices 1 2 3 4 5 6 
#
# 1 0.016147 -0.004344 -0.005265 0.000000 0.000000 0.000000
# 2 -0.004344 0.011265 -0.001662 0.000000 0.000000 0.000000
# 3 -0.005265 -0.001662 0.011834 0.000000 0.000000 0.000000
# 4 0.000000 0.000000 0.000000 0.026925 0.000000 0.000000
# 5 0.000000 0.000000 0.000000 0.000000 0.038969 0.000000
# 6 0.000000 0.000000 0.000000 0.000000 0.000000 0.041935
#
#
# Mechanical properties :
#
#
# Convention : Reuss Voigt Hill
#
# Bulk Modulus (GPa) = 59.86052 60.12037 59.99045
# Shear Modulus (GPa) = 28.54171 29.82909 29.18540
#
# Velocity S-wave (km/s) = 3.78522 3.86965 3.82767
# Velocity P-wave (km/s) = 7.01098 7.08138 7.04627
#
# Compressibility (1/GPa) = 0.01670550
#
# Stress axis : x y z
#
# Youngs Moduli (GPa) = 61.93269 88.77187 84.50099
#
# Poissons Ratio (x) = 0.38558 0.44489
# Poissons Ratio (y) = 0.26901 0.14041
# Poissons Ratio (z) = 0.32607 0.14750
#
# Static dielectric constant tensor:
#      x y z
#    x 3.726720 0.000000 0.000000 
#    y 0.000000 3.924790 0.000000 
#    z 0.000000 0.000000 3.299220 
# 
# 
# High freq. dielectric constant tensor:
#      x y z
#    x 1.771170 0.000000 0.000000 
#    y 0.000000 1.787810 0.000000 
#    z 0.000000 0.000000 1.774440 
# 
# From -- ./inp_files/8588.got.cif
#   From: 2010.03.12/outbox.cif.g09.slc.cpg/sg57_5_cif.got.tgz:8588.got - 2010.04.16 15:48:40.
