data_PCOD8232422
_publ_section_title
;
Structure prediction by ZEFSAII (Michael W. Deem and Ramdas Pophale) SiO2 
 PCOD8232422
Probable space group: P B C M
;
_chemical_formula_sum "Si O2"
_cell_formula_units_Z 64
_cell_length_a 26.352581
_cell_length_b 14.321911
_cell_length_c 9.008111
_cell_angle_alpha 90.000000
_cell_angle_beta 90.000000
_cell_angle_gamma 90.000000
_cell_volume 3399.835125
_symmetry_space_group_name_H-M "P B C M"
_symmetry_group_IT_number 57
_symmetry_cell_setting 'orthorhombic'
loop_
_space_group_symop_operation_xyz
x,y,z
-x,-y,1/2+z
x,1/2-y,-z
-x,1/2+y,1/2-z
-x,-y,-z
x,y,1/2-z
-x,1/2+y,z
x,1/2-y,1/2+z
loop_
_atom_site_type_symbol
_atom_site_label
_atom_site_fract_x
_atom_site_fract_y
_atom_site_fract_z
Si Si1 0.899112 0.849231 0.575906
Si Si2 0.117671 0.849156 0.923570
Si Si3 0.361779 0.851876 0.572226
Si Si4 0.821035 0.000938 0.921534
Si Si5 0.633209 0.849179 0.076372
Si Si6 0.008524 0.652860 0.078884
Si Si7 0.552917 0.004948 0.080495
Si Si8 0.297048 0.495192 0.923578
O O1 0.892709 0.750000 0.500000
O O2 0.892954 0.833269 0.750000
O O3 0.954736 0.897034 0.538132
O O4 0.854417 0.915228 0.515982
O O5 0.126330 0.836270 0.750000
O O6 0.062198 0.898175 0.959479
O O7 0.120231 0.750000 0.000000
O O8 0.163681 0.908518 0.987014
O O9 0.363597 0.750000 0.500000
O O10 0.355877 0.845170 0.750000
O O11 0.412780 0.907879 0.525749
O O12 0.314558 0.909977 0.505878
O O13 0.833524 0.019272 0.750000
O O14 0.762368 0.980919 0.947894
O O15 0.646258 0.837207 0.250000
O O16 0.581804 0.907700 0.054205
O O17 0.625123 0.750000 0.000000
O O18 0.678579 0.903703 0.996548
O O19 0.008531 0.677521 0.250000
O O20 0.008306 0.750000 0.000000
O O21 0.539895 0.020915 0.250000
O O22 0.500000 0.000000 0.000000
O O23 0.311490 0.501708 0.750000
#
# Coordination Sequence:
#
# PCOD8232422 Si02
#       8
#     8   8   8   8   8   8   8   8
#     4   9  18  34  53  74 103 135 168 211 260 314
#     4  10  20  34  53  76 102 134 172 213 260 316
#     4  10  21  38  59  84 111 145 187 227 270 320
#     4  10  22  37  53  77 107 137 172 216 269 323
#     4  10  21  38  59  84 112 147 189 228 269 318
#     4   8  15  29  49  72  98 130 167 206 253 310
#     4   9  20  36  55  83 119 152 184 223 265 311
#     4  10  21  38  57  78 106 141 181 228 277 323
#
# _framework density 18.824444
#
# number of rings (size 3 to 8) (size 9 to 14) (size 15 to 20)
#    0.000    2.500    0.000    2.250    0.000    7.000 
#    0.000    3.750    0.000    0.000    0.000    0.000 
#    0.000    0.000    0.000    0.000    0.000    0.000 
#
# Total GULP energy -793108.836100 kJ/mol
# GULP energy per Si atom -12392.325564 kJ/mol
# Density = 1.878160 g / cm^3
# Si number density = 18.824444 Si / 1000 Ang^3
#
#
#
# Elastic Constant Matrix: (Units=GPa)
#
#
# Indices 1 2 3 4 5 6 
#
# 1 104.2827 30.9374 49.2087 0.0000 0.0000 0.0000
# 2 30.9374 97.8495 42.4504 0.0000 0.0000 0.0000
# 3 49.2087 42.4504 80.1091 0.0000 0.0000 0.0000
# 4 0.0000 0.0000 0.0000 33.5086 0.0000 0.0000
# 5 0.0000 0.0000 0.0000 0.0000 29.7408 0.0000
# 6 0.0000 0.0000 0.0000 0.0000 0.0000 14.7109
#
#
#
# Elastic Compliance Matrix: (Units=1/GPa)
#
#
# Indices 1 2 3 4 5 6 
#
# 1 0.013561 -0.000875 -0.007866 0.000000 0.000000 0.000000
# 2 -0.000875 0.013327 -0.006525 0.000000 0.000000 0.000000
# 3 -0.007866 -0.006525 0.020773 0.000000 0.000000 0.000000
# 4 0.000000 0.000000 0.000000 0.029843 0.000000 0.000000
# 5 0.000000 0.000000 0.000000 0.000000 0.033624 0.000000
# 6 0.000000 0.000000 0.000000 0.000000 0.000000 0.067977
#
#
# Mechanical properties :
#
#
# Convention : Reuss Voigt Hill
#
# Bulk Modulus (GPa) = 58.38228 58.60380 58.49304
# Shear Modulus (GPa) = 23.21850 26.23507 24.72679
#
# Velocity S-wave (km/s) = 3.51582 3.73724 3.62822
# Velocity P-wave (km/s) = 6.89658 7.05847 6.97799
#
# Compressibility (1/GPa) = 0.01712849
#
# Stress axis : x y z
#
# Youngs Moduli (GPa) = 73.74170 75.03564 48.14038
#
# Poissons Ratio (x) = 0.06564 0.37869
# Poissons Ratio (y) = 0.06451 0.31410
# Poissons Ratio (z) = 0.58008 0.48958
#
# Static dielectric constant tensor:
#      x y z
#    x 3.695470 0.000000 0.000000 
#    y 0.000000 3.181800 0.000000 
#    z 0.000000 0.000000 3.502790 
# 
# 
# High freq. dielectric constant tensor:
#      x y z
#    x 1.738910 0.000000 0.000000 
#    y 0.000000 1.720650 0.000000 
#    z 0.000000 0.000000 1.738910 
# 
# From -- ./inp_files/9467.got.cif
#   From: 2010.03.12/outbox.cif.g09.slc.cpg/sg57_5_cif.got.tgz:9467.got - 2010.04.16 15:48:40.
