data_PCOD8232679
_publ_section_title
;
Structure prediction by ZEFSAII (Michael W. Deem and Ramdas Pophale) SiO2 
 PCOD8232679
Probable space group: P B C M
;
_chemical_formula_sum "Si O2"
_cell_formula_units_Z 40
_cell_length_a 25.400549
_cell_length_b 9.633132
_cell_length_c 8.625251
_cell_angle_alpha 90.000000
_cell_angle_beta 90.000000
_cell_angle_gamma 90.000000
_cell_volume 2110.485423
_symmetry_space_group_name_H-M "P B C M"
_symmetry_group_IT_number 57
_symmetry_cell_setting 'orthorhombic'
loop_
_space_group_symop_operation_xyz
x,y,z
-x,-y,1/2+z
x,1/2-y,-z
-x,1/2+y,1/2-z
-x,-y,-z
x,y,1/2-z
-x,1/2+y,z
x,1/2-y,1/2+z
loop_
_atom_site_type_symbol
_atom_site_label
_atom_site_fract_x
_atom_site_fract_y
_atom_site_fract_z
Si Si1 0.454354 0.904431 0.566546
Si Si2 0.845546 0.099496 0.065666
Si Si3 0.244554 0.394648 0.067047
Si Si4 0.044835 0.902870 0.434239
Si Si5 0.362523 0.103883 0.932648
O O1 0.456910 0.750000 0.500000
O O2 0.460183 0.896059 0.750000
O O3 0.500000 0.000000 0.500000
O O4 0.399543 0.976647 0.515277
O O5 0.851680 0.103410 0.250000
O O6 0.796141 0.009613 0.008534
O O7 0.834071 0.250000 0.000000
O O8 0.899001 0.038106 0.991996
O O9 0.244427 0.385348 0.250000
O O10 0.303507 0.428950 0.005940
O O11 0.224450 0.250000 0.000000
O O12 0.035694 0.750000 0.500000
O O13 0.043083 0.899609 0.250000
O O14 0.000000 0.000000 0.500000
O O15 0.363416 0.120726 0.750000
O O16 0.383422 0.250000 0.000000
#
# Coordination Sequence:
#
# PCOD8232679 Si02
#       5
#     8   8   8   8   8
#     4  11  23  38  57  81 111 144 183 226 273 325
#     4  10  20  35  54  78 108 141 177 219 266 319
#     4   9  19  35  55  79 108 140 178 220 265 317
#     4  11  22  38  58  81 109 142 181 224 271 323
#     4   9  19  36  56  79 107 141 178 221 268 318
#
# _framework density 18.952985999999999
#
# number of rings (size 3 to 8) (size 9 to 14) (size 15 to 20)
#    0.000    2.000    0.000    4.800    0.000    6.400 
#    0.000    2.000    0.000    0.000    0.000    0.000 
#    0.000    0.000    0.000    0.000    0.000    0.000 
#
# Total GULP energy -496010.442747 kJ/mol
# GULP energy per Si atom -12400.261069 kJ/mol
# Density = 1.890985 g / cm^3
# Si number density = 18.952986 Si / 1000 Ang^3
#
#
#
# Elastic Constant Matrix: (Units=GPa)
#
#
# Indices 1 2 3 4 5 6 
#
# 1 153.5529 105.1146 54.2876 0.0000 0.0000 0.0000
# 2 105.1146 141.9741 48.3705 0.0000 0.0000 0.0000
# 3 54.2876 48.3705 86.6116 0.0000 0.0000 0.0000
# 4 0.0000 0.0000 0.0000 36.0976 0.0000 0.0000
# 5 0.0000 0.0000 0.0000 0.0000 28.9667 0.0000
# 6 0.0000 0.0000 0.0000 0.0000 0.0000 48.7682
#
#
#
# Elastic Compliance Matrix: (Units=1/GPa)
#
#
# Indices 1 2 3 4 5 6 
#
# 1 0.014112 -0.009182 -0.003718 0.000000 0.000000 0.000000
# 2 -0.009182 0.014673 -0.002439 0.000000 0.000000 0.000000
# 3 -0.003718 -0.002439 0.015238 0.000000 0.000000 0.000000
# 4 0.000000 0.000000 0.000000 0.027703 0.000000 0.000000
# 5 0.000000 0.000000 0.000000 0.000000 0.034522 0.000000
# 6 0.000000 0.000000 0.000000 0.000000 0.000000 0.020505
#
#
# Mechanical properties :
#
#
# Convention : Reuss Voigt Hill
#
# Bulk Modulus (GPa) = 74.93010 88.63155 81.78083
# Shear Modulus (GPa) = 30.88733 34.39089 32.63911
#
# Velocity S-wave (km/s) = 4.04131 4.26436 4.15433
# Velocity P-wave (km/s) = 7.83561 8.43278 8.13967
#
# Compressibility (1/GPa) = 0.01334577
#
# Stress axis : x y z
#
# Youngs Moduli (GPa) = 70.86129 68.15458 65.62449
#
# Poissons Ratio (x) = 0.62578 0.24396
# Poissons Ratio (y) = 0.65063 0.16007
# Poissons Ratio (z) = 0.26343 0.16624
#
# Static dielectric constant tensor:
#      x y z
#    x 4.014270 0.000000 0.000000 
#    y 0.000000 3.543000 0.000000 
#    z 0.000000 0.000000 3.492690 
# 
# 
# High freq. dielectric constant tensor:
#      x y z
#    x 1.751330 0.000000 0.000000 
#    y 0.000000 1.735210 0.000000 
#    z 0.000000 0.000000 1.743200 
# 
# From -- ./inp_files/7803.got.cif
#   From: 2010.03.12/outbox.cif.g09.slc.cpg/sg57_4_cif.got.tgz:7803.got - 2010.04.16 15:48:40.
