data_PCOD8232611
_publ_section_title
;
Structure prediction by ZEFSAII (Michael W. Deem and Ramdas Pophale) SiO2 
 PCOD8232611
Probable space group: P B C M
;
_chemical_formula_sum "Si O2"
_cell_formula_units_Z 56
_cell_length_a 11.495966
_cell_length_b 11.656088
_cell_length_c 20.625414
_cell_angle_alpha 90.000000
_cell_angle_beta 90.000000
_cell_angle_gamma 90.000000
_cell_volume 2763.764047
_symmetry_space_group_name_H-M "P B C M"
_symmetry_group_IT_number 57
_symmetry_cell_setting 'orthorhombic'
loop_
_space_group_symop_operation_xyz
x,y,z
-x,-y,1/2+z
x,1/2-y,-z
-x,1/2+y,1/2-z
-x,-y,-z
x,y,1/2-z
-x,1/2+y,z
x,1/2-y,1/2+z
loop_
_atom_site_type_symbol
_atom_site_label
_atom_site_fract_x
_atom_site_fract_y
_atom_site_fract_z
Si Si1 0.396603 0.346944 0.674400
Si Si2 0.994869 0.807677 0.932879
Si Si3 0.156548 0.504212 0.388643
Si Si4 0.666938 0.178162 0.174873
Si Si5 0.277810 0.927114 0.176300
Si Si6 0.972685 0.133389 0.821758
Si Si7 0.256317 0.226821 0.569183
O O1 0.362840 0.324172 0.750000
O O2 0.533606 0.354887 0.665494
O O3 0.344805 0.465332 0.645202
O O4 0.342465 0.246163 0.629967
O O5 0.042768 0.736406 0.871909
O O6 0.854885 0.812836 0.926946
O O7 0.057587 0.931264 0.930946
O O8 0.033307 0.750000 0.000000
O O9 0.256196 0.587567 0.363688
O O10 0.214134 0.405193 0.432166
O O11 0.088927 0.441379 0.330088
O O12 0.704621 0.175112 0.250000
O O13 0.687231 0.304924 0.144571
O O14 0.321740 0.921879 0.250000
O O15 0.139737 0.948778 0.170907
O O16 0.975266 0.188570 0.750000
O O17 0.319828 0.250000 0.500000
#
# Coordination Sequence:
#
# PCOD8232611 Si02
#       7
#     8   8   8   8   8   8   8
#     4  10  22  39  63  89 118 161 208 249 303 365
#     4  10  22  39  60  89 123 164 202 249 305 377
#     4  11  22  38  62  91 121 160 207 247 311 370
#     4  10  21  37  60  92 125 155 201 257 305 361
#     4   9  18  35  58  86 120 157 192 245 308 355
#     4  10  20  34  58  89 122 155 194 249 306 361
#     4  10  24  42  61  89 126 161 201 259 310 359
#
# _framework density 20.262221
#
# number of rings (size 3 to 8) (size 9 to 14) (size 15 to 20)
#    0.000    2.000    1.429    1.286    2.000    9.714 
#    0.000    1.429    0.000    0.000    0.000    0.000 
#    0.000    0.000    0.000    0.000    0.000    0.000 
#
# Total GULP energy -694231.925002 kJ/mol
# GULP energy per Si atom -12396.998661 kJ/mol
# Density = 2.021610 g / cm^3
# Si number density = 20.262221 Si / 1000 Ang^3
#
#
#
# Elastic Constant Matrix: (Units=GPa)
#
#
# Indices 1 2 3 4 5 6 
#
# 1 73.6177 29.1805 30.4568 0.0000 0.0000 0.0000
# 2 29.1805 90.6479 28.5663 0.0000 0.0000 0.0000
# 3 30.4568 28.5663 102.1772 0.0000 0.0000 0.0000
# 4 0.0000 0.0000 0.0000 23.8885 0.0000 0.0000
# 5 0.0000 0.0000 0.0000 0.0000 15.6275 0.0000
# 6 0.0000 0.0000 0.0000 0.0000 0.0000 31.4619
#
#
#
# Elastic Compliance Matrix: (Units=1/GPa)
#
#
# Indices 1 2 3 4 5 6 
#
# 1 0.016843 -0.004211 -0.003843 0.000000 0.000000 0.000000
# 2 -0.004211 0.013150 -0.002421 0.000000 0.000000 0.000000
# 3 -0.003843 -0.002421 0.011609 0.000000 0.000000 0.000000
# 4 0.000000 0.000000 0.000000 0.041861 0.000000 0.000000
# 5 0.000000 0.000000 0.000000 0.000000 0.063990 0.000000
# 6 0.000000 0.000000 0.000000 0.000000 0.000000 0.031785
#
#
# Mechanical properties :
#
#
# Convention : Reuss Voigt Hill
#
# Bulk Modulus (GPa) = 48.42196 49.20555 48.81375
# Shear Modulus (GPa) = 24.14612 26.07818 25.11215
#
# Velocity S-wave (km/s) = 3.45582 3.59142 3.52427
# Velocity P-wave (km/s) = 6.31452 6.44475 6.37997
#
# Compressibility (1/GPa) = 0.02065179
#
# Stress axis : x y z
#
# Youngs Moduli (GPa) = 59.37281 76.04435 86.13666
#
# Poissons Ratio (x) = 0.32020 0.33104
# Poissons Ratio (y) = 0.25000 0.20857
# Poissons Ratio (z) = 0.22818 0.18413
#
# Static dielectric constant tensor:
#      x y z
#    x 3.592010 0.000000 0.000000 
#    y 0.000000 3.750040 0.000000 
#    z 0.000000 0.000000 3.563470 
# 
# 
# High freq. dielectric constant tensor:
#      x y z
#    x 1.788870 0.000000 0.000000 
#    y 0.000000 1.791570 0.000000 
#    z 0.000000 0.000000 1.770830 
# 
# From -- ./inp_files/24997.got.cif
#   From: 2010.03.12/outbox.cif.g09.slc.cpg/sg57_13_cif.got.tgz:24997.got - 2010.04.16 15:48:40.
