data_PCOD8232529
_publ_section_title
;
Structure prediction by ZEFSAII (Michael W. Deem and Ramdas Pophale) SiO2 
 PCOD8232529
Probable space group: P B C M
;
_chemical_formula_sum "Si O2"
_cell_formula_units_Z 64
_cell_length_a 11.572783
_cell_length_b 30.639504
_cell_length_c 9.160630
_cell_angle_alpha 90.000000
_cell_angle_beta 90.000000
_cell_angle_gamma 90.000000
_cell_volume 3248.215860
_symmetry_space_group_name_H-M "P B C M"
_symmetry_group_IT_number 57
_symmetry_cell_setting 'orthorhombic'
loop_
_space_group_symop_operation_xyz
x,y,z
-x,-y,1/2+z
x,1/2-y,-z
-x,1/2+y,1/2-z
-x,-y,-z
x,y,1/2-z
-x,1/2+y,z
x,1/2-y,1/2+z
loop_
_atom_site_type_symbol
_atom_site_label
_atom_site_fract_x
_atom_site_fract_y
_atom_site_fract_z
Si Si1 0.350250 0.646375 0.590893
Si Si2 0.590396 0.026649 0.088707
Si Si3 0.802335 0.881884 0.921613
Si Si4 0.109114 0.295773 0.075887
Si Si5 0.217074 0.558834 0.587669
Si Si6 0.542251 0.883735 0.591165
Si Si7 0.996541 0.952237 0.924278
Si Si8 0.154114 0.706878 0.921960
O O1 0.374624 0.666395 0.750000
O O2 0.308033 0.597167 0.606724
O O3 0.472541 0.650840 0.507854
O O4 0.243710 0.671388 0.515275
O O5 0.608083 0.006696 0.250000
O O6 0.540318 0.074871 0.101703
O O7 0.713330 0.022593 0.005125
O O8 0.500000 0.000000 0.000000
O O9 0.817712 0.872244 0.750000
O O10 0.671021 0.895380 0.965366
O O11 0.884321 0.922958 0.965185
O O12 0.824833 0.837375 0.010419
O O13 0.130078 0.292328 0.250000
O O14 0.976117 0.305465 0.035425
O O15 0.148361 0.250000 0.000000
O O16 0.182496 0.541029 0.750000
O O17 0.104815 0.573348 0.495622
O O18 0.555758 0.862033 0.750000
O O19 0.009952 0.956999 0.750000
O O20 0.000000 0.000000 0.000000
O O21 0.163509 0.712434 0.750000
O O22 0.195177 0.750000 0.000000
#
# Coordination Sequence:
#
# PCOD8232529 Si02
#       8
#     8   8   8   8   8   8   8   8
#     4   9  18  34  55  79 107 139 178 225 275 329
#     4  10  20  34  55  81 107 140 184 232 284 339
#     4  10  22  40  59  81 115 156 194 239 293 346
#     4  10  20  36  60  89 118 150 190 236 285 345
#     4  10  20  36  56  77 106 141 180 230 282 331
#     4   9  20  37  55  77 107 145 186 230 281 336
#     4  11  24  39  57  83 115 152 194 241 293 352
#     4   9  18  32  52  81 113 140 173 219 274 329
#
# _framework density 19.703125
#
# number of rings (size 3 to 8) (size 9 to 14) (size 15 to 20)
#    0.000    2.250    0.000    2.250    1.750    4.500 
#    0.000    0.625    0.000    1.500    0.000    0.000 
#    0.000    0.000    0.000    0.000    0.000    0.000 
#
# Total GULP energy -792975.056585 kJ/mol
# GULP energy per Si atom -12390.235259 kJ/mol
# Density = 1.965828 g / cm^3
# Si number density = 19.703125 Si / 1000 Ang^3
#
#
#
# Elastic Constant Matrix: (Units=GPa)
#
#
# Indices 1 2 3 4 5 6 
#
# 1 108.4306 11.5490 41.0049 0.0000 0.0000 0.0000
# 2 11.5490 52.1159 25.2111 0.0000 0.0000 0.0000
# 3 41.0049 25.2111 96.5245 0.0000 0.0000 0.0000
# 4 0.0000 0.0000 0.0000 29.7386 0.0000 0.0000
# 5 0.0000 0.0000 0.0000 0.0000 23.9466 0.0000
# 6 0.0000 0.0000 0.0000 0.0000 0.0000 32.4189
#
#
#
# Elastic Compliance Matrix: (Units=1/GPa)
#
#
# Indices 1 2 3 4 5 6 
#
# 1 0.010990 -0.000203 -0.004616 0.000000 0.000000 0.000000
# 2 -0.000203 0.021967 -0.005651 0.000000 0.000000 0.000000
# 3 -0.004616 -0.005651 0.013797 0.000000 0.000000 0.000000
# 4 0.000000 0.000000 0.000000 0.033626 0.000000 0.000000
# 5 0.000000 0.000000 0.000000 0.000000 0.041760 0.000000
# 6 0.000000 0.000000 0.000000 0.000000 0.000000 0.030846
#
#
# Mechanical properties :
#
#
# Convention : Reuss Voigt Hill
#
# Bulk Modulus (GPa) = 38.73850 45.84456 42.29153
# Shear Modulus (GPa) = 27.39290 29.17457 28.28373
#
# Velocity S-wave (km/s) = 3.73269 3.85217 3.79290
# Velocity P-wave (km/s) = 6.18717 6.56535 6.37906
#
# Compressibility (1/GPa) = 0.02581412
#
# Stress axis : x y z
#
# Youngs Moduli (GPa) = 90.99572 45.52328 72.47991
#
# Poissons Ratio (x) = 0.00922 0.33454
# Poissons Ratio (y) = 0.01843 0.40962
# Poissons Ratio (z) = 0.42000 0.25727
#
# Static dielectric constant tensor:
#      x y z
#    x 3.866000 0.000000 0.000000 
#    y 0.000000 3.252980 0.000000 
#    z 0.000000 0.000000 4.046860 
# 
# 
# High freq. dielectric constant tensor:
#      x y z
#    x 1.773650 0.000000 0.000000 
#    y 0.000000 1.742710 0.000000 
#    z 0.000000 0.000000 1.775440 
# 
# From -- ./inp_files/3802.got.cif
#   From: 2010.03.12/outbox.cif.g09.slc.cpg/sg57_2_cif.got.tgz:3802.got - 2010.04.16 15:48:40.
