data_PCOD8232163
_publ_section_title
;
Structure prediction by ZEFSAII (Michael W. Deem and Ramdas Pophale) SiO2 
 PCOD8232163
Probable space group: P B C M
;
_chemical_formula_sum "Si O2"
_cell_formula_units_Z 36
_cell_length_a 10.737089
_cell_length_b 20.592089
_cell_length_c 8.891753
_cell_angle_alpha 90.000000
_cell_angle_beta 90.000000
_cell_angle_gamma 90.000000
_cell_volume 1965.958517
_symmetry_space_group_name_H-M "P B C M"
_symmetry_group_IT_number 57
_symmetry_cell_setting 'orthorhombic'
loop_
_space_group_symop_operation_xyz
x,y,z
-x,-y,1/2+z
x,1/2-y,-z
-x,1/2+y,1/2-z
-x,-y,-z
x,y,1/2-z
-x,1/2+y,z
x,1/2-y,1/2+z
loop_
_atom_site_type_symbol
_atom_site_label
_atom_site_fract_x
_atom_site_fract_y
_atom_site_fract_z
Si Si1 0.826407 0.808269 0.250000
Si Si2 0.991801 0.750000 0.000000
Si Si3 0.161825 0.702073 0.250000
Si Si4 0.326467 0.435126 0.250000
Si Si5 0.607485 0.210061 0.750000
Si Si6 0.612730 0.701193 0.250000
Si Si7 0.665838 0.078888 0.250000
Si Si8 0.487455 0.122667 0.998655
O O1 0.783950 0.882662 0.250000
O O2 0.706260 0.761247 0.250000
O O3 0.906795 0.796594 0.398632
O O4 0.076124 0.796444 0.897550
O O5 0.249498 0.766447 0.250000
O O6 0.229442 0.633440 0.250000
O O7 0.269823 0.507695 0.250000
O O8 0.413239 0.427134 0.395454
O O9 0.530840 0.276557 0.750000
O O10 0.572918 0.171134 0.599519
O O11 0.620722 0.659647 0.403895
O O12 0.579868 0.082827 0.103483
#
# Coordination Sequence:
#
# PCOD8232163 Si02
#       8
#     4   4   4   4   4   4   4   8
#     4  11  21  37  57  78 113 135 190 221 283 318
#     4  10  24  38  56  82 100 146 180 250 268 310
#     4  11  21  37  57  78 113 135 190 221 283 318
#     4  11  22  35  53  78 115 153 179 216 267 339
#     4  11  19  31  60  89 110 138 172 231 291 327
#     4  11  19  31  60  89 110 138 172 231 291 327
#     4  11  22  35  53  78 115 153 179 216 267 339
#     4  10  20  32  52  88 117 139 174 216 284 341
#
# _framework density 18.311679999999999
#
# number of rings (size 3 to 8) (size 9 to 14) (size 15 to 20)
#    0.000    1.333    4.444    4.000    0.000    0.000 
#    0.000    1.111    0.000    0.000    0.000    0.000 
#    0.000    0.000    0.000    0.000    0.000    0.000 
#
# Total GULP energy -446394.587400 kJ/mol
# GULP energy per Si atom -12399.849650 kJ/mol
# Density = 1.827000 g / cm^3
# Si number density = 18.311680 Si / 1000 Ang^3
#
#
#
# Elastic Constant Matrix: (Units=GPa)
#
#
# Indices 1 2 3 4 5 6 
#
# 1 95.6291 49.0813 48.1330 0.0000 0.0000 0.0000
# 2 49.0813 129.5212 52.2493 0.0000 0.0000 0.0000
# 3 48.1330 52.2493 136.5823 0.0000 0.0000 0.0000
# 4 0.0000 0.0000 0.0000 13.8016 0.0000 0.0000
# 5 0.0000 0.0000 0.0000 0.0000 59.5439 0.0000
# 6 0.0000 0.0000 0.0000 0.0000 0.0000 21.0448
#
#
#
# Elastic Compliance Matrix: (Units=1/GPa)
#
#
# Indices 1 2 3 4 5 6 
#
# 1 0.014269 -0.003995 -0.003500 0.000000 0.000000 0.000000
# 2 -0.003995 0.010248 -0.002512 0.000000 0.000000 0.000000
# 3 -0.003500 -0.002512 0.009516 0.000000 0.000000 0.000000
# 4 0.000000 0.000000 0.000000 0.072456 0.000000 0.000000
# 5 0.000000 0.000000 0.000000 0.000000 0.016794 0.000000
# 6 0.000000 0.000000 0.000000 0.000000 0.000000 0.047518
#
#
# Mechanical properties :
#
#
# Convention : Reuss Voigt Hill
#
# Bulk Modulus (GPa) = 71.33760 73.40665 72.37212
# Shear Modulus (GPa) = 25.57671 33.02931 29.30301
#
# Velocity S-wave (km/s) = 3.74136 4.25164 4.00463
# Velocity P-wave (km/s) = 7.59642 8.01725 7.80967
#
# Compressibility (1/GPa) = 0.01401785
#
# Stress axis : x y z
#
# Youngs Moduli (GPa) = 70.07981 97.57741 105.08300
#
# Poissons Ratio (x) = 0.38985 0.36782
# Poissons Ratio (y) = 0.27999 0.26402
# Poissons Ratio (z) = 0.24530 0.24516
#
# Static dielectric constant tensor:
#      x y z
#    x 3.290860 0.000000 0.000000 
#    y 0.000000 3.123810 0.000000 
#    z 0.000000 0.000000 3.896750 
# 
# 
# High freq. dielectric constant tensor:
#      x y z
#    x 1.692890 0.000000 0.000000 
#    y 0.000000 1.689450 0.000000 
#    z 0.000000 0.000000 1.739030 
# 
# From -- ./inp_files/1400.got.cif
#   From: 2010.03.12/outbox.cif.g09.slc.cpg/sg57_1_cif.got.tgz:1400.got - 2010.04.16 15:48:40.
