data_PCOD8232516
_publ_section_title
;
Structure prediction by ZEFSAII (Michael W. Deem and Ramdas Pophale) SiO2 
 PCOD8232516
Probable space group: P B C M
;
_chemical_formula_sum "Si O2"
_cell_formula_units_Z 64
_cell_length_a 12.014625
_cell_length_b 28.397626
_cell_length_c 9.984984
_cell_angle_alpha 90.000000
_cell_angle_beta 90.000000
_cell_angle_gamma 90.000000
_cell_volume 3406.745011
_symmetry_space_group_name_H-M "P B C M"
_symmetry_group_IT_number 57
_symmetry_cell_setting 'orthorhombic'
loop_
_space_group_symop_operation_xyz
x,y,z
-x,-y,1/2+z
x,1/2-y,-z
-x,1/2+y,1/2-z
-x,-y,-z
x,y,1/2-z
-x,1/2+y,z
x,1/2-y,1/2+z
loop_
_atom_site_type_symbol
_atom_site_label
_atom_site_fract_x
_atom_site_fract_y
_atom_site_fract_z
Si Si1 0.252274 0.792585 0.102149
Si Si2 0.192114 0.553428 0.906139
Si Si3 0.987014 0.195946 0.961513
Si Si4 0.362152 0.385169 0.091379
Si Si5 0.771638 0.707072 0.897588
Si Si6 0.979222 0.103080 0.100602
Si Si7 0.386549 0.880713 0.092663
Si Si8 0.786165 0.944859 0.903083
O O1 0.294629 0.777214 0.250000
O O2 0.125864 0.811776 0.122495
O O3 0.327460 0.833605 0.037075
O O4 0.259086 0.750000 0.000000
O O5 0.166104 0.562946 0.750000
O O6 0.313386 0.573748 0.946726
O O7 0.189791 0.498683 0.940605
O O8 0.098380 0.579198 0.991322
O O9 0.102694 0.186441 0.884695
O O10 0.990475 0.250000 0.000000
O O11 0.981422 0.159837 0.086331
O O12 0.351796 0.396003 0.250000
O O13 0.309189 0.334732 0.055236
O O14 0.488803 0.385272 0.037773
O O15 0.304332 0.426229 0.007326
O O16 0.736059 0.724956 0.750000
O O17 0.759662 0.750000 0.000000
O O18 0.937006 0.090775 0.250000
O O19 0.102627 0.084552 0.077015
O O20 0.391815 0.874902 0.250000
O O21 0.742189 0.940631 0.750000
#
# Coordination Sequence:
#
# PCOD8232516 Si02
#       8
#     8   8   8   8   8   8   8   8
#     4  10  20  35  56  81 112 149 186 229 280 338
#     4  10  21  39  61  84 114 153 190 231 289 351
#     4  10  20  34  54  82 112 150 177 221 275 342
#     4  10  21  38  59  82 111 150 196 237 279 334
#     4  10  21  35  55  83 112 148 188 229 279 339
#     4  11  22  37  59  88 119 148 182 235 286 335
#     4   9  19  37  58  81 111 150 191 234 282 333
#     4  10  22  39  59  85 116 149 188 237 293 340
#
# _framework density 18.786261
#
# number of rings (size 3 to 8) (size 9 to 14) (size 15 to 20)
#    0.000    2.000    2.500    0.750    0.000    7.000 
#    0.000    1.250    0.000    0.000    0.000    0.000 
#    0.000    0.000    0.000    0.000    0.000    0.000 
#
# Total GULP energy -793271.381041 kJ/mol
# GULP energy per Si atom -12394.865329 kJ/mol
# Density = 1.874350 g / cm^3
# Si number density = 18.786261 Si / 1000 Ang^3
#
#
#
# Elastic Constant Matrix: (Units=GPa)
#
#
# Indices 1 2 3 4 5 6 
#
# 1 94.8536 43.2584 31.7852 0.0000 0.0000 0.0000
# 2 43.2584 121.9073 49.3260 0.0000 0.0000 0.0000
# 3 31.7852 49.3260 76.2879 0.0000 0.0000 0.0000
# 4 0.0000 0.0000 0.0000 29.6277 0.0000 0.0000
# 5 0.0000 0.0000 0.0000 0.0000 21.0147 0.0000
# 6 0.0000 0.0000 0.0000 0.0000 0.0000 7.0178
#
#
#
# Elastic Compliance Matrix: (Units=1/GPa)
#
#
# Indices 1 2 3 4 5 6 
#
# 1 0.013178 -0.003324 -0.003341 0.000000 0.000000 0.000000
# 2 -0.003324 0.011948 -0.006340 0.000000 0.000000 0.000000
# 3 -0.003341 -0.006340 0.018600 0.000000 0.000000 0.000000
# 4 0.000000 0.000000 0.000000 0.033752 0.000000 0.000000
# 5 0.000000 0.000000 0.000000 0.000000 0.047586 0.000000
# 6 0.000000 0.000000 0.000000 0.000000 0.000000 0.142495
#
#
# Mechanical properties :
#
#
# Convention : Reuss Voigt Hill
#
# Bulk Modulus (GPa) = 56.45112 60.19867 58.32490
# Shear Modulus (GPa) = 16.69583 22.77730 19.73657
#
# Velocity S-wave (km/s) = 2.98438 3.48580 3.24479
# Velocity P-wave (km/s) = 6.47995 6.95087 6.71954
#
# Compressibility (1/GPa) = 0.01771444
#
# Stress axis : x y z
#
# Youngs Moduli (GPa) = 75.88232 83.69631 53.76396
#
# Poissons Ratio (x) = 0.27823 0.17964
# Poissons Ratio (y) = 0.25226 0.34087
# Poissons Ratio (z) = 0.25354 0.53065
#
# Static dielectric constant tensor:
#      x y z
#    x 3.858070 0.000000 0.000000 
#    y 0.000000 3.490350 0.000000 
#    z 0.000000 0.000000 3.283800 
# 
# 
# High freq. dielectric constant tensor:
#      x y z
#    x 1.730750 0.000000 0.000000 
#    y 0.000000 1.735630 0.000000 
#    z 0.000000 0.000000 1.714250 
# 
# From -- ./inp_files/3898.got.cif
#   From: 2010.03.12/outbox.cif.g09.slc.cpg/sg57_2_cif.got.tgz:3898.got - 2010.04.16 15:48:40.
