data_PCOD8232898
_publ_section_title
;
Structure prediction by ZEFSAII (Michael W. Deem and Ramdas Pophale) SiO2 
 PCOD8232898
Probable space group: P B C M
;
_chemical_formula_sum "Si O2"
_cell_formula_units_Z 64
_cell_length_a 13.823755
_cell_length_b 10.740685
_cell_length_c 18.516556
_cell_angle_alpha 90.000000
_cell_angle_beta 90.000000
_cell_angle_gamma 90.000000
_cell_volume 2749.275241
_symmetry_space_group_name_H-M "P B C M"
_symmetry_group_IT_number 57
_symmetry_cell_setting 'orthorhombic'
loop_
_space_group_symop_operation_xyz
x,y,z
-x,-y,1/2+z
x,1/2-y,-z
-x,1/2+y,1/2-z
-x,-y,-z
x,y,1/2-z
-x,1/2+y,z
x,1/2-y,1/2+z
loop_
_atom_site_type_symbol
_atom_site_label
_atom_site_fract_x
_atom_site_fract_y
_atom_site_fract_z
Si Si1 0.222386 0.572754 0.333833
Si Si2 0.281080 0.977756 0.418074
Si Si3 0.091295 0.142724 0.832088
Si Si4 0.273107 0.220198 0.332347
Si Si5 0.475737 0.637274 0.607376
Si Si6 0.124500 0.663415 0.665707
Si Si7 0.436286 0.600723 0.167874
Si Si8 0.664975 0.870087 0.457674
O O1 0.234979 0.536973 0.250000
O O2 0.151685 0.469226 0.370606
O O3 0.169982 0.702701 0.344563
O O4 0.330381 0.577518 0.370284
O O5 0.312481 0.096876 0.370323
O O6 0.278704 0.015830 0.503144
O O7 0.363009 0.872218 0.412151
O O8 0.179739 0.930559 0.387478
O O9 0.072605 0.103039 0.750000
O O10 0.155463 0.269467 0.836334
O O11 0.985146 0.165599 0.864919
O O12 0.310536 0.223251 0.250000
O O13 0.312772 0.346214 0.372141
O O14 0.499185 0.523590 0.662268
O O15 0.492163 0.777760 0.636454
O O16 0.547467 0.615952 0.538258
O O17 0.133753 0.621363 0.750000
O O18 0.416000 0.635906 0.250000
O O19 0.702886 0.750000 0.500000
#
# Coordination Sequence:
#
# PCOD8232898 Si02
#       8
#     8   8   8   8   8   8   8   8
#     4   9  18  34  53  82 127 165 200 259 322 372
#     4  11  23  39  60  89 125 163 212 262 317 375
#     4   9  19  34  60  92 125 164 208 257 319 388
#     4  10  21  39  64  93 121 158 208 260 315 384
#     4  12  24  40  63  90 125 177 220 260 321 396
#     4  10  20  35  58  90 125 163 210 263 315 375
#     4  11  23  38  62  97 135 167 211 274 329 379
#     4  10  23  43  64  90 127 170 210 263 322 382
#
# _framework density 23.278862
#
# number of rings (size 3 to 8) (size 9 to 14) (size 15 to 20)
#    0.000    1.750    1.250    3.375    1.750    4.500 
#    0.000    0.625    0.000    0.000    0.000    0.000 
#    0.000    0.000    0.000    0.000    0.000    0.000 
#
# Total GULP energy -793057.476614 kJ/mol
# GULP energy per Si atom -12391.523072 kJ/mol
# Density = 2.322588 g / cm^3
# Si number density = 23.278862 Si / 1000 Ang^3
#
#
#
# Elastic Constant Matrix: (Units=GPa)
#
#
# Indices 1 2 3 4 5 6 
#
# 1 103.0313 19.7648 -2.4108 0.0000 0.0000 0.0000
# 2 19.7648 84.3563 5.7649 0.0000 0.0000 0.0000
# 3 -2.4108 5.7649 64.0305 0.0000 0.0000 0.0000
# 4 0.0000 0.0000 0.0000 19.4037 0.0000 0.0000
# 5 0.0000 0.0000 0.0000 0.0000 28.7651 0.0000
# 6 0.0000 0.0000 0.0000 0.0000 0.0000 37.1002
#
#
#
# Elastic Compliance Matrix: (Units=1/GPa)
#
#
# Indices 1 2 3 4 5 6 
#
# 1 0.010186 -0.002428 0.000602 0.000000 0.000000 0.000000
# 2 -0.002428 0.012506 -0.001217 0.000000 0.000000 0.000000
# 3 0.000602 -0.001217 0.015750 0.000000 0.000000 0.000000
# 4 0.000000 0.000000 0.000000 0.051537 0.000000 0.000000
# 5 0.000000 0.000000 0.000000 0.000000 0.034764 0.000000
# 6 0.000000 0.000000 0.000000 0.000000 0.000000 0.026954
#
#
# Mechanical properties :
#
#
# Convention : Reuss Voigt Hill
#
# Bulk Modulus (GPa) = 30.90627 33.07290 31.98958
# Shear Modulus (GPa) = 29.66160 32.27374 30.96767
#
# Velocity S-wave (km/s) = 3.57345 3.72747 3.65127
# Velocity P-wave (km/s) = 5.50739 5.72394 5.61671
#
# Compressibility (1/GPa) = 0.03235590
#
# Stress axis : x y z
#
# Youngs Moduli (GPa) = 98.17805 79.95853 63.49278
#
# Poissons Ratio (x) = 0.19411 -0.03823
# Poissons Ratio (y) = 0.23834 0.07730
# Poissons Ratio (z) = -0.05911 0.09734
#
# Static dielectric constant tensor:
#      x y z
#    x 4.404190 0.000000 0.000000 
#    y 0.000000 4.195660 0.000000 
#    z 0.000000 0.000000 3.992070 
# 
# 
# High freq. dielectric constant tensor:
#      x y z
#    x 1.923600 0.000000 0.000000 
#    y 0.000000 1.929920 0.000000 
#    z 0.000000 0.000000 1.885780 
# 
# From -- ./inp_files/22658.got.cif
#   From: 2010.03.12/outbox.cif.g09.slc.cpg/sg57_12_cif.got.tgz:22658.got - 2010.04.16 15:48:40.
