data_PCOD8232614
_publ_section_title
;
Structure prediction by ZEFSAII (Michael W. Deem and Ramdas Pophale) SiO2 
 PCOD8232614
Probable space group: P B C M
;
_chemical_formula_sum "Si O2"
_cell_formula_units_Z 56
_cell_length_a 20.559258
_cell_length_b 9.021065
_cell_length_c 14.539690
_cell_angle_alpha 90.000000
_cell_angle_beta 90.000000
_cell_angle_gamma 90.000000
_cell_volume 2696.624002
_symmetry_space_group_name_H-M "P B C M"
_symmetry_group_IT_number 57
_symmetry_cell_setting 'orthorhombic'
loop_
_space_group_symop_operation_xyz
x,y,z
-x,-y,1/2+z
x,1/2-y,-z
-x,1/2+y,1/2-z
-x,-y,-z
x,y,1/2-z
-x,1/2+y,z
x,1/2-y,1/2+z
loop_
_atom_site_type_symbol
_atom_site_label
_atom_site_fract_x
_atom_site_fract_y
_atom_site_fract_z
Si Si1 0.348646 0.452027 0.854110
Si Si2 0.693837 0.417122 0.526067
Si Si3 0.529732 0.381596 0.434358
Si Si4 0.012422 0.443058 0.250000
Si Si5 0.394484 0.123794 0.853478
Si Si6 0.944302 0.594929 0.549179
Si Si7 0.091721 0.724686 0.250000
Si Si8 0.833470 0.377455 0.926521
O O1 0.325494 0.485035 0.750000
O O2 0.412525 0.550804 0.873653
O O3 0.357746 0.277705 0.869427
O O4 0.293963 0.500968 0.927811
O O5 0.674650 0.250000 0.500000
O O6 0.633729 0.497115 0.578402
O O7 0.758970 0.430296 0.587874
O O8 0.555122 0.250000 0.500000
O O9 0.500000 0.500000 0.500000
O O10 0.470326 0.336350 0.367701
O O11 0.935988 0.393748 0.250000
O O12 0.043293 0.375905 0.157135
O O13 0.026670 0.619716 0.250000
O O14 0.384487 0.064832 0.750000
O O15 0.939706 0.750000 0.500000
O O16 0.875627 0.514038 0.537040
O O17 0.000000 0.500000 0.500000
O O18 0.136997 0.692989 0.335658
O O19 0.833439 0.250000 0.000000
#
# Coordination Sequence:
#
# PCOD8232614 Si02
#       8
#     8   8   8   4   8   8   4   8
#     4  11  24  42  64  93 127 167 218 274 333 392
#     4  11  24  43  63  88 124 168 220 268 321 385
#     4  12  21  39  64  93 128 165 206 269 333 396
#     4  10  20  34  58  94 124 156 200 244 304 366
#     4  11  24  41  65  92 125 170 214 264 333 396
#     4  11  21  36  62  91 125 163 201 252 313 373
#     4  10  20  38  64  92 132 164 202 258 306 384
#     4  10  23  41  61  90 123 167 211 260 315 375
#
# _framework density 20.766705999999999
#
# number of rings (size 3 to 8) (size 9 to 14) (size 15 to 20)
#    0.000    1.143    2.857    4.286    1.000    1.714 
#    3.857    0.000    0.000    0.000    0.000    0.000 
#    0.000    0.000    0.000    0.000    0.000    0.000 
#
# Total GULP energy -694107.463288 kJ/mol
# GULP energy per Si atom -12394.776130 kJ/mol
# Density = 2.071944 g / cm^3
# Si number density = 20.766706 Si / 1000 Ang^3
#
#
#
# Elastic Constant Matrix: (Units=GPa)
#
#
# Indices 1 2 3 4 5 6 
#
# 1 113.4733 22.1407 23.3670 0.0000 0.0000 0.0000
# 2 22.1407 79.7439 29.5604 0.0000 0.0000 0.0000
# 3 23.3670 29.5604 104.9204 0.0000 0.0000 0.0000
# 4 0.0000 0.0000 0.0000 24.2849 0.0000 0.0000
# 5 0.0000 0.0000 0.0000 0.0000 27.5069 0.0000
# 6 0.0000 0.0000 0.0000 0.0000 0.0000 29.6223
#
#
#
# Elastic Compliance Matrix: (Units=1/GPa)
#
#
# Indices 1 2 3 4 5 6 
#
# 1 0.009535 -0.002077 -0.001538 0.000000 0.000000 0.000000
# 2 -0.002077 0.014455 -0.003610 0.000000 0.000000 0.000000
# 3 -0.001538 -0.003610 0.010891 0.000000 0.000000 0.000000
# 4 0.000000 0.000000 0.000000 0.041178 0.000000 0.000000
# 5 0.000000 0.000000 0.000000 0.000000 0.036354 0.000000
# 6 0.000000 0.000000 0.000000 0.000000 0.000000 0.033758
#
#
# Mechanical properties :
#
#
# Convention : Reuss Voigt Hill
#
# Bulk Modulus (GPa) = 48.94822 49.80820 49.37821
# Shear Modulus (GPa) = 29.86293 31.15413 30.50853
#
# Velocity S-wave (km/s) = 3.79624 3.87744 3.83705
# Velocity P-wave (km/s) = 6.54499 6.63948 6.59241
#
# Compressibility (1/GPa) = 0.02042975
#
# Stress axis : x y z
#
# Youngs Moduli (GPa) = 104.88016 69.18002 91.82130
#
# Poissons Ratio (x) = 0.14369 0.14125
# Poissons Ratio (y) = 0.21784 0.33147
# Poissons Ratio (z) = 0.16134 0.24974
#
# Static dielectric constant tensor:
#      x y z
#    x 3.996470 0.000000 0.000000 
#    y 0.000000 3.842030 0.000000 
#    z 0.000000 0.000000 4.315030 
# 
# 
# High freq. dielectric constant tensor:
#      x y z
#    x 1.799020 0.000000 0.000000 
#    y 0.000000 1.820240 0.000000 
#    z 0.000000 0.000000 1.825870 
# 
# From -- ./inp_files/19399.got.cif
#   From: 2010.03.12/outbox.cif.g09.slc.cpg/sg57_10_cif.got.tgz:19399.got - 2010.04.16 15:48:40.
