data_PCOD8232446
_publ_section_title
;
Structure prediction by ZEFSAII (Michael W. Deem and Ramdas Pophale) SiO2 
 PCOD8232446
Probable space group: P B C M
;
_chemical_formula_sum "Si O2"
_cell_formula_units_Z 40
_cell_length_a 26.032668
_cell_length_b 9.120279
_cell_length_c 8.709752
_cell_angle_alpha 90.000000
_cell_angle_beta 90.000000
_cell_angle_gamma 90.000000
_cell_volume 2067.914569
_symmetry_space_group_name_H-M "P B C M"
_symmetry_group_IT_number 57
_symmetry_cell_setting 'orthorhombic'
loop_
_space_group_symop_operation_xyz
x,y,z
-x,-y,1/2+z
x,1/2-y,-z
-x,1/2+y,1/2-z
-x,-y,-z
x,y,1/2-z
-x,1/2+y,z
x,1/2-y,1/2+z
loop_
_atom_site_type_symbol
_atom_site_label
_atom_site_fract_x
_atom_site_fract_y
_atom_site_fract_z
Si Si1 0.047427 0.588247 0.067096
Si Si2 0.758599 0.410118 0.070892
Si Si3 0.657211 0.409586 0.571050
Si Si4 0.859324 0.911264 0.931426
Si Si5 0.454802 0.591406 0.071353
O O1 0.043975 0.593992 0.250000
O O2 0.046074 0.750000 0.000000
O O3 0.099436 0.511227 0.015686
O O4 0.000000 0.500000 0.000000
O O5 0.753164 0.386996 0.250000
O O6 0.804287 0.519812 0.029056
O O7 0.768713 0.250000 0.000000
O O8 0.706202 0.488132 0.007612
O O9 0.654736 0.250000 0.500000
O O10 0.668395 0.398157 0.750000
O O11 0.601331 0.484329 0.539944
O O12 0.870370 0.907295 0.750000
O O13 0.861985 0.750000 0.000000
O O14 0.465036 0.607107 0.250000
O O15 0.456132 0.750000 0.000000
O O16 0.500000 0.500000 0.000000
#
# Coordination Sequence:
#
# PCOD8232446 Si02
#       5
#     8   8   8   8   8
#     4  12  25  43  66  92 122 156 194 237 283 333
#     4  10  20  34  56  83 110 142 183 229 278 330
#     4   9  17  30  51  77 105 138 179 224 274 329
#     4  11  24  41  60  86 118 154 193 234 282 335
#     4  10  20  34  53  78 107 142 182 228 278 333
#
# _framework density 19.343160000000001
#
# number of rings (size 3 to 8) (size 9 to 14) (size 15 to 20)
#    0.000    1.600    0.000    6.600    0.000    7.200 
#    0.000    1.000    0.000    2.400    0.000    0.000 
#    0.000    0.000    0.000    0.000    0.000    0.000 
#
# Total GULP energy -495830.195734 kJ/mol
# GULP energy per Si atom -12395.754893 kJ/mol
# Density = 1.929913 g / cm^3
# Si number density = 19.343160 Si / 1000 Ang^3
#
#
#
# Elastic Constant Matrix: (Units=GPa)
#
#
# Indices 1 2 3 4 5 6 
#
# 1 186.1230 75.1381 95.7332 0.0000 0.0000 0.0000
# 2 75.1381 112.6291 60.6332 0.0000 0.0000 0.0000
# 3 95.7332 60.6332 153.5759 0.0000 0.0000 0.0000
# 4 0.0000 0.0000 0.0000 32.9822 0.0000 0.0000
# 5 0.0000 0.0000 0.0000 0.0000 36.7579 0.0000
# 6 0.0000 0.0000 0.0000 0.0000 0.0000 31.9158
#
#
#
# Elastic Compliance Matrix: (Units=1/GPa)
#
#
# Indices 1 2 3 4 5 6 
#
# 1 0.009031 -0.003803 -0.004129 0.000000 0.000000 0.000000
# 2 -0.003803 0.012876 -0.002713 0.000000 0.000000 0.000000
# 3 -0.004129 -0.002713 0.010156 0.000000 0.000000 0.000000
# 4 0.000000 0.000000 0.000000 0.030319 0.000000 0.000000
# 5 0.000000 0.000000 0.000000 0.000000 0.027205 0.000000
# 6 0.000000 0.000000 0.000000 0.000000 0.000000 0.031332
#
#
# Mechanical properties :
#
#
# Convention : Reuss Voigt Hill
#
# Bulk Modulus (GPa) = 92.80668 101.70411 97.25540
# Shear Modulus (GPa) = 34.29330 35.05275 34.67302
#
# Velocity S-wave (km/s) = 4.21514 4.26156 4.23841
# Velocity P-wave (km/s) = 8.47190 8.76969 8.62208
#
# Compressibility (1/GPa) = 0.01077509
#
# Stress axis : x y z
#
# Youngs Moduli (GPa) = 110.72446 77.66301 98.46157
#
# Poissons Ratio (x) = 0.29532 0.40651
# Poissons Ratio (y) = 0.42103 0.26715
# Poissons Ratio (z) = 0.45713 0.21072
#
# Static dielectric constant tensor:
#      x y z
#    x 4.480330 0.000000 0.000000 
#    y 0.000000 3.261620 0.000000 
#    z 0.000000 0.000000 3.788340 
# 
# 
# High freq. dielectric constant tensor:
#      x y z
#    x 1.784010 0.000000 0.000000 
#    y 0.000000 1.723410 0.000000 
#    z 0.000000 0.000000 1.775530 
# 
# From -- ./inp_files/8865.got.cif
#   From: 2010.03.12/outbox.cif.g09.slc.cpg/sg57_5_cif.got.tgz:8865.got - 2010.04.16 15:48:40.
