data_PCOD8232782
_publ_section_title
;
Structure prediction by ZEFSAII (Michael W. Deem and Ramdas Pophale) SiO2 
 PCOD8232782
Probable space group: P B C M
;
_chemical_formula_sum "Si O2"
_cell_formula_units_Z 56
_cell_length_a 16.580591
_cell_length_b 21.095755
_cell_length_c 8.591579
_cell_angle_alpha 90.000000
_cell_angle_beta 90.000000
_cell_angle_gamma 90.000000
_cell_volume 3005.163237
_symmetry_space_group_name_H-M "P B C M"
_symmetry_group_IT_number 57
_symmetry_cell_setting 'orthorhombic'
loop_
_space_group_symop_operation_xyz
x,y,z
-x,-y,1/2+z
x,1/2-y,-z
-x,1/2+y,1/2-z
-x,-y,-z
x,y,1/2-z
-x,1/2+y,z
x,1/2-y,1/2+z
loop_
_atom_site_type_symbol
_atom_site_label
_atom_site_fract_x
_atom_site_fract_y
_atom_site_fract_z
Si Si1 0.953877 0.561036 0.933983
Si Si2 0.647436 0.181373 0.931955
Si Si3 0.794351 0.981287 0.567570
Si Si4 0.380820 0.031211 0.931733
Si Si5 0.796772 0.113340 0.428900
Si Si6 0.525489 0.403987 0.569278
Si Si7 0.957655 0.318485 0.569693
O O1 0.951114 0.554022 0.750000
O O2 0.863582 0.564693 0.002492
O O3 0.995114 0.626897 0.979513
O O4 0.000000 0.500000 0.000000
O O5 0.664474 0.181890 0.750000
O O6 0.659186 0.250000 0.000000
O O7 0.710051 0.135850 0.016918
O O8 0.558272 0.155735 0.971159
O O9 0.784192 0.971718 0.750000
O O10 0.822223 0.052874 0.530587
O O11 0.710827 0.963952 0.485229
O O12 0.387262 0.044656 0.750000
O O13 0.417865 0.963231 0.975422
O O14 0.433151 0.084206 0.020876
O O15 0.790946 0.091341 0.250000
O O16 0.862230 0.168801 0.451427
O O17 0.529696 0.387272 0.750000
O O18 0.978981 0.250000 0.500000
O O19 0.982608 0.320003 0.750000
#
# Coordination Sequence:
#
# PCOD8232782 Si02
#       7
#     8   8   8   8   8   8   8
#     4  12  24  40  62  88 120 157 202 251 302 356
#     4  12  24  37  55  80 116 157 198 238 287 345
#     4  12  23  36  59  88 121 156 195 242 298 351
#     4  10  20  35  57  83 115 148 186 233 286 338
#     4  11  22  37  57  84 120 157 197 240 291 353
#     4  10  20  35  56  81 113 148 190 234 282 338
#     4  11  24  41  62  87 120 159 203 248 300 360
#
# _framework density 18.634595000000001
#
# number of rings (size 3 to 8) (size 9 to 14) (size 15 to 20)
#    0.000    0.857    2.857    6.000    0.000    4.000 
#    0.000    0.000    0.000    0.857    0.000    6.000 
#    0.000    0.000    0.000    0.000    0.000    0.000 
#
# Total GULP energy -694687.716991 kJ/mol
# GULP energy per Si atom -12405.137803 kJ/mol
# Density = 1.859218 g / cm^3
# Si number density = 18.634595 Si / 1000 Ang^3
#
#
#
# Elastic Constant Matrix: (Units=GPa)
#
#
# Indices 1 2 3 4 5 6 
#
# 1 96.8512 25.1669 23.6296 0.0000 0.0000 0.0000
# 2 25.1669 73.5152 17.5539 0.0000 0.0000 0.0000
# 3 23.6296 17.5539 69.2954 0.0000 0.0000 0.0000
# 4 0.0000 0.0000 0.0000 32.3572 0.0000 0.0000
# 5 0.0000 0.0000 0.0000 0.0000 34.3505 0.0000
# 6 0.0000 0.0000 0.0000 0.0000 0.0000 24.3426
#
#
#
# Elastic Compliance Matrix: (Units=1/GPa)
#
#
# Indices 1 2 3 4 5 6 
#
# 1 0.011981 -0.003327 -0.003243 0.000000 0.000000 0.000000
# 2 -0.003327 0.015402 -0.002767 0.000000 0.000000 0.000000
# 3 -0.003243 -0.002767 0.016238 0.000000 0.000000 0.000000
# 4 0.000000 0.000000 0.000000 0.030905 0.000000 0.000000
# 5 0.000000 0.000000 0.000000 0.000000 0.029112 0.000000
# 6 0.000000 0.000000 0.000000 0.000000 0.000000 0.041080
#
#
# Mechanical properties :
#
#
# Convention : Reuss Voigt Hill
#
# Bulk Modulus (GPa) = 40.08500 41.37359 40.72930
# Shear Modulus (GPa) = 29.11933 29.76417 29.44175
#
# Velocity S-wave (km/s) = 3.95732 4.00090 3.97917
# Velocity P-wave (km/s) = 6.51447 6.60255 6.55866
#
# Compressibility (1/GPa) = 0.02494699
#
# Stress axis : x y z
#
# Youngs Moduli (GPa) = 83.46683 64.92501 61.58519
#
# Poissons Ratio (x) = 0.21602 0.19970
# Poissons Ratio (y) = 0.27771 0.17042
# Poissons Ratio (z) = 0.27065 0.17966
#
# Static dielectric constant tensor:
#      x y z
#    x 3.565030 0.000000 0.000000 
#    y 0.000000 3.303170 0.000000 
#    z 0.000000 0.000000 3.551040 
# 
# 
# High freq. dielectric constant tensor:
#      x y z
#    x 1.726520 0.000000 0.000000 
#    y 0.000000 1.699930 0.000000 
#    z 0.000000 0.000000 1.743710 
# 
# From -- ./inp_files/5142.got.cif
#   From: 2010.03.12/outbox.cif.g09.slc.cpg/sg57_3_cif.got.tgz:5142.got - 2010.04.16 15:48:40.
