data_PCOD8232744
_publ_section_title
;
Structure prediction by ZEFSAII (Michael W. Deem and Ramdas Pophale) SiO2 
 PCOD8232744
Probable space group: P B C M
;
_chemical_formula_sum "Si O2"
_cell_formula_units_Z 48
_cell_length_a 15.117676
_cell_length_b 18.727156
_cell_length_c 8.717110
_cell_angle_alpha 90.000000
_cell_angle_beta 90.000000
_cell_angle_gamma 90.000000
_cell_volume 2467.910399
_symmetry_space_group_name_H-M "P B C M"
_symmetry_group_IT_number 57
_symmetry_cell_setting 'orthorhombic'
loop_
_space_group_symop_operation_xyz
x,y,z
-x,-y,1/2+z
x,1/2-y,-z
-x,1/2+y,1/2-z
-x,-y,-z
x,y,1/2-z
-x,1/2+y,z
x,1/2-y,1/2+z
loop_
_atom_site_type_symbol
_atom_site_label
_atom_site_fract_x
_atom_site_fract_y
_atom_site_fract_z
Si Si1 0.838513 0.906442 0.069782
Si Si2 0.489290 0.674518 0.567940
Si Si3 0.648461 0.059804 0.569876
Si Si4 0.652310 0.899550 0.568404
Si Si5 0.013775 0.826172 0.070149
Si Si6 0.847473 0.442498 0.068723
O O1 0.818707 0.906576 0.250000
O O2 0.915727 0.851382 0.025051
O O3 0.752179 0.880428 0.978580
O O4 0.870177 0.984676 0.018830
O O5 0.459942 0.750000 0.500000
O O6 0.485796 0.678403 0.750000
O O7 0.421209 0.615691 0.498796
O O8 0.587806 0.655786 0.513998
O O9 0.635772 0.059245 0.750000
O O10 0.748102 0.082819 0.526626
O O11 0.629607 0.979650 0.509067
O O12 0.642605 0.892101 0.750000
O O13 0.025085 0.820123 0.250000
O O14 0.085629 0.882595 0.007270
O O15 0.034986 0.750000 0.000000
O O16 0.856706 0.456915 0.250000
#
# Coordination Sequence:
#
# PCOD8232744 Si02
#       6
#     8   8   8   8   8   8
#     4  10  20  35  55  82 109 139 180 225 267 316
#     4  11  22  36  53  78 110 143 176 216 263 319
#     4   8  17  34  57  80 105 136 174 217 264 313
#     4  10  20  37  59  81 104 138 179 224 272 317
#     4  10  22  36  53  78 111 145 179 218 265 318
#     4   9  18  36  58  81 107 139 178 222 266 315
#
# _framework density 19.449652
#
# number of rings (size 3 to 8) (size 9 to 14) (size 15 to 20)
#    0.000    2.333    0.000    3.500    0.000    3.333 
#    0.000    9.167    0.000    0.000    0.000    0.000 
#    0.000    0.000    0.000    0.000    0.000    0.000 
#
# Total GULP energy -595275.292764 kJ/mol
# GULP energy per Si atom -12401.568599 kJ/mol
# Density = 1.940538 g / cm^3
# Si number density = 19.449652 Si / 1000 Ang^3
#
#
#
# Elastic Constant Matrix: (Units=GPa)
#
#
# Indices 1 2 3 4 5 6 
#
# 1 60.8058 18.6582 19.3909 0.0000 0.0000 0.0000
# 2 18.6582 59.3024 16.3735 0.0000 0.0000 0.0000
# 3 19.3909 16.3735 46.6047 0.0000 0.0000 0.0000
# 4 0.0000 0.0000 0.0000 33.1712 0.0000 0.0000
# 5 0.0000 0.0000 0.0000 0.0000 23.5259 0.0000
# 6 0.0000 0.0000 0.0000 0.0000 0.0000 23.6697
#
#
#
# Elastic Compliance Matrix: (Units=1/GPa)
#
#
# Indices 1 2 3 4 5 6 
#
# 1 0.019953 -0.004414 -0.006751 0.000000 0.000000 0.000000
# 2 -0.004414 0.019651 -0.005067 0.000000 0.000000 0.000000
# 3 -0.006751 -0.005067 0.026046 0.000000 0.000000 0.000000
# 4 0.000000 0.000000 0.000000 0.030147 0.000000 0.000000
# 5 0.000000 0.000000 0.000000 0.000000 0.042506 0.000000
# 6 0.000000 0.000000 0.000000 0.000000 0.000000 0.042248
#
#
# Mechanical properties :
#
#
# Convention : Reuss Voigt Hill
#
# Bulk Modulus (GPa) = 30.13380 30.61755 30.37567
# Shear Modulus (GPa) = 22.31370 23.55938 22.93654
#
# Velocity S-wave (km/s) = 3.39079 3.48415 3.43779
# Velocity P-wave (km/s) = 5.55489 5.65348 5.60440
#
# Compressibility (1/GPa) = 0.03318533
#
# Stress axis : x y z
#
# Youngs Moduli (GPa) = 50.11743 50.88923 38.39308
#
# Poissons Ratio (x) = 0.22461 0.25920
# Poissons Ratio (y) = 0.22121 0.19455
# Poissons Ratio (z) = 0.33836 0.25787
#
# Static dielectric constant tensor:
#      x y z
#    x 3.739480 0.000000 0.000000 
#    y 0.000000 3.828670 0.000000 
#    z 0.000000 0.000000 3.337300 
# 
# 
# High freq. dielectric constant tensor:
#      x y z
#    x 1.768040 0.000000 0.000000 
#    y 0.000000 1.754180 0.000000 
#    z 0.000000 0.000000 1.742950 
# 
# From -- ./inp_files/4551.got.cif
#   From: 2010.03.12/outbox.cif.g09.slc.cpg/sg57_3_cif.got.tgz:4551.got - 2010.04.16 15:48:40.
