data_PCOD8232645
_publ_section_title
;
Structure prediction by ZEFSAII (Michael W. Deem and Ramdas Pophale) SiO2 
 PCOD8232645
Probable space group: P B C M
;
_chemical_formula_sum "Si O2"
_cell_formula_units_Z 64
_cell_length_a 13.039336
_cell_length_b 18.405127
_cell_length_c 14.107487
_cell_angle_alpha 90.000000
_cell_angle_beta 90.000000
_cell_angle_gamma 90.000000
_cell_volume 3385.664764
_symmetry_space_group_name_H-M "P B C M"
_symmetry_group_IT_number 57
_symmetry_cell_setting 'orthorhombic'
loop_
_space_group_symop_operation_xyz
x,y,z
-x,-y,1/2+z
x,1/2-y,-z
-x,1/2+y,1/2-z
-x,-y,-z
x,y,1/2-z
-x,1/2+y,z
x,1/2-y,1/2+z
loop_
_atom_site_type_symbol
_atom_site_label
_atom_site_fract_x
_atom_site_fract_y
_atom_site_fract_z
Si Si1 0.549189 0.310506 0.860130
Si Si2 0.230315 0.464967 0.965958
Si Si3 0.346826 0.665017 0.641226
Si Si4 0.590295 0.057268 0.010473
Si Si5 0.943244 0.633642 0.968243
Si Si6 0.108737 0.272623 0.641860
Si Si7 0.323529 0.163858 0.142886
Si Si8 0.861521 0.409396 0.358020
O O1 0.570368 0.318556 0.750000
O O2 0.618213 0.243764 0.899623
O O3 0.429199 0.295183 0.883470
O O4 0.579685 0.387577 0.903228
O O5 0.301467 0.516812 0.029881
O O6 0.306045 0.404305 0.924674
O O7 0.183939 0.510745 0.878172
O O8 0.140366 0.430700 0.030170
O O9 0.380502 0.657899 0.750000
O O10 0.407983 0.602270 0.587119
O O11 0.224368 0.653621 0.629281
O O12 0.500000 0.000000 0.000000
O O13 0.914414 0.690868 0.887221
O O14 0.052483 0.602301 0.937880
O O15 0.949363 0.670427 0.072777
O O16 0.072597 0.287188 0.750000
O O17 0.230906 0.279672 0.630211
O O18 0.328825 0.134345 0.250000
O O19 0.903957 0.408240 0.250000
#
# Coordination Sequence:
#
# PCOD8232645 Si02
#       8
#     8   8   8   8   8   8   8   8
#     4  10  20  37  57  82 114 151 191 231 280 340
#     4  10  20  35  53  82 114 144 194 230 282 337
#     4   9  21  39  59  83 111 149 197 235 275 342
#     4  11  21  35  55  86 116 155 184 231 291 341
#     4  10  20  36  57  83 111 147 187 241 282 335
#     4   9  19  36  56  83 112 142 183 233 286 336
#     4   9  17  32  57  80 106 144 184 229 274 332
#     4  10  20  37  61  82 109 149 194 240 287 342
#
# _framework density 18.903230000000001
#
# number of rings (size 3 to 8) (size 9 to 14) (size 15 to 20)
#    0.000    2.250    1.250    1.500    0.000    2.500 
#   13.500    1.250    0.000    0.000    0.000    0.000 
#    0.000    0.000    0.000    0.000    0.000    0.000 
#
# Total GULP energy -793440.090534 kJ/mol
# GULP energy per Si atom -12397.501415 kJ/mol
# Density = 1.886021 g / cm^3
# Si number density = 18.903230 Si / 1000 Ang^3
#
#
#
# Elastic Constant Matrix: (Units=GPa)
#
#
# Indices 1 2 3 4 5 6 
#
# 1 98.5255 51.7372 46.3035 0.0000 0.0000 0.0000
# 2 51.7372 106.8497 31.8385 0.0000 0.0000 0.0000
# 3 46.3035 31.8385 83.2142 0.0000 0.0000 0.0000
# 4 0.0000 0.0000 0.0000 26.3779 0.0000 0.0000
# 5 0.0000 0.0000 0.0000 0.0000 32.1528 0.0000
# 6 0.0000 0.0000 0.0000 0.0000 0.0000 32.8224
#
#
#
# Elastic Compliance Matrix: (Units=1/GPa)
#
#
# Indices 1 2 3 4 5 6 
#
# 1 0.016520 -0.005937 -0.006921 0.000000 0.000000 0.000000
# 2 -0.005937 0.012697 -0.001554 0.000000 0.000000 0.000000
# 3 -0.006921 -0.001554 0.016463 0.000000 0.000000 0.000000
# 4 0.000000 0.000000 0.000000 0.037911 0.000000 0.000000
# 5 0.000000 0.000000 0.000000 0.000000 0.031101 0.000000
# 6 0.000000 0.000000 0.000000 0.000000 0.000000 0.030467
#
#
# Mechanical properties :
#
#
# Convention : Reuss Voigt Hill
#
# Bulk Modulus (GPa) = 59.32799 60.92755 60.12777
# Shear Modulus (GPa) = 27.83958 28.85129 28.34544
#
# Velocity S-wave (km/s) = 3.84180 3.91098 3.87654
# Velocity P-wave (km/s) = 7.15069 7.25917 7.20514
#
# Compressibility (1/GPa) = 0.01685545
#
# Stress axis : x y z
#
# Youngs Moduli (GPa) = 60.53423 78.76056 60.74275
#
# Poissons Ratio (x) = 0.46758 0.42038
# Poissons Ratio (y) = 0.35937 0.09442
# Poissons Ratio (z) = 0.41894 0.12243
#
# Static dielectric constant tensor:
#      x y z
#    x 3.600620 0.000000 0.000000 
#    y 0.000000 3.558840 0.000000 
#    z 0.000000 0.000000 3.423660 
# 
# 
# High freq. dielectric constant tensor:
#      x y z
#    x 1.731460 0.000000 0.000000 
#    y 0.000000 1.736830 0.000000 
#    z 0.000000 0.000000 1.728430 
# 
# From -- ./inp_files/18005.got.cif
#   From: 2010.03.12/outbox.cif.g09.slc.cpg/sg57_10_cif.got.tgz:18005.got - 2010.04.16 15:48:40.
