data_PCOD8232369
_publ_section_title
;
Structure prediction by ZEFSAII (Michael W. Deem and Ramdas Pophale) SiO2 
 PCOD8232369
Probable space group: P B C M
;
_chemical_formula_sum "Si O2"
_cell_formula_units_Z 64
_cell_length_a 21.711094
_cell_length_b 19.296472
_cell_length_c 8.848970
_cell_angle_alpha 90.000000
_cell_angle_beta 90.000000
_cell_angle_gamma 90.000000
_cell_volume 3707.254014
_symmetry_space_group_name_H-M "P B C M"
_symmetry_group_IT_number 57
_symmetry_cell_setting 'orthorhombic'
loop_
_space_group_symop_operation_xyz
x,y,z
-x,-y,1/2+z
x,1/2-y,-z
-x,1/2+y,1/2-z
-x,-y,-z
x,y,1/2-z
-x,1/2+y,z
x,1/2-y,1/2+z
loop_
_atom_site_type_symbol
_atom_site_label
_atom_site_fract_x
_atom_site_fract_y
_atom_site_fract_z
Si Si1 0.413424 0.537828 0.584696
Si Si2 0.296370 0.459302 0.569958
Si Si3 0.514421 0.895276 0.915637
Si Si4 0.877836 0.822029 0.924506
Si Si5 0.022383 0.677758 0.424335
Si Si6 0.942491 0.460270 0.070261
Si Si7 0.366935 0.177532 0.070722
Si Si8 0.832061 0.542594 0.928800
O O1 0.400519 0.567740 0.750000
O O2 0.348088 0.514400 0.513652
O O3 0.456408 0.470993 0.594649
O O4 0.448648 0.599977 0.499133
O O5 0.285775 0.464561 0.750000
O O6 0.317450 0.381314 0.526277
O O7 0.236007 0.480152 0.477412
O O8 0.499197 0.866819 0.750000
O O9 0.564968 0.844110 0.992455
O O10 0.856803 0.822865 0.750000
O O11 0.950053 0.836844 0.938967
O O12 0.859617 0.750000 0.000000
O O13 0.841337 0.878862 0.018586
O O14 0.040759 0.750000 0.500000
O O15 0.043029 0.677944 0.250000
O O16 0.058209 0.618896 0.515811
O O17 0.947330 0.464741 0.250000
O O18 0.879432 0.493692 0.015419
O O19 0.000000 0.500000 0.000000
O O20 0.370440 0.183911 0.250000
O O21 0.345524 0.250000 0.000000
O O22 0.841490 0.535857 0.750000
#
# Coordination Sequence:
#
# PCOD8232369 Si02
#       8
#     8   8   8   8   8   8   8   8
#     4   8  14  26  45  66  88 118 154 195 242 289
#     4   9  19  35  49  65  96 133 170 210 254 301
#     4   8  14  25  42  66  93 119 151 195 242 282
#     4  10  20  34  52  72 100 134 170 212 258 309
#     4  10  20  35  56  81 107 135 167 207 258 317
#     4  12  23  37  57  80 107 138 172 219 274 323
#     4   9  18  31  47  68  98 136 172 207 245 289
#     4  12  24  36  52  75 103 137 180 221 265 321
#
# _framework density 17.263452000000001
#
# number of rings (size 3 to 8) (size 9 to 14) (size 15 to 20)
#    0.000    2.250    1.250    4.500    0.000    3.000 
#    0.000    3.750    0.000    0.000    0.000    0.875 
#    0.000    4.000    0.000    0.000    0.000    0.000 
#
# Total GULP energy -793359.647160 kJ/mol
# GULP energy per Si atom -12396.244487 kJ/mol
# Density = 1.722416 g / cm^3
# Si number density = 17.263452 Si / 1000 Ang^3
#
#
#
# Elastic Constant Matrix: (Units=GPa)
#
#
# Indices 1 2 3 4 5 6 
#
# 1 103.7102 42.5397 45.6532 0.0000 0.0000 0.0000
# 2 42.5397 57.2708 34.2770 0.0000 0.0000 0.0000
# 3 45.6532 34.2770 106.6319 0.0000 0.0000 0.0000
# 4 0.0000 0.0000 0.0000 28.8637 0.0000 0.0000
# 5 0.0000 0.0000 0.0000 0.0000 26.9066 0.0000
# 6 0.0000 0.0000 0.0000 0.0000 0.0000 17.1200
#
#
#
# Elastic Compliance Matrix: (Units=1/GPa)
#
#
# Indices 1 2 3 4 5 6 
#
# 1 0.014842 -0.008941 -0.003480 0.000000 0.000000 0.000000
# 2 -0.008941 0.027007 -0.004853 0.000000 0.000000 0.000000
# 3 -0.003480 -0.004853 0.012428 0.000000 0.000000 0.000000
# 4 0.000000 0.000000 0.000000 0.034646 0.000000 0.000000
# 5 0.000000 0.000000 0.000000 0.000000 0.037166 0.000000
# 6 0.000000 0.000000 0.000000 0.000000 0.000000 0.058411
#
#
# Mechanical properties :
#
#
# Convention : Reuss Voigt Hill
#
# Bulk Modulus (GPa) = 50.69081 56.95029 53.82055
# Shear Modulus (GPa) = 22.16070 24.25426 23.20748
#
# Velocity S-wave (km/s) = 3.58673 3.75233 3.67046
# Velocity P-wave (km/s) = 6.82493 7.19957 7.01475
#
# Compressibility (1/GPa) = 0.01972744
#
# Stress axis : x y z
#
# Youngs Moduli (GPa) = 67.37762 37.02730 80.46245
#
# Poissons Ratio (x) = 0.33107 0.28002
# Poissons Ratio (y) = 0.60244 0.39051
# Poissons Ratio (z) = 0.23448 0.17971
#
# Static dielectric constant tensor:
#      x y z
#    x 3.196070 0.000000 0.000000 
#    y 0.000000 3.173830 0.000000 
#    z 0.000000 0.000000 3.381610 
# 
# 
# High freq. dielectric constant tensor:
#      x y z
#    x 1.652440 0.000000 0.000000 
#    y 0.000000 1.642850 0.000000 
#    z 0.000000 0.000000 1.670560 
# 
# From -- ./inp_files/8589.got.cif
#   From: 2010.03.12/outbox.cif.g09.slc.cpg/sg57_5_cif.got.tgz:8589.got - 2010.04.16 15:48:40.
