data_PCOD8232884
_publ_section_title
;
Structure prediction by ZEFSAII (Michael W. Deem and Ramdas Pophale) SiO2 
 PCOD8232884
Probable space group: P B C M
;
_chemical_formula_sum "Si O2"
_cell_formula_units_Z 48
_cell_length_a 14.407018
_cell_length_b 20.366744
_cell_length_c 8.789072
_cell_angle_alpha 90.000000
_cell_angle_beta 90.000000
_cell_angle_gamma 90.000000
_cell_volume 2578.925079
_symmetry_space_group_name_H-M "P B C M"
_symmetry_group_IT_number 57
_symmetry_cell_setting 'orthorhombic'
loop_
_space_group_symop_operation_xyz
x,y,z
-x,-y,1/2+z
x,1/2-y,-z
-x,1/2+y,1/2-z
-x,-y,-z
x,y,1/2-z
-x,1/2+y,z
x,1/2-y,1/2+z
loop_
_atom_site_type_symbol
_atom_site_label
_atom_site_fract_x
_atom_site_fract_y
_atom_site_fract_z
Si Si1 0.737763 0.978716 0.428685
Si Si2 0.057847 0.058284 0.928777
Si Si3 0.058900 0.680738 0.928970
Si Si4 0.749088 0.118388 0.925609
Si Si5 0.553684 0.319286 0.426500
Si Si6 0.447090 0.061410 0.429806
O O1 0.719390 0.971826 0.250000
O O2 0.835235 0.946682 0.478342
O O3 0.659757 0.939012 0.519431
O O4 0.734990 0.055044 0.470831
O O5 0.046392 0.051003 0.750000
O O6 0.017210 0.127876 0.984884
O O7 0.000000 0.000000 0.000000
O O8 0.057366 0.689215 0.750000
O O9 0.160436 0.657183 0.983382
O O10 0.032277 0.750000 0.000000
O O11 0.759621 0.096053 0.750000
O O12 0.662306 0.166215 0.948278
O O13 0.529798 0.250000 0.500000
O O14 0.525805 0.319413 0.250000
O O15 0.492513 0.372023 0.513835
O O16 0.454240 0.056178 0.250000
O O17 0.500000 0.000000 0.500000
#
# Coordination Sequence:
#
# PCOD8232884 Si02
#       6
#     8   8   8   8   8   8
#     4  11  22  36  59  90 119 153 199 247 295 351
#     4  10  21  37  59  86 117 154 196 244 291 347
#     4  10  21  37  56  84 120 156 195 239 291 349
#     4  10  20  35  58  86 121 156 190 239 296 353
#     4  11  23  39  60  89 123 160 198 243 297 357
#     4  12  24  40  62  88 119 157 199 247 300 355
#
# _framework density 18.612406
#
# number of rings (size 3 to 8) (size 9 to 14) (size 15 to 20)
#    0.000    1.333    3.333    3.000    0.000    2.667 
#    0.000    0.833    0.000    2.000    0.000    0.000 
#    0.000    0.000    0.000    0.000    0.000    0.000 
#
# Total GULP energy -595434.955925 kJ/mol
# GULP energy per Si atom -12404.894915 kJ/mol
# Density = 1.857004 g / cm^3
# Si number density = 18.612406 Si / 1000 Ang^3
#
#
#
# Elastic Constant Matrix: (Units=GPa)
#
#
# Indices 1 2 3 4 5 6 
#
# 1 137.0061 68.6757 57.0037 0.0000 0.0000 0.0000
# 2 68.6757 135.7042 50.0621 0.0000 0.0000 0.0000
# 3 57.0037 50.0621 95.3116 0.0000 0.0000 0.0000
# 4 0.0000 0.0000 0.0000 34.2327 0.0000 0.0000
# 5 0.0000 0.0000 0.0000 0.0000 22.6255 0.0000
# 6 0.0000 0.0000 0.0000 0.0000 0.0000 -6.0682
#
#
#
# Elastic Compliance Matrix: (Units=1/GPa)
#
#
# Indices 1 2 3 4 5 6 
#
# 1 0.011211 -0.003969 -0.004620 0.000000 0.000000 0.000000
# 2 -0.003969 0.010545 -0.003165 0.000000 0.000000 0.000000
# 3 -0.004620 -0.003165 0.014918 0.000000 0.000000 0.000000
# 4 0.000000 0.000000 0.000000 0.029212 0.000000 0.000000
# 5 0.000000 0.000000 0.000000 0.000000 0.044198 0.000000
# 6 0.000000 0.000000 0.000000 0.000000 0.000000 -0.164793
#
#
# Mechanical properties :
#
#
# Convention : Reuss Voigt Hill
#
# Bulk Modulus (GPa) = 75.95895 79.94500 77.95197
# Shear Modulus (GPa) = -186.47938 22.97669 -81.75134
#
# Velocity S-wave (km/s) = -10.02040 3.51733 -6.63464
# Velocity P-wave (km/s) = 9.64253 7.71630 4.08883
#
# Compressibility (1/GPa) = 0.01316501
#
# Stress axis : x y z
#
# Youngs Moduli (GPa) = 89.20011 94.83017 67.03509
#
# Poissons Ratio (x) = 0.37638 0.30971
# Poissons Ratio (y) = 0.35404 0.21217
# Poissons Ratio (z) = 0.41212 0.30014
#
# Static dielectric constant tensor:
#      x y z
#    x 3.779030 0.000000 0.000000 
#    y 0.000000 3.459400 0.000000 
#    z 0.000000 0.000000 3.455430 
# 
# 
# High freq. dielectric constant tensor:
#      x y z
#    x 1.730390 0.000000 0.000000 
#    y 0.000000 1.720200 0.000000 
#    z 0.000000 0.000000 1.727020 
# 
# From -- ./inp_files/4669.got.cif
#   From: 2010.03.12/outbox.cif.g09.slc.cpg/sg57_3_cif.got.tgz:4669.got - 2010.04.16 15:48:40.
