data_PCOD8232288
_publ_section_title
;
Structure prediction by ZEFSAII (Michael W. Deem and Ramdas Pophale) SiO2 
 PCOD8232288
Probable space group: P B C M
;
_chemical_formula_sum "Si O2"
_cell_formula_units_Z 64
_cell_length_a 22.804920
_cell_length_b 17.317335
_cell_length_c 8.915218
_cell_angle_alpha 90.000000
_cell_angle_beta 90.000000
_cell_angle_gamma 90.000000
_cell_volume 3520.801809
_symmetry_space_group_name_H-M "P B C M"
_symmetry_group_IT_number 57
_symmetry_cell_setting 'orthorhombic'
loop_
_space_group_symop_operation_xyz
x,y,z
-x,-y,1/2+z
x,1/2-y,-z
-x,1/2+y,1/2-z
-x,-y,-z
x,y,1/2-z
-x,1/2+y,z
x,1/2-y,1/2+z
loop_
_atom_site_type_symbol
_atom_site_label
_atom_site_fract_x
_atom_site_fract_y
_atom_site_fract_z
Si Si1 0.044278 0.170117 0.927780
Si Si2 0.914386 0.126516 0.921073
Si Si3 0.125133 0.044596 0.077184
Si Si4 0.441295 0.169398 0.423211
Si Si5 0.241427 0.992706 0.928109
Si Si6 0.799522 0.325757 0.574837
Si Si7 0.541505 0.062002 0.074267
Si Si8 0.637110 0.524248 0.072030
O O1 0.049770 0.173390 0.750000
O O2 0.978155 0.151172 0.978788
O O3 0.064201 0.250000 0.000000
O O4 0.087659 0.106671 0.990134
O O5 0.903123 0.152425 0.750000
O O6 0.910000 0.034855 0.936961
O O7 0.867040 0.168385 0.024801
O O8 0.134204 0.068419 0.250000
O O9 0.187812 0.040029 0.997027
O O10 0.426575 0.250000 0.500000
O O11 0.429937 0.182767 0.250000
O O12 0.509460 0.144636 0.452703
O O13 0.397419 0.101695 0.478854
O O14 0.242120 0.003269 0.750000
O O15 0.235989 0.902326 0.973592
O O16 0.299089 0.028632 0.000692
O O17 0.770197 0.250000 0.500000
O O18 0.797454 0.313870 0.750000
O O19 0.548356 0.045188 0.250000
O O20 0.500000 0.000000 0.000000
O O21 0.604556 0.052556 0.994063
O O22 0.640650 0.516218 0.250000
#
# Coordination Sequence:
#
# PCOD8232288 Si02
#       8
#     8   8   8   8   8   8   8   8
#     4  11  22  35  51  75 105 136 171 214 264 319
#     4   9  19  34  54  78 103 132 168 210 262 321
#     4  10  20  36  56  77 102 135 173 216 264 317
#     4   9  19  33  52  80 111 139 172 212 256 302
#     4  10  21  37  56  78 103 138 180 220 260 309
#     4  10  20  33  52  77 105 134 169 213 263 316
#     4   9  17  31  51  77 106 136 169 206 249 301
#     4  10  20  35  55  80 106 138 180 221 259 307
#
# _framework density 18.177678
#
# number of rings (size 3 to 8) (size 9 to 14) (size 15 to 20)
#    0.000    2.250    0.000    3.750    0.000    7.000 
#    0.000    1.250    0.000    1.500    0.000    0.000 
#    0.000    0.000    0.000    0.000    0.000    0.000 
#
# Total GULP energy -793514.378817 kJ/mol
# GULP energy per Si atom -12398.662169 kJ/mol
# Density = 1.813630 g / cm^3
# Si number density = 18.177678 Si / 1000 Ang^3
#
#
#
# Elastic Constant Matrix: (Units=GPa)
#
#
# Indices 1 2 3 4 5 6 
#
# 1 71.9953 30.1010 35.8600 0.0000 0.0000 0.0000
# 2 30.1010 79.9820 36.0628 0.0000 0.0000 0.0000
# 3 35.8600 36.0628 84.0389 0.0000 0.0000 0.0000
# 4 0.0000 0.0000 0.0000 31.5393 0.0000 0.0000
# 5 0.0000 0.0000 0.0000 0.0000 34.0597 0.0000
# 6 0.0000 0.0000 0.0000 0.0000 0.0000 17.1840
#
#
#
# Elastic Compliance Matrix: (Units=1/GPa)
#
#
# Indices 1 2 3 4 5 6 
#
# 1 0.018748 -0.004276 -0.006165 0.000000 0.000000 0.000000
# 2 -0.004276 0.016478 -0.005246 0.000000 0.000000 0.000000
# 3 -0.006165 -0.005246 0.016781 0.000000 0.000000 0.000000
# 4 0.000000 0.000000 0.000000 0.031706 0.000000 0.000000
# 5 0.000000 0.000000 0.000000 0.000000 0.029360 0.000000
# 6 0.000000 0.000000 0.000000 0.000000 0.000000 0.058194
#
#
# Mechanical properties :
#
#
# Convention : Reuss Voigt Hill
#
# Bulk Modulus (GPa) = 48.46777 48.89601 48.68189
# Shear Modulus (GPa) = 23.86411 25.48945 24.67678
#
# Velocity S-wave (km/s) = 3.62722 3.74871 3.68847
# Velocity P-wave (km/s) = 6.65309 6.75977 6.70664
#
# Compressibility (1/GPa) = 0.02063227
#
# Stress axis : x y z
#
# Youngs Moduli (GPa) = 53.33789 60.68856 59.59056
#
# Poissons Ratio (x) = 0.25951 0.36738
# Poissons Ratio (y) = 0.22808 0.31262
# Poissons Ratio (z) = 0.32883 0.31838
#
# Static dielectric constant tensor:
#      x y z
#    x 3.397470 0.000000 0.000000 
#    y 0.000000 3.391480 0.000000 
#    z 0.000000 0.000000 3.485230 
# 
# 
# High freq. dielectric constant tensor:
#      x y z
#    x 1.694840 0.000000 0.000000 
#    y 0.000000 1.696560 0.000000 
#    z 0.000000 0.000000 1.717180 
# 
# From -- ./inp_files/8552.got.cif
#   From: 2010.03.12/outbox.cif.g09.slc.cpg/sg57_5_cif.got.tgz:8552.got - 2010.04.16 15:48:40.
