data_PCOD8232139
_publ_section_title
;
Structure prediction by ZEFSAII (Michael W. Deem and Ramdas Pophale) SiO2 
 PCOD8232139
Probable space group: P B C M
;
_chemical_formula_sum "Si O2"
_cell_formula_units_Z 64
_cell_length_a 21.206408
_cell_length_b 19.015127
_cell_length_c 8.854891
_cell_angle_alpha 90.000000
_cell_angle_beta 90.000000
_cell_angle_gamma 90.000000
_cell_volume 3570.668750
_symmetry_space_group_name_H-M "P B C M"
_symmetry_group_IT_number 57
_symmetry_cell_setting 'orthorhombic'
loop_
_space_group_symop_operation_xyz
x,y,z
-x,-y,1/2+z
x,1/2-y,-z
-x,1/2+y,1/2-z
-x,-y,-z
x,y,1/2-z
-x,1/2+y,z
x,1/2-y,1/2+z
loop_
_atom_site_type_symbol
_atom_site_label
_atom_site_fract_x
_atom_site_fract_y
_atom_site_fract_z
Si Si1 0.031908 0.175658 0.929112
Si Si2 0.726280 0.640630 0.084000
Si Si3 0.185740 0.937672 0.072933
Si Si4 0.392998 0.180736 0.574256
Si Si5 0.319301 0.517459 0.915967
Si Si6 0.140713 0.092972 0.073699
Si Si7 0.437472 0.470438 0.072670
Si Si8 0.100224 0.824072 0.929058
O O1 0.025674 0.183053 0.750000
O O2 0.052573 0.250000 0.000000
O O3 0.082987 0.116944 0.970451
O O4 0.965562 0.150799 0.998387
O O5 0.716549 0.675184 0.250000
O O6 0.708681 0.559701 0.095090
O O7 0.799483 0.643496 0.034757
O O8 0.681642 0.679979 0.964684
O O9 0.175954 0.921403 0.250000
O O10 0.260527 0.934379 0.031374
O O11 0.155600 0.012708 0.031364
O O12 0.153645 0.879952 0.968504
O O13 0.424602 0.250000 0.500000
O O14 0.402571 0.186786 0.750000
O O15 0.425897 0.109386 0.512883
O O16 0.343271 0.541180 0.750000
O O17 0.378470 0.520433 0.029454
O O18 0.123580 0.100122 0.250000
O O19 0.445161 0.471362 0.250000
O O20 0.500000 0.500000 0.000000
O O21 0.092652 0.816618 0.750000
O O22 0.120811 0.750000 0.000000
#
# Coordination Sequence:
#
# PCOD8232139 Si02
#       8
#     8   8   8   8   8   8   8   8
#     4  11  22  36  52  69  95 131 171 214 260 310
#     4   8  15  29  48  69  96 130 163 197 239 287
#     4   9  18  34  56  80 105 132 164 207 256 304
#     4  10  20  32  48  72 101 134 172 212 249 290
#     4   8  15  30  52  76 102 130 159 196 242 289
#     4   9  18  33  52  75 103 134 169 207 251 302
#     4  10  20  33  52  78 106 138 175 210 249 299
#     4  11  22  37  56  75  98 129 168 213 262 315
#
# _framework density 17.923812999999999
#
# number of rings (size 3 to 8) (size 9 to 14) (size 15 to 20)
#    0.000    2.500    0.000    5.250    0.000    4.000 
#    0.000    2.500    0.000    0.750    0.000    3.500 
#    0.000    0.000    0.000    0.000    0.000    0.000 
#
# Total GULP energy -793365.250738 kJ/mol
# GULP energy per Si atom -12396.332043 kJ/mol
# Density = 1.788302 g / cm^3
# Si number density = 17.923813 Si / 1000 Ang^3
#
#
#
# Elastic Constant Matrix: (Units=GPa)
#
#
# Indices 1 2 3 4 5 6 
#
# 1 115.2032 55.7246 52.5516 0.0000 0.0000 0.0000
# 2 55.7246 72.5376 42.2820 0.0000 0.0000 0.0000
# 3 52.5516 42.2820 100.5862 0.0000 0.0000 0.0000
# 4 0.0000 0.0000 0.0000 26.2807 0.0000 0.0000
# 5 0.0000 0.0000 0.0000 0.0000 30.1605 0.0000
# 6 0.0000 0.0000 0.0000 0.0000 0.0000 19.4447
#
#
#
# Elastic Compliance Matrix: (Units=1/GPa)
#
#
# Indices 1 2 3 4 5 6 
#
# 1 0.014905 -0.009154 -0.003939 0.000000 0.000000 0.000000
# 2 -0.009154 0.023882 -0.005256 0.000000 0.000000 0.000000
# 3 -0.003939 -0.005256 0.014209 0.000000 0.000000 0.000000
# 4 0.000000 0.000000 0.000000 0.038051 0.000000 0.000000
# 5 0.000000 0.000000 0.000000 0.000000 0.033156 0.000000
# 6 0.000000 0.000000 0.000000 0.000000 0.000000 0.051428
#
#
# Mechanical properties :
#
#
# Convention : Reuss Voigt Hill
#
# Bulk Modulus (GPa) = 61.36059 65.49373 63.42716
# Shear Modulus (GPa) = 22.96066 24.36177 23.66122
#
# Velocity S-wave (km/s) = 3.58301 3.69071 3.63726
# Velocity P-wave (km/s) = 7.17117 7.40143 7.28721
#
# Compressibility (1/GPa) = 0.01629711
#
# Stress axis : x y z
#
# Youngs Moduli (GPa) = 67.09046 41.87182 70.37617
#
# Poissons Ratio (x) = 0.38331 0.27723
# Poissons Ratio (y) = 0.61417 0.36993
# Poissons Ratio (z) = 0.26428 0.22010
#
# Static dielectric constant tensor:
#      x y z
#    x 3.373000 0.000000 0.000000 
#    y 0.000000 3.231020 0.000000 
#    z 0.000000 0.000000 3.313430 
# 
# 
# High freq. dielectric constant tensor:
#      x y z
#    x 1.686220 0.000000 0.000000 
#    y 0.000000 1.673080 0.000000 
#    z 0.000000 0.000000 1.695590 
# 
# From -- ./inp_files/8563.got.cif
#   From: 2010.03.12/outbox.cif.g09.slc.cpg/sg57_5_cif.got.tgz:8563.got - 2010.04.16 15:48:40.
