data_PCOD8232326
_publ_section_title
;
Structure prediction by ZEFSAII (Michael W. Deem and Ramdas Pophale) SiO2 
 PCOD8232326
Probable space group: P B C M
;
_chemical_formula_sum "Si O2"
_cell_formula_units_Z 64
_cell_length_a 14.212369
_cell_length_b 25.757233
_cell_length_c 9.033643
_cell_angle_alpha 90.000000
_cell_angle_beta 90.000000
_cell_angle_gamma 90.000000
_cell_volume 3306.957435
_symmetry_space_group_name_H-M "P B C M"
_symmetry_group_IT_number 57
_symmetry_cell_setting 'orthorhombic'
loop_
_space_group_symop_operation_xyz
x,y,z
-x,-y,1/2+z
x,1/2-y,-z
-x,1/2+y,1/2-z
-x,-y,-z
x,y,1/2-z
-x,1/2+y,z
x,1/2-y,1/2+z
loop_
_atom_site_type_symbol
_atom_site_label
_atom_site_fract_x
_atom_site_fract_y
_atom_site_fract_z
Si Si1 0.420856 0.302458 0.922780
Si Si2 0.878692 0.102985 0.074256
Si Si3 0.205150 0.197092 0.076135
Si Si4 0.769177 0.194998 0.574493
Si Si5 0.204440 0.502847 0.575743
Si Si6 0.904965 0.597866 0.075465
Si Si7 0.589077 0.477475 0.081004
Si Si8 0.577548 0.140097 0.921053
O O1 0.435755 0.295601 0.750000
O O2 0.313347 0.315132 0.963454
O O3 0.455278 0.250000 0.000000
O O4 0.485826 0.348619 0.981334
O O5 0.866051 0.108376 0.250000
O O6 0.987165 0.096665 0.027650
O O7 0.841501 0.154294 0.994875
O O8 0.824664 0.052784 0.017121
O O9 0.190471 0.204190 0.250000
O O10 0.143988 0.149659 0.010845
O O11 0.170663 0.250000 0.000000
O O12 0.789696 0.250000 0.500000
O O13 0.785742 0.197964 0.750000
O O14 0.662896 0.178098 0.536562
O O15 0.186811 0.513770 0.750000
O O16 0.146378 0.453667 0.514406
O O17 0.314888 0.491341 0.545826
O O18 0.891573 0.598487 0.250000
O O19 0.561700 0.482735 0.250000
O O20 0.609335 0.417881 0.038948
O O21 0.500000 0.500000 0.000000
O O22 0.550149 0.146121 0.750000
#
# Coordination Sequence:
#
# PCOD8232326 Si02
#       8
#     8   8   8   8   8   8   8   8
#     4  10  20  33  55  82 109 146 186 227 276 334
#     4  11  22  38  60  89 119 150 193 245 294 345
#     4   9  19  37  57  81 114 150 188 231 285 344
#     4  11  23  41  62  86 118 158 199 243 298 356
#     4  10  20  40  64  84 116 157 193 238 293 348
#     4   9  20  37  61  87 113 149 195 242 289 348
#     4  10  22  38  58  86 118 154 190 233 288 344
#     4  10  21  38  57  81 115 150 189 235 284 341
#
# _framework density 19.353137
#
# number of rings (size 3 to 8) (size 9 to 14) (size 15 to 20)
#    0.000    2.000    1.250    1.875    1.750    4.000 
#    0.000    3.750    0.000    0.000    0.000    0.000 
#    0.000    0.000    0.000    0.000    0.000    0.000 
#
# Total GULP energy -793751.114661 kJ/mol
# GULP energy per Si atom -12402.361167 kJ/mol
# Density = 1.930909 g / cm^3
# Si number density = 19.353137 Si / 1000 Ang^3
#
#
#
# Elastic Constant Matrix: (Units=GPa)
#
#
# Indices 1 2 3 4 5 6 
#
# 1 116.2150 67.4996 46.8579 0.0000 0.0000 0.0000
# 2 67.4996 135.5824 48.7037 0.0000 0.0000 0.0000
# 3 46.8579 48.7037 63.7356 0.0000 0.0000 0.0000
# 4 0.0000 0.0000 0.0000 34.3990 0.0000 0.0000
# 5 0.0000 0.0000 0.0000 0.0000 27.8487 0.0000
# 6 0.0000 0.0000 0.0000 0.0000 0.0000 35.4904
#
#
#
# Elastic Compliance Matrix: (Units=1/GPa)
#
#
# Indices 1 2 3 4 5 6 
#
# 1 0.013975 -0.004503 -0.006834 0.000000 0.000000 0.000000
# 2 -0.004503 0.011617 -0.005567 0.000000 0.000000 0.000000
# 3 -0.006834 -0.005567 0.024968 0.000000 0.000000 0.000000
# 4 0.000000 0.000000 0.000000 0.029071 0.000000 0.000000
# 5 0.000000 0.000000 0.000000 0.000000 0.035908 0.000000
# 6 0.000000 0.000000 0.000000 0.000000 0.000000 0.028177
#
#
# Mechanical properties :
#
#
# Convention : Reuss Voigt Hill
#
# Bulk Modulus (GPa) = 59.68879 71.29505 65.49192
# Shear Modulus (GPa) = 27.30645 29.71240 28.50942
#
# Velocity S-wave (km/s) = 3.76035 3.92251 3.84228
# Velocity P-wave (km/s) = 7.05425 7.57851 7.32107
#
# Compressibility (1/GPa) = 0.01675357
#
# Stress axis : x y z
#
# Youngs Moduli (GPa) = 71.55399 86.08081 40.05165
#
# Poissons Ratio (x) = 0.38761 0.27370
# Poissons Ratio (y) = 0.32220 0.22295
# Poissons Ratio (z) = 0.48898 0.47918
#
# Static dielectric constant tensor:
#      x y z
#    x 3.126740 0.000000 0.000000 
#    y 0.000000 3.687410 0.000000 
#    z 0.000000 0.000000 3.405750 
# 
# 
# High freq. dielectric constant tensor:
#      x y z
#    x 1.761420 0.000000 0.000000 
#    y 0.000000 1.761190 0.000000 
#    z 0.000000 0.000000 1.740150 
# 
# From -- ./inp_files/5616.got.cif
#   From: 2010.03.12/outbox.cif.g09.slc.cpg/sg57_3_cif.got.tgz:5616.got - 2010.04.16 15:48:40.
