data_PCOD8232303
_publ_section_title
;
Structure prediction by ZEFSAII (Michael W. Deem and Ramdas Pophale) SiO2 
 PCOD8232303
Probable space group: P B C M
;
_chemical_formula_sum "Si O2"
_cell_formula_units_Z 64
_cell_length_a 19.506510
_cell_length_b 18.921550
_cell_length_c 8.801162
_cell_angle_alpha 90.000000
_cell_angle_beta 90.000000
_cell_angle_gamma 90.000000
_cell_volume 3248.450844
_symmetry_space_group_name_H-M "P B C M"
_symmetry_group_IT_number 57
_symmetry_cell_setting 'orthorhombic'
loop_
_space_group_symop_operation_xyz
x,y,z
-x,-y,1/2+z
x,1/2-y,-z
-x,1/2+y,1/2-z
-x,-y,-z
x,y,1/2-z
-x,1/2+y,z
x,1/2-y,1/2+z
loop_
_atom_site_type_symbol
_atom_site_label
_atom_site_fract_x
_atom_site_fract_y
_atom_site_fract_z
Si Si1 0.543345 0.673717 0.072048
Si Si2 0.589067 0.409587 0.929937
Si Si3 0.206143 0.446006 0.928884
Si Si4 0.720885 0.325881 0.571500
Si Si5 0.021552 0.824481 0.928792
Si Si6 0.878550 0.825325 0.430328
Si Si7 0.637199 0.547074 0.427337
Si Si8 0.151107 0.582130 0.072841
O O1 0.535269 0.685281 0.250000
O O2 0.475704 0.634482 0.007211
O O3 0.608899 0.625013 0.032215
O O4 0.554030 0.750000 0.000000
O O5 0.586381 0.413982 0.750000
O O6 0.657440 0.371396 0.990451
O O7 0.589385 0.489310 0.991669
O O8 0.200973 0.431712 0.750000
O O9 0.284224 0.459336 0.981809
O O10 0.180717 0.378201 0.020008
O O11 0.158570 0.511896 0.973595
O O12 0.717752 0.250000 0.500000
O O13 0.716339 0.317070 0.750000
O O14 0.790946 0.362954 0.521018
O O15 0.010721 0.813379 0.750000
O O16 0.077953 0.883654 0.963752
O O17 0.045073 0.750000 0.000000
O O18 0.951424 0.851600 0.004210
O O19 0.859407 0.750000 0.500000
O O20 0.882939 0.820129 0.250000
O O21 0.630887 0.532461 0.250000
O O22 0.158727 0.562612 0.250000
#
# Coordination Sequence:
#
# PCOD8232303 Si02
#       8
#     8   8   8   8   8   8   8   8
#     4  10  22  39  58  86 118 150 192 240 289 344
#     4  10  20  36  59  84 115 153 191 235 285 344
#     4  11  23  39  60  86 116 152 195 243 291 346
#     4  10  20  33  52  81 115 151 193 232 277 335
#     4  10  20  36  59  86 118 154 193 239 289 345
#     4  11  23  41  64  87 115 150 191 241 291 347
#     4  10  22  39  59  85 117 151 194 242 289 346
#     4  10  21  37  56  82 118 155 194 238 285 344
#
# _framework density 19.701698
#
# number of rings (size 3 to 8) (size 9 to 14) (size 15 to 20)
#    0.000    1.750    1.250    3.750    0.000    4.500 
#    0.000    1.250    0.000    0.000    0.000    0.000 
#    0.000    0.000    0.000    0.000    0.000    0.000 
#
# Total GULP energy -793846.906772 kJ/mol
# GULP energy per Si atom -12403.857918 kJ/mol
# Density = 1.965686 g / cm^3
# Si number density = 19.701698 Si / 1000 Ang^3
#
#
#
# Elastic Constant Matrix: (Units=GPa)
#
#
# Indices 1 2 3 4 5 6 
#
# 1 73.0827 50.7606 30.3198 0.0000 0.0000 0.0000
# 2 50.7606 136.8115 43.5305 0.0000 0.0000 0.0000
# 3 30.3198 43.5305 69.9745 0.0000 0.0000 0.0000
# 4 0.0000 0.0000 0.0000 40.7370 0.0000 0.0000
# 5 0.0000 0.0000 0.0000 0.0000 20.6635 0.0000
# 6 0.0000 0.0000 0.0000 0.0000 0.0000 35.6852
#
#
#
# Elastic Compliance Matrix: (Units=1/GPa)
#
#
# Indices 1 2 3 4 5 6 
#
# 1 0.019735 -0.005737 -0.004982 0.000000 0.000000 0.000000
# 2 -0.005737 0.010781 -0.004221 0.000000 0.000000 0.000000
# 3 -0.004982 -0.004221 0.019075 0.000000 0.000000 0.000000
# 4 0.000000 0.000000 0.000000 0.024548 0.000000 0.000000
# 5 0.000000 0.000000 0.000000 0.000000 0.048394 0.000000
# 6 0.000000 0.000000 0.000000 0.000000 0.000000 0.028023
#
#
# Mechanical properties :
#
#
# Convention : Reuss Voigt Hill
#
# Bulk Modulus (GPa) = 50.73265 58.78785 54.76025
# Shear Modulus (GPa) = 26.73707 29.76766 28.25236
#
# Velocity S-wave (km/s) = 3.68787 3.89127 3.79094
# Velocity P-wave (km/s) = 6.62874 7.07765 6.85687
#
# Compressibility (1/GPa) = 0.01971117
#
# Stress axis : x y z
#
# Youngs Moduli (GPa) = 50.67215 92.75696 52.42335
#
# Poissons Ratio (x) = 0.53214 0.26118
# Poissons Ratio (y) = 0.29070 0.22127
# Poissons Ratio (z) = 0.25246 0.39152
#
# Static dielectric constant tensor:
#      x y z
#    x 3.791060 0.000000 0.000000 
#    y 0.000000 3.537230 0.000000 
#    z 0.000000 0.000000 3.434460 
# 
# 
# High freq. dielectric constant tensor:
#      x y z
#    x 1.775990 0.000000 0.000000 
#    y 0.000000 1.774410 0.000000 
#    z 0.000000 0.000000 1.762920 
# 
# From -- ./inp_files/8609.got.cif
#   From: 2010.03.12/outbox.cif.g09.slc.cpg/sg57_5_cif.got.tgz:8609.got - 2010.04.16 15:48:40.
