data_PCOD8232652
_publ_section_title
;
Structure prediction by ZEFSAII (Michael W. Deem and Ramdas Pophale) SiO2 
 PCOD8232652
Probable space group: P B C M
;
_chemical_formula_sum "Si O2"
_cell_formula_units_Z 40
_cell_length_a 25.480337
_cell_length_b 10.020734
_cell_length_c 8.710734
_cell_angle_alpha 90.000000
_cell_angle_beta 90.000000
_cell_angle_gamma 90.000000
_cell_volume 2224.126340
_symmetry_space_group_name_H-M "P B C M"
_symmetry_group_IT_number 57
_symmetry_cell_setting 'orthorhombic'
loop_
_space_group_symop_operation_xyz
x,y,z
-x,-y,1/2+z
x,1/2-y,-z
-x,1/2+y,1/2-z
-x,-y,-z
x,y,1/2-z
-x,1/2+y,z
x,1/2-y,1/2+z
loop_
_atom_site_type_symbol
_atom_site_label
_atom_site_fract_x
_atom_site_fract_y
_atom_site_fract_z
Si Si1 0.262487 0.105255 0.928866
Si Si2 0.656702 0.110246 0.431071
Si Si3 0.147277 0.394167 0.070648
Si Si4 0.462642 0.890184 0.930948
Si Si5 0.957899 0.600729 0.067845
O O1 0.271906 0.124892 0.750000
O O2 0.204476 0.039506 0.957607
O O3 0.305615 0.004850 0.998900
O O4 0.269997 0.250000 0.000000
O O5 0.675368 0.250000 0.500000
O O6 0.662472 0.120493 0.250000
O O7 0.597105 0.077138 0.479900
O O8 0.132964 0.386776 0.250000
O O9 0.153543 0.250000 0.000000
O O10 0.098710 0.462507 0.981182
O O11 0.469188 0.885173 0.750000
O O12 0.480677 0.750000 0.000000
O O13 0.500000 0.000000 0.000000
O O14 0.963077 0.607345 0.250000
O O15 0.965024 0.750000 0.000000
O O16 0.000000 0.500000 0.000000
#
# Coordination Sequence:
#
# PCOD8232652 Si02
#       5
#     8   8   8   8   8
#     4   9  18  32  51  75 101 128 165 208 248 293
#     4   9  19  35  52  73 101 134 167 203 248 300
#     4   9  16  29  49  72  99 131 165 205 250 297
#     4  10  20  35  54  75 102 134 171 211 255 303
#     4  11  21  35  54  77 104 135 171 211 255 303
#
# _framework density 17.984589
#
# number of rings (size 3 to 8) (size 9 to 14) (size 15 to 20)
#    0.000    2.400    0.000    4.200    0.000    3.200 
#    0.000    3.000    0.000    2.400    0.000    0.000 
#    0.000    0.000    0.000    0.000    0.000    0.000 
#
# Total GULP energy -495750.289428 kJ/mol
# GULP energy per Si atom -12393.757236 kJ/mol
# Density = 1.794365 g / cm^3
# Si number density = 17.984589 Si / 1000 Ang^3
#
#
#
# Elastic Constant Matrix: (Units=GPa)
#
#
# Indices 1 2 3 4 5 6 
#
# 1 143.3626 94.4187 50.8342 0.0000 0.0000 0.0000
# 2 94.4187 114.9958 45.1529 0.0000 0.0000 0.0000
# 3 50.8342 45.1529 88.5975 0.0000 0.0000 0.0000
# 4 0.0000 0.0000 0.0000 29.3156 0.0000 0.0000
# 5 0.0000 0.0000 0.0000 0.0000 26.4685 0.0000
# 6 0.0000 0.0000 0.0000 0.0000 0.0000 36.8846
#
#
#
# Elastic Compliance Matrix: (Units=1/GPa)
#
#
# Indices 1 2 3 4 5 6 
#
# 1 0.015831 -0.011791 -0.003074 0.000000 0.000000 0.000000
# 2 -0.011791 0.019654 -0.003251 0.000000 0.000000 0.000000
# 3 -0.003074 -0.003251 0.014708 0.000000 0.000000 0.000000
# 4 0.000000 0.000000 0.000000 0.034111 0.000000 0.000000
# 5 0.000000 0.000000 0.000000 0.000000 0.037781 0.000000
# 6 0.000000 0.000000 0.000000 0.000000 0.000000 0.027112
#
#
# Mechanical properties :
#
#
# Convention : Reuss Voigt Hill
#
# Bulk Modulus (GPa) = 71.63335 80.86307 76.24821
# Shear Modulus (GPa) = 26.30442 28.97042 27.63742
#
# Velocity S-wave (km/s) = 3.82856 4.01789 3.92436
# Velocity P-wave (km/s) = 7.71107 8.15994 7.93868
#
# Compressibility (1/GPa) = 0.01395998
#
# Stress axis : x y z
#
# Youngs Moduli (GPa) = 63.16689 50.88063 67.99215
#
# Poissons Ratio (x) = 0.59995 0.20901
# Poissons Ratio (y) = 0.74482 0.22104
# Poissons Ratio (z) = 0.19418 0.16541
#
# Static dielectric constant tensor:
#      x y z
#    x 4.087330 0.000000 0.000000 
#    y 0.000000 3.174400 0.000000 
#    z 0.000000 0.000000 3.326960 
# 
# 
# High freq. dielectric constant tensor:
#      x y z
#    x 1.713460 0.000000 0.000000 
#    y 0.000000 1.669490 0.000000 
#    z 0.000000 0.000000 1.704800 
# 
# From -- ./inp_files/8920.got.cif
#   From: 2010.03.12/outbox.cif.g09.slc.cpg/sg57_5_cif.got.tgz:8920.got - 2010.04.16 15:48:40.
