data_PCOD8232334
_publ_section_title
;
Structure prediction by ZEFSAII (Michael W. Deem and Ramdas Pophale) SiO2 
 PCOD8232334
Probable space group: P B C M
;
_chemical_formula_sum "Si O2"
_cell_formula_units_Z 64
_cell_length_a 19.821273
_cell_length_b 19.885589
_cell_length_c 8.827601
_cell_angle_alpha 90.000000
_cell_angle_beta 90.000000
_cell_angle_gamma 90.000000
_cell_volume 3479.466804
_symmetry_space_group_name_H-M "P B C M"
_symmetry_group_IT_number 57
_symmetry_cell_setting 'orthorhombic'
loop_
_space_group_symop_operation_xyz
x,y,z
-x,-y,1/2+z
x,1/2-y,-z
-x,1/2+y,1/2-z
-x,-y,-z
x,y,1/2-z
-x,1/2+y,z
x,1/2-y,1/2+z
loop_
_atom_site_type_symbol
_atom_site_label
_atom_site_fract_x
_atom_site_fract_y
_atom_site_fract_z
Si Si1 0.919227 0.177972 0.429536
Si Si2 0.416745 0.178130 0.428640
Si Si3 0.706506 0.909985 0.574255
Si Si4 0.340335 0.941202 0.424047
Si Si5 0.834109 0.545370 0.922788
Si Si6 0.192104 0.906346 0.427289
Si Si7 0.984203 0.929296 0.424778
Si Si8 0.476890 0.569307 0.428093
O O1 0.934075 0.250000 0.500000
O O2 0.920798 0.182684 0.250000
O O3 0.845806 0.152183 0.482198
O O4 0.977480 0.128442 0.485373
O O5 0.428568 0.250000 0.500000
O O6 0.420925 0.184728 0.250000
O O7 0.343604 0.149309 0.476924
O O8 0.475190 0.128743 0.488755
O O9 0.726138 0.905041 0.750000
O O10 0.775038 0.904541 0.477676
O O11 0.669224 0.980155 0.541256
O O12 0.360366 0.930390 0.250000
O O13 0.271687 0.901393 0.464237
O O14 0.400257 0.912552 0.527105
O O15 0.820856 0.523149 0.750000
O O16 0.904347 0.585061 0.937587
O O17 0.836744 0.478739 0.025006
O O18 0.178275 0.897442 0.250000
O O19 0.007846 0.929979 0.250000
O O20 0.000000 0.000000 0.500000
O O21 0.500000 0.500000 0.500000
O O22 0.483796 0.561772 0.250000
#
# Coordination Sequence:
#
# PCOD8232334 Si02
#       8
#     8   8   8   8   8   8   8   8
#     4  12  25  41  61  86 118 156 200 245 296 360
#     4  10  22  39  56  80 113 150 192 234 286 348
#     4   9  18  35  55  78 113 148 182 231 286 341
#     4   9  18  34  56  84 114 143 183 235 287 336
#     4  10  20  33  55  88 117 143 189 239 281 337
#     4  10  20  36  58  83 116 152 187 234 291 346
#     4  11  22  37  59  88 121 156 196 244 293 345
#     4  11  21  35  56  83 115 149 190 239 288 343
#
# _framework density 18.393621
#
# number of rings (size 3 to 8) (size 9 to 14) (size 15 to 20)
#    0.000    1.750    2.500    3.375    0.000    5.500 
#    0.000    1.250    0.000    3.000    0.000    0.000 
#    0.000    0.000    0.000    0.000    0.000    0.000 
#
# Total GULP energy -793757.527622 kJ/mol
# GULP energy per Si atom -12402.461369 kJ/mol
# Density = 1.835176 g / cm^3
# Si number density = 18.393621 Si / 1000 Ang^3
#
#
#
# Elastic Constant Matrix: (Units=GPa)
#
#
# Indices 1 2 3 4 5 6 
#
# 1 131.2911 64.8840 58.1765 0.0000 0.0000 0.0000
# 2 64.8840 123.9012 52.6295 0.0000 0.0000 0.0000
# 3 58.1765 52.6295 107.4263 0.0000 0.0000 0.0000
# 4 0.0000 0.0000 0.0000 30.5119 0.0000 0.0000
# 5 0.0000 0.0000 0.0000 0.0000 36.6472 0.0000
# 6 0.0000 0.0000 0.0000 0.0000 0.0000 24.6596
#
#
#
# Elastic Compliance Matrix: (Units=1/GPa)
#
#
# Indices 1 2 3 4 5 6 
#
# 1 0.011588 -0.004297 -0.004170 0.000000 0.000000 0.000000
# 2 -0.004297 0.011785 -0.003447 0.000000 0.000000 0.000000
# 3 -0.004170 -0.003447 0.013256 0.000000 0.000000 0.000000
# 4 0.000000 0.000000 0.000000 0.032774 0.000000 0.000000
# 5 0.000000 0.000000 0.000000 0.000000 0.027287 0.000000
# 6 0.000000 0.000000 0.000000 0.000000 0.000000 0.040552
#
#
# Mechanical properties :
#
#
# Convention : Reuss Voigt Hill
#
# Bulk Modulus (GPa) = 78.11906 79.33320 78.72613
# Shear Modulus (GPa) = 30.24113 30.82566 30.53339
#
# Velocity S-wave (km/s) = 4.05916 4.09820 4.07873
# Velocity P-wave (km/s) = 8.03318 8.10050 8.06691
#
# Compressibility (1/GPa) = 0.01280097
#
# Stress axis : x y z
#
# Youngs Moduli (GPa) = 86.29485 84.85196 75.43884
#
# Poissons Ratio (x) = 0.36461 0.31461
# Poissons Ratio (y) = 0.37081 0.26002
# Poissons Ratio (z) = 0.35988 0.29246
#
# Static dielectric constant tensor:
#      x y z
#    x 2.340920 0.000000 0.000000 
#    y 0.000000 3.234180 0.000000 
#    z 0.000000 0.000000 3.047400 
# 
# 
# High freq. dielectric constant tensor:
#      x y z
#    x 1.729410 0.000000 0.000000 
#    y 0.000000 1.683600 0.000000 
#    z 0.000000 0.000000 1.721120 
# 
# From -- ./inp_files/8541.got.cif
#   From: 2010.03.12/outbox.cif.g09.slc.cpg/sg57_5_cif.got.tgz:8541.got - 2010.04.16 15:48:40.
