data_PCOD8232672
_publ_section_title
;
Structure prediction by ZEFSAII (Michael W. Deem and Ramdas Pophale) SiO2 
 PCOD8232672
Probable space group: P B C M
;
_chemical_formula_sum "Si O2"
_cell_formula_units_Z 48
_cell_length_a 30.901974
_cell_length_b 9.608222
_cell_length_c 8.766342
_cell_angle_alpha 90.000000
_cell_angle_beta 90.000000
_cell_angle_gamma 90.000000
_cell_volume 2602.841134
_symmetry_space_group_name_H-M "P B C M"
_symmetry_group_IT_number 57
_symmetry_cell_setting 'orthorhombic'
loop_
_space_group_symop_operation_xyz
x,y,z
-x,-y,1/2+z
x,1/2-y,-z
-x,1/2+y,1/2-z
-x,-y,-z
x,y,1/2-z
-x,1/2+y,z
x,1/2-y,1/2+z
loop_
_atom_site_type_symbol
_atom_site_label
_atom_site_fract_x
_atom_site_fract_y
_atom_site_fract_z
Si Si1 0.368562 0.396499 0.429036
Si Si2 0.122711 0.099706 0.928404
Si Si3 0.293643 0.597988 0.069313
Si Si4 0.466222 0.396291 0.070284
Si Si5 0.782102 0.900940 0.427570
Si Si6 0.963056 0.595347 0.068540
O O1 0.354269 0.250000 0.500000
O O2 0.364623 0.376524 0.250000
O O3 0.336898 0.518490 0.486380
O O4 0.417319 0.438302 0.477083
O O5 0.111195 0.108294 0.750000
O O6 0.169998 0.031677 0.956597
O O7 0.126876 0.250000 0.000000
O O8 0.082887 0.025398 0.016612
O O9 0.292177 0.612015 0.250000
O O10 0.252465 0.510897 0.007173
O O11 0.292995 0.750000 0.000000
O O12 0.471754 0.390804 0.250000
O O13 0.478552 0.250000 0.000000
O O14 0.500000 0.500000 0.000000
O O15 0.775526 0.750000 0.500000
O O16 0.774331 0.877157 0.250000
O O17 0.966532 0.600569 0.250000
O O18 0.967172 0.750000 0.000000
O O19 0.000000 0.500000 0.000000
#
# Coordination Sequence:
#
# PCOD8232672 Si02
#       6
#     8   8   8   8   8   8
#     4   9  19  35  55  77 102 132 173 215 254 301
#     4   9  16  29  49  74 101 131 167 210 253 299
#     4  10  21  36  51  74 105 136 168 207 253 304
#     4  10  20  35  54  78 106 138 173 215 261 310
#     4   9  18  32  53  77 101 129 167 210 252 299
#     4  11  21  35  54  78 106 138 174 215 259 307
#
# _framework density 18.441386999999999
#
# number of rings (size 3 to 8) (size 9 to 14) (size 15 to 20)
#    0.000    2.333    0.000    4.000    0.000    3.333 
#    0.000    2.500    0.000    2.000    0.000    0.000 
#    0.000    0.000    0.000    0.000    0.000    0.000 
#
# Total GULP energy -594946.259160 kJ/mol
# GULP energy per Si atom -12394.713733 kJ/mol
# Density = 1.839941 g / cm^3
# Si number density = 18.441387 Si / 1000 Ang^3
#
#
#
# Elastic Constant Matrix: (Units=GPa)
#
#
# Indices 1 2 3 4 5 6 
#
# 1 169.7436 98.5786 54.3710 0.0000 0.0000 0.0000
# 2 98.5786 121.2991 45.6720 0.0000 0.0000 0.0000
# 3 54.3710 45.6720 82.7388 0.0000 0.0000 0.0000
# 4 0.0000 0.0000 0.0000 32.1802 0.0000 0.0000
# 5 0.0000 0.0000 0.0000 0.0000 27.1862 0.0000
# 6 0.0000 0.0000 0.0000 0.0000 0.0000 30.8035
#
#
#
# Elastic Compliance Matrix: (Units=1/GPa)
#
#
# Indices 1 2 3 4 5 6 
#
# 1 0.011753 -0.008386 -0.003094 0.000000 0.000000 0.000000
# 2 -0.008386 0.016391 -0.003537 0.000000 0.000000 0.000000
# 3 -0.003094 -0.003537 0.016072 0.000000 0.000000 0.000000
# 4 0.000000 0.000000 0.000000 0.031075 0.000000 0.000000
# 5 0.000000 0.000000 0.000000 0.000000 0.036783 0.000000
# 6 0.000000 0.000000 0.000000 0.000000 0.000000 0.032464
#
#
# Mechanical properties :
#
#
# Convention : Reuss Voigt Hill
#
# Bulk Modulus (GPa) = 70.51550 85.66939 78.09244
# Shear Modulus (GPa) = 27.88632 29.71132 28.79882
#
# Velocity S-wave (km/s) = 3.89287 4.01823 3.95605
# Velocity P-wave (km/s) = 7.65026 8.25131 7.95646
#
# Compressibility (1/GPa) = 0.01418128
#
# Stress axis : x y z
#
# Youngs Moduli (GPa) = 85.08774 61.00779 62.22081
#
# Poissons Ratio (x) = 0.51163 0.19250
# Poissons Ratio (y) = 0.71357 0.22008
# Poissons Ratio (z) = 0.26325 0.21579
#
# Static dielectric constant tensor:
#      x y z
#    x 4.260270 0.000000 0.000000 
#    y 0.000000 3.065540 0.000000 
#    z 0.000000 0.000000 3.430980 
# 
# 
# High freq. dielectric constant tensor:
#      x y z
#    x 1.739800 0.000000 0.000000 
#    y 0.000000 1.686170 0.000000 
#    z 0.000000 0.000000 1.719580 
# 
# From -- ./inp_files/9981.got.cif
#   From: 2010.03.12/outbox.cif.g09.slc.cpg/sg57_5_cif.got.tgz:9981.got - 2010.04.16 15:48:40.
