data_PCOD8232845
_publ_section_title
;
Structure prediction by ZEFSAII (Michael W. Deem and Ramdas Pophale) SiO2 
 PCOD8232845
Probable space group: P B C M
;
_chemical_formula_sum "Si O2"
_cell_formula_units_Z 64
_cell_length_a 9.135679
_cell_length_b 24.220545
_cell_length_c 15.332115
_cell_angle_alpha 90.000000
_cell_angle_beta 90.000000
_cell_angle_gamma 90.000000
_cell_volume 3392.554324
_symmetry_space_group_name_H-M "P B C M"
_symmetry_group_IT_number 57
_symmetry_cell_setting 'orthorhombic'
loop_
_space_group_symop_operation_xyz
x,y,z
-x,-y,1/2+z
x,1/2-y,-z
-x,1/2+y,1/2-z
-x,-y,-z
x,y,1/2-z
-x,1/2+y,z
x,1/2-y,1/2+z
loop_
_atom_site_type_symbol
_atom_site_label
_atom_site_fract_x
_atom_site_fract_y
_atom_site_fract_z
Si Si1 0.882987 0.368631 0.005902
Si Si2 0.831224 0.010973 0.489607
Si Si3 0.392099 0.990340 0.651627
Si Si4 0.711210 0.185641 0.649952
Si Si5 0.436594 0.114202 0.151550
Si Si6 0.281892 0.686489 0.347622
Si Si7 0.223580 0.108010 0.491242
Si Si8 0.428713 0.385679 0.150107
O O1 0.803708 0.427608 0.026567
O O2 0.826398 0.341221 0.916816
O O3 0.056452 0.373567 0.995552
O O4 0.846922 0.331920 0.089707
O O5 0.769241 0.010766 0.391039
O O6 0.755457 0.957483 0.532858
O O7 0.000000 0.000000 0.500000
O O8 0.358635 0.973604 0.750000
O O9 0.472151 0.049577 0.642595
O O10 0.499020 0.943472 0.612771
O O11 0.752059 0.172995 0.750000
O O12 0.688063 0.249789 0.631657
O O13 0.565620 0.152121 0.622732
O O14 0.376686 0.106689 0.250000
O O15 0.559718 0.160097 0.147118
O O16 0.306118 0.136459 0.089775
O O17 0.215147 0.678981 0.250000
O O18 0.295986 0.125816 0.583374
O O19 0.379071 0.372424 0.250000
#
# Coordination Sequence:
#
# PCOD8232845 Si02
#       8
#     8   8   8   8   8   8   8   8
#     4  11  21  36  56  80 113 149 186 224 275 332
#     4   9  19  33  50  80 115 147 179 214 277 336
#     4   9  17  31  55  82 109 145 187 227 272 329
#     4  10  22  39  59  82 106 142 192 237 274 325
#     4  10  20  35  57  85 112 144 188 234 278 330
#     4  10  21  39  61  81 106 144 190 236 278 322
#     4  10  22  35  53  83 117 149 176 224 282 338
#     4   9  19  35  57  83 112 145 184 227 277 331
#
# _framework density 18.864841999999999
#
# number of rings (size 3 to 8) (size 9 to 14) (size 15 to 20)
#    0.000    2.250    1.250    1.125    1.750    2.000 
#    0.000    6.250    0.000    3.000    0.000    0.000 
#    0.000    0.000    0.000    0.000    0.000    0.000 
#
# Total GULP energy -792972.743907 kJ/mol
# GULP energy per Si atom -12390.199124 kJ/mol
# Density = 1.882190 g / cm^3
# Si number density = 18.864842 Si / 1000 Ang^3
#
#
#
# Elastic Constant Matrix: (Units=GPa)
#
#
# Indices 1 2 3 4 5 6 
#
# 1 110.6013 47.5082 67.8761 0.0000 0.0000 0.0000
# 2 47.5082 111.6455 43.1782 0.0000 0.0000 0.0000
# 3 67.8761 43.1782 101.9790 0.0000 0.0000 0.0000
# 4 0.0000 0.0000 0.0000 22.4537 0.0000 0.0000
# 5 0.0000 0.0000 0.0000 0.0000 25.5875 0.0000
# 6 0.0000 0.0000 0.0000 0.0000 0.0000 21.0173
#
#
#
# Elastic Compliance Matrix: (Units=1/GPa)
#
#
# Indices 1 2 3 4 5 6 
#
# 1 0.016220 -0.003261 -0.009416 0.000000 0.000000 0.000000
# 2 -0.003261 0.011366 -0.002642 0.000000 0.000000 0.000000
# 3 -0.009416 -0.002642 0.017192 0.000000 0.000000 0.000000
# 4 0.000000 0.000000 0.000000 0.044536 0.000000 0.000000
# 5 0.000000 0.000000 0.000000 0.000000 0.039082 0.000000
# 6 0.000000 0.000000 0.000000 0.000000 0.000000 0.047580
#
#
# Mechanical properties :
#
#
# Convention : Reuss Voigt Hill
#
# Bulk Modulus (GPa) = 70.71504 71.26122 70.98813
# Shear Modulus (GPa) = 23.66007 24.85593 24.25800
#
# Velocity S-wave (km/s) = 3.54529 3.63379 3.58981
# Velocity P-wave (km/s) = 7.37057 7.44731 7.40904
#
# Compressibility (1/GPa) = 0.01414126
#
# Stress axis : x y z
#
# Youngs Moduli (GPa) = 61.65045 87.97901 58.16826
#
# Poissons Ratio (x) = 0.28689 0.54768
# Poissons Ratio (y) = 0.20103 0.15369
# Poissons Ratio (z) = 0.58047 0.23245
#
# Static dielectric constant tensor:
#      x y z
#    x 3.225000 0.000000 0.000000 
#    y 0.000000 3.744220 0.000000 
#    z 0.000000 0.000000 3.551210 
# 
# 
# High freq. dielectric constant tensor:
#      x y z
#    x 1.713710 0.000000 0.000000 
#    y 0.000000 1.739170 0.000000 
#    z 0.000000 0.000000 1.735950 
# 
# From -- ./inp_files/16949.got.cif
#   From: 2010.03.12/outbox.cif.g09.slc.cpg/sg57_9_cif.got.tgz:16949.got - 2010.04.16 15:48:40.
