data_PCOD8232628
_publ_section_title
;
Structure prediction by ZEFSAII (Michael W. Deem and Ramdas Pophale) SiO2 
 PCOD8232628
Probable space group: P B C M
;
_chemical_formula_sum "Si O2"
_cell_formula_units_Z 40
_cell_length_a 11.942452
_cell_length_b 9.135420
_cell_length_c 16.941462
_cell_angle_alpha 90.000000
_cell_angle_beta 90.000000
_cell_angle_gamma 90.000000
_cell_volume 1848.301897
_symmetry_space_group_name_H-M "P B C M"
_symmetry_group_IT_number 57
_symmetry_cell_setting 'orthorhombic'
loop_
_space_group_symop_operation_xyz
x,y,z
-x,-y,1/2+z
x,1/2-y,-z
-x,1/2+y,1/2-z
-x,-y,-z
x,y,1/2-z
-x,1/2+y,z
x,1/2-y,1/2+z
loop_
_atom_site_type_symbol
_atom_site_label
_atom_site_fract_x
_atom_site_fract_y
_atom_site_fract_z
Si Si1 0.436134 0.275773 0.590307
Si Si2 0.735404 0.492318 0.414085
Si Si3 0.829290 0.208952 0.340198
Si Si4 0.351223 0.533354 0.406544
Si Si5 0.959447 0.626091 0.056327
O O1 0.404451 0.250000 0.500000
O O2 0.356409 0.402301 0.627108
O O3 0.562936 0.330003 0.599489
O O4 0.412920 0.113831 0.626030
O O5 0.747915 0.334824 0.374124
O O6 0.699240 0.473311 0.505175
O O7 0.854039 0.568735 0.395320
O O8 0.861470 0.238334 0.250000
O O9 0.753946 0.062906 0.348930
O O10 0.944317 0.191514 0.387878
O O11 0.911259 0.750000 0.000000
O O12 0.000000 0.500000 0.000000
#
# Coordination Sequence:
#
# PCOD8232628 Si02
#       5
#     8   8   8   8   8
#     4  10  20  34  67 100 123 158 213 275 315 369
#     4  11  22  40  66  94 125 163 215 263 321 376
#     4  12  26  42  61  90 131 172 210 264 322 385
#     4  11  20  40  65  96 128 163 216 264 321 379
#     4  12  22  42  69  96 123 166 216 263 317 378
#
# _framework density 21.641487000000001
#
# number of rings (size 3 to 8) (size 9 to 14) (size 15 to 20)
#    0.000    0.800    4.000    7.200    0.000    0.800 
#    0.000    5.000    0.000    0.000    0.000    0.000 
#    0.000    0.000    0.000    0.000    0.000    0.000 
#
# Total GULP energy -495667.520360 kJ/mol
# GULP energy per Si atom -12391.688009 kJ/mol
# Density = 2.159223 g / cm^3
# Si number density = 21.641487 Si / 1000 Ang^3
#
#
#
# Elastic Constant Matrix: (Units=GPa)
#
#
# Indices 1 2 3 4 5 6 
#
# 1 117.2110 43.6813 25.9445 0.0000 0.0000 0.0000
# 2 43.6813 95.0190 19.8113 0.0000 0.0000 0.0000
# 3 25.9445 19.8113 63.9290 0.0000 0.0000 0.0000
# 4 0.0000 0.0000 0.0000 3.3268 0.0000 0.0000
# 5 0.0000 0.0000 0.0000 0.0000 11.5779 0.0000
# 6 0.0000 0.0000 0.0000 0.0000 0.0000 54.6985
#
#
#
# Elastic Compliance Matrix: (Units=1/GPa)
#
#
# Indices 1 2 3 4 5 6 
#
# 1 0.010824 -0.004340 -0.003048 0.000000 0.000000 0.000000
# 2 -0.004340 0.012992 -0.002265 0.000000 0.000000 0.000000
# 3 -0.003048 -0.002265 0.017581 0.000000 0.000000 0.000000
# 4 0.000000 0.000000 0.000000 0.300593 0.000000 0.000000
# 5 0.000000 0.000000 0.000000 0.000000 0.086372 0.000000
# 6 0.000000 0.000000 0.000000 0.000000 0.000000 0.018282
#
#
# Mechanical properties :
#
#
# Convention : Reuss Voigt Hill
#
# Bulk Modulus (GPa) = 45.26673 50.55927 47.91300
# Shear Modulus (GPa) = 10.56386 26.36875 18.46630
#
# Velocity S-wave (km/s) = 2.21176 3.49440 2.92427
# Velocity P-wave (km/s) = 5.24257 6.30032 5.79563
#
# Compressibility (1/GPa) = 0.02209128
#
# Stress axis : x y z
#
# Youngs Moduli (GPa) = 92.38945 76.97216 56.87976
#
# Poissons Ratio (x) = 0.33409 0.17335
# Poissons Ratio (y) = 0.40101 0.12881
# Poissons Ratio (z) = 0.28156 0.17431
#
# Static dielectric constant tensor:
#      x y z
#    x 6.141330 0.000000 0.000000 
#    y 0.000000 4.233370 0.000000 
#    z 0.000000 0.000000 3.359160 
# 
# 
# High freq. dielectric constant tensor:
#      x y z
#    x 1.871250 0.000000 0.000000 
#    y 0.000000 1.875290 0.000000 
#    z 0.000000 0.000000 1.781620 
# 
# From -- ./inp_files/21592.got.cif
#   From: 2010.03.12/outbox.cif.g09.slc.cpg/sg57_11_cif.got.tgz:21592.got - 2010.04.16 15:48:40.
