data_PCOD8232230
_publ_section_title
;
Structure prediction by ZEFSAII (Michael W. Deem and Ramdas Pophale) SiO2 
 PCOD8232230
Probable space group: P B C M
;
_chemical_formula_sum "Si O2"
_cell_formula_units_Z 64
_cell_length_a 23.409206
_cell_length_b 15.032622
_cell_length_c 8.936924
_cell_angle_alpha 90.000000
_cell_angle_beta 90.000000
_cell_angle_gamma 90.000000
_cell_volume 3144.919152
_symmetry_space_group_name_H-M "P B C M"
_symmetry_group_IT_number 57
_symmetry_cell_setting 'orthorhombic'
loop_
_space_group_symop_operation_xyz
x,y,z
-x,-y,1/2+z
x,1/2-y,-z
-x,1/2+y,1/2-z
-x,-y,-z
x,y,1/2-z
-x,1/2+y,z
x,1/2-y,1/2+z
loop_
_atom_site_type_symbol
_atom_site_label
_atom_site_fract_x
_atom_site_fract_y
_atom_site_fract_z
Si Si1 0.353440 0.165654 0.575277
Si Si2 0.684834 0.028133 0.427246
Si Si3 0.802605 0.025953 0.572103
Si Si4 0.018261 0.158819 0.421873
Si Si5 0.894741 0.347273 0.573368
Si Si6 0.143035 0.344834 0.926031
Si Si7 0.426756 0.581461 0.582228
Si Si8 0.534733 0.879265 0.582564
O O1 0.321056 0.250000 0.500000
O O2 0.352485 0.178952 0.750000
O O3 0.418578 0.168249 0.519611
O O4 0.322794 0.074989 0.527131
O O5 0.685479 0.042005 0.250000
O O6 0.743780 0.059916 0.499871
O O7 0.633547 0.086064 0.495914
O O8 0.800134 0.035761 0.750000
O O9 0.851870 0.087548 0.508589
O O10 0.813919 0.923079 0.524000
O O11 0.006871 0.250000 0.500000
O O12 0.025209 0.180652 0.250000
O O13 0.079330 0.119404 0.476090
O O14 0.958334 0.107095 0.451260
O O15 0.889268 0.250000 0.500000
O O16 0.880923 0.339905 0.750000
O O17 0.146960 0.329759 0.750000
O O18 0.158667 0.250000 0.000000
O O19 0.418569 0.619335 0.750000
O O20 0.472868 0.639775 0.491109
O O21 0.451418 0.482943 0.589786
O O22 0.535470 0.839167 0.750000
#
# Coordination Sequence:
#
# PCOD8232230 Si02
#       8
#     8   8   8   8   8   8   8   8
#     4  10  20  33  50  73 103 139 178 221 268 317
#     4  10  21  36  52  72 100 137 183 227 266 315
#     4  11  23  37  54  79 111 147 189 234 279 330
#     4   8  15  30  52  78 107 139 176 220 274 334
#     4  10  20  36  59  84 109 138 176 226 283 339
#     4   9  19  35  54  78 111 149 187 228 275 329
#     4   9  16  28  48  72  97 125 159 203 254 303
#     4   9  16  27  46  72  99 126 159 200 248 302
#
# _framework density 20.350283999999998
#
# number of rings (size 3 to 8) (size 9 to 14) (size 15 to 20)
#    0.000    2.500    0.000    2.250    0.000    7.000 
#    0.000    2.500    0.000    0.750    0.000    5.250 
#    0.000    0.000    0.000    0.000    0.000    0.000 
#
# Total GULP energy -793011.984426 kJ/mol
# GULP energy per Si atom -12390.812257 kJ/mol
# Density = 2.030397 g / cm^3
# Si number density = 20.350284 Si / 1000 Ang^3
#
#
#
# Elastic Constant Matrix: (Units=GPa)
#
#
# Indices 1 2 3 4 5 6 
#
# 1 103.5514 0.4706 30.6837 0.0000 0.0000 0.0000
# 2 0.4706 27.1419 5.6173 0.0000 0.0000 0.0000
# 3 30.6837 5.6173 68.9267 0.0000 0.0000 0.0000
# 4 0.0000 0.0000 0.0000 26.5816 0.0000 0.0000
# 5 0.0000 0.0000 0.0000 0.0000 36.3666 0.0000
# 6 0.0000 0.0000 0.0000 0.0000 0.0000 11.2428
#
#
#
# Elastic Compliance Matrix: (Units=1/GPa)
#
#
# Indices 1 2 3 4 5 6 
#
# 1 0.011144 0.000848 -0.005030 0.000000 0.000000 0.000000
# 2 0.000848 0.037540 -0.003437 0.000000 0.000000 0.000000
# 3 -0.005030 -0.003437 0.017027 0.000000 0.000000 0.000000
# 4 0.000000 0.000000 0.000000 0.037620 0.000000 0.000000
# 5 0.000000 0.000000 0.000000 0.000000 0.027498 0.000000
# 6 0.000000 0.000000 0.000000 0.000000 0.000000 0.088946
#
#
# Mechanical properties :
#
#
# Convention : Reuss Voigt Hill
#
# Bulk Modulus (GPa) = 19.81247 30.35148 25.08197
# Shear Modulus (GPa) = 19.85415 25.69476 22.77446
#
# Velocity S-wave (km/s) = 3.12688 3.55720 3.34896
# Velocity P-wave (km/s) = 4.77424 5.64078 5.22550
#
# Compressibility (1/GPa) = 0.05047327
#
# Stress axis : x y z
#
# Youngs Moduli (GPa) = 89.73770 26.63824 58.72905
#
# Poissons Ratio (x) = -0.02258 0.29540
# Poissons Ratio (y) = -0.07607 0.20184
# Poissons Ratio (z) = 0.45136 0.09155
#
# Static dielectric constant tensor:
#      x y z
#    x 3.897060 0.000000 0.000000 
#    y 0.000000 3.436970 0.000000 
#    z 0.000000 0.000000 3.757970 
# 
# 
# High freq. dielectric constant tensor:
#      x y z
#    x 1.801640 0.000000 0.000000 
#    y 0.000000 1.759090 0.000000 
#    z 0.000000 0.000000 1.804340 
# 
# From -- ./inp_files/9483.got.cif
#   From: 2010.03.12/outbox.cif.g09.slc.cpg/sg57_5_cif.got.tgz:9483.got - 2010.04.16 15:48:40.
