data_PCOD8232964
_publ_section_title
;
Structure prediction by ZEFSAII (Michael W. Deem and Ramdas Pophale) SiO2 
 PCOD8232964
Probable space group: P B C M
;
_chemical_formula_sum "Si O2"
_cell_formula_units_Z 40
_cell_length_a 25.253150
_cell_length_b 9.712737
_cell_length_c 8.495400
_cell_angle_alpha 90.000000
_cell_angle_beta 90.000000
_cell_angle_gamma 90.000000
_cell_volume 2083.727962
_symmetry_space_group_name_H-M "P B C M"
_symmetry_group_IT_number 57
_symmetry_cell_setting 'orthorhombic'
loop_
_space_group_symop_operation_xyz
x,y,z
-x,-y,1/2+z
x,1/2-y,-z
-x,1/2+y,1/2-z
-x,-y,-z
x,y,1/2-z
-x,1/2+y,z
x,1/2-y,1/2+z
loop_
_atom_site_type_symbol
_atom_site_label
_atom_site_fract_x
_atom_site_fract_y
_atom_site_fract_z
Si Si1 0.660807 0.396399 0.564325
Si Si2 0.250011 0.396055 0.437319
Si Si3 0.864710 0.901110 0.563842
Si Si4 0.457257 0.897078 0.935627
Si Si5 0.953152 0.405421 0.936216
O O1 0.678565 0.250000 0.500000
O O2 0.660872 0.390787 0.750000
O O3 0.704094 0.503229 0.502853
O O4 0.601876 0.436722 0.503733
O O5 0.269087 0.250000 0.500000
O O6 0.242133 0.395104 0.250000
O O7 0.195256 0.437900 0.519232
O O8 0.881163 0.750000 0.500000
O O9 0.872626 0.900547 0.750000
O O10 0.898841 0.022695 0.488010
O O11 0.459146 0.895665 0.750000
O O12 0.473973 0.750000 0.000000
O O13 0.500000 0.000000 0.000000
O O14 0.956800 0.398207 0.750000
O O15 0.956906 0.250000 0.000000
O O16 0.000000 0.500000 0.000000
#
# Coordination Sequence:
#
# PCOD8232964 Si02
#       5
#     8   8   8   8   8
#     4   9  20  36  55  78 108 142 182 226 276 332
#     4  10  20  36  56  82 112 146 186 231 277 331
#     4  11  22  39  61  87 117 153 191 234 282 333
#     4  10  20  36  55  79 108 143 183 229 279 334
#     4  12  25  43  64  90 120 154 193 236 282 334
#
# _framework density 19.196363000000002
#
# number of rings (size 3 to 8) (size 9 to 14) (size 15 to 20)
#    0.000    1.600    0.000    6.600    0.000    4.000 
#    0.000    4.000    0.000    0.000    0.000    0.000 
#    0.000    0.000    0.000    0.000    0.000    0.000 
#
# Total GULP energy -496023.142476 kJ/mol
# GULP energy per Si atom -12400.578562 kJ/mol
# Density = 1.915267 g / cm^3
# Si number density = 19.196363 Si / 1000 Ang^3
#
#
#
# Elastic Constant Matrix: (Units=GPa)
#
#
# Indices 1 2 3 4 5 6 
#
# 1 133.2944 117.0187 41.5337 0.0000 0.0000 0.0000
# 2 117.0187 172.6734 56.7836 0.0000 0.0000 0.0000
# 3 41.5337 56.7836 111.9881 0.0000 0.0000 0.0000
# 4 0.0000 0.0000 0.0000 37.2657 0.0000 0.0000
# 5 0.0000 0.0000 0.0000 0.0000 31.3082 0.0000
# 6 0.0000 0.0000 0.0000 0.0000 0.0000 51.0783
#
#
#
# Elastic Compliance Matrix: (Units=1/GPa)
#
#
# Indices 1 2 3 4 5 6 
#
# 1 0.018556 -0.012375 -0.000607 0.000000 0.000000 0.000000
# 2 -0.012375 0.015204 -0.003119 0.000000 0.000000 0.000000
# 3 -0.000607 -0.003119 0.010736 0.000000 0.000000 0.000000
# 4 0.000000 0.000000 0.000000 0.026834 0.000000 0.000000
# 5 0.000000 0.000000 0.000000 0.000000 0.031940 0.000000
# 6 0.000000 0.000000 0.000000 0.000000 0.000000 0.019578
#
#
# Mechanical properties :
#
#
# Convention : Reuss Voigt Hill
#
# Bulk Modulus (GPa) = 81.35097 94.29200 87.82148
# Shear Modulus (GPa) = 31.41720 37.43843 34.42781
#
# Velocity S-wave (km/s) = 4.04991 4.42100 4.23951
# Velocity P-wave (km/s) = 8.02118 8.67679 8.35542
#
# Compressibility (1/GPa) = 0.01229242
#
# Stress axis : x y z
#
# Youngs Moduli (GPa) = 53.89238 65.77371 93.14224
#
# Poissons Ratio (x) = 0.81397 0.05653
# Poissons Ratio (y) = 0.66693 0.29054
# Poissons Ratio (z) = 0.03271 0.20517
#
# Static dielectric constant tensor:
#      x y z
#    x 4.148200 0.000000 0.000000 
#    y 0.000000 3.647200 0.000000 
#    z 0.000000 0.000000 3.641130 
# 
# 
# High freq. dielectric constant tensor:
#      x y z
#    x 1.759970 0.000000 0.000000 
#    y 0.000000 1.749830 0.000000 
#    z 0.000000 0.000000 1.760910 
# 
# From -- ./inp_files/8889.got.cif
#   From: 2010.03.12/outbox.cif.g09.slc.cpg/sg57_5_cif.got.tgz:8889.got - 2010.04.16 15:48:40.
