data_PCOD8232900
_publ_section_title
;
Structure prediction by ZEFSAII (Michael W. Deem and Ramdas Pophale) SiO2 
 PCOD8232900
Probable space group: P B C M
;
_chemical_formula_sum "Si O2"
_cell_formula_units_Z 56
_cell_length_a 9.688315
_cell_length_b 16.452830
_cell_length_c 13.791214
_cell_angle_alpha 90.000000
_cell_angle_beta 90.000000
_cell_angle_gamma 90.000000
_cell_volume 2198.322265
_symmetry_space_group_name_H-M "P B C M"
_symmetry_group_IT_number 57
_symmetry_cell_setting 'orthorhombic'
loop_
_space_group_symop_operation_xyz
x,y,z
-x,-y,1/2+z
x,1/2-y,-z
-x,1/2+y,1/2-z
-x,-y,-z
x,y,1/2-z
-x,1/2+y,z
x,1/2-y,1/2+z
loop_
_atom_site_type_symbol
_atom_site_label
_atom_site_fract_x
_atom_site_fract_y
_atom_site_fract_z
Si Si1 0.835054 0.073208 0.549092
Si Si2 0.115284 0.017288 0.635135
Si Si3 0.507360 0.792694 0.635187
Si Si4 0.785127 0.239014 0.641185
Si Si5 0.286018 0.425304 0.863331
Si Si6 0.918636 0.787429 0.894435
Si Si7 0.295639 0.162154 0.645957
O O1 0.791870 0.166348 0.563304
O O2 0.967793 0.058545 0.617318
O O3 0.867897 0.061285 0.434404
O O4 0.714664 0.012275 0.583507
O O5 0.131344 0.995922 0.750000
O O6 0.231829 0.081861 0.595803
O O7 0.535533 0.789037 0.750000
O O8 0.345468 0.794953 0.609959
O O9 0.583261 0.873758 0.595978
O O10 0.580392 0.710382 0.589735
O O11 0.759576 0.204868 0.750000
O O12 0.923808 0.292080 0.641206
O O13 0.298867 0.441841 0.750000
O O14 0.142242 0.378569 0.887633
O O15 0.825816 0.727427 0.830590
O O16 0.909443 0.750000 0.000000
O O17 0.351325 0.131929 0.750000
#
# Coordination Sequence:
#
# PCOD8232900 Si02
#       7
#     8   8   8   8   8   8   8
#     4  11  22  35  62  99 128 165 217 268 320 384
#     4  10  20  35  58  91 131 167 207 262 322 379
#     4   8  18  35  61  87 120 168 217 256 315 385
#     4  11  21  39  63  90 127 173 215 263 320 387
#     4  10  20  37  60  92 126 164 212 272 326 375
#     4  11  21  33  55  86 120 166 214 263 313 381
#     4   9  16  34  59  84 110 157 213 254 303 384
#
# _framework density 25.473970999999999
#
# number of rings (size 3 to 8) (size 9 to 14) (size 15 to 20)
#    0.000    2.000    1.429    4.286    2.000    0.000 
#    0.000    5.000    3.143    0.000    0.000    1.000 
#    0.000    1.143    0.000    0.000    0.000    0.000 
#
# Total GULP energy -694039.089818 kJ/mol
# GULP energy per Si atom -12393.555175 kJ/mol
# Density = 2.541599 g / cm^3
# Si number density = 25.473971 Si / 1000 Ang^3
#
#
#
# Elastic Constant Matrix: (Units=GPa)
#
#
# Indices 1 2 3 4 5 6 
#
# 1 156.7646 29.1275 1.5036 0.0000 0.0000 0.0000
# 2 29.1275 66.4531 0.4493 0.0000 0.0000 0.0000
# 3 1.5036 0.4493 81.2817 0.0000 0.0000 0.0000
# 4 0.0000 0.0000 0.0000 18.9282 0.0000 0.0000
# 5 0.0000 0.0000 0.0000 0.0000 2.8599 0.0000
# 6 0.0000 0.0000 0.0000 0.0000 0.0000 28.4757
#
#
#
# Elastic Compliance Matrix: (Units=1/GPa)
#
#
# Indices 1 2 3 4 5 6 
#
# 1 0.006946 -0.003044 -0.000112 0.000000 0.000000 0.000000
# 2 -0.003044 0.016382 -0.000034 0.000000 0.000000 0.000000
# 3 -0.000112 -0.000034 0.012305 0.000000 0.000000 0.000000
# 4 0.000000 0.000000 0.000000 0.052831 0.000000 0.000000
# 5 0.000000 0.000000 0.000000 0.000000 0.349667 0.000000
# 6 0.000000 0.000000 0.000000 0.000000 0.000000 0.035118
#
#
# Mechanical properties :
#
#
# Convention : Reuss Voigt Hill
#
# Bulk Modulus (GPa) = 34.18316 40.74004 37.46160
# Shear Modulus (GPa) = 10.21703 28.28069 19.24886
#
# Velocity S-wave (km/s) = 2.00486 3.33555 2.75185
# Velocity P-wave (km/s) = 4.33674 5.55536 4.98344
#
# Compressibility (1/GPa) = 0.02925417
#
# Stress axis : x y z
#
# Youngs Moduli (GPa) = 143.97648 61.04077 81.26684
#
# Poissons Ratio (x) = 0.18578 0.00907
# Poissons Ratio (y) = 0.43821 0.00278
# Poissons Ratio (z) = 0.01608 0.00209
#
# Static dielectric constant tensor:
#      x y z
#    x 4.572880 0.000000 0.000000 
#    y 0.000000 4.530510 0.000000 
#    z 0.000000 0.000000 4.617550 
# 
# 
# High freq. dielectric constant tensor:
#      x y z
#    x 1.997820 0.000000 0.000000 
#    y 0.000000 1.996890 0.000000 
#    z 0.000000 0.000000 2.027560 
# 
# From -- ./inp_files/16700.got.cif
#   From: 2010.03.12/outbox.cif.g09.slc.cpg/sg57_9_cif.got.tgz:16700.got - 2010.04.16 15:48:40.
