data_PCOD8232732
_publ_section_title
;
Structure prediction by ZEFSAII (Michael W. Deem and Ramdas Pophale) SiO2 
 PCOD8232732
Probable space group: P B C M
;
_chemical_formula_sum "Si O2"
_cell_formula_units_Z 48
_cell_length_a 18.282123
_cell_length_b 15.190812
_cell_length_c 8.968184
_cell_angle_alpha 90.000000
_cell_angle_beta 90.000000
_cell_angle_gamma 90.000000
_cell_volume 2490.646692
_symmetry_space_group_name_H-M "P B C M"
_symmetry_group_IT_number 57
_symmetry_cell_setting 'orthorhombic'
loop_
_space_group_symop_operation_xyz
x,y,z
-x,-y,1/2+z
x,1/2-y,-z
-x,1/2+y,1/2-z
-x,-y,-z
x,y,1/2-z
-x,1/2+y,z
x,1/2-y,1/2+z
loop_
_atom_site_type_symbol
_atom_site_label
_atom_site_fract_x
_atom_site_fract_y
_atom_site_fract_z
Si Si1 0.941514 0.160189 0.926321
Si Si2 0.328620 0.979203 0.573971
Si Si3 0.177972 0.984528 0.077826
Si Si4 0.538979 0.419746 0.078311
Si Si5 0.606988 0.836421 0.420059
Si Si6 0.904625 0.839390 0.574228
O O1 0.951315 0.173202 0.750000
O O2 0.886306 0.082138 0.964960
O O3 0.911378 0.250000 0.000000
O O4 0.018761 0.134768 0.998977
O O5 0.335124 0.971185 0.750000
O O6 0.246779 0.959699 0.523020
O O7 0.354084 0.075756 0.515717
O O8 0.382713 0.905190 0.502295
O O9 0.200022 0.974708 0.250000
O O10 0.152839 0.083533 0.041450
O O11 0.553352 0.442200 0.250000
O O12 0.481708 0.339220 0.061787
O O13 0.500000 0.500000 0.000000
O O14 0.637968 0.750000 0.500000
O O15 0.630065 0.827436 0.250000
O O16 0.873591 0.750000 0.500000
O O17 0.916906 0.825649 0.750000
#
# Coordination Sequence:
#
# PCOD8232732 Si02
#       6
#     8   8   8   8   8   8
#     4  10  20  36  57  80 105 136 179 227 273 321
#     4  10  21  35  52  76 104 136 174 213 259 312
#     4  10  22  37  54  78 109 145 180 218 269 324
#     4   9  17  32  52  73  98 128 166 206 245 294
#     4   9  19  33  51  77 103 131 168 209 253 304
#     4  10  20  35  55  80 109 142 180 221 268 319
#
# _framework density 19.272103000000001
#
# number of rings (size 3 to 8) (size 9 to 14) (size 15 to 20)
#    0.000    2.333    0.000    4.500    0.000    7.333 
#    0.000    4.167    0.000    0.000    0.000    0.000 
#    0.000    0.000    0.000    0.000    0.000    0.000 
#
# Total GULP energy -595054.007385 kJ/mol
# GULP energy per Si atom -12396.958487 kJ/mol
# Density = 1.922824 g / cm^3
# Si number density = 19.272103 Si / 1000 Ang^3
#
#
#
# Elastic Constant Matrix: (Units=GPa)
#
#
# Indices 1 2 3 4 5 6 
#
# 1 69.0092 1.5873 27.3151 0.0000 0.0000 0.0000
# 2 1.5873 34.6371 13.9823 0.0000 0.0000 0.0000
# 3 27.3151 13.9823 88.0339 0.0000 0.0000 0.0000
# 4 0.0000 0.0000 0.0000 26.7980 0.0000 0.0000
# 5 0.0000 0.0000 0.0000 0.0000 34.4327 0.0000
# 6 0.0000 0.0000 0.0000 0.0000 0.0000 17.2313
#
#
#
# Elastic Compliance Matrix: (Units=1/GPa)
#
#
# Indices 1 2 3 4 5 6 
#
# 1 0.016584 0.001407 -0.005369 0.000000 0.000000 0.000000
# 2 0.001407 0.030968 -0.005355 0.000000 0.000000 0.000000
# 3 -0.005369 -0.005355 0.013876 0.000000 0.000000 0.000000
# 4 0.000000 0.000000 0.000000 0.037316 0.000000 0.000000
# 5 0.000000 0.000000 0.000000 0.000000 0.029042 0.000000
# 6 0.000000 0.000000 0.000000 0.000000 0.000000 0.058034
#
#
# Mechanical properties :
#
#
# Convention : Reuss Voigt Hill
#
# Bulk Modulus (GPa) = 23.36804 30.82773 27.09789
# Shear Modulus (GPa) = 22.86046 25.61210 24.23628
#
# Velocity S-wave (km/s) = 3.44785 3.64946 3.55009
# Velocity P-wave (km/s) = 5.29168 5.81282 5.55836
#
# Compressibility (1/GPa) = 0.04279349
#
# Stress axis : x y z
#
# Youngs Moduli (GPa) = 60.30041 32.29133 72.06817
#
# Poissons Ratio (x) = -0.04545 0.38694
# Poissons Ratio (y) = -0.08487 0.38595
# Poissons Ratio (z) = 0.32376 0.17293
#
# Static dielectric constant tensor:
#      x y z
#    x 3.553030 0.000000 0.000000 
#    y 0.000000 3.494320 0.000000 
#    z 0.000000 0.000000 3.640740 
# 
# 
# High freq. dielectric constant tensor:
#      x y z
#    x 1.745430 0.000000 0.000000 
#    y 0.000000 1.732910 0.000000 
#    z 0.000000 0.000000 1.759240 
# 
# From -- ./inp_files/6557.got.cif
#   From: 2010.03.12/outbox.cif.g09.slc.cpg/sg57_4_cif.got.tgz:6557.got - 2010.04.16 15:48:40.
