data_PCOD8232564
_publ_section_title
;
Structure prediction by ZEFSAII (Michael W. Deem and Ramdas Pophale) SiO2 
 PCOD8232564
Probable space group: P B C M
;
_chemical_formula_sum "Si O2"
_cell_formula_units_Z 64
_cell_length_a 11.982813
_cell_length_b 30.883271
_cell_length_c 8.789491
_cell_angle_alpha 90.000000
_cell_angle_beta 90.000000
_cell_angle_gamma 90.000000
_cell_volume 3252.713409
_symmetry_space_group_name_H-M "P B C M"
_symmetry_group_IT_number 57
_symmetry_cell_setting 'orthorhombic'
loop_
_space_group_symop_operation_xyz
x,y,z
-x,-y,1/2+z
x,1/2-y,-z
-x,1/2+y,1/2-z
-x,-y,-z
x,y,1/2-z
-x,1/2+y,z
x,1/2-y,1/2+z
loop_
_atom_site_type_symbol
_atom_site_label
_atom_site_fract_x
_atom_site_fract_y
_atom_site_fract_z
Si Si1 0.240182 0.050789 0.572373
Si Si2 0.226160 0.793437 0.931029
Si Si3 0.778159 0.453387 0.572352
Si Si4 0.619643 0.624986 0.430170
Si Si5 0.000495 0.322018 0.069547
Si Si6 0.630793 0.375073 0.569259
Si Si7 0.232240 0.205338 0.431084
Si Si8 0.998097 0.078491 0.928620
O O1 0.247965 0.061915 0.750000
O O2 0.327549 0.080229 0.484507
O O3 0.115781 0.060275 0.511596
O O4 0.270598 0.000933 0.537627
O O5 0.218251 0.791182 0.750000
O O6 0.301856 0.833209 0.987103
O O7 0.281519 0.750000 0.000000
O O8 0.104143 0.796711 0.003176
O O9 0.793546 0.445746 0.750000
O O10 0.692607 0.417887 0.504298
O O11 0.900262 0.449346 0.501788
O O12 0.618016 0.624996 0.250000
O O13 0.494287 0.627440 0.496769
O O14 0.689200 0.666270 0.489891
O O15 0.008164 0.316055 0.250000
O O16 0.988418 0.371828 0.020791
O O17 0.108877 0.301821 0.993405
O O18 0.627002 0.376847 0.750000
O O19 0.280390 0.250000 0.500000
O O20 0.230265 0.208125 0.250000
O O21 0.988194 0.073060 0.750000
#
# Coordination Sequence:
#
# PCOD8232564 Si02
#       8
#     8   8   8   8   8   8   8   8
#     4  10  21  37  57  86 118 149 185 233 285 331
#     4  11  22  38  60  85 116 150 188 233 282 339
#     4  10  20  36  60  85 114 151 190 228 279 342
#     4  10  22  40  60  81 110 150 194 233 278 335
#     4  11  21  36  59  85 117 150 183 229 281 338
#     4   9  20  39  59  81 111 149 190 235 280 329
#     4  11  23  38  59  85 112 147 187 230 280 337
#     4  10  20  34  55  84 119 148 180 231 285 332
#
# _framework density 19.675881
#
# number of rings (size 3 to 8) (size 9 to 14) (size 15 to 20)
#    0.000    1.750    2.500    1.875    0.000    3.000 
#    0.000    1.875    0.000    0.000    0.000    0.000 
#    0.000    0.000    0.000    0.000    0.000    0.000 
#
# Total GULP energy -793814.161970 kJ/mol
# GULP energy per Si atom -12403.346281 kJ/mol
# Density = 1.963110 g / cm^3
# Si number density = 19.675881 Si / 1000 Ang^3
#
#
#
# Elastic Constant Matrix: (Units=GPa)
#
#
# Indices 1 2 3 4 5 6 
#
# 1 146.1790 67.4299 19.8686 0.0000 0.0000 0.0000
# 2 67.4299 145.8798 32.3865 0.0000 0.0000 0.0000
# 3 19.8686 32.3865 37.5195 0.0000 0.0000 0.0000
# 4 0.0000 0.0000 0.0000 30.4648 0.0000 0.0000
# 5 0.0000 0.0000 0.0000 0.0000 8.0703 0.0000
# 6 0.0000 0.0000 0.0000 0.0000 0.0000 14.9198
#
#
#
# Elastic Compliance Matrix: (Units=1/GPa)
#
#
# Indices 1 2 3 4 5 6 
#
# 1 0.008755 -0.003733 -0.001414 0.000000 0.000000 0.000000
# 2 -0.003733 0.010072 -0.006717 0.000000 0.000000 0.000000
# 3 -0.001414 -0.006717 0.033200 0.000000 0.000000 0.000000
# 4 0.000000 0.000000 0.000000 0.032825 0.000000 0.000000
# 5 0.000000 0.000000 0.000000 0.000000 0.123910 0.000000
# 6 0.000000 0.000000 0.000000 0.000000 0.000000 0.067025
#
#
# Mechanical properties :
#
#
# Convention : Reuss Voigt Hill
#
# Bulk Modulus (GPa) = 35.33764 63.21647 49.27705
# Shear Modulus (GPa) = 16.18400 24.68388 20.43394
#
# Velocity S-wave (km/s) = 2.87109 3.54577 3.22611
# Velocity P-wave (km/s) = 5.38421 6.99728 6.24306
#
# Compressibility (1/GPa) = 0.02829844
#
# Stress axis : x y z
#
# Youngs Moduli (GPa) = 114.21971 99.28876 30.12083
#
# Poissons Ratio (x) = 0.37064 0.04259
# Poissons Ratio (y) = 0.42637 0.20232
# Poissons Ratio (z) = 0.16152 0.66692
#
# Static dielectric constant tensor:
#      x y z
#    x 3.677450 0.000000 0.000000 
#    y 0.000000 3.909360 0.000000 
#    z 0.000000 0.000000 3.356560 
# 
# 
# High freq. dielectric constant tensor:
#      x y z
#    x 1.763940 0.000000 0.000000 
#    y 0.000000 1.786420 0.000000 
#    z 0.000000 0.000000 1.748980 
# 
# From -- ./inp_files/3738.got.cif
#   From: 2010.03.12/outbox.cif.g09.slc.cpg/sg57_2_cif.got.tgz:3738.got - 2010.04.16 15:48:40.
