data_PCOD8232483
_publ_section_title
;
Structure prediction by ZEFSAII (Michael W. Deem and Ramdas Pophale) SiO2 
 PCOD8232483
Probable space group: P B C M
;
_chemical_formula_sum "Si O2"
_cell_formula_units_Z 40
_cell_length_a 11.419968
_cell_length_b 21.697001
_cell_length_c 8.619202
_cell_angle_alpha 90.000000
_cell_angle_beta 90.000000
_cell_angle_gamma 90.000000
_cell_volume 2135.657745
_symmetry_space_group_name_H-M "P B C M"
_symmetry_group_IT_number 57
_symmetry_cell_setting 'orthorhombic'
loop_
_space_group_symop_operation_xyz
x,y,z
-x,-y,1/2+z
x,1/2-y,-z
-x,1/2+y,1/2-z
-x,-y,-z
x,y,1/2-z
-x,1/2+y,z
x,1/2-y,1/2+z
loop_
_atom_site_type_symbol
_atom_site_label
_atom_site_fract_x
_atom_site_fract_y
_atom_site_fract_z
Si Si1 0.217231 0.187962 0.568379
Si Si2 0.818315 0.037200 0.574072
Si Si3 0.426205 0.557259 0.431178
Si Si4 0.481147 0.315754 0.434190
Si Si5 0.938069 0.923150 0.429502
O O1 0.165137 0.250000 0.500000
O O2 0.223639 0.193321 0.750000
O O3 0.348231 0.175190 0.506084
O O4 0.127136 0.137194 0.512024
O O5 0.769758 0.038257 0.750000
O O6 0.711350 0.045529 0.457070
O O7 0.921718 0.087844 0.549900
O O8 0.886935 0.974254 0.543243
O O9 0.500000 0.500000 0.500000
O O10 0.453428 0.559733 0.250000
O O11 0.451621 0.623992 0.504895
O O12 0.530147 0.250000 0.500000
O O13 0.493549 0.313970 0.250000
O O14 0.908694 0.939187 0.250000
#
# Coordination Sequence:
#
# PCOD8232483 Si02
#       5
#     8   8   8   8   8
#     4   9  18  32  52  77 104 134 169 212 258 308
#     4  10  20  34  54  79 107 140 177 219 269 323
#     4  12  24  38  57  82 111 144 186 233 281 334
#     4  10  20  36  57  82 113 147 183 225 275 330
#     4   9  18  34  54  77 107 140 174 216 265 317
#
# _framework density 18.729592
#
# number of rings (size 3 to 8) (size 9 to 14) (size 15 to 20)
#    0.000    2.000    0.000    4.200    0.000    4.000 
#    0.000    1.000    0.000    2.400    0.000    0.000 
#    0.000    0.000    0.000    0.000    0.000    0.000 
#
# Total GULP energy -495795.337241 kJ/mol
# GULP energy per Si atom -12394.883431 kJ/mol
# Density = 1.868696 g / cm^3
# Si number density = 18.729592 Si / 1000 Ang^3
#
#
#
# Elastic Constant Matrix: (Units=GPa)
#
#
# Indices 1 2 3 4 5 6 
#
# 1 97.6049 48.5916 22.3580 0.0000 0.0000 0.0000
# 2 48.5916 108.7558 31.7757 0.0000 0.0000 0.0000
# 3 22.3580 31.7757 68.1610 0.0000 0.0000 0.0000
# 4 0.0000 0.0000 0.0000 33.0040 0.0000 0.0000
# 5 0.0000 0.0000 0.0000 0.0000 23.9109 0.0000
# 6 0.0000 0.0000 0.0000 0.0000 0.0000 34.2366
#
#
#
# Elastic Compliance Matrix: (Units=1/GPa)
#
#
# Indices 1 2 3 4 5 6 
#
# 1 0.013376 -0.005434 -0.001854 0.000000 0.000000 0.000000
# 2 -0.005434 0.012853 -0.004209 0.000000 0.000000 0.000000
# 3 -0.001854 -0.004209 0.017242 0.000000 0.000000 0.000000
# 4 0.000000 0.000000 0.000000 0.030299 0.000000 0.000000
# 5 0.000000 0.000000 0.000000 0.000000 0.041822 0.000000
# 6 0.000000 0.000000 0.000000 0.000000 0.000000 0.029209
#
#
# Mechanical properties :
#
#
# Convention : Reuss Voigt Hill
#
# Bulk Modulus (GPa) = 48.84078 53.33026 51.08552
# Shear Modulus (GPa) = 28.63364 29.68340 29.15852
#
# Velocity S-wave (km/s) = 3.91422 3.98532 3.94993
# Velocity P-wave (km/s) = 6.82360 7.05072 6.93809
#
# Compressibility (1/GPa) = 0.02047469
#
# Stress axis : x y z
#
# Youngs Moduli (GPa) = 74.76329 77.80391 57.99944
#
# Poissons Ratio (x) = 0.42282 0.10753
# Poissons Ratio (y) = 0.40630 0.24413
# Poissons Ratio (z) = 0.13861 0.32749
#
# Static dielectric constant tensor:
#      x y z
#    x 3.679730 0.000000 0.000000 
#    y 0.000000 3.547680 0.000000 
#    z 0.000000 0.000000 3.409880 
# 
# 
# High freq. dielectric constant tensor:
#      x y z
#    x 1.724650 0.000000 0.000000 
#    y 0.000000 1.723360 0.000000 
#    z 0.000000 0.000000 1.732620 
# 
# From -- ./inp_files/2878.got.cif
#   From: 2010.03.12/outbox.cif.g09.slc.cpg/sg57_2_cif.got.tgz:2878.got - 2010.04.16 15:48:40.
