data_PCOD8232348
_publ_section_title
;
Structure prediction by ZEFSAII (Michael W. Deem and Ramdas Pophale) SiO2 
 PCOD8232348
Probable space group: P B C M
;
_chemical_formula_sum "Si O2"
_cell_formula_units_Z 64
_cell_length_a 15.976443
_cell_length_b 24.451162
_cell_length_c 9.104451
_cell_angle_alpha 90.000000
_cell_angle_beta 90.000000
_cell_angle_gamma 90.000000
_cell_volume 3556.586374
_symmetry_space_group_name_H-M "P B C M"
_symmetry_group_IT_number 57
_symmetry_cell_setting 'orthorhombic'
loop_
_space_group_symop_operation_xyz
x,y,z
-x,-y,1/2+z
x,1/2-y,-z
-x,1/2+y,1/2-z
-x,-y,-z
x,y,1/2-z
-x,1/2+y,z
x,1/2-y,1/2+z
loop_
_atom_site_type_symbol
_atom_site_label
_atom_site_fract_x
_atom_site_fract_y
_atom_site_fract_z
Si Si1 0.355933 0.597269 0.076161
Si Si2 0.752743 0.192741 0.926392
Si Si3 0.058948 0.836036 0.418127
Si Si4 0.984075 0.553622 0.585330
Si Si5 0.827148 0.587415 0.085494
Si Si6 0.313080 0.470938 0.085827
Si Si7 0.894483 0.700327 0.414168
Si Si8 0.505052 0.943492 0.082924
O O1 0.359786 0.609281 0.250000
O O2 0.325046 0.535096 0.044256
O O3 0.297927 0.642116 0.996851
O O4 0.449573 0.601413 0.005343
O O5 0.738966 0.193933 0.750000
O O6 0.850207 0.184834 0.968122
O O7 0.722805 0.250000 0.000000
O O8 0.040581 0.819840 0.250000
O O9 0.058033 0.902112 0.435508
O O10 0.985761 0.811835 0.517461
O O11 0.973293 0.535204 0.750000
O O12 0.897639 0.577319 0.532197
O O13 0.000000 0.500000 0.500000
O O14 0.849515 0.566555 0.250000
O O15 0.823694 0.653221 0.084267
O O16 0.743982 0.557195 0.035784
O O17 0.274271 0.468449 0.250000
O O18 0.395706 0.432505 0.083662
O O19 0.851586 0.750000 0.500000
O O20 0.915197 0.718304 0.250000
O O21 0.471087 0.947977 0.250000
O O22 0.500000 0.000000 0.000000
#
# Coordination Sequence:
#
# PCOD8232348 Si02
#       8
#     8   8   8   8   8   8   8   8
#     4  10  21  36  55  81 109 141 178 217 269 324
#     4  11  23  38  55  78 107 142 183 229 273 320
#     4   9  20  36  53  74 100 135 179 223 268 315
#     4  10  20  34  50  72 104 141 178 217 265 319
#     4  10  21  34  50  76 105 137 175 214 263 315
#     4   9  19  34  54  82 112 140 173 216 266 318
#     4  10  20  34  53  75  99 133 175 219 264 311
#     4   9  17  32  54  81 109 137 170 208 255 311
#
# _framework density 17.994783000000002
#
# number of rings (size 3 to 8) (size 9 to 14) (size 15 to 20)
#    0.000    2.250    0.000    3.375    1.750    7.000 
#    0.000    0.000    0.000    0.750    0.000    1.750 
#    0.000    0.000    0.000    0.000    0.000    0.000 
#
# Total GULP energy -792937.184321 kJ/mol
# GULP energy per Si atom -12389.643505 kJ/mol
# Density = 1.795383 g / cm^3
# Si number density = 17.994783 Si / 1000 Ang^3
#
#
#
# Elastic Constant Matrix: (Units=GPa)
#
#
# Indices 1 2 3 4 5 6 
#
# 1 62.8234 41.3794 34.0595 0.0000 0.0000 0.0000
# 2 41.3794 97.2086 61.8710 0.0000 0.0000 0.0000
# 3 34.0595 61.8710 125.3784 0.0000 0.0000 0.0000
# 4 0.0000 0.0000 0.0000 33.5087 0.0000 0.0000
# 5 0.0000 0.0000 0.0000 0.0000 30.8783 0.0000
# 6 0.0000 0.0000 0.0000 0.0000 0.0000 21.8449
#
#
#
# Elastic Compliance Matrix: (Units=1/GPa)
#
#
# Indices 1 2 3 4 5 6 
#
# 1 0.022464 -0.008278 -0.002017 0.000000 0.000000 0.000000
# 2 -0.008278 0.018048 -0.006658 0.000000 0.000000 0.000000
# 3 -0.002017 -0.006658 0.011809 0.000000 0.000000 0.000000
# 4 0.000000 0.000000 0.000000 0.029843 0.000000 0.000000
# 5 0.000000 0.000000 0.000000 0.000000 0.032385 0.000000
# 6 0.000000 0.000000 0.000000 0.000000 0.000000 0.045777
#
#
# Mechanical properties :
#
#
# Convention : Reuss Voigt Hill
#
# Bulk Modulus (GPa) = 54.30321 62.22557 58.26439
# Shear Modulus (GPa) = 24.95358 27.11975 26.03666
#
# Velocity S-wave (km/s) = 3.72790 3.88634 3.80794
# Velocity P-wave (km/s) = 6.98372 7.40223 7.19602
#
# Compressibility (1/GPa) = 0.01841512
#
# Stress axis : x y z
#
# Youngs Moduli (GPa) = 44.51574 55.40630 84.67990
#
# Poissons Ratio (x) = 0.45868 0.17082
# Poissons Ratio (y) = 0.36852 0.56376
# Poissons Ratio (z) = 0.08980 0.36887
#
# Static dielectric constant tensor:
#      x y z
#    x 3.479440 0.000000 0.000000 
#    y 0.000000 3.328420 0.000000 
#    z 0.000000 0.000000 3.565230 
# 
# 
# High freq. dielectric constant tensor:
#      x y z
#    x 1.674860 0.000000 0.000000 
#    y 0.000000 1.687040 0.000000 
#    z 0.000000 0.000000 1.718620 
# 
# From -- ./inp_files/5538.got.cif
#   From: 2010.03.12/outbox.cif.g09.slc.cpg/sg57_3_cif.got.tgz:5538.got - 2010.04.16 15:48:40.
