data_PCOD8232517
_publ_section_title
;
Structure prediction by ZEFSAII (Michael W. Deem and Ramdas Pophale) SiO2 
 PCOD8232517
Probable space group: P B C M
;
_chemical_formula_sum "Si O2"
_cell_formula_units_Z 64
_cell_length_a 20.946734
_cell_length_b 18.517899
_cell_length_c 8.987527
_cell_angle_alpha 90.000000
_cell_angle_beta 90.000000
_cell_angle_gamma 90.000000
_cell_volume 3486.167396
_symmetry_space_group_name_H-M "P B C M"
_symmetry_group_IT_number 57
_symmetry_cell_setting 'orthorhombic'
loop_
_space_group_symop_operation_xyz
x,y,z
-x,-y,1/2+z
x,1/2-y,-z
-x,1/2+y,1/2-z
-x,-y,-z
x,y,1/2-z
-x,1/2+y,z
x,1/2-y,1/2+z
loop_
_atom_site_type_symbol
_atom_site_label
_atom_site_fract_x
_atom_site_fract_y
_atom_site_fract_z
Si Si1 0.815589 0.033712 0.076753
Si Si2 0.498169 0.577032 0.926579
Si Si3 0.400551 0.677172 0.424855
Si Si4 0.252348 0.678023 0.077243
Si Si5 0.123814 0.322565 0.924969
Si Si6 0.063887 0.472852 0.575092
Si Si7 0.618155 0.826734 0.424854
Si Si8 0.755195 0.883700 0.077514
O O1 0.834004 0.038235 0.250000
O O2 0.784388 0.107633 0.018052
O O3 0.765541 0.968877 0.048924
O O4 0.879116 0.022797 0.982273
O O5 0.492380 0.570866 0.750000
O O6 0.560936 0.621205 0.974997
O O7 0.500000 0.500000 0.000000
O O8 0.435233 0.612123 0.994545
O O9 0.426539 0.750000 0.500000
O O10 0.415654 0.678527 0.250000
O O11 0.326302 0.666811 0.459437
O O12 0.240531 0.688277 0.250000
O O13 0.225163 0.750000 0.000000
O O14 0.126957 0.311103 0.750000
O O15 0.077657 0.389337 0.967948
O O16 0.095947 0.250000 0.000000
O O17 0.195180 0.336804 0.983016
O O18 0.057681 0.482465 0.750000
O O19 0.000000 0.500000 0.500000
O O20 0.608485 0.750000 0.500000
O O21 0.617548 0.814492 0.250000
O O22 0.684337 0.863500 0.476464
O O23 0.765850 0.864403 0.250000
#
# Coordination Sequence:
#
# PCOD8232517 Si02
#       8
#     8   8   8   8   8   8   8   8
#     4   9  18  34  57  81 108 144 181 217 268 321
#     4  11  24  39  55  77 105 141 184 231 281 333
#     4  10  20  36  58  80 107 141 182 229 277 333
#     4   9  19  34  56  82 109 143 181 227 277 328
#     4  10  20  34  54  82 113 142 178 220 262 311
#     4  10  21  37  57  82 112 145 182 223 264 312
#     4  10  22  37  55  77 106 140 177 219 269 326
#     4   9  18  33  55  80 107 140 176 217 266 321
#
# _framework density 18.358270000000001
#
# number of rings (size 3 to 8) (size 9 to 14) (size 15 to 20)
#    0.000    2.250    0.000    2.250    1.750    6.000 
#    0.000    0.625    0.000    0.000    0.000    0.000 
#    0.000    0.000    0.000    0.000    0.000    0.000 
#
# Total GULP energy -793766.490455 kJ/mol
# GULP energy per Si atom -12402.601413 kJ/mol
# Density = 1.831649 g / cm^3
# Si number density = 18.358270 Si / 1000 Ang^3
#
#
#
# Elastic Constant Matrix: (Units=GPa)
#
#
# Indices 1 2 3 4 5 6 
#
# 1 104.4837 79.7651 53.7938 0.0000 0.0000 0.0000
# 2 79.7651 173.1223 65.0594 0.0000 0.0000 0.0000
# 3 53.7938 65.0594 73.6451 0.0000 0.0000 0.0000
# 4 0.0000 0.0000 0.0000 35.8706 0.0000 0.0000
# 5 0.0000 0.0000 0.0000 0.0000 29.0359 0.0000
# 6 0.0000 0.0000 0.0000 0.0000 0.0000 26.0444
#
#
#
# Elastic Compliance Matrix: (Units=1/GPa)
#
#
# Indices 1 2 3 4 5 6 
#
# 1 0.017793 -0.004961 -0.008615 0.000000 0.000000 0.000000
# 2 -0.004961 0.010030 -0.005237 0.000000 0.000000 0.000000
# 3 -0.008615 -0.005237 0.024498 0.000000 0.000000 0.000000
# 4 0.000000 0.000000 0.000000 0.027878 0.000000 0.000000
# 5 0.000000 0.000000 0.000000 0.000000 0.034440 0.000000
# 6 0.000000 0.000000 0.000000 0.000000 0.000000 0.038396
#
#
# Mechanical properties :
#
#
# Convention : Reuss Voigt Hill
#
# Bulk Modulus (GPa) = 68.04562 83.16529 75.60545
# Shear Modulus (GPa) = 25.56777 28.36571 26.96674
#
# Velocity S-wave (km/s) = 3.73595 3.93506 3.83680
# Velocity P-wave (km/s) = 7.46697 8.12686 7.80390
#
# Compressibility (1/GPa) = 0.01469602
#
# Stress axis : x y z
#
# Youngs Moduli (GPa) = 56.20100 99.70067 40.82016
#
# Poissons Ratio (x) = 0.49459 0.35165
# Poissons Ratio (y) = 0.27880 0.21378
# Poissons Ratio (z) = 0.48415 0.52214
#
# Static dielectric constant tensor:
#      x y z
#    x 3.330140 0.000000 0.000000 
#    y 0.000000 3.573030 0.000000 
#    z 0.000000 0.000000 3.389590 
# 
# 
# High freq. dielectric constant tensor:
#      x y z
#    x 1.703300 0.000000 0.000000 
#    y 0.000000 1.722920 0.000000 
#    z 0.000000 0.000000 1.714840 
# 
# From -- ./inp_files/8596.got.cif
#   From: 2010.03.12/outbox.cif.g09.slc.cpg/sg57_5_cif.got.tgz:8596.got - 2010.04.16 15:48:40.
