data_PCOD8232762
_publ_section_title
;
Structure prediction by ZEFSAII (Michael W. Deem and Ramdas Pophale) SiO2 
 PCOD8232762
Probable space group: P B C M
;
_chemical_formula_sum "Si O2"
_cell_formula_units_Z 48
_cell_length_a 18.647913
_cell_length_b 14.719248
_cell_length_c 9.164155
_cell_angle_alpha 90.000000
_cell_angle_beta 90.000000
_cell_angle_gamma 90.000000
_cell_volume 2515.407104
_symmetry_space_group_name_H-M "P B C M"
_symmetry_group_IT_number 57
_symmetry_cell_setting 'orthorhombic'
loop_
_space_group_symop_operation_xyz
x,y,z
-x,-y,1/2+z
x,1/2-y,-z
-x,1/2+y,1/2-z
-x,-y,-z
x,y,1/2-z
-x,1/2+y,z
x,1/2-y,1/2+z
loop_
_atom_site_type_symbol
_atom_site_label
_atom_site_fract_x
_atom_site_fract_y
_atom_site_fract_z
Si Si1 0.493743 0.848063 0.422616
Si Si2 0.597495 0.521153 0.082706
Si Si3 0.762893 0.002621 0.581392
Si Si4 0.141095 0.336378 0.917980
Si Si5 0.165036 0.840081 0.577832
Si Si6 0.011317 0.907328 0.580870
O O1 0.481280 0.750000 0.500000
O O2 0.501902 0.830504 0.250000
O O3 0.428603 0.918492 0.457382
O O4 0.564217 0.899547 0.482595
O O5 0.576415 0.541919 0.250000
O O6 0.681866 0.528167 0.057561
O O7 0.777555 0.029196 0.750000
O O8 0.779079 0.085185 0.474920
O O9 0.816307 0.924099 0.527570
O O10 0.156692 0.320673 0.750000
O O11 0.056513 0.343673 0.952298
O O12 0.172901 0.250000 0.000000
O O13 0.191614 0.750000 0.500000
O O14 0.169835 0.828775 0.750000
O O15 0.083913 0.860474 0.524581
O O16 0.017478 0.930898 0.750000
O O17 0.000000 0.000000 0.500000
#
# Coordination Sequence:
#
# PCOD8232762 Si02
#       6
#     8   8   8   8   8   8
#     4  10  20  36  60  87 115 147 185 228 274 328
#     4   9  20  38  59  85 115 149 187 228 276 328
#     4  10  21  39  59  81 115 150 184 230 280 331
#     4  10  21  36  55  79 108 144 184 229 280 329
#     4  11  23  37  56  82 111 147 191 235 283 336
#     4  10  20  35  56  80 105 141 187 236 285 332
#
# _framework density 19.082398000000001
#
# number of rings (size 3 to 8) (size 9 to 14) (size 15 to 20)
#    0.000    2.000    1.667    1.500    0.000    4.667 
#    0.000    3.333    0.000    0.000    0.000    0.000 
#    0.000    0.000    0.000    0.000    0.000    0.000 
#
# Total GULP energy -595204.897683 kJ/mol
# GULP energy per Si atom -12400.102035 kJ/mol
# Density = 1.903897 g / cm^3
# Si number density = 19.082398 Si / 1000 Ang^3
#
#
#
# Elastic Constant Matrix: (Units=GPa)
#
#
# Indices 1 2 3 4 5 6 
#
# 1 51.7610 -3.8225 18.4248 0.0000 0.0000 0.0000
# 2 -3.8225 104.6693 47.0396 0.0000 0.0000 0.0000
# 3 18.4248 47.0396 65.3219 0.0000 0.0000 0.0000
# 4 0.0000 0.0000 0.0000 42.2032 0.0000 0.0000
# 5 0.0000 0.0000 0.0000 0.0000 26.6132 0.0000
# 6 0.0000 0.0000 0.0000 0.0000 0.0000 9.4761
#
#
#
# Elastic Compliance Matrix: (Units=1/GPa)
#
#
# Indices 1 2 3 4 5 6 
#
# 1 0.023564 0.005688 -0.010743 0.000000 0.000000 0.000000
# 2 0.005688 0.015498 -0.012765 0.000000 0.000000 0.000000
# 3 -0.010743 -0.012765 0.027531 0.000000 0.000000 0.000000
# 4 0.000000 0.000000 0.000000 0.023695 0.000000 0.000000
# 5 0.000000 0.000000 0.000000 0.000000 0.037575 0.000000
# 6 0.000000 0.000000 0.000000 0.000000 0.000000 0.105529
#
#
# Mechanical properties :
#
#
# Convention : Reuss Voigt Hill
#
# Bulk Modulus (GPa) = 32.30560 38.33737 35.32148
# Shear Modulus (GPa) = 17.89871 26.33253 22.11562
#
# Velocity S-wave (km/s) = 3.06595 3.71878 3.40803
# Velocity P-wave (km/s) = 5.43136 6.21073 5.83408
#
# Compressibility (1/GPa) = 0.03095439
#
# Stress axis : x y z
#
# Youngs Moduli (GPa) = 42.43828 64.52238 36.32209
#
# Poissons Ratio (x) = -0.36703 0.39020
# Poissons Ratio (y) = -0.24141 0.46366
# Poissons Ratio (z) = 0.45591 0.82365
#
# Static dielectric constant tensor:
#      x y z
#    x 3.491090 0.000000 0.000000 
#    y 0.000000 3.448280 0.000000 
#    z 0.000000 0.000000 3.478350 
# 
# 
# High freq. dielectric constant tensor:
#      x y z
#    x 1.738240 0.000000 0.000000 
#    y 0.000000 1.746620 0.000000 
#    z 0.000000 0.000000 1.742060 
# 
# From -- ./inp_files/6498.got.cif
#   From: 2010.03.12/outbox.cif.g09.slc.cpg/sg57_4_cif.got.tgz:6498.got - 2010.04.16 15:48:40.
