data_PCOD8232905
_publ_section_title
;
Structure prediction by ZEFSAII (Michael W. Deem and Ramdas Pophale) SiO2 
 PCOD8232905
Probable space group: P B C M
;
_chemical_formula_sum "Si O2"
_cell_formula_units_Z 64
_cell_length_a 19.867802
_cell_length_b 18.652512
_cell_length_c 8.769286
_cell_angle_alpha 90.000000
_cell_angle_beta 90.000000
_cell_angle_gamma 90.000000
_cell_volume 3249.760724
_symmetry_space_group_name_H-M "P B C M"
_symmetry_group_IT_number 57
_symmetry_cell_setting 'orthorhombic'
loop_
_space_group_symop_operation_xyz
x,y,z
-x,-y,1/2+z
x,1/2-y,-z
-x,1/2+y,1/2-z
-x,-y,-z
x,y,1/2-z
-x,1/2+y,z
x,1/2-y,1/2+z
loop_
_atom_site_type_symbol
_atom_site_label
_atom_site_fract_x
_atom_site_fract_y
_atom_site_fract_z
Si Si1 0.784371 0.825060 0.072603
Si Si2 0.609011 0.172950 0.571299
Si Si3 0.029816 0.828102 0.931597
Si Si4 0.337739 0.415128 0.429313
Si Si5 0.870244 0.433095 0.431715
Si Si6 0.716451 0.442310 0.428244
Si Si7 0.488014 0.076935 0.929663
Si Si8 0.088259 0.420421 0.070319
O O1 0.778992 0.810799 0.250000
O O2 0.713638 0.855106 0.005629
O O3 0.840703 0.883518 0.033807
O O4 0.804209 0.750000 0.000000
O O5 0.615648 0.250000 0.500000
O O6 0.601199 0.182061 0.750000
O O7 0.676194 0.129445 0.527947
O O8 0.542987 0.132535 0.505482
O O9 0.034860 0.823578 0.750000
O O10 0.017256 0.750000 0.000000
O O11 0.098350 0.860111 0.002072
O O12 0.968474 0.878302 0.979857
O O13 0.327927 0.420104 0.250000
O O14 0.320730 0.492568 0.492643
O O15 0.413851 0.393936 0.474539
O O16 0.878011 0.435595 0.250000
O O17 0.792806 0.434212 0.484850
O O18 0.909835 0.499192 0.506771
O O19 0.713846 0.457393 0.250000
O O20 0.495932 0.068170 0.750000
O O21 0.500000 0.000000 0.000000
O O22 0.071696 0.421069 0.250000
#
# Coordination Sequence:
#
# PCOD8232905 Si02
#       8
#     8   8   8   8   8   8   8   8
#     4  10  22  37  56  85 121 155 194 238 291 350
#     4  10  22  39  57  86 122 157 200 249 300 355
#     4  12  26  44  64  89 123 161 201 250 304 362
#     4  10  20  36  58  86 116 153 196 243 296 355
#     4  11  23  40  64  93 122 157 203 252 303 361
#     4  10  21  38  61  88 119 155 199 249 296 354
#     4  10  20  35  59  85 116 152 197 246 295 354
#     4  11  22  40  64  91 122 160 202 248 298 359
#
# _framework density 19.693756
#
# number of rings (size 3 to 8) (size 9 to 14) (size 15 to 20)
#    0.000    1.500    2.500    2.625    0.000    5.000 
#    0.000    1.250    0.000    0.000    0.000    0.000 
#    0.000    0.000    0.000    0.000    0.000    0.000 
#
# Total GULP energy -793796.532326 kJ/mol
# GULP energy per Si atom -12403.070818 kJ/mol
# Density = 1.964893 g / cm^3
# Si number density = 19.693756 Si / 1000 Ang^3
#
#
#
# Elastic Constant Matrix: (Units=GPa)
#
#
# Indices 1 2 3 4 5 6 
#
# 1 108.5750 39.0632 33.3833 0.0000 0.0000 0.0000
# 2 39.0632 98.3053 24.1502 0.0000 0.0000 0.0000
# 3 33.3833 24.1502 50.9783 0.0000 0.0000 0.0000
# 4 0.0000 0.0000 0.0000 36.6434 0.0000 0.0000
# 5 0.0000 0.0000 0.0000 0.0000 23.5176 0.0000
# 6 0.0000 0.0000 0.0000 0.0000 0.0000 42.2909
#
#
#
# Elastic Compliance Matrix: (Units=1/GPa)
#
#
# Indices 1 2 3 4 5 6 
#
# 1 0.012424 -0.003325 -0.006560 0.000000 0.000000 0.000000
# 2 -0.003325 0.012402 -0.003698 0.000000 0.000000 0.000000
# 3 -0.006560 -0.003698 0.025664 0.000000 0.000000 0.000000
# 4 0.000000 0.000000 0.000000 0.027290 0.000000 0.000000
# 5 0.000000 0.000000 0.000000 0.000000 0.042521 0.000000
# 6 0.000000 0.000000 0.000000 0.000000 0.000000 0.023646
#
#
# Mechanical properties :
#
#
# Convention : Reuss Voigt Hill
#
# Bulk Modulus (GPa) = 42.87599 50.11690 46.49644
# Shear Modulus (GPa) = 27.95041 31.24117 29.59579
#
# Velocity S-wave (km/s) = 3.77138 3.98722 3.88080
# Velocity P-wave (km/s) = 6.38616 6.83378 6.61376
#
# Compressibility (1/GPa) = 0.02332308
#
# Stress axis : x y z
#
# Youngs Moduli (GPa) = 80.49159 80.63155 38.96487
#
# Poissons Ratio (x) = 0.26810 0.25563
# Poissons Ratio (y) = 0.26764 0.14409
# Poissons Ratio (z) = 0.52806 0.29816
#
# Static dielectric constant tensor:
#      x y z
#    x 4.131330 0.000000 0.000000 
#    y 0.000000 3.576490 0.000000 
#    z 0.000000 0.000000 3.534080 
# 
# 
# High freq. dielectric constant tensor:
#      x y z
#    x 1.786880 0.000000 0.000000 
#    y 0.000000 1.769170 0.000000 
#    z 0.000000 0.000000 1.762740 
# 
# From -- ./inp_files/8524.got.cif
#   From: 2010.03.12/outbox.cif.g09.slc.cpg/sg57_5_cif.got.tgz:8524.got - 2010.04.16 15:48:40.
