data_PCOD8232838
_publ_section_title
;
Structure prediction by ZEFSAII (Michael W. Deem and Ramdas Pophale) SiO2 
 PCOD8232838
Probable space group: P B C M
;
_chemical_formula_sum "Si O2"
_cell_formula_units_Z 64
_cell_length_a 20.644432
_cell_length_b 18.586742
_cell_length_c 8.865206
_cell_angle_alpha 90.000000
_cell_angle_beta 90.000000
_cell_angle_gamma 90.000000
_cell_volume 3401.692408
_symmetry_space_group_name_H-M "P B C M"
_symmetry_group_IT_number 57
_symmetry_cell_setting 'orthorhombic'
loop_
_space_group_symop_operation_xyz
x,y,z
-x,-y,1/2+z
x,1/2-y,-z
-x,1/2+y,1/2-z
-x,-y,-z
x,y,1/2-z
-x,1/2+y,z
x,1/2-y,1/2+z
loop_
_atom_site_type_symbol
_atom_site_label
_atom_site_fract_x
_atom_site_fract_y
_atom_site_fract_z
Si Si1 0.805439 0.033699 0.924372
Si Si2 0.500060 0.577068 0.072454
Si Si3 0.386482 0.676896 0.426391
Si Si4 0.238916 0.674761 0.071540
Si Si5 0.119038 0.326602 0.073732
Si Si6 0.058489 0.458890 0.923842
Si Si7 0.621591 0.672144 0.428963
Si Si8 0.745581 0.900349 0.426756
O O1 0.784869 0.037750 0.750000
O O2 0.878226 0.007145 0.944776
O O3 0.803735 0.111864 0.999973
O O4 0.756028 0.980554 0.009827
O O5 0.501607 0.567887 0.250000
O O6 0.433681 0.614125 0.017148
O O7 0.561472 0.623357 0.018126
O O8 0.500000 0.500000 0.000000
O O9 0.411117 0.750000 0.500000
O O10 0.392401 0.688275 0.250000
O O11 0.313241 0.658616 0.474013
O O12 0.228523 0.677683 0.250000
O O13 0.215962 0.750000 0.000000
O O14 0.105635 0.321435 0.250000
O O15 0.191943 0.351708 0.038915
O O16 0.106763 0.250000 0.000000
O O17 0.067959 0.382168 0.003504
O O18 0.042408 0.444931 0.750000
O O19 0.000000 0.500000 0.000000
O O20 0.612321 0.750000 0.500000
O O21 0.625460 0.680078 0.250000
O O22 0.686744 0.635951 0.487424
O O23 0.730421 0.905614 0.250000
#
# Coordination Sequence:
#
# PCOD8232838 Si02
#       8
#     8   8   8   8   8   8   8   8
#     4  10  21  37  58  85 117 149 184 230 279 330
#     4  10  23  39  54  77 107 141 184 230 279 334
#     4   9  19  36  56  78 103 136 180 227 276 333
#     4  10  20  35  57  84 112 145 186 234 285 337
#     4  10  20  35  57  85 116 150 190 232 278 331
#     4  10  21  38  60  85 116 153 190 230 275 327
#     4  11  23  38  56  81 111 146 186 230 282 338
#     4  10  21  36  57  84 114 150 187 230 281 335
#
# _framework density 18.814166
#
# number of rings (size 3 to 8) (size 9 to 14) (size 15 to 20)
#    0.000    2.000    0.000    3.000    1.750    6.000 
#    0.000    0.625    0.000    3.000    0.000    0.000 
#    0.000    0.000    0.000    0.000    0.000    0.000 
#
# Total GULP energy -793868.775543 kJ/mol
# GULP energy per Si atom -12404.199618 kJ/mol
# Density = 1.877134 g / cm^3
# Si number density = 18.814166 Si / 1000 Ang^3
#
#
#
# Elastic Constant Matrix: (Units=GPa)
#
#
# Indices 1 2 3 4 5 6 
#
# 1 65.4213 53.9676 45.0562 0.0000 0.0000 0.0000
# 2 53.9676 168.9736 67.2598 0.0000 0.0000 0.0000
# 3 45.0562 67.2598 93.9354 0.0000 0.0000 0.0000
# 4 0.0000 0.0000 0.0000 42.6724 0.0000 0.0000
# 5 0.0000 0.0000 0.0000 0.0000 28.6383 0.0000
# 6 0.0000 0.0000 0.0000 0.0000 0.0000 22.1248
#
#
#
# Elastic Compliance Matrix: (Units=1/GPa)
#
#
# Indices 1 2 3 4 5 6 
#
# 1 0.025056 -0.004502 -0.008795 0.000000 0.000000 0.000000
# 2 -0.004502 0.009086 -0.004346 0.000000 0.000000 0.000000
# 3 -0.008795 -0.004346 0.017976 0.000000 0.000000 0.000000
# 4 0.000000 0.000000 0.000000 0.023434 0.000000 0.000000
# 5 0.000000 0.000000 0.000000 0.000000 0.034918 0.000000
# 6 0.000000 0.000000 0.000000 0.000000 0.000000 0.045198
#
#
# Mechanical properties :
#
#
# Convention : Reuss Voigt Hill
#
# Bulk Modulus (GPa) = 59.40983 73.43305 66.42144
# Shear Modulus (GPa) = 25.43669 29.49020 27.46344
#
# Velocity S-wave (km/s) = 3.68094 3.96339 3.82477
# Velocity P-wave (km/s) = 7.05064 7.74985 7.40850
#
# Compressibility (1/GPa) = 0.01683223
#
# Stress axis : x y z
#
# Youngs Moduli (GPa) = 39.91013 110.05924 55.62897
#
# Poissons Ratio (x) = 0.49547 0.48925
# Poissons Ratio (y) = 0.17967 0.24179
# Poissons Ratio (z) = 0.35100 0.47837
#
# Static dielectric constant tensor:
#      x y z
#    x 3.477620 0.000000 0.000000 
#    y 0.000000 3.649100 0.000000 
#    z 0.000000 0.000000 3.512780 
# 
# 
# High freq. dielectric constant tensor:
#      x y z
#    x 1.723080 0.000000 0.000000 
#    y 0.000000 1.741820 0.000000 
#    z 0.000000 0.000000 1.742910 
# 
# From -- ./inp_files/8381.got.cif
#   From: 2010.03.12/outbox.cif.g09.slc.cpg/sg57_5_cif.got.tgz:8381.got - 2010.04.16 15:48:40.
