data_PCOD8232617
_publ_section_title
;
Structure prediction by ZEFSAII (Michael W. Deem and Ramdas Pophale) SiO2 
 PCOD8232617
Probable space group: P B C M
;
_chemical_formula_sum "Si O2"
_cell_formula_units_Z 56
_cell_length_a 8.915610
_cell_length_b 21.728922
_cell_length_c 14.393771
_cell_angle_alpha 90.000000
_cell_angle_beta 90.000000
_cell_angle_gamma 90.000000
_cell_volume 2788.456235
_symmetry_space_group_name_H-M "P B C M"
_symmetry_group_IT_number 57
_symmetry_cell_setting 'orthorhombic'
loop_
_space_group_symop_operation_xyz
x,y,z
-x,-y,1/2+z
x,1/2-y,-z
-x,1/2+y,1/2-z
-x,-y,-z
x,y,1/2-z
-x,1/2+y,z
x,1/2-y,1/2+z
loop_
_atom_site_type_symbol
_atom_site_label
_atom_site_fract_x
_atom_site_fract_y
_atom_site_fract_z
Si Si1 0.106959 0.602012 0.144550
Si Si2 0.323442 0.707422 0.357430
Si Si3 0.603609 0.682466 0.015581
Si Si4 0.636038 0.024833 0.643876
Si Si5 0.397738 0.840711 0.355362
Si Si6 0.815576 0.574977 0.032712
Si Si7 0.710338 0.518108 0.855082
O O1 0.041061 0.604115 0.250000
O O2 0.175572 0.668509 0.116049
O O3 0.240202 0.552752 0.138664
O O4 0.982550 0.582873 0.070187
O O5 0.362075 0.696664 0.250000
O O6 0.464572 0.683444 0.414465
O O7 0.296585 0.780331 0.379729
O O8 0.729475 0.637929 0.056773
O O9 0.674041 0.750000 0.000000
O O10 0.547741 0.657089 0.916645
O O11 0.655184 0.003488 0.750000
O O12 0.692804 0.095587 0.629799
O O13 0.462672 0.020075 0.613241
O O14 0.738492 0.983027 0.580740
O O15 0.455976 0.836827 0.250000
O O16 0.812819 0.560653 0.922416
O O17 0.729895 0.543353 0.750000
#
# Coordination Sequence:
#
# PCOD8232617 Si02
#       7
#     8   8   8   8   8   8   8
#     4  10  22  38  56  82 115 153 194 231 279 342
#     4   9  19  37  60  81 111 153 193 235 284 341
#     4  10  21  36  59  88 112 143 192 241 288 338
#     4  10  20  34  59  91 118 146 191 244 290 341
#     4   9  18  35  58  86 115 146 188 237 286 337
#     4  12  22  35  59  84 120 150 189 238 297 334
#     4  10  21  37  57  82 115 155 193 231 284 349
#
# _framework density 20.082795999999998
#
# number of rings (size 3 to 8) (size 9 to 14) (size 15 to 20)
#    0.000    2.000    1.429    2.143    2.000    2.286 
#    0.000    2.143    0.000    0.000    0.000    0.000 
#    0.000    0.000    0.000    0.000    0.000    0.000 
#
# Total GULP energy -694321.677548 kJ/mol
# GULP energy per Si atom -12398.601385 kJ/mol
# Density = 2.003709 g / cm^3
# Si number density = 20.082796 Si / 1000 Ang^3
#
#
#
# Elastic Constant Matrix: (Units=GPa)
#
#
# Indices 1 2 3 4 5 6 
#
# 1 81.5728 56.1628 40.2247 0.0000 0.0000 0.0000
# 2 56.1628 130.9886 43.5505 0.0000 0.0000 0.0000
# 3 40.2247 43.5505 76.7282 0.0000 0.0000 0.0000
# 4 0.0000 0.0000 0.0000 29.2033 0.0000 0.0000
# 5 0.0000 0.0000 0.0000 0.0000 23.4955 0.0000
# 6 0.0000 0.0000 0.0000 0.0000 0.0000 25.2564
#
#
#
# Elastic Compliance Matrix: (Units=1/GPa)
#
#
# Indices 1 2 3 4 5 6 
#
# 1 0.019988 -0.006269 -0.006920 0.000000 0.000000 0.000000
# 2 -0.006269 0.011376 -0.003171 0.000000 0.000000 0.000000
# 3 -0.006920 -0.003171 0.018461 0.000000 0.000000 0.000000
# 4 0.000000 0.000000 0.000000 0.034243 0.000000 0.000000
# 5 0.000000 0.000000 0.000000 0.000000 0.042561 0.000000
# 6 0.000000 0.000000 0.000000 0.000000 0.000000 0.039594
#
#
# Mechanical properties :
#
#
# Convention : Reuss Voigt Hill
#
# Bulk Modulus (GPa) = 58.46326 63.24062 60.85194
# Shear Modulus (GPa) = 24.43264 25.54780 24.99022
#
# Velocity S-wave (km/s) = 3.49176 3.57055 3.53138
# Velocity P-wave (km/s) = 6.74024 6.96827 6.85520
#
# Compressibility (1/GPa) = 0.01710476
#
# Stress axis : x y z
#
# Youngs Moduli (GPa) = 50.03056 87.90164 54.16961
#
# Poissons Ratio (x) = 0.55107 0.37487
# Poissons Ratio (y) = 0.31365 0.17175
# Poissons Ratio (z) = 0.34622 0.27870
#
# Static dielectric constant tensor:
#      x y z
#    x 3.204960 0.000000 0.000000 
#    y 0.000000 4.018250 0.000000 
#    z 0.000000 0.000000 3.905800 
# 
# 
# High freq. dielectric constant tensor:
#      x y z
#    x 1.736430 0.000000 0.000000 
#    y 0.000000 1.800620 0.000000 
#    z 0.000000 0.000000 1.799960 
# 
# From -- ./inp_files/16724.got.cif
#   From: 2010.03.12/outbox.cif.g09.slc.cpg/sg57_9_cif.got.tgz:16724.got - 2010.04.16 15:48:40.
