data_PCOD8232457
_publ_section_title
;
Structure prediction by ZEFSAII (Michael W. Deem and Ramdas Pophale) SiO2 
 PCOD8232457
Probable space group: P B C M
;
_chemical_formula_sum "Si O2"
_cell_formula_units_Z 64
_cell_length_a 24.664650
_cell_length_b 14.503080
_cell_length_c 8.802407
_cell_angle_alpha 90.000000
_cell_angle_beta 90.000000
_cell_angle_gamma 90.000000
_cell_volume 3148.738867
_symmetry_space_group_name_H-M "P B C M"
_symmetry_group_IT_number 57
_symmetry_cell_setting 'orthorhombic'
loop_
_space_group_symop_operation_xyz
x,y,z
-x,-y,1/2+z
x,1/2-y,-z
-x,1/2+y,1/2-z
-x,-y,-z
x,y,1/2-z
-x,1/2+y,z
x,1/2-y,1/2+z
loop_
_atom_site_type_symbol
_atom_site_label
_atom_site_fract_x
_atom_site_fract_y
_atom_site_fract_z
Si Si1 0.911847 0.338290 0.570972
Si Si2 0.472395 0.843787 0.071737
Si Si3 0.829359 0.035730 0.575021
Si Si4 0.724791 0.149402 0.928865
Si Si5 0.128550 0.342487 0.574077
Si Si6 0.376203 0.970822 0.429169
Si Si7 0.016132 0.097078 0.569505
Si Si8 0.595540 0.654516 0.570655
O O1 0.879781 0.250000 0.500000
O O2 0.919216 0.331583 0.750000
O O3 0.878437 0.429533 0.529846
O O4 0.969539 0.334155 0.486214
O O5 0.469972 0.830041 0.250000
O O6 0.433952 0.927786 0.020870
O O7 0.533583 0.862738 0.016004
O O8 0.449533 0.750000 0.000000
O O9 0.841863 0.061033 0.750000
O O10 0.773801 0.082640 0.520097
O O11 0.827543 0.924913 0.553970
O O12 0.723772 0.162862 0.750000
O O13 0.670306 0.099037 0.985734
O O14 0.730708 0.250000 0.000000
O O15 0.153611 0.250000 0.500000
O O16 0.115749 0.324860 0.750000
O O17 0.073018 0.367014 0.490909
O O18 0.372197 0.986904 0.250000
O O19 0.368822 0.069457 0.509973
O O20 0.018093 0.089893 0.750000
O O21 0.000000 0.000000 0.500000
O O22 0.617475 0.750000 0.500000
O O23 0.600620 0.660984 0.750000
#
# Coordination Sequence:
#
# PCOD8232457 Si02
#       8
#     8   8   8   8   8   8   8   8
#     4  12  24  38  59  86 117 153 192 233 282 339
#     4   9  18  31  50  79 114 152 191 237 286 345
#     4  10  22  41  62  84 114 150 191 238 288 339
#     4  10  22  40  62  88 116 149 187 235 291 345
#     4  11  23  40  62  86 117 153 193 239 288 341
#     4  10  20  35  55  81 115 151 191 237 291 345
#     4  12  23  38  59  87 121 155 192 231 282 342
#     4  10  20  34  53  79 112 151 195 237 287 341
#
# _framework density 20.325597999999999
#
# number of rings (size 3 to 8) (size 9 to 14) (size 15 to 20)
#    0.000    1.500    1.250    4.500    0.000    3.500 
#    0.000    0.625    0.000    1.500    0.000    0.000 
#    0.000    0.000    0.000    0.000    0.000    0.000 
#
# Total GULP energy -793694.175535 kJ/mol
# GULP energy per Si atom -12401.471493 kJ/mol
# Density = 2.027934 g / cm^3
# Si number density = 20.325598 Si / 1000 Ang^3
#
#
#
# Elastic Constant Matrix: (Units=GPa)
#
#
# Indices 1 2 3 4 5 6 
#
# 1 75.1121 48.7320 31.4575 0.0000 0.0000 0.0000
# 2 48.7320 166.7223 57.2391 0.0000 0.0000 0.0000
# 3 31.4575 57.2391 103.9434 0.0000 0.0000 0.0000
# 4 0.0000 0.0000 0.0000 41.3013 0.0000 0.0000
# 5 0.0000 0.0000 0.0000 0.0000 18.0296 0.0000
# 6 0.0000 0.0000 0.0000 0.0000 0.0000 27.4223
#
#
#
# Elastic Compliance Matrix: (Units=1/GPa)
#
#
# Indices 1 2 3 4 5 6 
#
# 1 0.017154 -0.003985 -0.002997 0.000000 0.000000 0.000000
# 2 -0.003985 0.008322 -0.003377 0.000000 0.000000 0.000000
# 3 -0.002997 -0.003377 0.012387 0.000000 0.000000 0.000000
# 4 0.000000 0.000000 0.000000 0.024212 0.000000 0.000000
# 5 0.000000 0.000000 0.000000 0.000000 0.055464 0.000000
# 6 0.000000 0.000000 0.000000 0.000000 0.000000 0.036467
#
#
# Mechanical properties :
#
#
# Convention : Reuss Voigt Hill
#
# Bulk Modulus (GPa) = 58.32393 68.95943 63.64168
# Shear Modulus (GPa) = 27.71009 31.24058 29.47534
#
# Velocity S-wave (km/s) = 3.69631 3.92472 3.81223
# Velocity P-wave (km/s) = 6.85376 7.38505 7.12436
#
# Compressibility (1/GPa) = 0.01714562
#
# Stress axis : x y z
#
# Youngs Moduli (GPa) = 58.29502 120.16165 80.72900
#
# Poissons Ratio (x) = 0.47886 0.24195
# Poissons Ratio (y) = 0.23231 0.27260
# Poissons Ratio (z) = 0.17471 0.40575
#
# Static dielectric constant tensor:
#      x y z
#    x 3.575780 0.000000 0.000000 
#    y 0.000000 4.011170 0.000000 
#    z 0.000000 0.000000 3.615660 
# 
# 
# High freq. dielectric constant tensor:
#      x y z
#    x 1.769430 0.000000 0.000000 
#    y 0.000000 1.813540 0.000000 
#    z 0.000000 0.000000 1.792560 
# 
# From -- ./inp_files/9515.got.cif
#   From: 2010.03.12/outbox.cif.g09.slc.cpg/sg57_5_cif.got.tgz:9515.got - 2010.04.16 15:48:40.
