data_PCOD8232125
_publ_section_title
;
Structure prediction by ZEFSAII (Michael W. Deem and Ramdas Pophale) SiO2 
 PCOD8232125
Probable space group: P B C M
;
_chemical_formula_sum "Si O2"
_cell_formula_units_Z 48
_cell_length_a 15.007304
_cell_length_b 20.452071
_cell_length_c 9.170394
_cell_angle_alpha 90.000000
_cell_angle_beta 90.000000
_cell_angle_gamma 90.000000
_cell_volume 2814.673129
_symmetry_space_group_name_H-M "P B C M"
_symmetry_group_IT_number 57
_symmetry_cell_setting 'orthorhombic'
loop_
_space_group_symop_operation_xyz
x,y,z
-x,-y,1/2+z
x,1/2-y,-z
-x,1/2+y,1/2-z
-x,-y,-z
x,y,1/2-z
-x,1/2+y,z
x,1/2-y,1/2+z
loop_
_atom_site_type_symbol
_atom_site_label
_atom_site_fract_x
_atom_site_fract_y
_atom_site_fract_z
Si Si1 0.691891 0.343503 0.585244
Si Si2 0.925627 0.041923 0.421789
Si Si3 0.884578 0.186503 0.076664
Si Si4 0.498708 0.812058 0.922089
Si Si5 0.569909 0.547418 0.078117
Si Si6 0.727918 0.491932 0.914729
O O1 0.695674 0.318852 0.750000
O O2 0.783604 0.318930 0.511729
O O3 0.602224 0.315916 0.511944
O O4 0.683124 0.421249 0.581518
O O5 0.937183 0.034877 0.250000
O O6 0.934462 0.118810 0.465516
O O7 0.829866 0.013094 0.469381
O O8 0.000000 0.000000 0.500000
O O9 0.886285 0.195397 0.250000
O O10 0.929775 0.250000 0.000000
O O11 0.498575 0.801454 0.750000
O O12 0.550173 0.877807 0.963146
O O13 0.545500 0.750000 0.000000
O O14 0.563350 0.534518 0.250000
O O15 0.500000 0.500000 0.000000
O O16 0.670931 0.536847 0.023170
O O17 0.723998 0.520073 0.750000
#
# Coordination Sequence:
#
# PCOD8232125 Si02
#       6
#     8   8   8   8   8   8
#     4   8  14  28  46  66  98 131 158 194 242 294
#     4   9  19  34  54  77 104 134 165 207 258 305
#     4   9  17  29  47  71 100 133 162 196 247 301
#     4  10  20  32  46  67  98 134 169 209 251 293
#     4  11  21  33  51  74 101 134 173 212 248 294
#     4   9  17  33  53  73 100 133 166 207 255 297
#
# _framework density 17.05349
#
# number of rings (size 3 to 8) (size 9 to 14) (size 15 to 20)
#    0.000    2.667    1.667    3.000    0.000    2.667 
#    0.000    2.500    0.000    1.000    0.000    0.000 
#    0.000    0.000    0.000    0.000    0.000    0.000 
#
# Total GULP energy -594818.475182 kJ/mol
# GULP energy per Si atom -12392.051566 kJ/mol
# Density = 1.701468 g / cm^3
# Si number density = 17.053490 Si / 1000 Ang^3
#
#
#
# Elastic Constant Matrix: (Units=GPa)
#
#
# Indices 1 2 3 4 5 6 
#
# 1 84.0762 64.9208 39.4450 0.0000 0.0000 0.0000
# 2 64.9208 137.4281 56.0736 0.0000 0.0000 0.0000
# 3 39.4450 56.0736 52.4987 0.0000 0.0000 0.0000
# 4 0.0000 0.0000 0.0000 32.1082 0.0000 0.0000
# 5 0.0000 0.0000 0.0000 0.0000 26.9250 0.0000
# 6 0.0000 0.0000 0.0000 0.0000 0.0000 20.1067
#
#
#
# Elastic Compliance Matrix: (Units=1/GPa)
#
#
# Indices 1 2 3 4 5 6 
#
# 1 0.020947 -0.006157 -0.009162 0.000000 0.000000 0.000000
# 2 -0.006157 0.014707 -0.011082 0.000000 0.000000 0.000000
# 3 -0.009162 -0.011082 0.037769 0.000000 0.000000 0.000000
# 4 0.000000 0.000000 0.000000 0.031145 0.000000 0.000000
# 5 0.000000 0.000000 0.000000 0.000000 0.037140 0.000000
# 6 0.000000 0.000000 0.000000 0.000000 0.000000 0.049735
#
#
# Mechanical properties :
#
#
# Convention : Reuss Voigt Hill
#
# Bulk Modulus (GPa) = 48.49703 66.09799 57.29751
# Shear Modulus (GPa) = 19.91093 23.39889 21.65491
#
# Velocity S-wave (km/s) = 3.42066 3.70819 3.56732
# Velocity P-wave (km/s) = 6.64087 7.56159 7.11613
#
# Compressibility (1/GPa) = 0.02061982
#
# Stress axis : x y z
#
# Youngs Moduli (GPa) = 47.74058 67.99556 26.47648
#
# Poissons Ratio (x) = 0.41863 0.24259
# Poissons Ratio (y) = 0.29392 0.29342
# Poissons Ratio (z) = 0.43741 0.75356
#
# Static dielectric constant tensor:
#      x y z
#    x 3.110140 0.000000 0.000000 
#    y 0.000000 3.236650 0.000000 
#    z 0.000000 0.000000 3.011390 
# 
# 
# High freq. dielectric constant tensor:
#      x y z
#    x 1.632580 0.000000 0.000000 
#    y 0.000000 1.658500 0.000000 
#    z 0.000000 0.000000 1.641040 
# 
# From -- ./inp_files/4856.got.cif
#   From: 2010.03.12/outbox.cif.g09.slc.cpg/sg57_3_cif.got.tgz:4856.got - 2010.04.16 15:48:40.
