data_PCOD8232825
_publ_section_title
;
Structure prediction by ZEFSAII (Michael W. Deem and Ramdas Pophale) SiO2 
 PCOD8232825
Probable space group: P B C M
;
_chemical_formula_sum "Si O2"
_cell_formula_units_Z 40
_cell_length_a 18.179078
_cell_length_b 13.333682
_cell_length_c 8.748299
_cell_angle_alpha 90.000000
_cell_angle_beta 90.000000
_cell_angle_gamma 90.000000
_cell_volume 2120.535582
_symmetry_space_group_name_H-M "P B C M"
_symmetry_group_IT_number 57
_symmetry_cell_setting 'orthorhombic'
loop_
_space_group_symop_operation_xyz
x,y,z
-x,-y,1/2+z
x,1/2-y,-z
-x,1/2+y,1/2-z
-x,-y,-z
x,y,1/2-z
-x,1/2+y,z
x,1/2-y,1/2+z
loop_
_atom_site_type_symbol
_atom_site_label
_atom_site_fract_x
_atom_site_fract_y
_atom_site_fract_z
Si Si1 0.451247 0.142565 0.071247
Si Si2 0.974444 0.851084 0.071690
Si Si3 0.111526 0.950471 0.571957
Si Si4 0.391328 0.550542 0.428381
Si Si5 0.248263 0.856919 0.069680
O O1 0.434082 0.144603 0.250000
O O2 0.535158 0.113057 0.037430
O O3 0.433745 0.250000 0.000000
O O4 0.397716 0.061976 0.992508
O O5 0.990022 0.838924 0.250000
O O6 0.915073 0.936960 0.038303
O O7 0.941051 0.750000 0.000000
O O8 0.051514 0.872657 0.989417
O O9 0.123744 0.930199 0.750000
O O10 0.187994 0.937409 0.483925
O O11 0.373161 0.545232 0.250000
O O12 0.327883 0.609047 0.514975
O O13 0.248570 0.848045 0.250000
O O14 0.227199 0.750000 0.000000
#
# Coordination Sequence:
#
# PCOD8232825 Si02
#       5
#     8   8   8   8   8
#     4  10  20  35  57  83 111 145 183 225 272 322
#     4  10  20  35  57  82 109 142 179 222 269 319
#     4  10  21  37  56  80 110 143 182 224 268 320
#     4  10  21  37  57  82 112 144 183 227 271 323
#     4  12  24  38  57  81 111 144 180 223 274 326
#
# _framework density 18.863157999999999
#
# number of rings (size 3 to 8) (size 9 to 14) (size 15 to 20)
#    0.000    1.600    0.000    5.400    0.000    6.400 
#    0.000    1.000    0.000    2.400    0.000    0.000 
#    0.000    0.000    0.000    0.000    0.000    0.000 
#
# Total GULP energy -496260.634052 kJ/mol
# GULP energy per Si atom -12406.515851 kJ/mol
# Density = 1.882022 g / cm^3
# Si number density = 18.863158 Si / 1000 Ang^3
#
#
#
# Elastic Constant Matrix: (Units=GPa)
#
#
# Indices 1 2 3 4 5 6 
#
# 1 69.8508 22.2086 43.5719 0.0000 0.0000 0.0000
# 2 22.2086 113.4259 46.7983 0.0000 0.0000 0.0000
# 3 43.5719 46.7983 128.1691 0.0000 0.0000 0.0000
# 4 0.0000 0.0000 0.0000 37.7578 0.0000 0.0000
# 5 0.0000 0.0000 0.0000 0.0000 35.3204 0.0000
# 6 0.0000 0.0000 0.0000 0.0000 0.0000 24.0684
#
#
#
# Elastic Compliance Matrix: (Units=1/GPa)
#
#
# Indices 1 2 3 4 5 6 
#
# 1 0.018306 -0.001197 -0.005786 0.000000 0.000000 0.000000
# 2 -0.001197 0.010458 -0.003412 0.000000 0.000000 0.000000
# 3 -0.005786 -0.003412 0.011015 0.000000 0.000000 0.000000
# 4 0.000000 0.000000 0.000000 0.026485 0.000000 0.000000
# 5 0.000000 0.000000 0.000000 0.000000 0.028312 0.000000
# 6 0.000000 0.000000 0.000000 0.000000 0.000000 0.041548
#
#
# Mechanical properties :
#
#
# Convention : Reuss Voigt Hill
#
# Bulk Modulus (GPa) = 52.66041 59.62260 56.14150
# Shear Modulus (GPa) = 30.62890 32.68710 31.65800
#
# Velocity S-wave (km/s) = 4.03394 4.16727 4.10115
# Velocity P-wave (km/s) = 7.04802 7.40483 7.22862
#
# Compressibility (1/GPa) = 0.01898960
#
# Stress axis : x y z
#
# Youngs Moduli (GPa) = 54.62636 95.61751 90.78537
#
# Poissons Ratio (x) = 0.11445 0.52531
# Poissons Ratio (y) = 0.06539 0.30974
# Poissons Ratio (z) = 0.31608 0.32622
#
# Static dielectric constant tensor:
#      x y z
#    x 3.314480 0.000000 0.000000 
#    y 0.000000 3.488230 0.000000 
#    z 0.000000 0.000000 3.613390 
# 
# 
# High freq. dielectric constant tensor:
#      x y z
#    x 1.718550 0.000000 0.000000 
#    y 0.000000 1.741490 0.000000 
#    z 0.000000 0.000000 1.753840 
# 
# From -- ./inp_files/6232.got.cif
#   From: 2010.03.12/outbox.cif.g09.slc.cpg/sg57_4_cif.got.tgz:6232.got - 2010.04.16 15:48:40.
