data_PCOD8232087
_publ_section_title
;
Structure prediction by ZEFSAII (Michael W. Deem and Ramdas Pophale) SiO2 
 PCOD8232087
Probable space group: P B C M
;
_chemical_formula_sum "Si O2"
_cell_formula_units_Z 48
_cell_length_a 9.928714
_cell_length_b 18.084195
_cell_length_c 14.183611
_cell_angle_alpha 90.000000
_cell_angle_beta 90.000000
_cell_angle_gamma 90.000000
_cell_volume 2546.707070
_symmetry_space_group_name_H-M "P B C M"
_symmetry_group_IT_number 57
_symmetry_cell_setting 'orthorhombic'
loop_
_space_group_symop_operation_xyz
x,y,z
-x,-y,1/2+z
x,1/2-y,-z
-x,1/2+y,1/2-z
-x,-y,-z
x,y,1/2-z
-x,1/2+y,z
x,1/2-y,1/2+z
loop_
_atom_site_type_symbol
_atom_site_label
_atom_site_fract_x
_atom_site_fract_y
_atom_site_fract_z
Si Si1 0.064404 0.807824 0.750000
Si Si2 0.865512 0.669924 0.750000
Si Si3 0.295641 0.800478 0.250000
Si Si4 0.302955 0.831734 0.040372
Si Si5 0.551756 0.574216 0.550528
Si Si6 0.435974 0.368816 0.250000
Si Si7 0.144048 0.426329 0.428198
Si Si8 0.916140 0.412414 0.576910
O O1 0.947749 0.746081 0.750000
O O2 0.218149 0.777401 0.750000
O O3 0.045913 0.857183 0.840863
O O4 0.703666 0.676379 0.750000
O O5 0.905229 0.627990 0.845738
O O6 0.258071 0.839907 0.150709
O O7 0.458764 0.799672 0.250000
O O8 0.455879 0.857904 0.018965
O O9 0.286280 0.750000 0.000000
O O10 0.205146 0.885629 0.986735
O O11 0.500000 0.500000 0.500000
O O12 0.544539 0.573273 0.664489
O O13 0.707926 0.590060 0.528276
O O14 0.132013 0.508355 0.383854
O O15 0.051036 0.418257 0.517853
#
# Coordination Sequence:
#
# PCOD8232087 Si02
#       8
#     4   4   4   8   8   4   8   8
#     4  12  23  39  61  91 121 157 202 255 300 365
#     4  10  21  39  62  85 121 159 196 245 314 355
#     4  10  20  35  58  86 120 152 192 246 306 350
#     4  11  21  38  60  92 119 158 203 253 306 361
#     4  10  19  39  62  87 116 158 202 246 302 364
#     4   8  20  37  57  86 120 154 198 236 304 368
#     4  10  22  41  61  87 120 165 198 251 302 372
#     4  11  23  39  61  88 123 156 211 246 304 362
#
# _framework density 18.847868999999999
#
# number of rings (size 3 to 8) (size 9 to 14) (size 15 to 20)
#    0.000    1.667    3.333    1.500    0.000    0.000 
#    9.000    2.500    0.000    0.000    0.000    0.000 
#    0.000    0.000    0.000    0.000    0.000    0.000 
#
# Total GULP energy -594704.727034 kJ/mol
# GULP energy per Si atom -12389.681813 kJ/mol
# Density = 1.880497 g / cm^3
# Si number density = 18.847869 Si / 1000 Ang^3
#
#
#
# Elastic Constant Matrix: (Units=GPa)
#
#
# Indices 1 2 3 4 5 6 
#
# 1 107.4645 48.3980 46.3735 0.0000 0.0000 0.0000
# 2 48.3980 107.3270 54.2469 0.0000 0.0000 0.0000
# 3 46.3735 54.2469 105.1362 0.0000 0.0000 0.0000
# 4 0.0000 0.0000 0.0000 131.2588 0.0000 0.0000
# 5 0.0000 0.0000 0.0000 0.0000 16.0175 0.0000
# 6 0.0000 0.0000 0.0000 0.0000 0.0000 33.1414
#
#
#
# Elastic Compliance Matrix: (Units=1/GPa)
#
#
# Indices 1 2 3 4 5 6 
#
# 1 0.012585 -0.003882 -0.003548 0.000000 0.000000 0.000000
# 2 -0.003882 0.013802 -0.005409 0.000000 0.000000 0.000000
# 3 -0.003548 -0.005409 0.013867 0.000000 0.000000 0.000000
# 4 0.000000 0.000000 0.000000 0.007619 0.000000 0.000000
# 5 0.000000 0.000000 0.000000 0.000000 0.062432 0.000000
# 6 0.000000 0.000000 0.000000 0.000000 0.000000 0.030174
#
#
# Mechanical properties :
#
#
# Convention : Reuss Voigt Hill
#
# Bulk Modulus (GPa) = 68.60533 68.66270 68.63401
# Shear Modulus (GPa) = 29.23743 47.47750 38.35746
#
# Velocity S-wave (km/s) = 3.94284 5.02439 4.51611
# Velocity P-wave (km/s) = 7.56350 8.37666 7.98044
#
# Compressibility (1/GPa) = 0.01457613
#
# Stress axis : x y z
#
# Youngs Moduli (GPa) = 79.46232 72.45511 72.11173
#
# Poissons Ratio (x) = 0.28124 0.25585
# Poissons Ratio (y) = 0.30844 0.39006
# Poissons Ratio (z) = 0.28193 0.39192
#
# Static dielectric constant tensor:
#      x y z
#    x 3.705350 0.000000 0.000000 
#    y 0.000000 3.421600 0.000000 
#    z 0.000000 0.000000 3.600550 
# 
# 
# High freq. dielectric constant tensor:
#      x y z
#    x 1.748680 0.000000 0.000000 
#    y 0.000000 1.716840 0.000000 
#    z 0.000000 0.000000 1.741190 
# 
# From -- ./inp_files/16469.got.cif
#   From: 2010.03.12/outbox.cif.g09.slc.cpg/sg57_9_cif.got.tgz:16469.got - 2010.04.16 15:48:40.
