data_PCOD8232878
_publ_section_title
;
Structure prediction by ZEFSAII (Michael W. Deem and Ramdas Pophale) SiO2 
 PCOD8232878
Probable space group: P B C M
;
_chemical_formula_sum "Si O2"
_cell_formula_units_Z 64
_cell_length_a 20.412056
_cell_length_b 9.781016
_cell_length_c 16.455823
_cell_angle_alpha 90.000000
_cell_angle_beta 90.000000
_cell_angle_gamma 90.000000
_cell_volume 3285.415698
_symmetry_space_group_name_H-M "P B C M"
_symmetry_group_IT_number 57
_symmetry_cell_setting 'orthorhombic'
loop_
_space_group_symop_operation_xyz
x,y,z
-x,-y,1/2+z
x,1/2-y,-z
-x,1/2+y,1/2-z
-x,-y,-z
x,y,1/2-z
-x,1/2+y,z
x,1/2-y,1/2+z
loop_
_atom_site_type_symbol
_atom_site_label
_atom_site_fract_x
_atom_site_fract_y
_atom_site_fract_z
Si Si1 0.180426 0.882379 0.047794
Si Si2 0.937863 0.491357 0.346311
Si Si3 0.187788 0.368899 0.065724
Si Si4 0.557217 0.430995 0.342880
Si Si5 0.544419 0.777133 0.594226
Si Si6 0.704247 0.064756 0.655041
Si Si7 0.057980 0.194757 0.654552
Si Si8 0.689169 0.737771 0.096417
O O1 0.126187 0.940340 0.108270
O O2 0.244573 0.847121 0.101970
O O3 0.155080 0.750000 0.000000
O O4 0.198692 0.988925 0.978269
O O5 0.926063 0.479106 0.250000
O O6 0.952121 0.647939 0.372573
O O7 0.997584 0.396875 0.376415
O O8 0.123438 0.372666 0.120143
O O9 0.252733 0.342410 0.122254
O O10 0.180223 0.250000 0.000000
O O11 0.555763 0.478572 0.250000
O O12 0.534337 0.560791 0.395226
O O13 0.510109 0.303118 0.355886
O O14 0.630904 0.384845 0.366208
O O15 0.535156 0.750000 0.500000
O O16 0.615949 0.730368 0.629316
O O17 0.720507 0.082117 0.750000
O O18 0.712810 0.907966 0.628708
O O19 0.063351 0.184917 0.750000
O O20 0.683643 0.750000 0.000000
#
# Coordination Sequence:
#
# PCOD8232878 Si02
#       8
#     8   8   8   8   8   8   8   8
#     4  12  25  39  58  90 117 154 192 245 295 337
#     4  10  22  41  62  86 117 153 194 234 285 350
#     4  11  20  39  61  84 117 146 192 240 283 342
#     4  10  21  37  58  85 117 152 193 241 289 344
#     4  10  20  35  58  86 115 152 193 235 291 348
#     4  10  20  38  62  83 112 159 199 231 287 360
#     4  10  22  39  62  89 117 154 192 236 288 343
#     4   9  17  35  61  86 114 142 192 243 286 338
#
# _framework density 19.480031
#
# number of rings (size 3 to 8) (size 9 to 14) (size 15 to 20)
#    0.000    1.750    3.750    1.125    1.750    3.500 
#    2.250    0.625    0.000    0.000    0.000    0.000 
#    0.000    0.000    0.000    0.000    0.000    0.000 
#
# Total GULP energy -793443.317683 kJ/mol
# GULP energy per Si atom -12397.551839 kJ/mol
# Density = 1.943569 g / cm^3
# Si number density = 19.480031 Si / 1000 Ang^3
#
#
#
# Elastic Constant Matrix: (Units=GPa)
#
#
# Indices 1 2 3 4 5 6 
#
# 1 143.7611 39.0708 27.4945 0.0000 0.0000 0.0000
# 2 39.0708 63.1491 24.6275 0.0000 0.0000 0.0000
# 3 27.4945 24.6275 36.5392 0.0000 0.0000 0.0000
# 4 0.0000 0.0000 0.0000 21.8887 0.0000 0.0000
# 5 0.0000 0.0000 0.0000 0.0000 8.6425 0.0000
# 6 0.0000 0.0000 0.0000 0.0000 0.0000 40.9786
#
#
#
# Elastic Compliance Matrix: (Units=1/GPa)
#
#
# Indices 1 2 3 4 5 6 
#
# 1 0.008771 -0.003870 -0.003992 0.000000 0.000000 0.000000
# 2 -0.003870 0.023190 -0.012718 0.000000 0.000000 0.000000
# 3 -0.003992 -0.012718 0.038943 0.000000 0.000000 0.000000
# 4 0.000000 0.000000 0.000000 0.045686 0.000000 0.000000
# 5 0.000000 0.000000 0.000000 0.000000 0.115708 0.000000
# 6 0.000000 0.000000 0.000000 0.000000 0.000000 0.024403
#
#
# Mechanical properties :
#
#
# Convention : Reuss Voigt Hill
#
# Bulk Modulus (GPa) = 33.61889 47.31502 40.46696
# Shear Modulus (GPa) = 16.24565 24.45240 20.34902
#
# Velocity S-wave (km/s) = 2.89098 3.54680 3.23555
# Velocity P-wave (km/s) = 5.33285 6.41208 5.89720
#
# Compressibility (1/GPa) = 0.02974518
#
# Stress axis : x y z
#
# Youngs Moduli (GPa) = 114.00970 43.12232 25.67840
#
# Poissons Ratio (x) = 0.16689 0.10250
# Poissons Ratio (y) = 0.44123 0.32657
# Poissons Ratio (z) = 0.45507 0.54842
#
# Static dielectric constant tensor:
#      x y z
#    x 4.129620 0.000000 0.000000 
#    y 0.000000 3.041860 0.000000 
#    z 0.000000 0.000000 4.359350 
# 
# 
# High freq. dielectric constant tensor:
#      x y z
#    x 1.777340 0.000000 0.000000 
#    y 0.000000 1.740220 0.000000 
#    z 0.000000 0.000000 1.752320 
# 
# From -- ./inp_files/23073.got.cif
#   From: 2010.03.12/outbox.cif.g09.slc.cpg/sg57_12_cif.got.tgz:23073.got - 2010.04.16 15:48:40.
