data_PCOD8232395
_publ_section_title
;
Structure prediction by ZEFSAII (Michael W. Deem and Ramdas Pophale) SiO2 
 PCOD8232395
Probable space group: P B C M
;
_chemical_formula_sum "Si O2"
_cell_formula_units_Z 64
_cell_length_a 25.111740
_cell_length_b 14.095602
_cell_length_c 8.738695
_cell_angle_alpha 90.000000
_cell_angle_beta 90.000000
_cell_angle_gamma 90.000000
_cell_volume 3093.192985
_symmetry_space_group_name_H-M "P B C M"
_symmetry_group_IT_number 57
_symmetry_cell_setting 'orthorhombic'
loop_
_space_group_symop_operation_xyz
x,y,z
-x,-y,1/2+z
x,1/2-y,-z
-x,1/2+y,1/2-z
-x,-y,-z
x,y,1/2-z
-x,1/2+y,z
x,1/2-y,1/2+z
loop_
_atom_site_type_symbol
_atom_site_label
_atom_site_fract_x
_atom_site_fract_y
_atom_site_fract_z
Si Si1 0.804190 0.146191 0.069108
Si Si2 0.325002 0.352951 0.431596
Si Si3 0.870392 0.655332 0.424967
Si Si4 0.905553 0.345136 0.428711
Si Si5 0.577785 0.544462 0.070293
Si Si6 0.521134 0.351206 0.069766
Si Si7 0.768724 0.534440 0.427725
Si Si8 0.980755 0.595778 0.571246
O O1 0.802653 0.154099 0.250000
O O2 0.789762 0.250000 0.000000
O O3 0.860669 0.092689 0.014694
O O4 0.761577 0.068553 0.008014
O O5 0.338544 0.250000 0.500000
O O6 0.324560 0.345191 0.250000
O O7 0.367649 0.430904 0.485622
O O8 0.268028 0.388037 0.490802
O O9 0.846902 0.750000 0.500000
O O10 0.882196 0.677098 0.250000
O O11 0.829228 0.571049 0.447623
O O12 0.928058 0.632895 0.494605
O O13 0.881804 0.250000 0.500000
O O14 0.896279 0.358285 0.250000
O O15 0.967562 0.341926 0.469652
O O16 0.583768 0.562072 0.250000
O O17 0.564404 0.433875 0.035422
O O18 0.533597 0.616618 0.007674
O O19 0.511938 0.339307 0.250000
O O20 0.540004 0.250000 0.000000
O O21 0.753058 0.526066 0.250000
O O22 0.970886 0.585272 0.750000
O O23 0.000000 0.500000 0.500000
#
# Coordination Sequence:
#
# PCOD8232395 Si02
#       8
#     8   8   8   8   8   8   8   8
#     4  11  22  38  62  89 116 150 190 237 294 356
#     4  12  25  42  65  92 122 159 204 253 305 358
#     4  11  24  40  60  84 114 151 191 238 294 355
#     4  10  20  34  52  76 103 135 174 219 272 334
#     4  10  21  38  60  89 126 168 213 259 306 357
#     4  10  20  35  59  91 129 171 212 256 305 358
#     4  11  24  43  64  88 118 152 196 249 300 355
#     4  11  23  36  53  77 108 143 182 228 282 345
#
# _framework density 20.690595999999999
#
# number of rings (size 3 to 8) (size 9 to 14) (size 15 to 20)
#    0.000    1.250    0.000    7.125    0.000   10.500 
#    0.000    0.625    0.000    1.500    0.000    0.000 
#    0.000    0.000    0.000    0.000    0.000    0.000 
#
# Total GULP energy -792932.368575 kJ/mol
# GULP energy per Si atom -12389.568259 kJ/mol
# Density = 2.064350 g / cm^3
# Si number density = 20.690596 Si / 1000 Ang^3
#
#
#
# Elastic Constant Matrix: (Units=GPa)
#
#
# Indices 1 2 3 4 5 6 
#
# 1 62.6186 32.3360 38.0012 0.0000 0.0000 0.0000
# 2 32.3360 128.2813 66.1741 0.0000 0.0000 0.0000
# 3 38.0012 66.1741 137.1682 0.0000 0.0000 0.0000
# 4 0.0000 0.0000 0.0000 36.6058 0.0000 0.0000
# 5 0.0000 0.0000 0.0000 0.0000 35.6254 0.0000
# 6 0.0000 0.0000 0.0000 0.0000 0.0000 21.2135
#
#
#
# Elastic Compliance Matrix: (Units=1/GPa)
#
#
# Indices 1 2 3 4 5 6 
#
# 1 0.019978 -0.002903 -0.004134 0.000000 0.000000 0.000000
# 2 -0.002903 0.010800 -0.004406 0.000000 0.000000 0.000000
# 3 -0.004134 -0.004406 0.010561 0.000000 0.000000 0.000000
# 4 0.000000 0.000000 0.000000 0.027318 0.000000 0.000000
# 5 0.000000 0.000000 0.000000 0.000000 0.028070 0.000000
# 6 0.000000 0.000000 0.000000 0.000000 0.000000 0.047140
#
#
# Mechanical properties :
#
#
# Convention : Reuss Voigt Hill
#
# Bulk Modulus (GPa) = 54.19329 66.78785 60.49057
# Shear Modulus (GPa) = 28.91782 31.45942 30.18862
#
# Velocity S-wave (km/s) = 3.74255 3.90355 3.82390
# Velocity P-wave (km/s) = 6.70258 7.25716 6.98538
#
# Compressibility (1/GPa) = 0.01845247
#
# Stress axis : x y z
#
# Youngs Moduli (GPa) = 50.05576 92.59262 94.68655
#
# Poissons Ratio (x) = 0.26882 0.39144
# Poissons Ratio (y) = 0.14533 0.41718
# Poissons Ratio (z) = 0.20693 0.40796
#
# Static dielectric constant tensor:
#      x y z
#    x 3.577960 0.000000 0.000000 
#    y 0.000000 4.068730 0.000000 
#    z 0.000000 0.000000 3.842360 
# 
# 
# High freq. dielectric constant tensor:
#      x y z
#    x 1.797870 0.000000 0.000000 
#    y 0.000000 1.822290 0.000000 
#    z 0.000000 0.000000 1.824070 
# 
# From -- ./inp_files/9475.got.cif
#   From: 2010.03.12/outbox.cif.g09.slc.cpg/sg57_5_cif.got.tgz:9475.got - 2010.04.16 15:48:40.
