data_PCOD8232061
_publ_section_title
;
Structure prediction by ZEFSAII (Michael W. Deem and Ramdas Pophale) SiO2 
 PCOD8232061
Probable space group: P B C M
;
_chemical_formula_sum "Si O2"
_cell_formula_units_Z 60
_cell_length_a 6.404672
_cell_length_b 17.272979
_cell_length_c 26.111195
_cell_angle_alpha 90.000000
_cell_angle_beta 90.000000
_cell_angle_gamma 90.000000
_cell_volume 2888.623143
_symmetry_space_group_name_H-M "P B C M"
_symmetry_group_IT_number 57
_symmetry_cell_setting 'orthorhombic'
loop_
_space_group_symop_operation_xyz
x,y,z
-x,-y,1/2+z
x,1/2-y,-z
-x,1/2+y,1/2-z
-x,-y,-z
x,y,1/2-z
-x,1/2+y,z
x,1/2-y,1/2+z
loop_
_atom_site_type_symbol
_atom_site_label
_atom_site_fract_x
_atom_site_fract_y
_atom_site_fract_z
Si Si1 0.644982 0.280294 0.858581
Si Si2 0.335302 0.412360 0.634690
Si Si3 0.980538 0.011342 0.692584
Si Si4 0.950617 0.128912 0.432255
Si Si5 0.899841 0.750000 0.000000
Si Si6 0.704624 0.684597 0.899801
Si Si7 0.712150 0.993838 0.102011
Si Si8 0.980416 0.187729 0.692636
O O1 0.474076 0.343593 0.840265
O O2 0.801135 0.319883 0.897529
O O3 0.530671 0.208315 0.886113
O O4 0.781030 0.244568 0.812400
O O5 0.210679 0.454703 0.679796
O O6 0.477297 0.475157 0.605342
O O7 0.179693 0.376997 0.592700
O O8 0.054929 0.993959 0.750000
O O9 0.179562 0.994023 0.657257
O O10 0.902833 0.099474 0.686079
O O11 0.964410 0.173209 0.486821
O O12 0.846399 0.043910 0.439267
O O13 0.766923 0.766922 0.050489
O O14 0.712443 0.594730 0.914934
O O15 0.849068 0.705857 0.850928
O O16 0.074655 0.199877 0.750000
#
# Coordination Sequence:
#
# PCOD8232061 Si02
#       8
#     8   8   8   8   4   8   8   8
#     4  11  20  38  62  89 125 166 207 251 313 369
#     4  10  19  38  58  84 124 161 204 257 300 373
#     4   9  19  35  58  86 121 163 207 257 309 366
#     4  10  22  41  62  89 126 163 201 255 310 371
#     4  12  22  42  68  90 128 166 208 262 320 372
#     4  11  23  41  64  96 123 166 212 258 312 375
#     4   9  21  39  62  86 125 162 207 255 309 371
#     4  10  21  39  61  91 127 164 209 259 313 372
#
# _framework density 20.771141
#
# number of rings (size 3 to 8) (size 9 to 14) (size 15 to 20)
#    0.000    1.867    2.667    0.800    0.000    2.667 
#    0.000   12.667    0.000    0.000    0.000    0.000 
#    0.000    0.000    0.000    0.000    0.000    0.000 
#
# Total GULP energy -743820.540407 kJ/mol
# GULP energy per Si atom -12397.009007 kJ/mol
# Density = 2.072387 g / cm^3
# Si number density = 20.771141 Si / 1000 Ang^3
#
#
#
# Elastic Constant Matrix: (Units=GPa)
#
#
# Indices 1 2 3 4 5 6 
#
# 1 105.9025 48.3778 30.3124 0.0000 0.0000 0.0000
# 2 48.3778 111.8865 33.5441 0.0000 0.0000 0.0000
# 3 30.3124 33.5441 92.3865 0.0000 0.0000 0.0000
# 4 0.0000 0.0000 0.0000 34.7412 0.0000 0.0000
# 5 0.0000 0.0000 0.0000 0.0000 9.8009 0.0000
# 6 0.0000 0.0000 0.0000 0.0000 0.0000 39.3401
#
#
#
# Elastic Compliance Matrix: (Units=1/GPa)
#
#
# Indices 1 2 3 4 5 6 
#
# 1 0.012203 -0.004574 -0.002343 0.000000 0.000000 0.000000
# 2 -0.004574 0.011744 -0.002763 0.000000 0.000000 0.000000
# 3 -0.002343 -0.002763 0.012596 0.000000 0.000000 0.000000
# 4 0.000000 0.000000 0.000000 0.028784 0.000000 0.000000
# 5 0.000000 0.000000 0.000000 0.000000 0.102032 0.000000
# 6 0.000000 0.000000 0.000000 0.000000 0.000000 0.025419
#
#
# Mechanical properties :
#
#
# Convention : Reuss Voigt Hill
#
# Bulk Modulus (GPa) = 58.19951 59.40492 58.80221
# Shear Modulus (GPa) = 22.94993 29.97250 26.46122
#
# Velocity S-wave (km/s) = 3.32760 3.80279 3.57310
# Velocity P-wave (km/s) = 6.54554 6.92412 6.73749
#
# Compressibility (1/GPa) = 0.01718228
#
# Stress axis : x y z
#
# Youngs Moduli (GPa) = 81.94924 85.15210 79.38913
#
# Poissons Ratio (x) = 0.38947 0.18602
# Poissons Ratio (y) = 0.37482 0.21937
# Poissons Ratio (z) = 0.19201 0.23530
#
# Static dielectric constant tensor:
#      x y z
#    x 3.842080 0.000000 0.000000 
#    y 0.000000 4.184850 0.000000 
#    z 0.000000 0.000000 3.493870 
# 
# 
# High freq. dielectric constant tensor:
#      x y z
#    x 1.810730 0.000000 0.000000 
#    y 0.000000 1.838990 0.000000 
#    z 0.000000 0.000000 1.781200 
# 
# From -- ./inp_files/28092.got.cif
#   From: 2010.03.12/outbox.cif.g09.slc.cpg/sg57_15_cif.got.tgz:28092.got - 2010.04.16 15:48:40.
