data_PCOD8232314
_publ_section_title
;
Structure prediction by ZEFSAII (Michael W. Deem and Ramdas Pophale) SiO2 
 PCOD8232314
Probable space group: P B C M
;
_chemical_formula_sum "Si O2"
_cell_formula_units_Z 64
_cell_length_a 12.734494
_cell_length_b 14.331117
_cell_length_c 18.810741
_cell_angle_alpha 90.000000
_cell_angle_beta 90.000000
_cell_angle_gamma 90.000000
_cell_volume 3432.951268
_symmetry_space_group_name_H-M "P B C M"
_symmetry_group_IT_number 57
_symmetry_cell_setting 'orthorhombic'
loop_
_space_group_symop_operation_xyz
x,y,z
-x,-y,1/2+z
x,1/2-y,-z
-x,1/2+y,1/2-z
-x,-y,-z
x,y,1/2-z
-x,1/2+y,z
x,1/2-y,1/2+z
loop_
_atom_site_type_symbol
_atom_site_label
_atom_site_fract_x
_atom_site_fract_y
_atom_site_fract_z
Si Si1 0.776018 0.352195 0.003983
Si Si2 0.083012 0.827831 0.363949
Si Si3 0.381384 0.485166 0.021746
Si Si4 0.093437 0.469651 0.826685
Si Si5 0.281997 0.029793 0.829443
Si Si6 0.126199 0.872975 0.642420
Si Si7 0.850739 0.825269 0.091920
Si Si8 0.780067 0.628039 0.445585
O O1 0.841434 0.363887 0.074692
O O2 0.723925 0.250000 0.000000
O O3 0.681382 0.423617 0.000887
O O4 0.860878 0.367277 0.942045
O O5 0.126983 0.733442 0.326136
O O6 0.968573 0.796302 0.390855
O O7 0.076728 0.919142 0.315319
O O8 0.369524 0.468285 0.107422
O O9 0.500000 0.500000 0.000000
O O10 0.336140 0.399986 0.973814
O O11 0.133513 0.432074 0.750000
O O12 0.177961 0.443956 0.886772
O O13 0.981708 0.424668 0.842783
O O14 0.330348 0.048145 0.750000
O O15 0.196488 0.109544 0.846632
O O16 0.223554 0.929949 0.824936
O O17 0.779037 0.732269 0.086121
O O18 0.852956 0.878963 0.016170
#
# Coordination Sequence:
#
# PCOD8232314 Si02
#       8
#     8   8   8   8   8   8   8   8
#     4   9  19  34  57  86 110 143 192 247 282 331
#     4  11  20  32  53  82 118 156 193 224 275 345
#     4  10  21  41  65  85 106 147 198 250 298 331
#     4  12  23  32  48  78 118 162 190 225 281 344
#     4  10  21  38  58  85 116 147 187 236 289 344
#     4  10  20  33  53  81 114 156 192 225 275 344
#     4  10  20  33  59  86 114 151 184 225 282 343
#     4  10  21  38  54  83 113 146 194 241 282 341
#
# _framework density 18.642851
#
# number of rings (size 3 to 8) (size 9 to 14) (size 15 to 20)
#    0.000    1.750    3.750    1.125    3.500    2.500 
#    4.500    0.625    0.000    0.000    0.000    0.000 
#    0.000    0.000    0.000    0.000    0.000    0.000 
#
# Total GULP energy -793092.265193 kJ/mol
# GULP energy per Si atom -12392.066644 kJ/mol
# Density = 1.860042 g / cm^3
# Si number density = 18.642851 Si / 1000 Ang^3
#
#
#
# Elastic Constant Matrix: (Units=GPa)
#
#
# Indices 1 2 3 4 5 6 
#
# 1 92.9520 32.3332 49.6471 0.0000 0.0000 0.0000
# 2 32.3332 125.4059 41.8652 0.0000 0.0000 0.0000
# 3 49.6471 41.8652 114.9928 0.0000 0.0000 0.0000
# 4 0.0000 0.0000 0.0000 -3.0469 0.0000 0.0000
# 5 0.0000 0.0000 0.0000 0.0000 5.1157 0.0000
# 6 0.0000 0.0000 0.0000 0.0000 0.0000 18.6837
#
#
#
# Elastic Compliance Matrix: (Units=1/GPa)
#
#
# Indices 1 2 3 4 5 6 
#
# 1 0.014353 -0.001858 -0.005520 0.000000 0.000000 0.000000
# 2 -0.001858 0.009318 -0.002590 0.000000 0.000000 0.000000
# 3 -0.005520 -0.002590 0.012023 0.000000 0.000000 0.000000
# 4 0.000000 0.000000 0.000000 -0.328200 0.000000 0.000000
# 5 0.000000 0.000000 0.000000 0.000000 0.195478 0.000000
# 6 0.000000 0.000000 0.000000 0.000000 0.000000 0.053523
#
#
# Mechanical properties :
#
#
# Convention : Reuss Voigt Hill
#
# Bulk Modulus (GPa) = 63.46538 64.56017 64.01277
# Shear Modulus (GPa) = -272.97631 18.11750 -127.42941
#
# Velocity S-wave (km/s) = -12.11371 3.12078 -8.27655
# Velocity P-wave (km/s) = 12.70981 6.90586 7.54481
#
# Compressibility (1/GPa) = 0.01575662
#
# Stress axis : x y z
#
# Youngs Moduli (GPa) = 69.67194 107.32150 83.17643
#
# Poissons Ratio (x) = 0.19937 0.45917
# Poissons Ratio (y) = 0.12943 0.21545
# Poissons Ratio (z) = 0.38462 0.27799
#
# Static dielectric constant tensor:
#      x y z
#    x 2.970280 0.000000 0.000000 
#    y 0.000000 3.831440 0.000000 
#    z 0.000000 0.000000 3.571040 
# 
# 
# High freq. dielectric constant tensor:
#      x y z
#    x 1.668800 0.000000 0.000000 
#    y 0.000000 1.746250 0.000000 
#    z 0.000000 0.000000 1.726510 
# 
# From -- ./inp_files/22077.got.cif
#   From: 2010.03.12/outbox.cif.g09.slc.cpg/sg57_12_cif.got.tgz:22077.got - 2010.04.16 15:48:40.
