data_PCOD8232213
_publ_section_title
;
Structure prediction by ZEFSAII (Michael W. Deem and Ramdas Pophale) SiO2 
 PCOD8232213
Probable space group: P B C M
;
_chemical_formula_sum "Si O2"
_cell_formula_units_Z 40
_cell_length_a 26.223843
_cell_length_b 9.312992
_cell_length_c 8.920872
_cell_angle_alpha 90.000000
_cell_angle_beta 90.000000
_cell_angle_gamma 90.000000
_cell_volume 2178.677127
_symmetry_space_group_name_H-M "P B C M"
_symmetry_group_IT_number 57
_symmetry_cell_setting 'orthorhombic'
loop_
_space_group_symop_operation_xyz
x,y,z
-x,-y,1/2+z
x,1/2-y,-z
-x,1/2+y,1/2-z
-x,-y,-z
x,y,1/2-z
-x,1/2+y,z
x,1/2-y,1/2+z
loop_
_atom_site_type_symbol
_atom_site_label
_atom_site_fract_x
_atom_site_fract_y
_atom_site_fract_z
Si Si1 0.458116 0.903349 0.424105
Si Si2 0.749466 0.094925 0.425511
Si Si3 0.346126 0.596148 0.923318
Si Si4 0.138347 0.902574 0.575704
Si Si5 0.955830 0.906064 0.428484
O O1 0.460006 0.750000 0.500000
O O2 0.470945 0.884796 0.250000
O O3 0.401843 0.976504 0.445557
O O4 0.500000 0.000000 0.500000
O O5 0.748919 0.250000 0.500000
O O6 0.739927 0.105320 0.250000
O O7 0.701301 0.008310 0.499368
O O8 0.805537 0.030553 0.462004
O O9 0.333064 0.614927 0.750000
O O10 0.349699 0.750000 0.000000
O O11 0.127560 0.750000 0.500000
O O12 0.133626 0.869720 0.750000
O O13 0.097483 0.020455 0.524846
O O14 0.957355 0.750000 0.500000
O O15 0.962895 0.895893 0.250000
O O16 0.000000 0.000000 0.500000
#
# Coordination Sequence:
#
# PCOD8232213 Si02
#       5
#     8   8   8   8   8
#     4  10  20  33  50  72 100 132 169 211 257 305
#     4   9  15  25  43  68  96 126 159 199 245 293
#     4   9  16  26  42  67  96 126 161 203 247 294
#     4   9  19  33  51  76 105 133 165 204 248 297
#     4  11  23  39  57  79 106 137 173 213 255 301
#
# _framework density 18.359767000000002
#
# number of rings (size 3 to 8) (size 9 to 14) (size 15 to 20)
#    0.000    2.400    0.000    4.200    0.000    6.400 
#    0.000    0.000    0.000    1.200    0.000    5.600 
#    0.000    0.000    0.000    0.000    0.000    0.000 
#
# Total GULP energy -495542.767122 kJ/mol
# GULP energy per Si atom -12388.569178 kJ/mol
# Density = 1.831798 g / cm^3
# Si number density = 18.359767 Si / 1000 Ang^3
#
#
#
# Elastic Constant Matrix: (Units=GPa)
#
#
# Indices 1 2 3 4 5 6 
#
# 1 202.7885 66.3530 87.3960 0.0000 0.0000 0.0000
# 2 66.3530 75.2586 41.4506 0.0000 0.0000 0.0000
# 3 87.3960 41.4506 120.6782 0.0000 0.0000 0.0000
# 4 0.0000 0.0000 0.0000 24.4764 0.0000 0.0000
# 5 0.0000 0.0000 0.0000 0.0000 33.4965 0.0000
# 6 0.0000 0.0000 0.0000 0.0000 0.0000 24.2312
#
#
#
# Elastic Compliance Matrix: (Units=1/GPa)
#
#
# Indices 1 2 3 4 5 6 
#
# 1 0.008485 -0.005052 -0.004409 0.000000 0.000000 0.000000
# 2 -0.005052 0.019396 -0.003003 0.000000 0.000000 0.000000
# 3 -0.004409 -0.003003 0.012511 0.000000 0.000000 0.000000
# 4 0.000000 0.000000 0.000000 0.040856 0.000000 0.000000
# 5 0.000000 0.000000 0.000000 0.000000 0.029854 0.000000
# 6 0.000000 0.000000 0.000000 0.000000 0.000000 0.041269
#
#
# Mechanical properties :
#
#
# Convention : Reuss Voigt Hill
#
# Bulk Modulus (GPa) = 64.67311 87.68050 76.17681
# Shear Modulus (GPa) = 27.40415 30.00920 28.70668
#
# Velocity S-wave (km/s) = 3.86764 4.04729 3.95848
# Velocity P-wave (km/s) = 7.43281 8.34873 7.90405
#
# Compressibility (1/GPa) = 0.01546238
#
# Stress axis : x y z
#
# Youngs Moduli (GPa) = 117.86088 51.55721 79.92733
#
# Poissons Ratio (x) = 0.26047 0.35243
# Poissons Ratio (y) = 0.59544 0.24005
# Poissons Ratio (z) = 0.51969 0.15485
#
# Static dielectric constant tensor:
#      x y z
#    x 5.139690 0.000000 0.000000 
#    y 0.000000 2.746620 0.000000 
#    z 0.000000 0.000000 3.559520 
# 
# 
# High freq. dielectric constant tensor:
#      x y z
#    x 1.749350 0.000000 0.000000 
#    y 0.000000 1.645430 0.000000 
#    z 0.000000 0.000000 1.729280 
# 
# From -- ./inp_files/9637.got.cif
#   From: 2010.03.12/outbox.cif.g09.slc.cpg/sg57_5_cif.got.tgz:9637.got - 2010.04.16 15:48:40.
