data_PCOD8232042
_publ_section_title
;
Structure prediction by ZEFSAII (Michael W. Deem and Ramdas Pophale) SiO2 
 PCOD8232042
Probable space group: P B C M
;
_chemical_formula_sum "Si O2"
_cell_formula_units_Z 56
_cell_length_a 19.462951
_cell_length_b 9.033811
_cell_length_c 15.636439
_cell_angle_alpha 90.000000
_cell_angle_beta 90.000000
_cell_angle_gamma 90.000000
_cell_volume 2749.270958
_symmetry_space_group_name_H-M "P B C M"
_symmetry_group_IT_number 57
_symmetry_cell_setting 'orthorhombic'
loop_
_space_group_symop_operation_xyz
x,y,z
-x,-y,1/2+z
x,1/2-y,-z
-x,1/2+y,1/2-z
-x,-y,-z
x,y,1/2-z
-x,1/2+y,z
x,1/2-y,1/2+z
loop_
_atom_site_type_symbol
_atom_site_label
_atom_site_fract_x
_atom_site_fract_y
_atom_site_fract_z
Si Si1 0.806362 0.842267 0.349082
Si Si2 0.933750 0.371046 0.347139
Si Si3 0.341803 0.823856 0.913089
Si Si4 0.660290 0.672656 0.586038
Si Si5 0.428202 0.826063 0.750000
Si Si6 0.806709 0.322348 0.649019
Si Si7 0.057657 0.191435 0.405635
Si Si8 0.424999 0.322471 0.250000
O O1 0.786737 0.836940 0.250000
O O2 0.740000 0.785577 0.400281
O O3 0.868153 0.733283 0.369734
O O4 0.826653 0.009390 0.375586
O O5 0.920863 0.422725 0.250000
O O6 0.867411 0.284383 0.383545
O O7 0.948017 0.513951 0.405194
O O8 0.998712 0.261572 0.346899
O O9 0.388079 0.769481 0.834005
O O10 0.263388 0.773656 0.896813
O O11 0.347736 0.998329 0.923375
O O12 0.369206 0.750000 0.000000
O O13 0.633059 0.750000 0.500000
O O14 0.615895 0.730716 0.665904
O O15 0.502450 0.755828 0.750000
O O16 0.434123 0.002104 0.750000
O O17 0.795929 0.308932 0.750000
O O18 0.046128 0.250000 0.500000
#
# Coordination Sequence:
#
# PCOD8232042 Si02
#       8
#     8   8   8   8   4   8   8   4
#     4  10  19  37  62  85 115 160 202 244 300 357
#     4  11  23  40  60  83 114 157 203 247 299 362
#     4  10  21  38  63  90 123 162 199 250 303 358
#     4  10  21  39  62  91 124 159 207 249 301 363
#     4  10  22  42  64  88 127 158 209 238 301 366
#     4   9  19  37  62  86 114 153 199 249 298 355
#     4  12  25  39  56  84 121 155 198 255 304 354
#     4  10  22  42  64  90 121 170 195 252 299 362
#
# _framework density 20.369036999999999
#
# number of rings (size 3 to 8) (size 9 to 14) (size 15 to 20)
#    0.000    1.714    1.429    3.000    0.000    6.857 
#    0.000    2.857    0.000    0.000    0.000    0.000 
#    0.000    0.000    0.000    0.000    0.000    0.000 
#
# Total GULP energy -694658.127465 kJ/mol
# GULP energy per Si atom -12404.609419 kJ/mol
# Density = 2.032268 g / cm^3
# Si number density = 20.369037 Si / 1000 Ang^3
#
#
#
# Elastic Constant Matrix: (Units=GPa)
#
#
# Indices 1 2 3 4 5 6 
#
# 1 135.0311 53.9575 59.0849 0.0000 0.0000 0.0000
# 2 53.9575 70.5143 31.8592 0.0000 0.0000 0.0000
# 3 59.0849 31.8592 115.9807 0.0000 0.0000 0.0000
# 4 0.0000 0.0000 0.0000 34.7482 0.0000 0.0000
# 5 0.0000 0.0000 0.0000 0.0000 16.7180 0.0000
# 6 0.0000 0.0000 0.0000 0.0000 0.0000 37.5480
#
#
#
# Elastic Compliance Matrix: (Units=1/GPa)
#
#
# Indices 1 2 3 4 5 6 
#
# 1 0.012212 -0.007460 -0.004172 0.000000 0.000000 0.000000
# 2 -0.007460 0.020748 -0.001899 0.000000 0.000000 0.000000
# 3 -0.004172 -0.001899 0.011269 0.000000 0.000000 0.000000
# 4 0.000000 0.000000 0.000000 0.028778 0.000000 0.000000
# 5 0.000000 0.000000 0.000000 0.000000 0.059816 0.000000
# 6 0.000000 0.000000 0.000000 0.000000 0.000000 0.026633
#
#
# Mechanical properties :
#
#
# Convention : Reuss Voigt Hill
#
# Bulk Modulus (GPa) = 58.25035 67.92547 63.08791
# Shear Modulus (GPa) = 26.00914 29.57781 27.79347
#
# Velocity S-wave (km/s) = 3.57724 3.81477 3.69792
# Velocity P-wave (km/s) = 6.76179 7.26795 7.01944
#
# Compressibility (1/GPa) = 0.01716728
#
# Stress axis : x y z
#
# Youngs Moduli (GPa) = 81.88566 48.19820 88.73705
#
# Poissons Ratio (x) = 0.35954 0.37023
# Poissons Ratio (y) = 0.61084 0.16851
# Poissons Ratio (z) = 0.34164 0.09153
#
# Static dielectric constant tensor:
#      x y z
#    x 3.692050 0.000000 0.000000 
#    y 0.000000 3.578620 0.000000 
#    z 0.000000 0.000000 3.779340 
# 
# 
# High freq. dielectric constant tensor:
#      x y z
#    x 1.797270 0.000000 0.000000 
#    y 0.000000 1.785790 0.000000 
#    z 0.000000 0.000000 1.803030 
# 
# From -- ./inp_files/19392.got.cif
#   From: 2010.03.12/outbox.cif.g09.slc.cpg/sg57_10_cif.got.tgz:19392.got - 2010.04.16 15:48:40.
