data_PCOD8232410
_publ_section_title
;
Structure prediction by ZEFSAII (Michael W. Deem and Ramdas Pophale) SiO2 
 PCOD8232410
Probable space group: P B C M
;
_chemical_formula_sum "Si O2"
_cell_formula_units_Z 48
_cell_length_a 16.274443
_cell_length_b 18.329308
_cell_length_c 8.735059
_cell_angle_alpha 90.000000
_cell_angle_beta 90.000000
_cell_angle_gamma 90.000000
_cell_volume 2605.661795
_symmetry_space_group_name_H-M "P B C M"
_symmetry_group_IT_number 57
_symmetry_cell_setting 'orthorhombic'
loop_
_space_group_symop_operation_xyz
x,y,z
-x,-y,1/2+z
x,1/2-y,-z
-x,1/2+y,1/2-z
-x,-y,-z
x,y,1/2-z
-x,1/2+y,z
x,1/2-y,1/2+z
loop_
_atom_site_type_symbol
_atom_site_label
_atom_site_fract_x
_atom_site_fract_y
_atom_site_fract_z
Si Si1 0.653899 0.825403 0.073267
Si Si2 0.668054 0.097058 0.569837
Si Si3 0.166766 0.673528 0.571000
Si Si4 0.914283 0.475553 0.431879
Si Si5 0.516946 0.172159 0.069324
Si Si6 0.755875 0.534341 0.927336
O O1 0.632426 0.812070 0.250000
O O2 0.726748 0.882824 0.051707
O O3 0.684659 0.750000 0.000000
O O4 0.571308 0.854133 0.991694
O O5 0.651932 0.099800 0.750000
O O6 0.740391 0.153144 0.520978
O O7 0.585090 0.114349 0.480433
O O8 0.693993 0.016120 0.522319
O O9 0.138390 0.750000 0.500000
O O10 0.162189 0.683387 0.750000
O O11 0.105780 0.608121 0.519675
O O12 0.913371 0.484154 0.250000
O O13 0.846785 0.529348 0.503522
O O14 0.000000 0.500000 0.500000
O O15 0.514318 0.178134 0.250000
O O16 0.541243 0.250000 0.000000
O O17 0.755897 0.510648 0.750000
#
# Coordination Sequence:
#
# PCOD8232410 Si02
#       6
#     8   8   8   8   8   8
#     4  10  21  37  56  77 104 139 181 226 269 316
#     4  10  20  34  52  77 109 143 180 221 264 316
#     4   9  19  33  52  79 108 138 172 211 257 310
#     4  10  21  38  59  83 110 140 175 216 263 318
#     4  11  21  33  51  75 106 144 184 225 269 315
#     4  10  21  37  57  81 106 136 175 218 268 323
#
# _framework density 18.421423999999998
#
# number of rings (size 3 to 8) (size 9 to 14) (size 15 to 20)
#    0.000    2.000    0.000    6.000    0.000    8.667 
#    0.000    0.833    0.000    0.000    0.000    0.000 
#    0.000    0.000    0.000    0.000    0.000    0.000 
#
# Total GULP energy -595298.354848 kJ/mol
# GULP energy per Si atom -12402.049059 kJ/mol
# Density = 1.837950 g / cm^3
# Si number density = 18.421424 Si / 1000 Ang^3
#
#
#
# Elastic Constant Matrix: (Units=GPa)
#
#
# Indices 1 2 3 4 5 6 
#
# 1 120.6068 70.8898 54.7873 0.0000 0.0000 0.0000
# 2 70.8898 104.2781 50.1645 0.0000 0.0000 0.0000
# 3 54.7873 50.1645 112.1267 0.0000 0.0000 0.0000
# 4 0.0000 0.0000 0.0000 33.3659 0.0000 0.0000
# 5 0.0000 0.0000 0.0000 0.0000 32.9341 0.0000
# 6 0.0000 0.0000 0.0000 0.0000 0.0000 23.4897
#
#
#
# Elastic Compliance Matrix: (Units=1/GPa)
#
#
# Indices 1 2 3 4 5 6 
#
# 1 0.014803 -0.008389 -0.003480 0.000000 0.000000 0.000000
# 2 -0.008389 0.016974 -0.003495 0.000000 0.000000 0.000000
# 3 -0.003480 -0.003495 0.012182 0.000000 0.000000 0.000000
# 4 0.000000 0.000000 0.000000 0.029971 0.000000 0.000000
# 5 0.000000 0.000000 0.000000 0.000000 0.030364 0.000000
# 6 0.000000 0.000000 0.000000 0.000000 0.000000 0.042572
#
#
# Mechanical properties :
#
#
# Convention : Reuss Voigt Hill
#
# Bulk Modulus (GPa) = 75.57656 76.52164 76.04910
# Shear Modulus (GPa) = 27.47177 28.70262 28.08720
#
# Velocity S-wave (km/s) = 3.86592 3.95157 3.90898
# Velocity P-wave (km/s) = 7.81298 7.90250 7.85787
#
# Compressibility (1/GPa) = 0.01323162
#
# Stress axis : x y z
#
# Youngs Moduli (GPa) = 67.55253 58.91254 82.08593
#
# Poissons Ratio (x) = 0.49425 0.28564
# Poissons Ratio (y) = 0.56673 0.28688
# Poissons Ratio (z) = 0.23507 0.20589
#
# Static dielectric constant tensor:
#      x y z
#    x 3.321750 0.000000 0.000000 
#    y 0.000000 3.343840 0.000000 
#    z 0.000000 0.000000 3.543980 
# 
# 
# High freq. dielectric constant tensor:
#      x y z
#    x 1.704330 0.000000 0.000000 
#    y 0.000000 1.709780 0.000000 
#    z 0.000000 0.000000 1.731010 
# 
# From -- ./inp_files/4675.got.cif
#   From: 2010.03.12/outbox.cif.g09.slc.cpg/sg57_3_cif.got.tgz:4675.got - 2010.04.16 15:48:40.
