data_PCOD8232300
_publ_section_title
;
Structure prediction by ZEFSAII (Michael W. Deem and Ramdas Pophale) SiO2 
 PCOD8232300
Probable space group: P B C M
;
_chemical_formula_sum "Si O2"
_cell_formula_units_Z 48
_cell_length_a 16.352974
_cell_length_b 18.314481
_cell_length_c 8.891171
_cell_angle_alpha 90.000000
_cell_angle_beta 90.000000
_cell_angle_gamma 90.000000
_cell_volume 2662.872209
_symmetry_space_group_name_H-M "P B C M"
_symmetry_group_IT_number 57
_symmetry_cell_setting 'orthorhombic'
loop_
_space_group_symop_operation_xyz
x,y,z
-x,-y,1/2+z
x,1/2-y,-z
-x,1/2+y,1/2-z
-x,-y,-z
x,y,1/2-z
-x,1/2+y,z
x,1/2-y,1/2+z
loop_
_atom_site_type_symbol
_atom_site_label
_atom_site_fract_x
_atom_site_fract_y
_atom_site_fract_z
Si Si1 0.980239 0.325263 0.925035
Si Si2 0.816173 0.395770 0.923734
Si Si3 0.837391 0.827679 0.571693
Si Si4 0.736704 0.546220 0.574078
Si Si5 0.415738 0.524200 0.928050
Si Si6 0.333966 0.674762 0.926543
O O1 0.981268 0.309702 0.750000
O O2 0.910870 0.383896 0.969727
O O3 0.070369 0.352266 0.975134
O O4 0.955217 0.250000 0.000000
O O5 0.800090 0.376442 0.750000
O O6 0.798711 0.480028 0.957583
O O7 0.757704 0.343180 0.019426
O O8 0.817534 0.750000 0.500000
O O9 0.826002 0.824205 0.750000
O O10 0.773310 0.882743 0.501635
O O11 0.722433 0.559550 0.750000
O O12 0.650900 0.530254 0.495853
O O13 0.418732 0.514406 0.750000
O O14 0.394425 0.608147 0.971963
O O15 0.500000 0.500000 0.000000
O O16 0.332029 0.686169 0.750000
O O17 0.366051 0.750000 0.000000
#
# Coordination Sequence:
#
# PCOD8232300 Si02
#       6
#     8   8   8   8   8   8
#     4   9  18  31  47  70 101 138 178 218 259 301
#     4   9  18  32  50  74 105 139 174 213 257 306
#     4  10  20  35  53  73 101 137 178 222 263 305
#     4  10  20  35  55  78 104 135 171 211 260 315
#     4  10  21  38  59  82 107 136 171 212 260 313
#     4  10  20  33  52  79 109 139 171 208 253 306
#
# _framework density 18.025649999999999
#
# number of rings (size 3 to 8) (size 9 to 14) (size 15 to 20)
#    0.000    2.333    0.000    2.500    0.000    6.000 
#    0.000    0.833    0.000    2.000    0.000    0.000 
#    0.000    0.000    0.000    0.000    0.000    0.000 
#
# Total GULP energy -595207.142076 kJ/mol
# GULP energy per Si atom -12400.148793 kJ/mol
# Density = 1.798462 g / cm^3
# Si number density = 18.025650 Si / 1000 Ang^3
#
#
#
# Elastic Constant Matrix: (Units=GPa)
#
#
# Indices 1 2 3 4 5 6 
#
# 1 144.2555 92.7111 61.8368 0.0000 0.0000 0.0000
# 2 92.7111 122.6949 59.9915 0.0000 0.0000 0.0000
# 3 61.8368 59.9915 84.7436 0.0000 0.0000 0.0000
# 4 0.0000 0.0000 0.0000 32.2415 0.0000 0.0000
# 5 0.0000 0.0000 0.0000 0.0000 29.9320 0.0000
# 6 0.0000 0.0000 0.0000 0.0000 0.0000 11.3739
#
#
#
# Elastic Compliance Matrix: (Units=1/GPa)
#
#
# Indices 1 2 3 4 5 6 
#
# 1 0.014433 -0.008804 -0.004299 0.000000 0.000000 0.000000
# 2 -0.008804 0.017835 -0.006202 0.000000 0.000000 0.000000
# 3 -0.004299 -0.006202 0.019328 0.000000 0.000000 0.000000
# 4 0.000000 0.000000 0.000000 0.031016 0.000000 0.000000
# 5 0.000000 0.000000 0.000000 0.000000 0.033409 0.000000
# 6 0.000000 0.000000 0.000000 0.000000 0.000000 0.087920
#
#
# Mechanical properties :
#
#
# Convention : Reuss Voigt Hill
#
# Bulk Modulus (GPa) = 77.00455 86.75253 81.87854
# Shear Modulus (GPa) = 20.25275 23.85312 22.05293
#
# Velocity S-wave (km/s) = 3.35558 3.64165 3.50154
# Velocity P-wave (km/s) = 7.60430 8.11874 7.86573
#
# Compressibility (1/GPa) = 0.01298625
#
# Stress axis : x y z
#
# Youngs Moduli (GPa) = 69.28405 56.06956 51.73914
#
# Poissons Ratio (x) = 0.49363 0.22245
# Poissons Ratio (y) = 0.60997 0.32086
# Poissons Ratio (z) = 0.29788 0.34772
#
# Static dielectric constant tensor:
#      x y z
#    x 3.354100 0.000000 0.000000 
#    y 0.000000 3.076300 0.000000 
#    z 0.000000 0.000000 3.424730 
# 
# 
# High freq. dielectric constant tensor:
#      x y z
#    x 1.692020 0.000000 0.000000 
#    y 0.000000 1.693620 0.000000 
#    z 0.000000 0.000000 1.709140 
# 
# From -- ./inp_files/4635.got.cif
#   From: 2010.03.12/outbox.cif.g09.slc.cpg/sg57_3_cif.got.tgz:4635.got - 2010.04.16 15:48:40.
