data_PCOD8232228
_publ_section_title
;
Structure prediction by ZEFSAII (Michael W. Deem and Ramdas Pophale) SiO2 
 PCOD8232228
Probable space group: P B C M
;
_chemical_formula_sum "Si O2"
_cell_formula_units_Z 64
_cell_length_a 30.059478
_cell_length_b 13.734968
_cell_length_c 8.768574
_cell_angle_alpha 90.000000
_cell_angle_beta 90.000000
_cell_angle_gamma 90.000000
_cell_volume 3620.245796
_symmetry_space_group_name_H-M "P B C M"
_symmetry_group_IT_number 57
_symmetry_cell_setting 'orthorhombic'
loop_
_space_group_symop_operation_xyz
x,y,z
-x,-y,1/2+z
x,1/2-y,-z
-x,1/2+y,1/2-z
-x,-y,-z
x,y,1/2-z
-x,1/2+y,z
x,1/2-y,1/2+z
loop_
_atom_site_type_symbol
_atom_site_label
_atom_site_fract_x
_atom_site_fract_y
_atom_site_fract_z
Si Si1 0.358982 0.648801 0.926992
Si Si2 0.813346 0.015064 0.424391
Si Si3 0.518121 0.644968 0.429178
Si Si4 0.568009 0.475344 0.929252
Si Si5 0.255316 0.852739 0.072820
Si Si6 0.047905 0.478395 0.432740
Si Si7 0.122717 0.144618 0.432382
Si Si8 0.107474 0.649962 0.080230
O O1 0.370813 0.652780 0.750000
O O2 0.307215 0.630432 0.957075
O O3 0.374704 0.750000 0.000000
O O4 0.385205 0.561010 0.005412
O O5 0.805448 0.980911 0.250000
O O6 0.767691 0.050885 0.501540
O O7 0.842278 0.113335 0.428948
O O8 0.837883 0.928039 0.513828
O O9 0.522606 0.750000 0.500000
O O10 0.524061 0.651259 0.250000
O O11 0.470371 0.600994 0.475409
O O12 0.557571 0.579239 0.496401
O O13 0.571748 0.488924 0.750000
O O14 0.243192 0.847296 0.250000
O O15 0.239923 0.750000 0.000000
O O16 0.046946 0.466722 0.250000
O O17 0.073760 0.385560 0.503569
O O18 0.075862 0.569675 0.493732
O O19 0.000000 0.500000 0.500000
O O20 0.134337 0.250000 0.500000
O O21 0.121502 0.147624 0.250000
O O22 0.091087 0.667094 0.250000
O O23 0.100895 0.750000 0.000000
#
# Coordination Sequence:
#
# PCOD8232228 Si02
#       8
#     8   8   8   8   8   8   8   8
#     4  10  20  33  50  74 106 140 175 213 256 308
#     4  10  20  35  54  78 106 134 168 212 254 301
#     4  10  20  33  50  73 101 133 172 217 262 310
#     4  10  20  33  51  74 101 135 174 215 261 311
#     4  10  20  33  51  78 109 142 175 210 256 310
#     4  10  21  37  53  75 105 137 174 214 254 299
#     4  11  22  38  59  81 105 137 176 219 263 308
#     4   9  19  32  48  71  99 128 160 197 240 289
#
# _framework density 17.678357999999999
#
# number of rings (size 3 to 8) (size 9 to 14) (size 15 to 20)
#    0.000    2.000    0.000    4.875    0.000    8.500 
#    0.000    1.250    0.000    0.750    0.000    0.000 
#    0.000    0.000    0.000    0.000    0.000    0.000 
#
# Total GULP energy -793539.076138 kJ/mol
# GULP energy per Si atom -12399.048065 kJ/mol
# Density = 1.763812 g / cm^3
# Si number density = 17.678358 Si / 1000 Ang^3
#
#
#
# Elastic Constant Matrix: (Units=GPa)
#
#
# Indices 1 2 3 4 5 6 
#
# 1 74.5081 46.4130 44.6200 0.0000 0.0000 0.0000
# 2 46.4130 119.7329 56.3736 0.0000 0.0000 0.0000
# 3 44.6200 56.3736 114.0589 0.0000 0.0000 0.0000
# 4 0.0000 0.0000 0.0000 36.0554 0.0000 0.0000
# 5 0.0000 0.0000 0.0000 0.0000 29.6333 0.0000
# 6 0.0000 0.0000 0.0000 0.0000 0.0000 25.4466
#
#
#
# Elastic Compliance Matrix: (Units=1/GPa)
#
#
# Indices 1 2 3 4 5 6 
#
# 1 0.019765 -0.005241 -0.005142 0.000000 0.000000 0.000000
# 2 -0.005241 0.012275 -0.004016 0.000000 0.000000 0.000000
# 3 -0.005142 -0.004016 0.012764 0.000000 0.000000 0.000000
# 4 0.000000 0.000000 0.000000 0.027735 0.000000 0.000000
# 5 0.000000 0.000000 0.000000 0.000000 0.033746 0.000000
# 6 0.000000 0.000000 0.000000 0.000000 0.000000 0.039298
#
#
# Mechanical properties :
#
#
# Convention : Reuss Voigt Hill
#
# Bulk Modulus (GPa) = 62.47869 67.01255 64.74562
# Shear Modulus (GPa) = 27.82162 28.95328 28.38745
#
# Velocity S-wave (km/s) = 3.97138 4.05134 4.01156
# Velocity P-wave (km/s) = 7.51317 7.73779 7.62631
#
# Compressibility (1/GPa) = 0.01600546
#
# Stress axis : x y z
#
# Youngs Moduli (GPa) = 50.59375 81.46959 78.34493
#
# Poissons Ratio (x) = 0.42697 0.40284
# Poissons Ratio (y) = 0.26515 0.31467
# Poissons Ratio (z) = 0.26015 0.32722
#
# Static dielectric constant tensor:
#      x y z
#    x 3.275470 0.000000 0.000000 
#    y 0.000000 3.186390 0.000000 
#    z 0.000000 0.000000 3.356650 
# 
# 
# High freq. dielectric constant tensor:
#      x y z
#    x 1.674580 0.000000 0.000000 
#    y 0.000000 1.676800 0.000000 
#    z 0.000000 0.000000 1.701260 
# 
# From -- ./inp_files/10282.got.cif
#   From: 2010.03.12/outbox.cif.g09.slc.cpg/sg57_6_cif.got.tgz:10282.got - 2010.04.16 15:48:40.
