data_PCOD8232368
_publ_section_title
;
Structure prediction by ZEFSAII (Michael W. Deem and Ramdas Pophale) SiO2 
 PCOD8232368
Probable space group: P B C M
;
_chemical_formula_sum "Si O2"
_cell_formula_units_Z 64
_cell_length_a 14.424236
_cell_length_b 25.256020
_cell_length_c 8.826704
_cell_angle_alpha 90.000000
_cell_angle_beta 90.000000
_cell_angle_gamma 90.000000
_cell_volume 3215.557612
_symmetry_space_group_name_H-M "P B C M"
_symmetry_group_IT_number 57
_symmetry_cell_setting 'orthorhombic'
loop_
_space_group_symop_operation_xyz
x,y,z
-x,-y,1/2+z
x,1/2-y,-z
-x,1/2+y,1/2-z
-x,-y,-z
x,y,1/2-z
-x,1/2+y,z
x,1/2-y,1/2+z
loop_
_atom_site_type_symbol
_atom_site_label
_atom_site_fract_x
_atom_site_fract_y
_atom_site_fract_z
Si Si1 0.345438 0.603214 0.928878
Si Si2 0.981166 0.163885 0.069791
Si Si3 0.221212 0.695414 0.430648
Si Si4 0.515410 0.557720 0.071834
Si Si5 0.818845 0.803163 0.571173
Si Si6 0.760339 0.014234 0.081277
Si Si7 0.037397 0.549776 0.083597
Si Si8 0.724922 0.588986 0.426500
O O1 0.345785 0.612633 0.750000
O O2 0.284493 0.648028 0.008726
O O3 0.449366 0.602221 0.995583
O O4 0.308075 0.544461 0.967387
O O5 0.975572 0.159738 0.250000
O O6 0.885569 0.189904 0.010975
O O7 0.990188 0.104498 0.001923
O O8 0.073454 0.194176 0.016180
O O9 0.260094 0.750000 0.500000
O O10 0.227855 0.696409 0.250000
O O11 0.495853 0.553955 0.250000
O O12 0.617300 0.580133 0.037508
O O13 0.500000 0.500000 0.000000
O O14 0.775235 0.750000 0.500000
O O15 0.812848 0.798769 0.750000
O O16 0.759783 0.853747 0.514422
O O17 0.716236 0.009872 0.250000
O O18 0.852235 0.048773 0.091390
O O19 0.782265 0.955980 0.015791
O O20 0.993030 0.548238 0.250000
O O21 0.000000 0.500000 0.000000
O O22 0.747895 0.583336 0.250000
#
# Coordination Sequence:
#
# PCOD8232368 Si02
#       8
#     8   8   8   8   8   8   8   8
#     4  12  24  39  60  88 121 160 200 244 302 362
#     4   9  18  35  58  82 117 157 196 240 293 348
#     4  11  22  40  62  88 121 159 203 251 299 356
#     4  11  22  38  62  92 122 156 198 247 303 366
#     4  10  21  39  61  85 117 157 199 245 292 346
#     4  11  21  35  58  86 120 156 194 245 300 354
#     4  10  20  34  51  79 116 159 198 240 298 355
#     4  10  22  39  61  88 120 156 196 243 303 364
#
# _framework density 19.903234000000001
#
# number of rings (size 3 to 8) (size 9 to 14) (size 15 to 20)
#    0.000    1.500    2.500    3.375    0.000    3.000 
#    0.000    1.875    0.000    1.500    0.000    0.000 
#    0.000    0.000    0.000    0.000    0.000    0.000 
#
# Total GULP energy -793498.811304 kJ/mol
# GULP energy per Si atom -12398.418927 kJ/mol
# Density = 1.985793 g / cm^3
# Si number density = 19.903234 Si / 1000 Ang^3
#
#
#
# Elastic Constant Matrix: (Units=GPa)
#
#
# Indices 1 2 3 4 5 6 
#
# 1 80.9174 40.4528 28.0603 0.0000 0.0000 0.0000
# 2 40.4528 147.3764 40.7345 0.0000 0.0000 0.0000
# 3 28.0603 40.7345 84.3031 0.0000 0.0000 0.0000
# 4 0.0000 0.0000 0.0000 36.1380 0.0000 0.0000
# 5 0.0000 0.0000 0.0000 0.0000 24.3866 0.0000
# 6 0.0000 0.0000 0.0000 0.0000 0.0000 21.4592
#
#
#
# Elastic Compliance Matrix: (Units=1/GPa)
#
#
# Indices 1 2 3 4 5 6 
#
# 1 0.015171 -0.003195 -0.003506 0.000000 0.000000 0.000000
# 2 -0.003195 0.008504 -0.003046 0.000000 0.000000 0.000000
# 3 -0.003506 -0.003046 0.014500 0.000000 0.000000 0.000000
# 4 0.000000 0.000000 0.000000 0.027672 0.000000 0.000000
# 5 0.000000 0.000000 0.000000 0.000000 0.041006 0.000000
# 6 0.000000 0.000000 0.000000 0.000000 0.000000 0.046600
#
#
# Mechanical properties :
#
#
# Convention : Reuss Voigt Hill
#
# Bulk Modulus (GPa) = 53.52582 59.01024 56.26803
# Shear Modulus (GPa) = 27.90566 29.95339 28.92953
#
# Velocity S-wave (km/s) = 3.74848 3.88358 3.81663
# Velocity P-wave (km/s) = 6.75916 7.05851 6.91045
#
# Compressibility (1/GPa) = 0.01868257
#
# Stress axis : x y z
#
# Youngs Moduli (GPa) = 65.91315 117.58864 68.96317
#
# Poissons Ratio (x) = 0.37574 0.24178
# Poissons Ratio (y) = 0.21062 0.21003
# Poissons Ratio (z) = 0.23108 0.35813
#
# Static dielectric constant tensor:
#      x y z
#    x 3.882090 0.000000 0.000000 
#    y 0.000000 3.725160 0.000000 
#    z 0.000000 0.000000 3.462700 
# 
# 
# High freq. dielectric constant tensor:
#      x y z
#    x 1.775290 0.000000 0.000000 
#    y 0.000000 1.780150 0.000000 
#    z 0.000000 0.000000 1.764070 
# 
# From -- ./inp_files/5552.got.cif
#   From: 2010.03.12/outbox.cif.g09.slc.cpg/sg57_3_cif.got.tgz:5552.got - 2010.04.16 15:48:40.
