data_PCOD8232826
_publ_section_title
;
Structure prediction by ZEFSAII (Michael W. Deem and Ramdas Pophale) SiO2 
 PCOD8232826
Probable space group: P B C M
;
_chemical_formula_sum "Si O2"
_cell_formula_units_Z 32
_cell_length_a 7.797962
_cell_length_b 13.540659
_cell_length_c 14.554132
_cell_angle_alpha 90.000000
_cell_angle_beta 90.000000
_cell_angle_gamma 90.000000
_cell_volume 1536.764166
_symmetry_space_group_name_H-M "P B C M"
_symmetry_group_IT_number 57
_symmetry_cell_setting 'orthorhombic'
loop_
_space_group_symop_operation_xyz
x,y,z
-x,-y,1/2+z
x,1/2-y,-z
-x,1/2+y,1/2-z
-x,-y,-z
x,y,1/2-z
-x,1/2+y,z
x,1/2-y,1/2+z
loop_
_atom_site_type_symbol
_atom_site_label
_atom_site_fract_x
_atom_site_fract_y
_atom_site_fract_z
Si Si1 0.530594 0.110447 0.028611
Si Si2 0.217796 0.414773 0.856534
Si Si3 0.303884 0.640099 0.648167
Si Si4 0.145396 0.840400 0.853892
O O1 0.365418 0.144030 0.087356
O O2 0.702103 0.112292 0.088515
O O3 0.558244 0.170549 0.932026
O O4 0.500000 0.000000 0.000000
O O5 0.242617 0.387336 0.750000
O O6 0.224580 0.532884 0.871672
O O7 0.036129 0.375959 0.894383
O O8 0.390723 0.643011 0.750000
O O9 0.152550 0.720909 0.642866
O O10 0.165322 0.879643 0.750000
#
# Coordination Sequence:
#
# PCOD8232826 Si02
#       4
#     8   8   8   8
#     4  10  20  35  57  82 112 148 188 233 282 334
#     4   9  19  37  60  85 113 147 190 235 283 341
#     4   9  19  36  56  82 116 150 187 234 282 331
#     4  10  20  37  60  84 115 151 187 234 287 335
#
# _framework density 20.822973000000001
#
# number of rings (size 3 to 8) (size 9 to 14) (size 15 to 20)
#    0.000    2.500    0.000    1.500    0.000    5.000 
#    0.000   12.500    0.000   19.500    0.000    0.000 
#    0.000    0.000    0.000    0.000    0.000    0.000 
#
# Total GULP energy -396577.830566 kJ/mol
# GULP energy per Si atom -12393.057205 kJ/mol
# Density = 2.077558 g / cm^3
# Si number density = 20.822973 Si / 1000 Ang^3
#
#
#
# Elastic Constant Matrix: (Units=GPa)
#
#
# Indices 1 2 3 4 5 6 
#
# 1 193.2697 49.4163 101.6700 0.0000 0.0000 0.0000
# 2 49.4163 54.5852 39.5251 0.0000 0.0000 0.0000
# 3 101.6700 39.5251 138.9898 0.0000 0.0000 0.0000
# 4 0.0000 0.0000 0.0000 27.0765 0.0000 0.0000
# 5 0.0000 0.0000 0.0000 0.0000 25.4108 0.0000
# 6 0.0000 0.0000 0.0000 0.0000 0.0000 30.7596
#
#
#
# Elastic Compliance Matrix: (Units=1/GPa)
#
#
# Indices 1 2 3 4 5 6 
#
# 1 0.009158 -0.004332 -0.005467 0.000000 0.000000 0.000000
# 2 -0.004332 0.025120 -0.003975 0.000000 0.000000 0.000000
# 3 -0.005467 -0.003975 0.012324 0.000000 0.000000 0.000000
# 4 0.000000 0.000000 0.000000 0.036932 0.000000 0.000000
# 5 0.000000 0.000000 0.000000 0.000000 0.039353 0.000000
# 6 0.000000 0.000000 0.000000 0.000000 0.000000 0.032510
#
#
# Mechanical properties :
#
#
# Convention : Reuss Voigt Hill
#
# Bulk Modulus (GPa) = 52.48090 85.34085 68.91088
# Shear Modulus (GPa) = 26.41376 29.73160 28.07268
#
# Velocity S-wave (km/s) = 3.56545 3.78276 3.67571
# Velocity P-wave (km/s) = 6.49677 7.75577 7.15402
#
# Compressibility (1/GPa) = 0.01905455
#
# Stress axis : x y z
#
# Youngs Moduli (GPa) = 109.19976 39.80942 81.14268
#
# Poissons Ratio (x) = 0.17245 0.44359
# Poissons Ratio (y) = 0.47304 0.32251
# Poissons Ratio (z) = 0.59697 0.15823
#
# Static dielectric constant tensor:
#      x y z
#    x 3.879580 0.000000 0.000000 
#    y 0.000000 3.808410 0.000000 
#    z 0.000000 0.000000 4.935170 
# 
# 
# High freq. dielectric constant tensor:
#      x y z
#    x 1.789770 0.000000 0.000000 
#    y 0.000000 1.813380 0.000000 
#    z 0.000000 0.000000 1.836730 
# 
# From -- ./inp_files/14691.got.cif
#   From: 2010.03.12/outbox.cif.g09.slc.cpg/sg57_8_cif.got.tgz:14691.got - 2010.04.16 15:48:40.
