data_PCOD8232960
_publ_section_title
;
Structure prediction by ZEFSAII (Michael W. Deem and Ramdas Pophale) SiO2 
 PCOD8232960
Probable space group: P B C M
;
_chemical_formula_sum "Si O2"
_cell_formula_units_Z 44
_cell_length_a 8.651315
_cell_length_b 24.892344
_cell_length_c 10.780505
_cell_angle_alpha 90.000000
_cell_angle_beta 90.000000
_cell_angle_gamma 90.000000
_cell_volume 2321.598020
_symmetry_space_group_name_H-M "P B C M"
_symmetry_group_IT_number 57
_symmetry_cell_setting 'orthorhombic'
loop_
_space_group_symop_operation_xyz
x,y,z
-x,-y,1/2+z
x,1/2-y,-z
-x,1/2+y,1/2-z
-x,-y,-z
x,y,1/2-z
-x,1/2+y,z
x,1/2-y,1/2+z
loop_
_atom_site_type_symbol
_atom_site_label
_atom_site_fract_x
_atom_site_fract_y
_atom_site_fract_z
Si Si1 0.845999 0.750000 0.500000
Si Si2 0.829416 0.034806 0.115262
Si Si3 0.697766 0.355768 0.896280
Si Si4 0.935755 0.335317 0.109845
Si Si5 0.878821 0.924871 0.995432
Si Si6 0.351004 0.341660 0.608129
O O1 0.737694 0.713583 0.414208
O O2 0.947113 0.714022 0.592679
O O3 0.801824 0.010837 0.250000
O O4 0.700637 0.079684 0.084032
O O5 0.995716 0.065288 0.112854
O O6 0.816425 0.983841 0.027302
O O7 0.739679 0.341847 0.750000
O O8 0.528261 0.335351 0.934281
O O9 0.811792 0.328801 0.997659
O O10 0.864206 0.331908 0.250000
O O11 0.027334 0.392163 0.101849
O O12 0.729836 0.891088 0.959904
O O13 0.346782 0.357302 0.750000
#
# Coordination Sequence:
#
# PCOD8232960 Si02
#       6
#     4   8   8   8   8   8
#     4  10  22  36  56  78 100 134 178 224 272 320
#     4   9  16  30  50  76 107 142 178 216 257 306
#     4   9  20  36  56  80 111 144 176 214 266 323
#     4  10  20  36  55  78 104 136 177 224 268 315
#     4   9  18  30  52  78 105 139 181 219 258 306
#     4  10  20  37  55  77 107 141 178 220 267 322
#
# _framework density 18.952462000000001
#
# number of rings (size 3 to 8) (size 9 to 14) (size 15 to 20)
#    0.000    2.545    0.000    1.636    0.000    6.545 
#    0.000    8.182    0.000    0.000    0.000    0.000 
#    0.000    0.000    0.000    0.000    0.000    0.000 
#
# Total GULP energy -545142.795493 kJ/mol
# GULP energy per Si atom -12389.608988 kJ/mol
# Density = 1.890933 g / cm^3
# Si number density = 18.952462 Si / 1000 Ang^3
#
#
#
# Elastic Constant Matrix: (Units=GPa)
#
#
# Indices 1 2 3 4 5 6 
#
# 1 112.8515 45.1292 56.0576 0.0000 0.0000 0.0000
# 2 45.1292 91.2193 27.1919 0.0000 0.0000 0.0000
# 3 56.0576 27.1919 97.6373 0.0000 0.0000 0.0000
# 4 0.0000 0.0000 0.0000 14.1193 0.0000 0.0000
# 5 0.0000 0.0000 0.0000 0.0000 24.1171 0.0000
# 6 0.0000 0.0000 0.0000 0.0000 0.0000 16.6330
#
#
#
# Elastic Compliance Matrix: (Units=1/GPa)
#
#
# Indices 1 2 3 4 5 6 
#
# 1 0.014235 -0.005023 -0.006774 0.000000 0.000000 0.000000
# 2 -0.005023 0.013728 -0.000939 0.000000 0.000000 0.000000
# 3 -0.006774 -0.000939 0.014393 0.000000 0.000000 0.000000
# 4 0.000000 0.000000 0.000000 0.070825 0.000000 0.000000
# 5 0.000000 0.000000 0.000000 0.000000 0.041464 0.000000
# 6 0.000000 0.000000 0.000000 0.000000 0.000000 0.060121
#
#
# Mechanical properties :
#
#
# Convention : Reuss Voigt Hill
#
# Bulk Modulus (GPa) = 59.23169 62.05171 60.64170
# Shear Modulus (GPa) = 20.33632 22.52919 21.43275
#
# Velocity S-wave (km/s) = 3.27925 3.45152 3.36649
# Velocity P-wave (km/s) = 6.75711 6.97824 6.86857
#
# Compressibility (1/GPa) = 0.01688285
#
# Stress axis : x y z
#
# Youngs Moduli (GPa) = 70.25053 72.84553 69.47987
#
# Poissons Ratio (x) = 0.36592 0.47064
# Poissons Ratio (y) = 0.35288 0.06525
# Poissons Ratio (z) = 0.47586 0.06841
#
# Static dielectric constant tensor:
#      x y z
#    x 3.483670 0.000000 0.000000 
#    y 0.000000 3.509580 0.000000 
#    z 0.000000 0.000000 3.372580 
# 
# 
# High freq. dielectric constant tensor:
#      x y z
#    x 1.722820 0.000000 0.000000 
#    y 0.000000 1.744010 0.000000 
#    z 0.000000 0.000000 1.726240 
# 
# From -- ./inp_files/1875.got.cif
#   From: 2010.03.12/outbox.cif.g09.slc.cpg/sg57_1_cif.got.tgz:1875.got - 2010.04.16 15:48:40.
