data_PCOD8232694
_publ_section_title
;
Structure prediction by ZEFSAII (Michael W. Deem and Ramdas Pophale) SiO2 
 PCOD8232694
Probable space group: P B C M
;
_chemical_formula_sum "Si O2"
_cell_formula_units_Z 48
_cell_length_a 13.631703
_cell_length_b 13.778171
_cell_length_c 13.997624
_cell_angle_alpha 90.000000
_cell_angle_beta 90.000000
_cell_angle_gamma 90.000000
_cell_volume 2629.032829
_symmetry_space_group_name_H-M "P B C M"
_symmetry_group_IT_number 57
_symmetry_cell_setting 'orthorhombic'
loop_
_space_group_symop_operation_xyz
x,y,z
-x,-y,1/2+z
x,1/2-y,-z
-x,1/2+y,1/2-z
-x,-y,-z
x,y,1/2-z
-x,1/2+y,z
x,1/2-y,1/2+z
loop_
_atom_site_type_symbol
_atom_site_label
_atom_site_fract_x
_atom_site_fract_y
_atom_site_fract_z
Si Si1 0.756808 0.650282 0.546299
Si Si2 0.675465 0.106272 0.750000
Si Si3 0.103103 0.018484 0.049658
Si Si4 0.397817 0.993180 0.948894
Si Si5 0.818959 0.570523 0.250000
Si Si6 0.556264 0.923648 0.250000
Si Si7 0.740983 0.351722 0.456307
Si Si8 0.729517 0.713091 0.750000
O O1 0.724209 0.750000 0.500000
O O2 0.858629 0.611465 0.507321
O O3 0.671418 0.578329 0.512087
O O4 0.774713 0.660471 0.658659
O O5 0.558685 0.096395 0.750000
O O6 0.707984 0.162569 0.654061
O O7 0.726434 0.001298 0.750000
O O8 0.107911 0.052050 0.160662
O O9 0.166054 0.921761 0.035341
O O10 0.000000 0.000000 0.000000
O O11 0.412115 0.007060 0.836671
O O12 0.500000 0.000000 0.000000
O O13 0.348272 0.891295 0.978011
O O14 0.761567 0.674069 0.250000
O O15 0.612482 0.817743 0.250000
O O16 0.774242 0.250000 0.500000
#
# Coordination Sequence:
#
# PCOD8232694 Si02
#       8
#     8   4   8   8   4   4   8   4
#     4  10  20  35  58  85 119 151 193 248 292 345
#     4  10  20  39  56  83 122 157 197 238 286 353
#     4  10  22  40  64  87 114 154 197 245 305 362
#     4  10  20  35  54  83 119 160 195 240 286 342
#     4  10  20  39  63  87 119 155 195 249 307 355
#     4  10  20  35  55  89 121 157 208 238 279 347
#     4  10  22  40  58  82 122 157 194 244 296 349
#     4  10  20  35  56  91 122 151 196 245 292 341
#
# _framework density 18.257664999999999
#
# number of rings (size 3 to 8) (size 9 to 14) (size 15 to 20)
#    0.000    2.000    3.333    0.000    0.000    2.667 
#    3.000    2.500    0.000    0.000    0.000    0.000 
#    0.000    0.000    0.000    0.000    0.000    0.000 
#
# Total GULP energy -594820.735064 kJ/mol
# GULP energy per Si atom -12392.098647 kJ/mol
# Density = 1.821611 g / cm^3
# Si number density = 18.257665 Si / 1000 Ang^3
#
#
#
# Elastic Constant Matrix: (Units=GPa)
#
#
# Indices 1 2 3 4 5 6 
#
# 1 111.7504 29.6379 57.8077 0.0000 0.0000 0.0000
# 2 29.6379 91.1710 49.4770 0.0000 0.0000 0.0000
# 3 57.8077 49.4770 147.2197 0.0000 0.0000 0.0000
# 4 0.0000 0.0000 0.0000 28.8332 0.0000 0.0000
# 5 0.0000 0.0000 0.0000 0.0000 28.7642 0.0000
# 6 0.0000 0.0000 0.0000 0.0000 0.0000 16.1483
#
#
#
# Elastic Compliance Matrix: (Units=1/GPa)
#
#
# Indices 1 2 3 4 5 6 
#
# 1 0.011409 -0.001563 -0.003955 0.000000 0.000000 0.000000
# 2 -0.001563 0.013629 -0.003967 0.000000 0.000000 0.000000
# 3 -0.003955 -0.003967 0.009679 0.000000 0.000000 0.000000
# 4 0.000000 0.000000 0.000000 0.034682 0.000000 0.000000
# 5 0.000000 0.000000 0.000000 0.000000 0.034765 0.000000
# 6 0.000000 0.000000 0.000000 0.000000 0.000000 0.061926
#
#
# Mechanical properties :
#
#
# Convention : Reuss Voigt Hill
#
# Bulk Modulus (GPa) = 63.49937 69.33183 66.41560
# Shear Modulus (GPa) = 26.27327 28.96371 27.61849
#
# Velocity S-wave (km/s) = 3.79757 3.98727 3.89357
# Velocity P-wave (km/s) = 7.35417 7.69768 7.52788
#
# Compressibility (1/GPa) = 0.01574819
#
# Stress axis : x y z
#
# Youngs Moduli (GPa) = 87.65301 73.37236 103.32138
#
# Poissons Ratio (x) = 0.11465 0.40859
# Poissons Ratio (y) = 0.13697 0.40986
# Poissons Ratio (z) = 0.34663 0.29106
#
# Static dielectric constant tensor:
#      x y z
#    x 3.268290 0.000000 0.000000 
#    y 0.000000 3.444920 0.000000 
#    z 0.000000 0.000000 3.980040 
# 
# 
# High freq. dielectric constant tensor:
#      x y z
#    x 1.695050 0.000000 0.000000 
#    y 0.000000 1.701690 0.000000 
#    z 0.000000 0.000000 1.729530 
# 
# From -- ./inp_files/13765.got.cif
#   From: 2010.03.12/outbox.cif.g09.slc.cpg/sg57_7_cif.got.tgz:13765.got - 2010.04.16 15:48:40.
