data_PCOD8232560
_publ_section_title
;
Structure prediction by ZEFSAII (Michael W. Deem and Ramdas Pophale) SiO2 
 PCOD8232560
Probable space group: P B C M
;
_chemical_formula_sum "Si O2"
_cell_formula_units_Z 64
_cell_length_a 21.180460
_cell_length_b 18.492116
_cell_length_c 8.642920
_cell_angle_alpha 90.000000
_cell_angle_beta 90.000000
_cell_angle_gamma 90.000000
_cell_volume 3385.185642
_symmetry_space_group_name_H-M "P B C M"
_symmetry_group_IT_number 57
_symmetry_cell_setting 'orthorhombic'
loop_
_space_group_symop_operation_xyz
x,y,z
-x,-y,1/2+z
x,1/2-y,-z
-x,1/2+y,1/2-z
-x,-y,-z
x,y,1/2-z
-x,1/2+y,z
x,1/2-y,1/2+z
loop_
_atom_site_type_symbol
_atom_site_label
_atom_site_fract_x
_atom_site_fract_y
_atom_site_fract_z
Si Si1 0.816472 0.534461 0.071375
Si Si2 0.875217 0.324950 0.932041
Si Si3 0.064302 0.528527 0.069081
Si Si4 0.496815 0.579125 0.067084
Si Si5 0.260392 0.175682 0.067330
Si Si6 0.246653 0.613141 0.569741
Si Si7 0.617864 0.329855 0.066732
Si Si8 0.396603 0.326391 0.433544
O O1 0.835922 0.530467 0.250000
O O2 0.787486 0.611614 0.028739
O O3 0.766141 0.471278 0.031792
O O4 0.879667 0.526606 0.971739
O O5 0.879387 0.320984 0.750000
O O6 0.917804 0.391544 0.996067
O O7 0.901741 0.250000 0.000000
O O8 0.802598 0.336295 0.979988
O O9 0.055830 0.532232 0.250000
O O10 0.000000 0.500000 0.000000
O O11 0.490188 0.577261 0.250000
O O12 0.500000 0.500000 0.000000
O O13 0.438330 0.622044 0.997146
O O14 0.562555 0.613703 0.017621
O O15 0.274011 0.182780 0.250000
O O16 0.230972 0.250000 0.000000
O O17 0.324484 0.158673 0.977153
O O18 0.238180 0.629718 0.750000
O O19 0.316666 0.633177 0.513142
O O20 0.612437 0.326182 0.250000
O O21 0.612822 0.250000 0.000000
O O22 0.419700 0.250000 0.500000
O O23 0.406147 0.328764 0.250000
#
# Coordination Sequence:
#
# PCOD8232560 Si02
#       8
#     8   8   8   8   8   8   8   8
#     4   9  19  36  58  84 114 151 188 230 282 333
#     4  10  20  34  55  84 115 148 187 230 275 328
#     4  10  21  37  58  84 114 150 190 233 277 330
#     4  12  26  43  60  82 111 146 189 238 289 345
#     4  10  20  35  58  86 116 150 190 239 289 341
#     4   9  19  35  57  84 114 149 185 228 280 333
#     4  11  23  39  59  84 115 151 189 232 284 341
#     4  11  22  39  61  85 111 148 190 236 289 343
#
# _framework density 18.905906000000002
#
# number of rings (size 3 to 8) (size 9 to 14) (size 15 to 20)
#    0.000    1.750    0.000    5.250    1.750    4.500 
#    0.000    0.625    0.000    0.000    0.000    0.000 
#    0.000    0.000    0.000    0.000    0.000    0.000 
#
# Total GULP energy -793772.307772 kJ/mol
# GULP energy per Si atom -12402.692309 kJ/mol
# Density = 1.886287 g / cm^3
# Si number density = 18.905906 Si / 1000 Ang^3
#
#
#
# Elastic Constant Matrix: (Units=GPa)
#
#
# Indices 1 2 3 4 5 6 
#
# 1 104.6697 80.4250 38.3772 0.0000 0.0000 0.0000
# 2 80.4250 153.8362 42.9025 0.0000 0.0000 0.0000
# 3 38.3772 42.9025 77.3746 0.0000 0.0000 0.0000
# 4 0.0000 0.0000 0.0000 34.8760 0.0000 0.0000
# 5 0.0000 0.0000 0.0000 0.0000 33.5850 0.0000
# 6 0.0000 0.0000 0.0000 0.0000 0.0000 26.9325
#
#
#
# Elastic Compliance Matrix: (Units=1/GPa)
#
#
# Indices 1 2 3 4 5 6 
#
# 1 0.017025 -0.007743 -0.004151 0.000000 0.000000 0.000000
# 2 -0.007743 0.011211 -0.002376 0.000000 0.000000 0.000000
# 3 -0.004151 -0.002376 0.016300 0.000000 0.000000 0.000000
# 4 0.000000 0.000000 0.000000 0.028673 0.000000 0.000000
# 5 0.000000 0.000000 0.000000 0.000000 0.029775 0.000000
# 6 0.000000 0.000000 0.000000 0.000000 0.000000 0.037130
#
#
# Mechanical properties :
#
#
# Convention : Reuss Voigt Hill
#
# Bulk Modulus (GPa) = 62.51213 73.25442 67.88327
# Shear Modulus (GPa) = 28.73774 30.69044 29.71409
#
# Velocity S-wave (km/s) = 3.90300 4.03342 3.96875
# Velocity P-wave (km/s) = 7.31080 7.77961 7.54885
#
# Compressibility (1/GPa) = 0.01599690
#
# Stress axis : x y z
#
# Youngs Moduli (GPa) = 58.73546 89.19746 61.34842
#
# Poissons Ratio (x) = 0.69067 0.25466
# Poissons Ratio (y) = 0.45480 0.14575
# Poissons Ratio (z) = 0.24382 0.21191
#
# Static dielectric constant tensor:
#      x y z
#    x 3.506090 0.000000 0.000000 
#    y 0.000000 4.067020 0.000000 
#    z 0.000000 0.000000 3.574070 
# 
# 
# High freq. dielectric constant tensor:
#      x y z
#    x 1.726570 0.000000 0.000000 
#    y 0.000000 1.746210 0.000000 
#    z 0.000000 0.000000 1.745430 
# 
# From -- ./inp_files/8384.got.cif
#   From: 2010.03.12/outbox.cif.g09.slc.cpg/sg57_5_cif.got.tgz:8384.got - 2010.04.16 15:48:40.
