data_PCOD8232279
_publ_section_title
;
Structure prediction by ZEFSAII (Michael W. Deem and Ramdas Pophale) SiO2 
 PCOD8232279
Probable space group: P B C M
;
_chemical_formula_sum "Si O2"
_cell_formula_units_Z 64
_cell_length_a 18.893018
_cell_length_b 23.162271
_cell_length_c 8.729631
_cell_angle_alpha 90.000000
_cell_angle_beta 90.000000
_cell_angle_gamma 90.000000
_cell_volume 3820.131945
_symmetry_space_group_name_H-M "P B C M"
_symmetry_group_IT_number 57
_symmetry_cell_setting 'orthorhombic'
loop_
_space_group_symop_operation_xyz
x,y,z
-x,-y,1/2+z
x,1/2-y,-z
-x,1/2+y,1/2-z
-x,-y,-z
x,y,1/2-z
-x,1/2+y,z
x,1/2-y,1/2+z
loop_
_atom_site_type_symbol
_atom_site_label
_atom_site_fract_x
_atom_site_fract_y
_atom_site_fract_z
Si Si1 0.397509 0.974082 0.070441
Si Si2 0.890062 0.018220 0.927548
Si Si3 0.027438 0.413809 0.071577
Si Si4 0.895036 0.687166 0.431026
Si Si5 0.478351 0.089079 0.429633
Si Si6 0.609498 0.687736 0.569583
Si Si7 0.242981 0.132522 0.570283
Si Si8 0.747183 0.498424 0.571312
O O1 0.405070 0.963832 0.250000
O O2 0.426491 0.036913 0.021573
O O3 0.442254 0.924926 0.984207
O O4 0.316568 0.968552 0.019414
O O5 0.871730 0.010635 0.750000
O O6 0.945487 0.070074 0.955247
O O7 0.819073 0.033467 0.019968
O O8 0.921718 0.958452 0.986892
O O9 0.047692 0.415016 0.250000
O O10 0.041431 0.351113 0.000884
O O11 0.903620 0.750000 0.500000
O O12 0.902489 0.689924 0.250000
O O13 0.819428 0.660984 0.474527
O O14 0.477656 0.099761 0.250000
O O15 0.453030 0.146652 0.512792
O O16 0.596809 0.750000 0.500000
O O17 0.605997 0.691870 0.750000
O O18 0.685125 0.663098 0.515994
O O19 0.228224 0.141441 0.750000
O O20 0.247937 0.065528 0.527061
O O21 0.734112 0.489555 0.750000
#
# Coordination Sequence:
#
# PCOD8232279 Si02
#       8
#     8   8   8   8   8   8   8   8
#     4  10  20  33  52  75 103 134 170 213 258 309
#     4  10  20  33  52  76 102 134 170 211 259 309
#     4  10  20  35  52  73 102 133 171 215 258 304
#     4  12  24  36  53  73 101 138 179 217 257 305
#     4  10  20  34  52  74 100 133 172 213 259 305
#     4  11  22  36  52  72 101 137 178 216 256 301
#     4  10  21  35  50  72 104 140 178 216 252 297
#     4  11  20  32  52  77 107 139 171 211 256 307
#
# _framework density 16.753349
#
# number of rings (size 3 to 8) (size 9 to 14) (size 15 to 20)
#    0.000    1.500    2.500    3.750    0.000    5.000 
#    0.000    0.000    0.000    0.000    0.000    0.875 
#    0.000    4.000    0.000    0.000    0.000    0.000 
#
# Total GULP energy -793937.878387 kJ/mol
# GULP energy per Si atom -12405.279350 kJ/mol
# Density = 1.671522 g / cm^3
# Si number density = 16.753349 Si / 1000 Ang^3
#
#
#
# Elastic Constant Matrix: (Units=GPa)
#
#
# Indices 1 2 3 4 5 6 
#
# 1 92.9941 47.0102 15.2555 0.0000 0.0000 0.0000
# 2 47.0102 83.5923 34.6265 0.0000 0.0000 0.0000
# 3 15.2555 34.6265 47.3380 0.0000 0.0000 0.0000
# 4 0.0000 0.0000 0.0000 27.1601 0.0000 0.0000
# 5 0.0000 0.0000 0.0000 0.0000 31.5507 0.0000
# 6 0.0000 0.0000 0.0000 0.0000 0.0000 24.8020
#
#
#
# Elastic Compliance Matrix: (Units=1/GPa)
#
#
# Indices 1 2 3 4 5 6 
#
# 1 0.015147 -0.009321 0.001936 0.000000 0.000000 0.000000
# 2 -0.009321 0.022899 -0.013746 0.000000 0.000000 0.000000
# 3 0.001936 -0.013746 0.030555 0.000000 0.000000 0.000000
# 4 0.000000 0.000000 0.000000 0.036819 0.000000 0.000000
# 5 0.000000 0.000000 0.000000 0.000000 0.031695 0.000000
# 6 0.000000 0.000000 0.000000 0.000000 0.000000 0.040319
#
#
# Mechanical properties :
#
#
# Convention : Reuss Voigt Hill
#
# Bulk Modulus (GPa) = 37.96383 46.41209 42.18796
# Shear Modulus (GPa) = 21.88420 25.17137 23.52778
#
# Velocity S-wave (km/s) = 3.61814 3.88037 3.75155
# Velocity P-wave (km/s) = 6.33752 6.91663 6.63340
#
# Compressibility (1/GPa) = 0.02634086
#
# Stress axis : x y z
#
# Youngs Moduli (GPa) = 66.01768 43.67098 32.72735
#
# Poissons Ratio (x) = 0.40704 -0.06337
# Poissons Ratio (y) = 0.61532 0.44987
# Poissons Ratio (z) = -0.12783 0.60030
#
# Static dielectric constant tensor:
#      x y z
#    x 3.221410 0.000000 0.000000 
#    y 0.000000 3.037280 0.000000 
#    z 0.000000 0.000000 3.229810 
# 
# 
# High freq. dielectric constant tensor:
#      x y z
#    x 1.643310 0.000000 0.000000 
#    y 0.000000 1.618710 0.000000 
#    z 0.000000 0.000000 1.663560 
# 
# From -- ./inp_files/7221.got.cif
#   From: 2010.03.12/outbox.cif.g09.slc.cpg/sg57_4_cif.got.tgz:7221.got - 2010.04.16 15:48:40.
