data_PCOD8232862
_publ_section_title
;
Structure prediction by ZEFSAII (Michael W. Deem and Ramdas Pophale) SiO2 
 PCOD8232862
Probable space group: P B C M
;
_chemical_formula_sum "Si O2"
_cell_formula_units_Z 64
_cell_length_a 15.097200
_cell_length_b 18.362660
_cell_length_c 10.920652
_cell_angle_alpha 90.000000
_cell_angle_beta 90.000000
_cell_angle_gamma 90.000000
_cell_volume 3027.475027
_symmetry_space_group_name_H-M "P B C M"
_symmetry_group_IT_number 57
_symmetry_cell_setting 'orthorhombic'
loop_
_space_group_symop_operation_xyz
x,y,z
-x,-y,1/2+z
x,1/2-y,-z
-x,1/2+y,1/2-z
-x,-y,-z
x,y,1/2-z
-x,1/2+y,z
x,1/2-y,1/2+z
loop_
_atom_site_type_symbol
_atom_site_label
_atom_site_fract_x
_atom_site_fract_y
_atom_site_fract_z
Si Si1 0.317739 0.330269 0.959215
Si Si2 0.927114 0.303134 0.112293
Si Si3 0.276423 0.698492 0.887154
Si Si4 0.049432 0.425984 0.469570
Si Si5 0.634781 0.054684 0.542292
Si Si6 0.130963 0.306565 0.885184
Si Si7 0.531651 0.577976 0.121171
Si Si8 0.754245 0.543689 0.888678
O O1 0.231995 0.332635 0.871919
O O2 0.407348 0.351351 0.891248
O O3 0.337204 0.250000 0.000000
O O4 0.298749 0.383581 0.073844
O O5 0.937049 0.267898 0.250000
O O6 0.825316 0.322649 0.087981
O O7 0.984825 0.376777 0.113795
O O8 0.960145 0.250000 0.000000
O O9 0.287373 0.734306 0.750000
O O10 0.309103 0.750000 0.000000
O O11 0.332131 0.624312 0.883324
O O12 0.071486 0.378235 0.590676
O O13 0.140537 0.445749 0.401868
O O14 0.000000 0.500000 0.500000
O O15 0.545391 0.078162 0.475508
O O16 0.601379 0.988976 0.625828
O O17 0.716917 0.026575 0.460377
O O18 0.104212 0.273544 0.750000
O O19 0.121926 0.250000 0.000000
O O20 0.481672 0.580568 0.250000
O O21 0.730916 0.527885 0.750000
#
# Coordination Sequence:
#
# PCOD8232862 Si02
#       8
#     8   8   8   8   8   8   8   8
#     4   9  20  36  56  84 116 149 191 242 293 349
#     4  10  22  41  63  86 116 155 197 241 294 355
#     4  10  22  41  64  89 117 154 198 245 299 356
#     4  11  23  37  56  87 120 151 196 250 300 348
#     4  10  21  38  58  84 117 153 196 243 291 350
#     4  10  22  39  60  84 116 159 201 242 296 361
#     4  10  20  35  58  84 113 153 195 237 291 348
#     4  10  21  37  57  82 115 157 198 240 297 358
#
# _framework density 21.139728999999999
#
# number of rings (size 3 to 8) (size 9 to 14) (size 15 to 20)
#    0.000    2.000    0.000    2.625    0.000   10.000 
#    0.000    6.250    0.000    0.000    0.000    0.000 
#    0.000    0.000    0.000    0.000    0.000    0.000 
#
# Total GULP energy -792835.911122 kJ/mol
# GULP energy per Si atom -12388.061111 kJ/mol
# Density = 2.109161 g / cm^3
# Si number density = 21.139729 Si / 1000 Ang^3
#
#
#
# Elastic Constant Matrix: (Units=GPa)
#
#
# Indices 1 2 3 4 5 6 
#
# 1 88.2698 40.3108 16.9172 0.0000 0.0000 0.0000
# 2 40.3108 106.5770 41.0977 0.0000 0.0000 0.0000
# 3 16.9172 41.0977 146.8258 0.0000 0.0000 0.0000
# 4 0.0000 0.0000 0.0000 16.0503 0.0000 0.0000
# 5 0.0000 0.0000 0.0000 0.0000 -4.0674 0.0000
# 6 0.0000 0.0000 0.0000 0.0000 0.0000 41.6612
#
#
#
# Elastic Compliance Matrix: (Units=1/GPa)
#
#
# Indices 1 2 3 4 5 6 
#
# 1 0.013697 -0.005125 -0.000144 0.000000 0.000000 0.000000
# 2 -0.005125 0.012436 -0.002890 0.000000 0.000000 0.000000
# 3 -0.000144 -0.002890 0.007636 0.000000 0.000000 0.000000
# 4 0.000000 0.000000 0.000000 0.062304 0.000000 0.000000
# 5 0.000000 0.000000 0.000000 0.000000 -0.245856 0.000000
# 6 0.000000 0.000000 0.000000 0.000000 0.000000 0.024003
#
#
# Mechanical properties :
#
#
# Convention : Reuss Voigt Hill
#
# Bulk Modulus (GPa) = 57.30359 59.81378 58.55869
# Shear Modulus (GPa) = -48.24209 26.95192 -10.64508
#
# Velocity S-wave (km/s) = -4.78227 3.57451 -2.24644
# Velocity P-wave (km/s) = 1.82417 6.73736 4.58609
#
# Compressibility (1/GPa) = 0.01745091
#
# Stress axis : x y z
#
# Youngs Moduli (GPa) = 73.00862 80.41153 130.95202
#
# Poissons Ratio (x) = 0.41213 0.01880
# Poissons Ratio (y) = 0.37419 0.37851
# Poissons Ratio (z) = 0.01048 0.23242
#
# Static dielectric constant tensor:
#      x y z
#    x 3.989120 0.000000 0.000000 
#    y 0.000000 3.675020 0.000000 
#    z 0.000000 0.000000 3.820180 
# 
# 
# High freq. dielectric constant tensor:
#      x y z
#    x 1.843200 0.000000 0.000000 
#    y 0.000000 1.815660 0.000000 
#    z 0.000000 0.000000 1.823390 
# 
# From -- ./inp_files/13917.got.cif
#   From: 2010.03.12/outbox.cif.g09.slc.cpg/sg57_7_cif.got.tgz:13917.got - 2010.04.16 15:48:40.
