data_PCOD8232921
_publ_section_title
;
Structure prediction by ZEFSAII (Michael W. Deem and Ramdas Pophale) SiO2 
 PCOD8232921
Probable space group: P B C M
;
_chemical_formula_sum "Si O2"
_cell_formula_units_Z 48
_cell_length_a 11.836946
_cell_length_b 21.455431
_cell_length_c 8.702147
_cell_angle_alpha 90.000000
_cell_angle_beta 90.000000
_cell_angle_gamma 90.000000
_cell_volume 2210.056237
_symmetry_space_group_name_H-M "P B C M"
_symmetry_group_IT_number 57
_symmetry_cell_setting 'orthorhombic'
loop_
_space_group_symop_operation_xyz
x,y,z
-x,-y,1/2+z
x,1/2-y,-z
-x,1/2+y,1/2-z
-x,-y,-z
x,y,1/2-z
-x,1/2+y,z
x,1/2-y,1/2+z
loop_
_atom_site_type_symbol
_atom_site_label
_atom_site_fract_x
_atom_site_fract_y
_atom_site_fract_z
Si Si1 0.384883 0.313454 0.569756
Si Si2 0.255123 0.590256 0.424130
Si Si3 0.109840 0.026162 0.922495
Si Si4 0.513133 0.430318 0.430988
Si Si5 0.902704 0.187939 0.926920
Si Si6 0.841399 0.839876 0.071811
O O1 0.442526 0.250000 0.500000
O O2 0.409010 0.314953 0.750000
O O3 0.426659 0.378626 0.495891
O O4 0.251310 0.306515 0.534167
O O5 0.285731 0.610044 0.250000
O O6 0.216748 0.518920 0.430032
O O7 0.363733 0.597457 0.531344
O O8 0.150123 0.629917 0.484571
O O9 0.071458 0.041076 0.750000
O O10 0.150076 0.090368 0.996751
O O11 0.000000 0.000000 0.000000
O O12 0.500000 0.500000 0.500000
O O13 0.494679 0.435826 0.250000
O O14 0.868468 0.183065 0.750000
O O15 0.036966 0.191413 0.950384
O O16 0.849229 0.250000 0.000000
O O17 0.802250 0.837880 0.250000
#
# Coordination Sequence:
#
# PCOD8232921 Si02
#       6
#     8   8   8   8   8   8
#     4  12  26  45  70 100 134 178 229 284 343 407
#     4  11  23  40  64  95 129 167 211 260 320 387
#     4  10  20  35  59  91 128 165 204 255 313 380
#     4  12  26  47  73 101 134 174 223 279 338 403
#     4  11  23  39  60  88 126 170 215 263 318 382
#     4  10  21  39  63  94 132 172 216 269 325 390
#
# _framework density 21.718903000000001
#
# number of rings (size 3 to 8) (size 9 to 14) (size 15 to 20)
#    0.000    1.000    1.667    5.500    0.000    6.000 
#    0.000    3.333    0.000    0.000    0.000    0.000 
#    0.000    0.000    0.000    0.000    0.000    0.000 
#
# Total GULP energy -595206.354689 kJ/mol
# GULP energy per Si atom -12400.132389 kJ/mol
# Density = 2.166947 g / cm^3
# Si number density = 21.718903 Si / 1000 Ang^3
#
#
#
# Elastic Constant Matrix: (Units=GPa)
#
#
# Indices 1 2 3 4 5 6 
#
# 1 73.6944 11.4208 32.0635 0.0000 0.0000 0.0000
# 2 11.4208 140.2162 56.1898 0.0000 0.0000 0.0000
# 3 32.0635 56.1898 140.7423 0.0000 0.0000 0.0000
# 4 0.0000 0.0000 0.0000 34.5731 0.0000 0.0000
# 5 0.0000 0.0000 0.0000 0.0000 38.2129 0.0000
# 6 0.0000 0.0000 0.0000 0.0000 0.0000 24.0518
#
#
#
# Elastic Compliance Matrix: (Units=1/GPa)
#
#
# Indices 1 2 3 4 5 6 
#
# 1 0.015066 0.000177 -0.003503 0.000000 0.000000 0.000000
# 2 0.000177 0.008492 -0.003431 0.000000 0.000000 0.000000
# 3 -0.003503 -0.003431 0.009273 0.000000 0.000000 0.000000
# 4 0.000000 0.000000 0.000000 0.028924 0.000000 0.000000
# 5 0.000000 0.000000 0.000000 0.000000 0.026169 0.000000
# 6 0.000000 0.000000 0.000000 0.000000 0.000000 0.041577
#
#
# Mechanical properties :
#
#
# Convention : Reuss Voigt Hill
#
# Bulk Modulus (GPa) = 51.76668 61.55567 56.66117
# Shear Modulus (GPa) = 33.45497 36.36617 34.91057
#
# Velocity S-wave (km/s) = 3.92900 4.09638 4.01357
# Velocity P-wave (km/s) = 6.66853 7.12582 6.90097
#
# Compressibility (1/GPa) = 0.01931745
#
# Stress axis : x y z
#
# Youngs Moduli (GPa) = 66.37362 117.75444 107.84192
#
# Poissons Ratio (x) = -0.02079 0.37775
# Poissons Ratio (y) = -0.01172 0.36997
# Poissons Ratio (z) = 0.23249 0.40397
#
# Static dielectric constant tensor:
#      x y z
#    x 3.787110 0.000000 0.000000 
#    y 0.000000 4.800010 0.000000 
#    z 0.000000 0.000000 3.918200 
# 
# 
# High freq. dielectric constant tensor:
#      x y z
#    x 1.846680 0.000000 0.000000 
#    y 0.000000 1.875830 0.000000 
#    z 0.000000 0.000000 1.851550 
# 
# From -- ./inp_files/3157.got.cif
#   From: 2010.03.12/outbox.cif.g09.slc.cpg/sg57_2_cif.got.tgz:3157.got - 2010.04.16 15:48:40.
