data_PCOD8232471
_publ_section_title
;
Structure prediction by ZEFSAII (Michael W. Deem and Ramdas Pophale) SiO2 
 PCOD8232471
Probable space group: P B C M
;
_chemical_formula_sum "Si O2"
_cell_formula_units_Z 64
_cell_length_a 13.886628
_cell_length_b 9.453418
_cell_length_c 27.214178
_cell_angle_alpha 90.000000
_cell_angle_beta 90.000000
_cell_angle_gamma 90.000000
_cell_volume 3572.571128
_symmetry_space_group_name_H-M "P B C M"
_symmetry_group_IT_number 57
_symmetry_cell_setting 'orthorhombic'
loop_
_space_group_symop_operation_xyz
x,y,z
-x,-y,1/2+z
x,1/2-y,-z
-x,1/2+y,1/2-z
-x,-y,-z
x,y,1/2-z
-x,1/2+y,z
x,1/2-y,1/2+z
loop_
_atom_site_type_symbol
_atom_site_label
_atom_site_fract_x
_atom_site_fract_y
_atom_site_fract_z
Si Si1 0.571570 0.832349 0.692642
Si Si2 0.227249 0.077355 0.306169
Si Si3 0.099858 0.214509 0.854503
Si Si4 0.068366 0.062834 0.435730
Si Si5 0.391258 0.010183 0.808199
Si Si6 0.788568 0.444293 0.877148
Si Si7 0.141384 0.901953 0.523082
Si Si8 0.107012 0.660719 0.857634
O O1 0.577042 0.860670 0.750000
O O2 0.666997 0.905205 0.668536
O O3 0.569179 0.666306 0.681438
O O4 0.473874 0.903089 0.673342
O O5 0.244318 0.046746 0.250000
O O6 0.170352 0.224564 0.312869
O O7 0.164152 0.950249 0.325599
O O8 0.114414 0.312001 0.903276
O O9 0.991218 0.218906 0.832852
O O10 0.126546 0.053217 0.864797
O O11 0.960880 0.112020 0.448848
O O12 0.132888 0.030902 0.484073
O O13 0.069848 0.912239 0.407729
O O14 0.363374 0.990167 0.750000
O O15 0.304013 0.981775 0.845159
O O16 0.776308 0.445295 0.936848
O O17 0.819584 0.286857 0.864348
O O18 0.168508 0.750000 0.500000
#
# Coordination Sequence:
#
# PCOD8232471 Si02
#       8
#     8   8   8   8   8   8   8   8
#     4   9  19  39  62  85 108 138 189 244 296 339
#     4  10  22  38  57  79 115 159 193 233 283 343
#     4  11  20  37  54  79 120 156 198 238 273 342
#     4  10  20  34  54  77 111 158 195 237 282 322
#     4  10  22  39  61  87 113 141 182 245 299 345
#     4  12  22  34  56  88 118 148 191 242 293 345
#     4  11  20  33  56  84 116 152 197 245 290 338
#     4  11  21  36  52  81 120 159 195 232 274 342
#
# _framework density 17.914269000000001
#
# number of rings (size 3 to 8) (size 9 to 14) (size 15 to 20)
#    0.000    1.500    5.000    0.750    3.500    1.000 
#    0.000    1.250    0.000    0.000    0.000    7.875 
#    0.000    0.000    0.000    0.000    0.000    0.000 
#
# Total GULP energy -793150.306236 kJ/mol
# GULP energy per Si atom -12392.973535 kJ/mol
# Density = 1.787350 g / cm^3
# Si number density = 17.914269 Si / 1000 Ang^3
#
#
#
# Elastic Constant Matrix: (Units=GPa)
#
#
# Indices 1 2 3 4 5 6 
#
# 1 95.7147 31.3365 44.3424 0.0000 0.0000 0.0000
# 2 31.3365 88.4469 31.1703 0.0000 0.0000 0.0000
# 3 44.3424 31.1703 66.0794 0.0000 0.0000 0.0000
# 4 0.0000 0.0000 0.0000 21.2143 0.0000 0.0000
# 5 0.0000 0.0000 0.0000 0.0000 19.3141 0.0000
# 6 0.0000 0.0000 0.0000 0.0000 0.0000 28.7973
#
#
#
# Elastic Compliance Matrix: (Units=1/GPa)
#
#
# Indices 1 2 3 4 5 6 
#
# 1 0.015507 -0.002191 -0.009372 0.000000 0.000000 0.000000
# 2 -0.002191 0.013870 -0.005072 0.000000 0.000000 0.000000
# 3 -0.009372 -0.005072 0.023815 0.000000 0.000000 0.000000
# 4 0.000000 0.000000 0.000000 0.047138 0.000000 0.000000
# 5 0.000000 0.000000 0.000000 0.000000 0.051776 0.000000
# 6 0.000000 0.000000 0.000000 0.000000 0.000000 0.034726
#
#
# Mechanical properties :
#
#
# Convention : Reuss Voigt Hill
#
# Bulk Modulus (GPa) = 50.19879 51.54880 50.87380
# Shear Modulus (GPa) = 22.05134 23.42460 22.73797
#
# Velocity S-wave (km/s) = 3.51228 3.61999 3.56654
# Velocity P-wave (km/s) = 6.67313 6.80516 6.73947
#
# Compressibility (1/GPa) = 0.01992080
#
# Stress axis : x y z
#
# Youngs Moduli (GPa) = 64.48664 72.09755 41.98986
#
# Poissons Ratio (x) = 0.15797 0.39355
# Poissons Ratio (y) = 0.14130 0.21299
# Poissons Ratio (z) = 0.60440 0.36570
#
# Static dielectric constant tensor:
#      x y z
#    x 3.520350 0.000000 0.000000 
#    y 0.000000 3.535930 0.000000 
#    z 0.000000 0.000000 3.338560 
# 
# 
# High freq. dielectric constant tensor:
#      x y z
#    x 1.671140 0.000000 0.000000 
#    y 0.000000 1.714080 0.000000 
#    z 0.000000 0.000000 1.672320 
# 
# From -- ./inp_files/29777.got.cif
#   From: 2010.03.12/outbox.cif.g09.slc.cpg/sg57_15_cif.got.tgz:29777.got - 2010.04.16 15:48:40.
