data_PCOD8232787
_publ_section_title
;
Structure prediction by ZEFSAII (Michael W. Deem and Ramdas Pophale) SiO2 
 PCOD8232787
Probable space group: P B C M
;
_chemical_formula_sum "Si O2"
_cell_formula_units_Z 32
_cell_length_a 7.799479
_cell_length_b 26.806810
_cell_length_c 8.837249
_cell_angle_alpha 90.000000
_cell_angle_beta 90.000000
_cell_angle_gamma 90.000000
_cell_volume 1847.684524
_symmetry_space_group_name_H-M "P B C M"
_symmetry_group_IT_number 57
_symmetry_cell_setting 'orthorhombic'
loop_
_space_group_symop_operation_xyz
x,y,z
-x,-y,1/2+z
x,1/2-y,-z
-x,1/2+y,1/2-z
-x,-y,-z
x,y,1/2-z
-x,1/2+y,z
x,1/2-y,1/2+z
loop_
_atom_site_type_symbol
_atom_site_label
_atom_site_fract_x
_atom_site_fract_y
_atom_site_fract_z
Si Si1 0.828853 0.142009 0.571997
Si Si2 0.970254 0.447922 0.579020
Si Si3 0.509416 0.303531 0.929416
Si Si4 0.835395 0.854652 0.920679
O O1 0.803811 0.142075 0.750000
O O2 0.825438 0.084856 0.508763
O O3 0.680486 0.173477 0.495879
O O4 0.011491 0.167576 0.525917
O O5 0.907158 0.457335 0.750000
O O6 0.000000 0.500000 0.500000
O O7 0.147181 0.415375 0.576496
O O8 0.527169 0.299486 0.750000
O O9 0.350317 0.338435 0.980063
O O10 0.475004 0.250000 0.000000
O O11 0.863823 0.834621 0.750000
#
# Coordination Sequence:
#
# PCOD8232787 Si02
#       4
#     8   8   8   8
#     4  10  20  35  56  82 112 145 181 223 269 326
#     4   9  17  34  57  82 109 144 182 224 275 323
#     4  11  22  38  57  80 109 144 183 226 272 321
#     4   8  19  37  56  77 110 145 180 226 272 321
#
# _framework density 17.318974000000001
#
# number of rings (size 3 to 8) (size 9 to 14) (size 15 to 20)
#    1.500    1.000    0.000    3.000    0.000    3.000 
#    0.000    3.750    0.000    0.000    0.000    0.000 
#    0.000    0.000    0.000    0.000    0.000    0.000 
#
# Total GULP energy -396435.145118 kJ/mol
# GULP energy per Si atom -12388.598285 kJ/mol
# Density = 1.727955 g / cm^3
# Si number density = 17.318974 Si / 1000 Ang^3
#
#
#
# Elastic Constant Matrix: (Units=GPa)
#
#
# Indices 1 2 3 4 5 6 
#
# 1 56.6223 9.1447 43.7342 0.0000 0.0000 0.0000
# 2 9.1447 72.2893 42.9437 0.0000 0.0000 0.0000
# 3 43.7342 42.9437 125.2688 0.0000 0.0000 0.0000
# 4 0.0000 0.0000 0.0000 33.0196 0.0000 0.0000
# 5 0.0000 0.0000 0.0000 0.0000 12.7604 0.0000
# 6 0.0000 0.0000 0.0000 0.0000 0.0000 27.4709
#
#
#
# Elastic Compliance Matrix: (Units=1/GPa)
#
#
# Indices 1 2 3 4 5 6 
#
# 1 0.024534 0.002492 -0.009420 0.000000 0.000000 0.000000
# 2 0.002492 0.017624 -0.006912 0.000000 0.000000 0.000000
# 3 -0.009420 -0.006912 0.013641 0.000000 0.000000 0.000000
# 4 0.000000 0.000000 0.000000 0.030285 0.000000 0.000000
# 5 0.000000 0.000000 0.000000 0.000000 0.078367 0.000000
# 6 0.000000 0.000000 0.000000 0.000000 0.000000 0.036402
#
#
# Mechanical properties :
#
#
# Convention : Reuss Voigt Hill
#
# Bulk Modulus (GPa) = 35.56144 49.53618 42.54881
# Shear Modulus (GPa) = 21.01672 25.20738 23.11205
#
# Velocity S-wave (km/s) = 3.48732 3.81921 3.65703
# Velocity P-wave (km/s) = 6.06573 6.93634 6.51559
#
# Compressibility (1/GPa) = 0.02812035
#
# Stress axis : x y z
#
# Youngs Moduli (GPa) = 40.75959 56.74067 73.30850
#
# Poissons Ratio (x) = -0.14141 0.69055
# Poissons Ratio (y) = -0.10158 0.50670
# Poissons Ratio (z) = 0.38395 0.39218
#
# Static dielectric constant tensor:
#      x y z
#    x 3.151370 0.000000 0.000000 
#    y 0.000000 3.118650 0.000000 
#    z 0.000000 0.000000 3.421660 
# 
# 
# High freq. dielectric constant tensor:
#      x y z
#    x 1.651460 0.000000 0.000000 
#    y 0.000000 1.656460 0.000000 
#    z 0.000000 0.000000 1.683180 
# 
# From -- ./inp_files/1426.got.cif
#   From: 2010.03.12/outbox.cif.g09.slc.cpg/sg57_1_cif.got.tgz:1426.got - 2010.04.16 15:48:40.
