data_PCOD8232097
_publ_section_title
;
Structure prediction by ZEFSAII (Michael W. Deem and Ramdas Pophale) SiO2 
 PCOD8232097
Probable space group: P B C M
;
_chemical_formula_sum "Si O2"
_cell_formula_units_Z 64
_cell_length_a 12.695192
_cell_length_b 13.953777
_cell_length_c 17.248087
_cell_angle_alpha 90.000000
_cell_angle_beta 90.000000
_cell_angle_gamma 90.000000
_cell_volume 3055.427518
_symmetry_space_group_name_H-M "P B C M"
_symmetry_group_IT_number 57
_symmetry_cell_setting 'orthorhombic'
loop_
_space_group_symop_operation_xyz
x,y,z
-x,-y,1/2+z
x,1/2-y,-z
-x,1/2+y,1/2-z
-x,-y,-z
x,y,1/2-z
-x,1/2+y,z
x,1/2-y,1/2+z
loop_
_atom_site_type_symbol
_atom_site_label
_atom_site_fract_x
_atom_site_fract_y
_atom_site_fract_z
Si Si1 0.434703 0.564583 0.161195
Si Si2 0.010517 0.950779 0.164037
Si Si3 0.262486 0.669108 0.437077
Si Si4 0.132582 0.114393 0.387802
Si Si5 0.627431 0.836103 0.602459
Si Si6 0.949208 0.251163 0.408062
Si Si7 0.372617 0.120675 0.574543
Si Si8 0.833948 0.525626 0.952770
O O1 0.398076 0.550424 0.250000
O O2 0.359042 0.642013 0.118969
O O3 0.552629 0.606674 0.160980
O O4 0.438381 0.461962 0.117820
O O5 0.969014 0.927555 0.250000
O O6 0.054378 0.857660 0.122955
O O7 0.918371 0.999128 0.113201
O O8 0.105903 0.027031 0.169556
O O9 0.297521 0.750000 0.500000
O O10 0.163598 0.704973 0.385274
O O11 0.224843 0.571650 0.480650
O O12 0.251417 0.147892 0.374254
O O13 0.111394 0.077406 0.475198
O O14 0.050681 0.199910 0.370660
O O15 0.601745 0.876333 0.516913
O O16 0.602001 0.723595 0.611226
O O17 0.958867 0.250000 0.500000
O O18 0.248936 0.099142 0.585377
#
# Coordination Sequence:
#
# PCOD8232097 Si02
#       8
#     8   8   8   8   8   8   8   8
#     4  11  25  44  65  94 136 174 211 269 336 391
#     4  12  25  37  56  94 135 171 206 260 326 388
#     4  10  22  39  65  94 121 170 221 268 313 381
#     4  11  21  40  67  93 127 164 214 262 316 376
#     4  10  22  41  71 100 124 164 225 273 318 377
#     4  11  21  39  67  93 126 168 219 263 313 384
#     4   9  21  41  70  98 121 169 220 273 311 382
#     4  10  19  40  66  92 126 166 214 264 311 384
#
# _framework density 20.946331000000001
#
# number of rings (size 3 to 8) (size 9 to 14) (size 15 to 20)
#    0.000    1.500    2.500    3.000    3.500    4.000 
#    2.250    1.250    0.000    0.000    0.000    0.000 
#    0.000    0.000    0.000    0.000    0.000    0.000 
#
# Total GULP energy -793540.173618 kJ/mol
# GULP energy per Si atom -12399.065213 kJ/mol
# Density = 2.089866 g / cm^3
# Si number density = 20.946331 Si / 1000 Ang^3
#
#
#
# Elastic Constant Matrix: (Units=GPa)
#
#
# Indices 1 2 3 4 5 6 
#
# 1 105.5714 50.5100 30.9381 0.0000 0.0000 0.0000
# 2 50.5100 139.7950 37.9848 0.0000 0.0000 0.0000
# 3 30.9381 37.9848 70.9469 0.0000 0.0000 0.0000
# 4 0.0000 0.0000 0.0000 15.3262 0.0000 0.0000
# 5 0.0000 0.0000 0.0000 0.0000 12.9429 0.0000
# 6 0.0000 0.0000 0.0000 0.0000 0.0000 35.8765
#
#
#
# Elastic Compliance Matrix: (Units=1/GPa)
#
#
# Indices 1 2 3 4 5 6 
#
# 1 0.012131 -0.003447 -0.003444 0.000000 0.000000 0.000000
# 2 -0.003447 0.009351 -0.003503 0.000000 0.000000 0.000000
# 3 -0.003444 -0.003503 0.017473 0.000000 0.000000 0.000000
# 4 0.000000 0.000000 0.000000 0.065248 0.000000 0.000000
# 5 0.000000 0.000000 0.000000 0.000000 0.077262 0.000000
# 6 0.000000 0.000000 0.000000 0.000000 0.000000 0.027873
#
#
# Mechanical properties :
#
#
# Convention : Reuss Voigt Hill
#
# Bulk Modulus (GPa) = 55.05124 61.68659 58.36892
# Shear Modulus (GPa) = 21.17012 25.95449 23.56231
#
# Velocity S-wave (km/s) = 3.18257 3.52390 3.35758
# Velocity P-wave (km/s) = 6.31222 6.78755 6.55420
#
# Compressibility (1/GPa) = 0.01816489
#
# Stress axis : x y z
#
# Youngs Moduli (GPa) = 82.43383 106.94368 57.23247
#
# Poissons Ratio (x) = 0.36866 0.19713
# Poissons Ratio (y) = 0.28417 0.20049
# Poissons Ratio (z) = 0.28393 0.37464
#
# Static dielectric constant tensor:
#      x y z
#    x 3.793360 0.000000 0.000000 
#    y 0.000000 3.996800 0.000000 
#    z 0.000000 0.000000 3.795830 
# 
# 
# High freq. dielectric constant tensor:
#      x y z
#    x 1.819440 0.000000 0.000000 
#    y 0.000000 1.838800 0.000000 
#    z 0.000000 0.000000 1.786060 
# 
# From -- ./inp_files/22084.got.cif
#   From: 2010.03.12/outbox.cif.g09.slc.cpg/sg57_12_cif.got.tgz:22084.got - 2010.04.16 15:48:40.
