data_PCOD8232084
_publ_section_title
;
Structure prediction by ZEFSAII (Michael W. Deem and Ramdas Pophale) SiO2 
 PCOD8232084
Probable space group: P B C M
;
_chemical_formula_sum "Si O2"
_cell_formula_units_Z 48
_cell_length_a 8.553007
_cell_length_b 19.677384
_cell_length_c 14.119076
_cell_angle_alpha 90.000000
_cell_angle_beta 90.000000
_cell_angle_gamma 90.000000
_cell_volume 2376.251830
_symmetry_space_group_name_H-M "P B C M"
_symmetry_group_IT_number 57
_symmetry_cell_setting 'orthorhombic'
loop_
_space_group_symop_operation_xyz
x,y,z
-x,-y,1/2+z
x,1/2-y,-z
-x,1/2+y,1/2-z
-x,-y,-z
x,y,1/2-z
-x,1/2+y,z
x,1/2-y,1/2+z
loop_
_atom_site_type_symbol
_atom_site_label
_atom_site_fract_x
_atom_site_fract_y
_atom_site_fract_z
Si Si1 0.477480 0.425036 0.643385
Si Si2 0.041785 0.575565 0.250000
Si Si3 0.938072 0.599781 0.951340
Si Si4 0.960263 0.131688 0.750000
Si Si5 0.264099 0.511785 0.750000
Si Si6 0.071870 0.225286 0.250000
Si Si7 0.263159 0.305077 0.570210
Si Si8 0.206324 0.539220 0.441973
O O1 0.540942 0.406518 0.750000
O O2 0.365919 0.492372 0.655612
O O3 0.389292 0.359953 0.602304
O O4 0.611590 0.442916 0.567771
O O5 0.128933 0.548945 0.340790
O O6 0.871548 0.543574 0.250000
O O7 0.028032 0.656684 0.250000
O O8 0.935636 0.611407 0.839535
O O9 0.819732 0.538201 0.975016
O O10 0.879403 0.663343 0.010656
O O11 0.118323 0.586167 0.981363
O O12 0.942713 0.213626 0.750000
O O13 0.794722 0.089998 0.750000
O O14 0.185653 0.231487 0.339995
O O15 0.344512 0.250000 0.500000
#
# Coordination Sequence:
#
# PCOD8232084 Si02
#       8
#     8   4   8   4   4   4   8   8
#     4  10  22  40  68  94 136 175 212 268 349 408
#     4  12  17  38  69  94 123 164 233 263 321 399
#     4  11  24  38  68  98 128 165 230 286 322 382
#     4  12  24  40  60 100 134 168 221 294 326 375
#     4  10  19  38  69  92 129 173 215 279 334 393
#     4  12  22  40  66  94 132 173 227 272 329 395
#     4  12  23  42  65  99 132 183 222 268 336 410
#     4  11  22  38  68 102 124 169 223 281 328 397
#
# _framework density 20.199878999999999
#
# number of rings (size 3 to 8) (size 9 to 14) (size 15 to 20)
#    0.500    0.333    8.333    0.000    2.333    0.667 
#    0.000    2.500    0.000    1.000    0.000    0.000 
#    0.000    0.000    0.000    0.000    0.000    0.000 
#
# Total GULP energy -594966.684811 kJ/mol
# GULP energy per Si atom -12395.139267 kJ/mol
# Density = 2.015390 g / cm^3
# Si number density = 20.199879 Si / 1000 Ang^3
#
#
#
# Elastic Constant Matrix: (Units=GPa)
#
#
# Indices 1 2 3 4 5 6 
#
# 1 100.7797 55.8448 25.0695 0.0000 0.0000 0.0000
# 2 55.8448 108.7990 32.3621 0.0000 0.0000 0.0000
# 3 25.0695 32.3621 108.7276 0.0000 0.0000 0.0000
# 4 0.0000 0.0000 0.0000 27.3438 0.0000 0.0000
# 5 0.0000 0.0000 0.0000 0.0000 29.3111 0.0000
# 6 0.0000 0.0000 0.0000 0.0000 0.0000 16.5788
#
#
#
# Elastic Compliance Matrix: (Units=1/GPa)
#
#
# Indices 1 2 3 4 5 6 
#
# 1 0.014007 -0.006834 -0.001196 0.000000 0.000000 0.000000
# 2 -0.006834 0.013418 -0.002418 0.000000 0.000000 0.000000
# 3 -0.001196 -0.002418 0.010193 0.000000 0.000000 0.000000
# 4 0.000000 0.000000 0.000000 0.036571 0.000000 0.000000
# 5 0.000000 0.000000 0.000000 0.000000 0.034117 0.000000
# 6 0.000000 0.000000 0.000000 0.000000 0.000000 0.060318
#
#
# Mechanical properties :
#
#
# Convention : Reuss Voigt Hill
#
# Bulk Modulus (GPa) = 59.79902 60.53990 60.16946
# Shear Modulus (GPa) = 25.62876 28.31540 26.97208
#
# Velocity S-wave (km/s) = 3.56583 3.74807 3.65808
# Velocity P-wave (km/s) = 6.82799 6.98328 6.90607
#
# Compressibility (1/GPa) = 0.01672268
#
# Stress axis : x y z
#
# Youngs Moduli (GPa) = 71.39348 74.52519 98.10943
#
# Poissons Ratio (x) = 0.50930 0.11729
# Poissons Ratio (y) = 0.48790 0.23724
# Poissons Ratio (z) = 0.08535 0.18021
#
# Static dielectric constant tensor:
#      x y z
#    x 3.529140 0.000000 0.000000 
#    y 0.000000 3.707140 0.000000 
#    z 0.000000 0.000000 3.878310 
# 
# 
# High freq. dielectric constant tensor:
#      x y z
#    x 1.760360 0.000000 0.000000 
#    y 0.000000 1.780750 0.000000 
#    z 0.000000 0.000000 1.812890 
# 
# From -- ./inp_files/16609.got.cif
#   From: 2010.03.12/outbox.cif.g09.slc.cpg/sg57_9_cif.got.tgz:16609.got - 2010.04.16 15:48:40.
