data_PCOD8232883
_publ_section_title
;
Structure prediction by ZEFSAII (Michael W. Deem and Ramdas Pophale) SiO2 
 PCOD8232883
Probable space group: P B C M
;
_chemical_formula_sum "Si O2"
_cell_formula_units_Z 32
_cell_length_a 10.301988
_cell_length_b 19.112280
_cell_length_c 8.616956
_cell_angle_alpha 90.000000
_cell_angle_beta 90.000000
_cell_angle_gamma 90.000000
_cell_volume 1696.631064
_symmetry_space_group_name_H-M "P B C M"
_symmetry_group_IT_number 57
_symmetry_cell_setting 'orthorhombic'
loop_
_space_group_symop_operation_xyz
x,y,z
-x,-y,1/2+z
x,1/2-y,-z
-x,1/2+y,1/2-z
-x,-y,-z
x,y,1/2-z
-x,1/2+y,z
x,1/2-y,1/2+z
loop_
_atom_site_type_symbol
_atom_site_label
_atom_site_fract_x
_atom_site_fract_y
_atom_site_fract_z
Si Si1 0.263225 0.677912 0.069626
Si Si2 0.369156 0.530185 0.430825
Si Si3 0.016999 0.176193 0.566530
Si Si4 0.120052 0.041821 0.432822
O O1 0.232949 0.689787 0.250000
O O2 0.363730 0.614295 0.043434
O O3 0.322120 0.750000 0.000000
O O4 0.128807 0.658145 0.986732
O O5 0.500000 0.500000 0.500000
O O6 0.358575 0.511795 0.250000
O O7 0.253153 0.494223 0.521564
O O8 0.063429 0.250000 0.500000
O O9 0.022017 0.176779 0.750000
O O10 0.117906 0.119795 0.501196
O O11 0.106405 0.044526 0.250000
O O12 0.000000 0.000000 0.500000
#
# Coordination Sequence:
#
# PCOD8232883 Si02
#       4
#     8   8   8   8
#     4  10  20  35  58  86 118 153 197 245 296 357
#     4  11  24  41  61  88 122 160 203 250 303 360
#     4  11  21  35  58  88 122 157 197 248 303 356
#     4  12  23  38  61  89 120 156 200 248 302 357
#
# _framework density 18.860907000000001
#
# number of rings (size 3 to 8) (size 9 to 14) (size 15 to 20)
#    0.000    1.000    2.500    7.500    0.000    3.000 
#    0.000    1.250    0.000    3.000    0.000    0.000 
#    0.000    0.000    0.000    0.000    0.000    0.000 
#
# Total GULP energy -396912.840283 kJ/mol
# GULP energy per Si atom -12403.526259 kJ/mol
# Density = 1.881798 g / cm^3
# Si number density = 18.860907 Si / 1000 Ang^3
#
#
#
# Elastic Constant Matrix: (Units=GPa)
#
#
# Indices 1 2 3 4 5 6 
#
# 1 91.8448 57.5992 44.0594 0.0000 0.0000 0.0000
# 2 57.5992 148.3098 73.0499 0.0000 0.0000 0.0000
# 3 44.0594 73.0499 188.0459 0.0000 0.0000 0.0000
# 4 0.0000 0.0000 0.0000 38.1075 0.0000 0.0000
# 5 0.0000 0.0000 0.0000 0.0000 31.1723 0.0000
# 6 0.0000 0.0000 0.0000 0.0000 0.0000 31.2208
#
#
#
# Elastic Compliance Matrix: (Units=1/GPa)
#
#
# Indices 1 2 3 4 5 6 
#
# 1 0.014737 -0.004975 -0.001520 0.000000 0.000000 0.000000
# 2 -0.004975 0.010017 -0.002726 0.000000 0.000000 0.000000
# 3 -0.001520 -0.002726 0.006733 0.000000 0.000000 0.000000
# 4 0.000000 0.000000 0.000000 0.026242 0.000000 0.000000
# 5 0.000000 0.000000 0.000000 0.000000 0.032080 0.000000
# 6 0.000000 0.000000 0.000000 0.000000 0.000000 0.032030
#
#
# Mechanical properties :
#
#
# Convention : Reuss Voigt Hill
#
# Bulk Modulus (GPa) = 76.65421 86.40192 81.52807
# Shear Modulus (GPa) = 34.57131 36.99960 35.78545
#
# Velocity S-wave (km/s) = 4.28595 4.43392 4.36057
# Velocity P-wave (km/s) = 8.07605 8.49249 8.28689
#
# Compressibility (1/GPa) = 0.01304560
#
# Stress axis : x y z
#
# Youngs Moduli (GPa) = 67.85633 99.82820 148.52233
#
# Poissons Ratio (x) = 0.49660 0.22582
# Poissons Ratio (y) = 0.33755 0.40485
# Poissons Ratio (z) = 0.10317 0.27211
#
# Static dielectric constant tensor:
#      x y z
#    x 3.772250 0.000000 0.000000 
#    y 0.000000 3.854440 0.000000 
#    z 0.000000 0.000000 3.618020 
# 
# 
# High freq. dielectric constant tensor:
#      x y z
#    x 1.697570 0.000000 0.000000 
#    y 0.000000 1.754360 0.000000 
#    z 0.000000 0.000000 1.758930 
# 
# From -- ./inp_files/1234.got.cif
#   From: 2010.03.12/outbox.cif.g09.slc.cpg/sg57_1_cif.got.tgz:1234.got - 2010.04.16 15:48:40.
