data_PCOD8232722
_publ_section_title
;
Structure prediction by ZEFSAII (Michael W. Deem and Ramdas Pophale) SiO2 
 PCOD8232722
Probable space group: P B C M
;
_chemical_formula_sum "Si O2"
_cell_formula_units_Z 40
_cell_length_a 25.633531
_cell_length_b 9.140714
_cell_length_c 8.736713
_cell_angle_alpha 90.000000
_cell_angle_beta 90.000000
_cell_angle_gamma 90.000000
_cell_volume 2047.088527
_symmetry_space_group_name_H-M "P B C M"
_symmetry_group_IT_number 57
_symmetry_cell_setting 'orthorhombic'
loop_
_space_group_symop_operation_xyz
x,y,z
-x,-y,1/2+z
x,1/2-y,-z
-x,1/2+y,1/2-z
-x,-y,-z
x,y,1/2-z
-x,1/2+y,z
x,1/2-y,1/2+z
loop_
_atom_site_type_symbol
_atom_site_label
_atom_site_fract_x
_atom_site_fract_y
_atom_site_fract_z
Si Si1 0.545075 0.906331 0.928468
Si Si2 0.661176 0.907988 0.570705
Si Si3 0.141976 0.089278 0.430230
Si Si4 0.952007 0.088561 0.432515
Si Si5 0.243789 0.594208 0.572066
O O1 0.535475 0.895540 0.750000
O O2 0.602985 0.968236 0.966278
O O3 0.539558 0.750000 0.000000
O O4 0.500000 0.000000 0.000000
O O5 0.671300 0.750000 0.500000
O O6 0.669672 0.887866 0.750000
O O7 0.702701 0.024794 0.504570
O O8 0.140438 0.250000 0.500000
O O9 0.129123 0.095077 0.250000
O O10 0.100769 0.989298 0.517144
O O11 0.198107 0.019922 0.463865
O O12 0.953141 0.250000 0.500000
O O13 0.955746 0.095049 0.250000
O O14 0.000000 0.000000 0.500000
O O15 0.231206 0.750000 0.500000
O O16 0.249767 0.622875 0.750000
#
# Coordination Sequence:
#
# PCOD8232722 Si02
#       5
#     8   8   8   8   8
#     4  10  20  35  55  79 110 145 186 232 283 338
#     4   9  19  36  56  80 108 143 185 230 278 335
#     4  11  23  40  62  89 119 154 194 237 286 341
#     4  12  25  43  65  91 123 158 197 241 288 339
#     4  10  22  38  57  83 115 148 187 232 282 337
#
# _framework density 19.539944999999999
#
# number of rings (size 3 to 8) (size 9 to 14) (size 15 to 20)
#    0.000    1.600    0.000    4.800    0.000    5.600 
#    0.000    2.000    0.000    0.000    0.000    0.000 
#    0.000    0.000    0.000    0.000    0.000    0.000 
#
# Total GULP energy -496030.808408 kJ/mol
# GULP energy per Si atom -12400.770210 kJ/mol
# Density = 1.949547 g / cm^3
# Si number density = 19.539945 Si / 1000 Ang^3
#
#
#
# Elastic Constant Matrix: (Units=GPa)
#
#
# Indices 1 2 3 4 5 6 
#
# 1 141.9483 72.5047 71.5034 0.0000 0.0000 0.0000
# 2 72.5047 139.2918 70.1435 0.0000 0.0000 0.0000
# 3 71.5034 70.1435 111.8661 0.0000 0.0000 0.0000
# 4 0.0000 0.0000 0.0000 39.2780 0.0000 0.0000
# 5 0.0000 0.0000 0.0000 0.0000 30.7578 0.0000
# 6 0.0000 0.0000 0.0000 0.0000 0.0000 57.4672
#
#
#
# Elastic Compliance Matrix: (Units=1/GPa)
#
#
# Indices 1 2 3 4 5 6 
#
# 1 0.011336 -0.003291 -0.005182 0.000000 0.000000 0.000000
# 2 -0.003291 0.011448 -0.005074 0.000000 0.000000 0.000000
# 3 -0.005182 -0.005074 0.015434 0.000000 0.000000 0.000000
# 4 0.000000 0.000000 0.000000 0.025460 0.000000 0.000000
# 5 0.000000 0.000000 0.000000 0.000000 0.032512 0.000000
# 6 0.000000 0.000000 0.000000 0.000000 0.000000 0.017401
#
#
# Mechanical properties :
#
#
# Convention : Reuss Voigt Hill
#
# Bulk Modulus (GPa) = 89.91401 91.26770 90.59086
# Shear Modulus (GPa) = 34.62760 37.43092 36.02926
#
# Velocity S-wave (km/s) = 4.21425 4.38152 4.29870
# Velocity P-wave (km/s) = 8.35436 8.50921 8.43214
#
# Compressibility (1/GPa) = 0.01112174
#
# Stress axis : x y z
#
# Youngs Moduli (GPa) = 88.21128 87.35466 64.79377
#
# Poissons Ratio (x) = 0.28750 0.33579
# Poissons Ratio (y) = 0.29032 0.32879
# Poissons Ratio (z) = 0.45715 0.44327
#
# Static dielectric constant tensor:
#      x y z
#    x 3.959000 0.000000 0.000000 
#    y 0.000000 3.629270 0.000000 
#    z 0.000000 0.000000 3.696390 
# 
# 
# High freq. dielectric constant tensor:
#      x y z
#    x 1.783070 0.000000 0.000000 
#    y 0.000000 1.766520 0.000000 
#    z 0.000000 0.000000 1.768530 
# 
# From -- ./inp_files/8860.got.cif
#   From: 2010.03.12/outbox.cif.g09.slc.cpg/sg57_5_cif.got.tgz:8860.got - 2010.04.16 15:48:40.
