data_PCOD8232791
_publ_section_title
;
Structure prediction by ZEFSAII (Michael W. Deem and Ramdas Pophale) SiO2 
 PCOD8232791
Probable space group: P B C M
;
_chemical_formula_sum "Si O2"
_cell_formula_units_Z 48
_cell_length_a 14.660538
_cell_length_b 18.725456
_cell_length_c 9.020170
_cell_angle_alpha 90.000000
_cell_angle_beta 90.000000
_cell_angle_gamma 90.000000
_cell_volume 2476.264508
_symmetry_space_group_name_H-M "P B C M"
_symmetry_group_IT_number 57
_symmetry_cell_setting 'orthorhombic'
loop_
_space_group_symop_operation_xyz
x,y,z
-x,-y,1/2+z
x,1/2-y,-z
-x,1/2+y,1/2-z
-x,-y,-z
x,y,1/2-z
-x,1/2+y,z
x,1/2-y,1/2+z
loop_
_atom_site_type_symbol
_atom_site_label
_atom_site_fract_x
_atom_site_fract_y
_atom_site_fract_z
Si Si1 0.130739 0.073925 0.578586
Si Si2 0.030389 0.674396 0.578540
Si Si3 0.371389 0.953981 0.578510
Si Si4 0.292864 0.319056 0.420144
Si Si5 0.188212 0.933335 0.077613
Si Si6 0.434235 0.096497 0.079242
O O1 0.112959 0.054134 0.750000
O O2 0.226229 0.114256 0.558568
O O3 0.049617 0.123415 0.515701
O O4 0.134255 0.001856 0.484026
O O5 0.029644 0.750000 0.500000
O O6 0.010700 0.688758 0.750000
O O7 0.127124 0.636572 0.552119
O O8 0.353185 0.973449 0.750000
O O9 0.281833 0.918119 0.509529
O O10 0.456191 0.899519 0.562049
O O11 0.394051 0.025444 0.491928
O O12 0.249810 0.250000 0.500000
O O13 0.309132 0.300339 0.250000
O O14 0.390293 0.336311 0.495426
O O15 0.208895 0.946024 0.250000
O O16 0.404790 0.097689 0.250000
#
# Coordination Sequence:
#
# PCOD8232791 Si02
#       6
#     8   8   8   8   8   8
#     4  10  21  38  59  85 116 150 193 240 289 347
#     4  10  23  41  59  84 116 153 195 238 290 347
#     4  10  20  35  57  84 113 147 187 234 287 338
#     4  11  22  35  55  83 118 156 194 237 291 349
#     4  11  22  36  59  89 117 150 195 242 286 342
#     4  10  20  35  56  82 113 148 189 235 285 341
#
# _framework density 19.384036999999999
#
# number of rings (size 3 to 8) (size 9 to 14) (size 15 to 20)
#    0.000    1.667    1.667    3.000    0.000    4.667 
#    0.000    0.833    0.000    2.000    0.000    0.000 
#    0.000    0.000    0.000    0.000    0.000    0.000 
#
# Total GULP energy -595359.901907 kJ/mol
# GULP energy per Si atom -12403.331290 kJ/mol
# Density = 1.933992 g / cm^3
# Si number density = 19.384037 Si / 1000 Ang^3
#
#
#
# Elastic Constant Matrix: (Units=GPa)
#
#
# Indices 1 2 3 4 5 6 
#
# 1 106.0036 21.7436 42.6455 0.0000 0.0000 0.0000
# 2 21.7436 56.6179 31.2108 0.0000 0.0000 0.0000
# 3 42.6455 31.2108 111.3478 0.0000 0.0000 0.0000
# 4 0.0000 0.0000 0.0000 34.8868 0.0000 0.0000
# 5 0.0000 0.0000 0.0000 0.0000 31.6659 0.0000
# 6 0.0000 0.0000 0.0000 0.0000 0.0000 20.1850
#
#
#
# Elastic Compliance Matrix: (Units=1/GPa)
#
#
# Indices 1 2 3 4 5 6 
#
# 1 0.011407 -0.002333 -0.003715 0.000000 0.000000 0.000000
# 2 -0.002333 0.021367 -0.005096 0.000000 0.000000 0.000000
# 3 -0.003715 -0.005096 0.011832 0.000000 0.000000 0.000000
# 4 0.000000 0.000000 0.000000 0.028664 0.000000 0.000000
# 5 0.000000 0.000000 0.000000 0.000000 0.031580 0.000000
# 6 0.000000 0.000000 0.000000 0.000000 0.000000 0.049542
#
#
# Mechanical properties :
#
#
# Convention : Reuss Voigt Hill
#
# Bulk Modulus (GPa) = 44.80481 51.68546 48.24514
# Shear Modulus (GPa) = 27.15652 29.23884 28.19768
#
# Velocity S-wave (km/s) = 3.74702 3.88802 3.81817
# Velocity P-wave (km/s) = 6.47184 6.84671 6.66191
#
# Compressibility (1/GPa) = 0.02231903
#
# Stress axis : x y z
#
# Youngs Moduli (GPa) = 87.66843 46.80066 84.51689
#
# Poissons Ratio (x) = 0.10918 0.31396
# Poissons Ratio (y) = 0.20451 0.43068
# Poissons Ratio (z) = 0.32567 0.23849
#
# Static dielectric constant tensor:
#      x y z
#    x 3.757900 0.000000 0.000000 
#    y 0.000000 3.305340 0.000000 
#    z 0.000000 0.000000 3.683040 
# 
# 
# High freq. dielectric constant tensor:
#      x y z
#    x 1.764760 0.000000 0.000000 
#    y 0.000000 1.735950 0.000000 
#    z 0.000000 0.000000 1.764000 
# 
# From -- ./inp_files/4721.got.cif
#   From: 2010.03.12/outbox.cif.g09.slc.cpg/sg57_3_cif.got.tgz:4721.got - 2010.04.16 15:48:40.
