data_PCOD8232504
_publ_section_title
;
Structure prediction by ZEFSAII (Michael W. Deem and Ramdas Pophale) SiO2 
 PCOD8232504
Probable space group: P B C M
;
_chemical_formula_sum "Si O2"
_cell_formula_units_Z 64
_cell_length_a 11.862555
_cell_length_b 31.495920
_cell_length_c 8.733380
_cell_angle_alpha 90.000000
_cell_angle_beta 90.000000
_cell_angle_gamma 90.000000
_cell_volume 3262.983630
_symmetry_space_group_name_H-M "P B C M"
_symmetry_group_IT_number 57
_symmetry_cell_setting 'orthorhombic'
loop_
_space_group_symop_operation_xyz
x,y,z
-x,-y,1/2+z
x,1/2-y,-z
-x,1/2+y,1/2-z
-x,-y,-z
x,y,1/2-z
-x,1/2+y,z
x,1/2-y,1/2+z
loop_
_atom_site_type_symbol
_atom_site_label
_atom_site_fract_x
_atom_site_fract_y
_atom_site_fract_z
Si Si1 0.599662 0.872473 0.570963
Si Si2 0.390684 0.518486 0.423538
Si Si3 0.755254 0.939834 0.424806
Si Si4 0.119437 0.875160 0.430585
Si Si5 0.347773 0.611058 0.429219
Si Si6 0.012452 0.047188 0.068837
Si Si7 0.995337 0.705558 0.431090
Si Si8 0.735796 0.792740 0.928956
O O1 0.622903 0.879634 0.750000
O O2 0.649656 0.912621 0.482435
O O3 0.467176 0.866260 0.538402
O O4 0.663002 0.831401 0.505369
O O5 0.500000 0.500000 0.500000
O O6 0.426704 0.526572 0.250000
O O7 0.281959 0.488650 0.438028
O O8 0.356467 0.563337 0.495213
O O9 0.784680 0.927859 0.250000
O O10 0.865485 0.933165 0.528126
O O11 0.102861 0.877926 0.250000
O O12 0.249658 0.866550 0.474130
O O13 0.053517 0.834817 0.494297
O O14 0.079526 0.919753 0.504666
O O15 0.316134 0.612628 0.250000
O O16 0.997551 0.044067 0.250000
O O17 0.000000 0.000000 0.000000
O O18 0.042290 0.750000 0.500000
O O19 0.015548 0.705485 0.250000
O O20 0.864914 0.700639 0.476356
O O21 0.720851 0.789381 0.750000
O O22 0.685926 0.750000 0.000000
#
# Coordination Sequence:
#
# PCOD8232504 Si02
#       8
#     8   8   8   8   8   8   8   8
#     4  10  20  36  58  84 114 153 196 235 286 346
#     4  10  20  34  54  80 112 152 195 239 285 337
#     4  11  22  35  56  87 118 150 193 242 292 346
#     4  12  25  41  62  89 121 161 206 254 311 372
#     4  10  21  38  58  81 116 162 204 246 294 350
#     4  12  25  42  62  86 119 159 202 250 305 365
#     4  10  20  38  64  93 124 157 198 250 306 368
#     4   9  19  35  58  87 115 145 182 228 288 350
#
# _framework density 19.613949999999999
#
# number of rings (size 3 to 8) (size 9 to 14) (size 15 to 20)
#    0.000    1.500    1.250    4.500    0.000    4.500 
#    0.000    0.625    0.000    1.500    0.000    0.000 
#    0.000    0.000    0.000    0.000    0.000    0.000 
#
# Total GULP energy -793736.575779 kJ/mol
# GULP energy per Si atom -12402.133997 kJ/mol
# Density = 1.956931 g / cm^3
# Si number density = 19.613950 Si / 1000 Ang^3
#
#
#
# Elastic Constant Matrix: (Units=GPa)
#
#
# Indices 1 2 3 4 5 6 
#
# 1 95.7710 43.0706 43.5050 0.0000 0.0000 0.0000
# 2 43.0706 131.1018 48.7313 0.0000 0.0000 0.0000
# 3 43.5050 48.7313 99.8715 0.0000 0.0000 0.0000
# 4 0.0000 0.0000 0.0000 32.9730 0.0000 0.0000
# 5 0.0000 0.0000 0.0000 0.0000 30.7814 0.0000
# 6 0.0000 0.0000 0.0000 0.0000 0.0000 31.4220
#
#
#
# Elastic Compliance Matrix: (Units=1/GPa)
#
#
# Indices 1 2 3 4 5 6 
#
# 1 0.013817 -0.002812 -0.004647 0.000000 0.000000 0.000000
# 2 -0.002812 0.009890 -0.003601 0.000000 0.000000 0.000000
# 3 -0.004647 -0.003601 0.013794 0.000000 0.000000 0.000000
# 4 0.000000 0.000000 0.000000 0.030328 0.000000 0.000000
# 5 0.000000 0.000000 0.000000 0.000000 0.032487 0.000000
# 6 0.000000 0.000000 0.000000 0.000000 0.000000 0.031825
#
#
# Mechanical properties :
#
#
# Convention : Reuss Voigt Hill
#
# Bulk Modulus (GPa) = 65.01148 66.37313 65.69230
# Shear Modulus (GPa) = 31.37018 31.79778 31.58398
#
# Velocity S-wave (km/s) = 4.00356 4.03076 4.01718
# Velocity P-wave (km/s) = 7.38843 7.45492 7.42175
#
# Compressibility (1/GPa) = 0.01538190
#
# Stress axis : x y z
#
# Youngs Moduli (GPa) = 72.37438 101.11312 72.49554
#
# Poissons Ratio (x) = 0.28434 0.33687
# Poissons Ratio (y) = 0.20352 0.26104
# Poissons Ratio (z) = 0.33630 0.36408
#
# Static dielectric constant tensor:
#      x y z
#    x 3.656820 0.000000 0.000000 
#    y 0.000000 3.835090 0.000000 
#    z 0.000000 0.000000 3.443450 
# 
# 
# High freq. dielectric constant tensor:
#      x y z
#    x 1.766770 0.000000 0.000000 
#    y 0.000000 1.764510 0.000000 
#    z 0.000000 0.000000 1.762970 
# 
# From -- ./inp_files/3817.got.cif
#   From: 2010.03.12/outbox.cif.g09.slc.cpg/sg57_2_cif.got.tgz:3817.got - 2010.04.16 15:48:40.
