data_PCOD8232243
_publ_section_title
;
Structure prediction by ZEFSAII (Michael W. Deem and Ramdas Pophale) SiO2 
 PCOD8232243
Probable space group: P B C M
;
_chemical_formula_sum "Si O2"
_cell_formula_units_Z 48
_cell_length_a 9.399670
_cell_length_b 31.171575
_cell_length_c 9.019172
_cell_angle_alpha 90.000000
_cell_angle_beta 90.000000
_cell_angle_gamma 90.000000
_cell_volume 2642.640110
_symmetry_space_group_name_H-M "P B C M"
_symmetry_group_IT_number 57
_symmetry_cell_setting 'orthorhombic'
loop_
_space_group_symop_operation_xyz
x,y,z
-x,-y,1/2+z
x,1/2-y,-z
-x,1/2+y,1/2-z
-x,-y,-z
x,y,1/2-z
-x,1/2+y,z
x,1/2-y,1/2+z
loop_
_atom_site_type_symbol
_atom_site_label
_atom_site_fract_x
_atom_site_fract_y
_atom_site_fract_z
Si Si1 0.169829 0.793016 0.922727
Si Si2 0.340797 0.451273 0.580887
Si Si3 0.676872 0.631714 0.919977
Si Si4 0.629265 0.456946 0.419387
Si Si5 0.660357 0.135900 0.583961
Si Si6 0.156274 0.293565 0.575577
O O1 0.186112 0.785668 0.750000
O O2 0.007299 0.802095 0.968740
O O3 0.227542 0.750000 0.000000
O O4 0.264659 0.833304 0.967994
O O5 0.324509 0.435808 0.750000
O O6 0.269810 0.415116 0.476798
O O7 0.506446 0.456672 0.541970
O O8 0.275251 0.499650 0.558828
O O9 0.722774 0.637045 0.750000
O O10 0.508516 0.635854 0.942764
O O11 0.750808 0.667550 0.017560
O O12 0.565809 0.456653 0.250000
O O13 0.718986 0.412870 0.440154
O O14 0.695679 0.151922 0.750000
O O15 0.211533 0.250000 0.500000
O O16 0.176930 0.288928 0.750000
#
# Coordination Sequence:
#
# PCOD8232243 Si02
#       6
#     8   8   8   8   8   8
#     4  10  21  36  54  74  96 126 164 202 243 294
#     4   9  15  25  44  69  98 131 164 200 241 286
#     4  10  20  33  50  75 104 132 164 203 246 290
#     4   8  15  27  43  67  99 132 164 198 240 290
#     4   9  18  32  50  74 103 131 161 199 242 287
#     4  10  21  37  55  74  96 126 164 203 245 295
#
# _framework density 18.163653
#
# number of rings (size 3 to 8) (size 9 to 14) (size 15 to 20)
#    0.000    2.667    0.000    3.000    0.000    6.667 
#    0.000    0.000    0.000    1.000    0.000    0.000 
#    0.000    0.000    0.000    0.000    0.000    0.000 
#
# Total GULP energy -594895.967530 kJ/mol
# GULP energy per Si atom -12393.665990 kJ/mol
# Density = 1.812231 g / cm^3
# Si number density = 18.163653 Si / 1000 Ang^3
#
#
#
# Elastic Constant Matrix: (Units=GPa)
#
#
# Indices 1 2 3 4 5 6 
#
# 1 28.6332 38.3497 21.7561 0.0000 0.0000 0.0000
# 2 38.3497 161.6458 51.1327 0.0000 0.0000 0.0000
# 3 21.7561 51.1327 77.2818 0.0000 0.0000 0.0000
# 4 0.0000 0.0000 0.0000 36.9783 0.0000 0.0000
# 5 0.0000 0.0000 0.0000 0.0000 21.7558 0.0000
# 6 0.0000 0.0000 0.0000 0.0000 0.0000 -14.9071
#
#
#
# Elastic Compliance Matrix: (Units=1/GPa)
#
#
# Indices 1 2 3 4 5 6 
#
# 1 0.055497 -0.010401 -0.008742 0.000000 0.000000 0.000000
# 2 -0.010401 0.009773 -0.003538 0.000000 0.000000 0.000000
# 3 -0.008742 -0.003538 0.017742 0.000000 0.000000 0.000000
# 4 0.000000 0.000000 0.000000 0.027043 0.000000 0.000000
# 5 0.000000 0.000000 0.000000 0.000000 0.045965 0.000000
# 6 0.000000 0.000000 0.000000 0.000000 0.000000 -0.067082
#
#
# Mechanical properties :
#
#
# Convention : Reuss Voigt Hill
#
# Bulk Modulus (GPa) = 26.56038 54.44863 40.50451
# Shear Modulus (GPa) = 34.04831 19.18686 26.61759
#
# Velocity S-wave (km/s) = 4.33428 3.25365 3.83225
# Velocity P-wave (km/s) = 6.30100 6.64506 6.47531
#
# Compressibility (1/GPa) = 0.03765006
#
# Stress axis : x y z
#
# Youngs Moduli (GPa) = 18.01887 102.32005 56.36473
#
# Poissons Ratio (x) = 1.06426 0.49271
# Poissons Ratio (y) = 0.18742 0.19943
# Poissons Ratio (z) = 0.15751 0.36203
#
# Static dielectric constant tensor:
#      x y z
#    x 2.859020 0.000000 0.000000 
#    y 0.000000 3.792900 0.000000 
#    z 0.000000 0.000000 3.438030 
# 
# 
# High freq. dielectric constant tensor:
#      x y z
#    x 1.639480 0.000000 0.000000 
#    y 0.000000 1.730260 0.000000 
#    z 0.000000 0.000000 1.716840 
# 
# From -- ./inp_files/2003.got.cif
#   From: 2010.03.12/outbox.cif.g09.slc.cpg/sg57_2_cif.got.tgz:2003.got - 2010.04.16 15:48:40.
