data_PCOD8232030
_publ_section_title
;
Structure prediction by ZEFSAII (Michael W. Deem and Ramdas Pophale) SiO2 
 PCOD8232030
Probable space group: P B C M
;
_chemical_formula_sum "Si O2"
_cell_formula_units_Z 56
_cell_length_a 9.227360
_cell_length_b 18.684419
_cell_length_c 18.286494
_cell_angle_alpha 90.000000
_cell_angle_beta 90.000000
_cell_angle_gamma 90.000000
_cell_volume 3152.735307
_symmetry_space_group_name_H-M "P B C M"
_symmetry_group_IT_number 57
_symmetry_cell_setting 'orthorhombic'
loop_
_space_group_symop_operation_xyz
x,y,z
-x,-y,1/2+z
x,1/2-y,-z
-x,1/2+y,1/2-z
-x,-y,-z
x,y,1/2-z
-x,1/2+y,z
x,1/2-y,1/2+z
loop_
_atom_site_type_symbol
_atom_site_label
_atom_site_fract_x
_atom_site_fract_y
_atom_site_fract_z
Si Si1 0.391425 0.544605 0.950765
Si Si2 0.358550 0.357385 0.411783
Si Si3 0.247267 0.493076 0.167300
Si Si4 0.316145 0.290665 0.664603
Si Si5 0.869153 0.676695 0.465385
Si Si6 0.558323 0.559192 0.168676
Si Si7 0.900729 0.057682 0.036721
O O1 0.477598 0.615565 0.925662
O O2 0.345954 0.491768 0.884086
O O3 0.500000 0.500000 0.000000
O O4 0.249324 0.567802 0.993715
O O5 0.273568 0.412155 0.359482
O O6 0.378841 0.281643 0.371280
O O7 0.267923 0.353215 0.487647
O O8 0.190613 0.490149 0.250000
O O9 0.391297 0.539782 0.159035
O O10 0.125823 0.532368 0.119563
O O11 0.278566 0.278514 0.750000
O O12 0.173303 0.312936 0.619543
O O13 0.429027 0.355904 0.653265
O O14 0.921625 0.750000 0.500000
O O15 0.013508 0.630896 0.465889
O O16 0.614531 0.541954 0.250000
O O17 0.000000 0.000000 0.000000
#
# Coordination Sequence:
#
# PCOD8232030 Si02
#       7
#     8   8   8   8   8   8   8
#     4  11  19  35  58  84 110 145 189 239 287 333
#     4  10  19  37  60  84 109 146 196 234 282 340
#     4  10  20  34  57  83 112 145 185 234 285 340
#     4  10  20  35  59  84 114 148 189 239 291 343
#     4  10  22  38  55  82 114 150 191 231 279 346
#     4   9  18  33  53  83 112 139 183 238 287 334
#     4  12  21  36  58  82 119 150 190 233 284 342
#
# _framework density 17.762353000000001
#
# number of rings (size 3 to 8) (size 9 to 14) (size 15 to 20)
#    0.000    1.714    4.286    2.143    0.000    1.143 
#    2.571    0.714    0.000    0.000    0.000    0.000 
#    0.000    0.000    0.000    0.000    0.000    0.000 
#
# Total GULP energy -694231.727002 kJ/mol
# GULP energy per Si atom -12396.995125 kJ/mol
# Density = 1.772193 g / cm^3
# Si number density = 17.762353 Si / 1000 Ang^3
#
#
#
# Elastic Constant Matrix: (Units=GPa)
#
#
# Indices 1 2 3 4 5 6 
#
# 1 78.9673 56.5673 49.6041 0.0000 0.0000 0.0000
# 2 56.5673 133.0245 60.4505 0.0000 0.0000 0.0000
# 3 49.6041 60.4505 141.7004 0.0000 0.0000 0.0000
# 4 0.0000 0.0000 0.0000 26.2146 0.0000 0.0000
# 5 0.0000 0.0000 0.0000 0.0000 20.9705 0.0000
# 6 0.0000 0.0000 0.0000 0.0000 0.0000 30.8216
#
#
#
# Elastic Compliance Matrix: (Units=1/GPa)
#
#
# Indices 1 2 3 4 5 6 
#
# 1 0.020035 -0.006615 -0.004192 0.000000 0.000000 0.000000
# 2 -0.006615 0.011509 -0.002594 0.000000 0.000000 0.000000
# 3 -0.004192 -0.002594 0.009631 0.000000 0.000000 0.000000
# 4 0.000000 0.000000 0.000000 0.038147 0.000000 0.000000
# 5 0.000000 0.000000 0.000000 0.000000 0.047686 0.000000
# 6 0.000000 0.000000 0.000000 0.000000 0.000000 0.032445
#
#
# Mechanical properties :
#
#
# Convention : Reuss Voigt Hill
#
# Bulk Modulus (GPa) = 69.57043 76.32624 72.94833
# Shear Modulus (GPa) = 26.17177 28.07270 27.12223
#
# Velocity S-wave (km/s) = 3.84271 3.97981 3.91186
# Velocity P-wave (km/s) = 7.67730 8.01141 7.84613
#
# Compressibility (1/GPa) = 0.01437392
#
# Stress axis : x y z
#
# Youngs Moduli (GPa) = 49.91288 86.88651 103.82920
#
# Poissons Ratio (x) = 0.57474 0.43520
# Poissons Ratio (y) = 0.33017 0.26937
# Poissons Ratio (z) = 0.20921 0.22541
#
# Static dielectric constant tensor:
#      x y z
#    x -0.908300 0.000000 0.000000 
#    y 0.000000 3.448920 0.000000 
#    z 0.000000 0.000000 3.884760 
# 
# 
# High freq. dielectric constant tensor:
#      x y z
#    x 1.658360 0.000000 0.000000 
#    y 0.000000 1.696470 0.000000 
#    z 0.000000 0.000000 1.704930 
# 
# From -- ./inp_files/24530.got.cif
#   From: 2010.03.12/outbox.cif.g09.slc.cpg/sg57_13_cif.got.tgz:24530.got - 2010.04.16 15:48:40.
