data_PCOD8232815
_publ_section_title
;
Structure prediction by ZEFSAII (Michael W. Deem and Ramdas Pophale) SiO2 
 PCOD8232815
Probable space group: P B C M
;
_chemical_formula_sum "Si O2"
_cell_formula_units_Z 56
_cell_length_a 11.584044
_cell_length_b 14.555081
_cell_length_c 15.551758
_cell_angle_alpha 90.000000
_cell_angle_beta 90.000000
_cell_angle_gamma 90.000000
_cell_volume 2622.130576
_symmetry_space_group_name_H-M "P B C M"
_symmetry_group_IT_number 57
_symmetry_cell_setting 'orthorhombic'
loop_
_space_group_symop_operation_xyz
x,y,z
-x,-y,1/2+z
x,1/2-y,-z
-x,1/2+y,1/2-z
-x,-y,-z
x,y,1/2-z
-x,1/2+y,z
x,1/2-y,1/2+z
loop_
_atom_site_type_symbol
_atom_site_label
_atom_site_fract_x
_atom_site_fract_y
_atom_site_fract_z
Si Si1 0.101259 0.131523 0.651583
Si Si2 0.094338 0.011273 0.349395
Si Si3 0.314038 0.970773 0.043372
Si Si4 0.269241 0.812196 0.578725
Si Si5 0.978315 0.309066 0.649540
Si Si6 0.449151 0.829971 0.350791
Si Si7 0.677161 0.656601 0.544944
O O1 0.134128 0.152196 0.750000
O O2 0.218945 0.116172 0.600840
O O3 0.026232 0.040816 0.642870
O O4 0.023661 0.213332 0.610818
O O5 0.138490 0.009493 0.250000
O O6 0.188688 0.968329 0.412178
O O7 0.063756 0.112089 0.385687
O O8 0.399529 0.925486 0.112545
O O9 0.315470 0.909964 0.956121
O O10 0.355734 0.074606 0.021927
O O11 0.229159 0.750000 0.500000
O O12 0.156281 0.828095 0.634995
O O13 0.368418 0.758649 0.631386
O O14 0.994953 0.307329 0.750000
O O15 0.467492 0.841266 0.250000
O O16 0.570884 0.813026 0.395989
O O17 0.718783 0.750000 0.500000
#
# Coordination Sequence:
#
# PCOD8232815 Si02
#       7
#     8   8   8   8   8   8   8
#     4  10  21  37  57  84 122 164 202 243 297 358
#     4  10  21  37  59  89 124 161 202 245 296 364
#     4  11  23  40  64  92 123 157 200 252 308 362
#     4  10  21  37  62  91 118 150 197 255 309 359
#     4  10  20  35  56  85 120 157 199 244 294 356
#     4  11  24  45  67  87 116 156 205 254 307 366
#     4  12  25  41  61  88 125 163 205 254 301 355
#
# _framework density 21.356679
#
# number of rings (size 3 to 8) (size 9 to 14) (size 15 to 20)
#    0.000    1.429    0.000    6.429    0.000    6.286 
#    0.000    5.714    0.000    0.000    0.000    0.000 
#    0.000    0.000    0.000    0.000    0.000    0.000 
#
# Total GULP energy -694436.939283 kJ/mol
# GULP energy per Si atom -12400.659630 kJ/mol
# Density = 2.130807 g / cm^3
# Si number density = 21.356679 Si / 1000 Ang^3
#
#
#
# Elastic Constant Matrix: (Units=GPa)
#
#
# Indices 1 2 3 4 5 6 
#
# 1 82.4399 -2.7874 33.3975 0.0000 0.0000 0.0000
# 2 -2.7874 107.0243 29.0924 0.0000 0.0000 0.0000
# 3 33.3975 29.0924 69.1421 0.0000 0.0000 0.0000
# 4 0.0000 0.0000 0.0000 22.9911 0.0000 0.0000
# 5 0.0000 0.0000 0.0000 0.0000 34.6586 0.0000
# 6 0.0000 0.0000 0.0000 0.0000 0.0000 27.0292
#
#
#
# Elastic Compliance Matrix: (Units=1/GPa)
#
#
# Indices 1 2 3 4 5 6 
#
# 1 0.015794 0.002806 -0.008809 0.000000 0.000000 0.000000
# 2 0.002806 0.011049 -0.006004 0.000000 0.000000 0.000000
# 3 -0.008809 -0.006004 0.021245 0.000000 0.000000 0.000000
# 4 0.000000 0.000000 0.000000 0.043495 0.000000 0.000000
# 5 0.000000 0.000000 0.000000 0.000000 0.028853 0.000000
# 6 0.000000 0.000000 0.000000 0.000000 0.000000 0.036997
#
#
# Mechanical properties :
#
#
# Convention : Reuss Voigt Hill
#
# Bulk Modulus (GPa) = 41.54264 42.00124 41.77194
# Shear Modulus (GPa) = 26.38918 30.19606 28.29262
#
# Velocity S-wave (km/s) = 3.51898 3.76426 3.64368
# Velocity P-wave (km/s) = 6.00042 6.21306 6.10766
#
# Compressibility (1/GPa) = 0.02407165
#
# Stress axis : x y z
#
# Youngs Moduli (GPa) = 63.31622 90.50665 47.07085
#
# Poissons Ratio (x) = -0.25396 0.41467
# Poissons Ratio (y) = -0.17767 0.28263
# Poissons Ratio (z) = 0.55778 0.54343
#
# Static dielectric constant tensor:
#      x y z
#    x 3.686010 0.000000 0.000000 
#    y 0.000000 4.266010 0.000000 
#    z 0.000000 0.000000 3.821280 
# 
# 
# High freq. dielectric constant tensor:
#      x y z
#    x 1.837580 0.000000 0.000000 
#    y 0.000000 1.849030 0.000000 
#    z 0.000000 0.000000 1.831140 
# 
# From -- ./inp_files/17740.got.cif
#   From: 2010.03.12/outbox.cif.g09.slc.cpg/sg57_9_cif.got.tgz:17740.got - 2010.04.16 15:48:40.
