data_PCOD8232677
_publ_section_title
;
Structure prediction by ZEFSAII (Michael W. Deem and Ramdas Pophale) SiO2 
 PCOD8232677
Probable space group: P B C M
;
_chemical_formula_sum "Si O2"
_cell_formula_units_Z 48
_cell_length_a 30.862359
_cell_length_b 9.099706
_cell_length_c 8.751682
_cell_angle_alpha 90.000000
_cell_angle_beta 90.000000
_cell_angle_gamma 90.000000
_cell_volume 2457.808312
_symmetry_space_group_name_H-M "P B C M"
_symmetry_group_IT_number 57
_symmetry_cell_setting 'orthorhombic'
loop_
_space_group_symop_operation_xyz
x,y,z
-x,-y,1/2+z
x,1/2-y,-z
-x,1/2+y,1/2-z
-x,-y,-z
x,y,1/2-z
-x,1/2+y,z
x,1/2-y,1/2+z
loop_
_atom_site_type_symbol
_atom_site_label
_atom_site_fract_x
_atom_site_fract_y
_atom_site_fract_z
Si Si1 0.866130 0.592071 0.928619
Si Si2 0.618642 0.411452 0.930509
Si Si3 0.540013 0.912001 0.567570
Si Si4 0.037663 0.092964 0.571544
Si Si5 0.214556 0.590869 0.068813
Si Si6 0.703899 0.592055 0.572022
O O1 0.860368 0.615083 0.750000
O O2 0.914293 0.530570 0.967411
O O3 0.831230 0.474773 0.989905
O O4 0.857261 0.750000 0.000000
O O5 0.608743 0.405737 0.750000
O O6 0.664811 0.482993 0.967173
O O7 0.617784 0.250000 0.000000
O O8 0.583679 0.509501 0.016354
O O9 0.539230 0.750000 0.500000
O O10 0.537070 0.905942 0.750000
O O11 0.500000 0.000000 0.500000
O O12 0.033302 0.250000 0.500000
O O13 0.029896 0.103124 0.750000
O O14 0.000000 0.000000 0.500000
O O15 0.216079 0.605370 0.250000
O O16 0.252352 0.483096 0.008480
O O17 0.221722 0.750000 0.000000
O O18 0.695763 0.750000 0.500000
O O19 0.708066 0.619241 0.750000
#
# Coordination Sequence:
#
# PCOD8232677 Si02
#       6
#     8   8   8   8   8   8
#     4   9  19  35  55  78 106 139 181 225 272 328
#     4  11  23  40  61  89 121 156 195 238 286 339
#     4  12  25  43  65  91 122 158 198 243 291 343
#     4  10  20  35  54  78 107 142 181 227 277 332
#     4  10  21  37  55  81 112 144 182 227 275 329
#     4  10  22  38  59  85 115 149 189 232 279 333
#
# _framework density 19.529593999999999
#
# number of rings (size 3 to 8) (size 9 to 14) (size 15 to 20)
#    0.000    1.667    0.000    4.500    0.000    5.333 
#    0.000    1.667    0.000    0.000    0.000    0.000 
#    0.000    0.000    0.000    0.000    0.000    0.000 
#
# Total GULP energy -595249.860935 kJ/mol
# GULP energy per Si atom -12401.038769 kJ/mol
# Density = 1.948514 g / cm^3
# Si number density = 19.529594 Si / 1000 Ang^3
#
#
#
# Elastic Constant Matrix: (Units=GPa)
#
#
# Indices 1 2 3 4 5 6 
#
# 1 149.1898 73.4934 65.5388 0.0000 0.0000 0.0000
# 2 73.4934 143.7998 63.6851 0.0000 0.0000 0.0000
# 3 65.5388 63.6851 92.6907 0.0000 0.0000 0.0000
# 4 0.0000 0.0000 0.0000 40.6641 0.0000 0.0000
# 5 0.0000 0.0000 0.0000 0.0000 27.9473 0.0000
# 6 0.0000 0.0000 0.0000 0.0000 0.0000 45.8557
#
#
#
# Elastic Compliance Matrix: (Units=1/GPa)
#
#
# Indices 1 2 3 4 5 6 
#
# 1 0.010554 -0.003003 -0.005399 0.000000 0.000000 0.000000
# 2 -0.003003 0.010850 -0.005332 0.000000 0.000000 0.000000
# 3 -0.005399 -0.005332 0.018269 0.000000 0.000000 0.000000
# 4 0.000000 0.000000 0.000000 0.024592 0.000000 0.000000
# 5 0.000000 0.000000 0.000000 0.000000 0.035782 0.000000
# 6 0.000000 0.000000 0.000000 0.000000 0.000000 0.021808
#
#
# Mechanical properties :
#
#
# Convention : Reuss Voigt Hill
#
# Bulk Modulus (GPa) = 81.92584 87.90166 84.91375
# Shear Modulus (GPa) = 32.59662 35.09095 33.84379
#
# Velocity S-wave (km/s) = 4.08988 4.24348 4.16739
# Velocity P-wave (km/s) = 8.02144 8.31364 8.16885
#
# Compressibility (1/GPa) = 0.01220616
#
# Stress axis : x y z
#
# Youngs Moduli (GPa) = 94.75106 92.16628 54.73626
#
# Poissons Ratio (x) = 0.27675 0.29554
# Poissons Ratio (y) = 0.28451 0.29183
# Poissons Ratio (z) = 0.51159 0.49139
#
# Static dielectric constant tensor:
#      x y z
#    x 4.005270 0.000000 0.000000 
#    y 0.000000 4.263970 0.000000 
#    z 0.000000 0.000000 3.629200 
# 
# 
# High freq. dielectric constant tensor:
#      x y z
#    x 1.783680 0.000000 0.000000 
#    y 0.000000 1.767500 0.000000 
#    z 0.000000 0.000000 1.763850 
# 
# From -- ./inp_files/9972.got.cif
#   From: 2010.03.12/outbox.cif.g09.slc.cpg/sg57_5_cif.got.tgz:9972.got - 2010.04.16 15:48:40.
