data_PCOD8232038
_publ_section_title
;
Structure prediction by ZEFSAII (Michael W. Deem and Ramdas Pophale) SiO2 
 PCOD8232038
Probable space group: P B C M
;
_chemical_formula_sum "Si O2"
_cell_formula_units_Z 48
_cell_length_a 9.372832
_cell_length_b 18.024951
_cell_length_c 14.677144
_cell_angle_alpha 90.000000
_cell_angle_beta 90.000000
_cell_angle_gamma 90.000000
_cell_volume 2479.627709
_symmetry_space_group_name_H-M "P B C M"
_symmetry_group_IT_number 57
_symmetry_cell_setting 'orthorhombic'
loop_
_space_group_symop_operation_xyz
x,y,z
-x,-y,1/2+z
x,1/2-y,-z
-x,1/2+y,1/2-z
-x,-y,-z
x,y,1/2-z
-x,1/2+y,z
x,1/2-y,1/2+z
loop_
_atom_site_type_symbol
_atom_site_label
_atom_site_fract_x
_atom_site_fract_y
_atom_site_fract_z
Si Si1 0.420409 0.922617 0.485459
Si Si2 0.831912 0.590504 0.152779
Si Si3 0.898059 0.451712 0.435787
Si Si4 0.469285 0.340447 0.649678
Si Si5 0.612646 0.671148 0.642667
Si Si6 0.901081 0.667597 0.528703
O O1 0.253499 0.935776 0.480434
O O2 0.424857 0.868624 0.572784
O O3 0.487682 0.881096 0.397198
O O4 0.500000 0.000000 0.500000
O O5 0.887223 0.622715 0.250000
O O6 0.864889 0.502141 0.152718
O O7 0.663868 0.604147 0.145444
O O8 0.907050 0.628832 0.068995
O O9 0.000000 0.500000 0.500000
O O10 0.975534 0.373335 0.411854
O O11 0.541244 0.344067 0.750000
O O12 0.423201 0.256826 0.627669
O O13 0.635838 0.653002 0.750000
O O14 0.755080 0.657102 0.583909
O O15 0.941324 0.750000 0.500000
#
# Coordination Sequence:
#
# PCOD8232038 Si02
#       6
#     8   8   8   8   8   8
#     4  12  21  39  62  89 121 158 202 261 309 363
#     4  10  19  37  61  86 120 165 206 249 306 370
#     4  10  23  39  59  88 125 164 205 248 310 378
#     4  10  20  37  64  91 116 156 207 256 306 363
#     4  11  23  39  64  93 122 161 213 262 310 368
#     4  11  20  38  60  93 126 166 210 260 317 379
#
# _framework density 19.357745000000001
#
# number of rings (size 3 to 8) (size 9 to 14) (size 15 to 20)
#    0.000    1.333    5.000    1.500    0.000    3.333 
#    0.000    3.333    0.000    0.000    0.000    0.000 
#    0.000    0.000    0.000    0.000    0.000    0.000 
#
# Total GULP energy -594679.205013 kJ/mol
# GULP energy per Si atom -12389.150104 kJ/mol
# Density = 1.931369 g / cm^3
# Si number density = 19.357745 Si / 1000 Ang^3
#
#
#
# Elastic Constant Matrix: (Units=GPa)
#
#
# Indices 1 2 3 4 5 6 
#
# 1 116.7483 61.0616 34.3590 0.0000 0.0000 0.0000
# 2 61.0616 111.2942 59.2410 0.0000 0.0000 0.0000
# 3 34.3590 59.2410 122.4138 0.0000 0.0000 0.0000
# 4 0.0000 0.0000 0.0000 30.3722 0.0000 0.0000
# 5 0.0000 0.0000 0.0000 0.0000 5.1352 0.0000
# 6 0.0000 0.0000 0.0000 0.0000 0.0000 37.3154
#
#
#
# Elastic Compliance Matrix: (Units=1/GPa)
#
#
# Indices 1 2 3 4 5 6 
#
# 1 0.012018 -0.006463 -0.000245 0.000000 0.000000 0.000000
# 2 -0.006463 0.015579 -0.005725 0.000000 0.000000 0.000000
# 3 -0.000245 -0.005725 0.011008 0.000000 0.000000 0.000000
# 4 0.000000 0.000000 0.000000 0.032925 0.000000 0.000000
# 5 0.000000 0.000000 0.000000 0.000000 0.194736 0.000000
# 6 0.000000 0.000000 0.000000 0.000000 0.000000 0.026799
#
#
# Mechanical properties :
#
#
# Convention : Reuss Voigt Hill
#
# Bulk Modulus (GPa) = 72.79122 73.30883 73.05003
# Shear Modulus (GPa) = 15.50338 27.61753 21.56046
#
# Velocity S-wave (km/s) = 2.83307 3.78125 3.34097
# Velocity P-wave (km/s) = 6.95604 7.55093 7.25958
#
# Compressibility (1/GPa) = 0.01373792
#
# Stress axis : x y z
#
# Youngs Moduli (GPa) = 83.20894 64.19103 90.83896
#
# Poissons Ratio (x) = 0.41486 0.02230
# Poissons Ratio (y) = 0.53778 0.52006
# Poissons Ratio (z) = 0.02043 0.36750
#
# Static dielectric constant tensor:
#      x y z
#    x 3.457610 0.000000 0.000000 
#    y 0.000000 4.518470 0.000000 
#    z 0.000000 0.000000 3.890790 
# 
# 
# High freq. dielectric constant tensor:
#      x y z
#    x 1.731650 0.000000 0.000000 
#    y 0.000000 1.770310 0.000000 
#    z 0.000000 0.000000 1.756030 
# 
# From -- ./inp_files/16548.got.cif
#   From: 2010.03.12/outbox.cif.g09.slc.cpg/sg57_9_cif.got.tgz:16548.got - 2010.04.16 15:48:40.
