data_PCOD8232793
_publ_section_title
;
Structure prediction by ZEFSAII (Michael W. Deem and Ramdas Pophale) SiO2 
 PCOD8232793
Probable space group: P B C M
;
_chemical_formula_sum "Si O2"
_cell_formula_units_Z 48
_cell_length_a 10.884370
_cell_length_b 8.445426
_cell_length_c 23.998400
_cell_angle_alpha 90.000000
_cell_angle_beta 90.000000
_cell_angle_gamma 90.000000
_cell_volume 2206.008316
_symmetry_space_group_name_H-M "P B C M"
_symmetry_group_IT_number 57
_symmetry_cell_setting 'orthorhombic'
loop_
_space_group_symop_operation_xyz
x,y,z
-x,-y,1/2+z
x,1/2-y,-z
-x,1/2+y,1/2-z
-x,-y,-z
x,y,1/2-z
-x,1/2+y,z
x,1/2-y,1/2+z
loop_
_atom_site_type_symbol
_atom_site_label
_atom_site_fract_x
_atom_site_fract_y
_atom_site_fract_z
Si Si1 0.896175 0.052897 0.545107
Si Si2 0.029423 0.828443 0.882423
Si Si3 0.466693 0.902868 0.616715
Si Si4 0.624208 0.684403 0.687728
Si Si5 0.378480 0.634998 0.952195
Si Si6 0.889617 0.594701 0.688346
O O1 0.917545 0.234596 0.564169
O O2 0.751475 0.054457 0.528472
O O3 0.000000 0.000000 0.500000
O O4 0.911920 0.929848 0.595984
O O5 0.995729 0.708971 0.833530
O O6 0.127340 0.949568 0.855282
O O7 0.579668 0.829600 0.650765
O O8 0.372935 0.760109 0.599771
O O9 0.398152 0.016469 0.658932
O O10 0.523190 0.997905 0.563279
O O11 0.565809 0.687505 0.750000
O O12 0.769608 0.701952 0.691462
O O13 0.431326 0.750000 0.000000
O O14 0.925549 0.531812 0.750000
#
# Coordination Sequence:
#
# PCOD8232793 Si02
#       6
#     8   8   8   8   8   8
#     4  11  22  38  59  85 114 149 191 239 290 343
#     4  10  21  36  55  83 114 148 188 234 285 340
#     4  10  22  38  58  85 115 152 190 238 288 341
#     4  10  20  36  58  84 114 150 191 234 283 340
#     4  11  22  39  59  83 115 150 194 239 290 348
#     4  10  20  35  56  82 114 151 189 232 282 338
#
# _framework density 21.758758
#
# number of rings (size 3 to 8) (size 9 to 14) (size 15 to 20)
#    0.000    1.667    0.000    5.000    0.000    1.333 
#    0.000    5.000    0.000   16.000    0.000    0.000 
#    0.000    0.000    0.000    0.000    0.000    0.000 
#
# Total GULP energy -594679.842285 kJ/mol
# GULP energy per Si atom -12389.163381 kJ/mol
# Density = 2.170923 g / cm^3
# Si number density = 21.758758 Si / 1000 Ang^3
#
#
#
# Elastic Constant Matrix: (Units=GPa)
#
#
# Indices 1 2 3 4 5 6 
#
# 1 66.0571 11.0028 20.3252 0.0000 0.0000 0.0000
# 2 11.0028 75.7238 21.4696 0.0000 0.0000 0.0000
# 3 20.3252 21.4696 93.9532 0.0000 0.0000 0.0000
# 4 0.0000 0.0000 0.0000 38.1229 0.0000 0.0000
# 5 0.0000 0.0000 0.0000 0.0000 29.7951 0.0000
# 6 0.0000 0.0000 0.0000 0.0000 0.0000 23.2208
#
#
#
# Elastic Compliance Matrix: (Units=1/GPa)
#
#
# Indices 1 2 3 4 5 6 
#
# 1 0.016369 -0.001470 -0.003205 0.000000 0.000000 0.000000
# 2 -0.001470 0.014253 -0.002939 0.000000 0.000000 0.000000
# 3 -0.003205 -0.002939 0.012009 0.000000 0.000000 0.000000
# 4 0.000000 0.000000 0.000000 0.026231 0.000000 0.000000
# 5 0.000000 0.000000 0.000000 0.000000 0.033563 0.000000
# 6 0.000000 0.000000 0.000000 0.000000 0.000000 0.043065
#
#
# Mechanical properties :
#
#
# Convention : Reuss Voigt Hill
#
# Bulk Modulus (GPa) = 36.49288 37.92550 37.20919
# Shear Modulus (GPa) = 29.43744 30.42352 29.93048
#
# Velocity S-wave (km/s) = 3.68217 3.74333 3.71288
# Velocity P-wave (km/s) = 5.90642 6.01259 5.95974
#
# Compressibility (1/GPa) = 0.02740260
#
# Stress axis : x y z
#
# Youngs Moduli (GPa) = 61.08923 70.16200 83.27335
#
# Poissons Ratio (x) = 0.10312 0.26693
# Poissons Ratio (y) = 0.08978 0.24474
# Poissons Ratio (z) = 0.19582 0.20621
#
# Static dielectric constant tensor:
#      x y z
#    x 3.502780 0.000000 0.000000 
#    y 0.000000 4.101900 0.000000 
#    z 0.000000 0.000000 4.101090 
# 
# 
# High freq. dielectric constant tensor:
#      x y z
#    x 1.827850 0.000000 0.000000 
#    y 0.000000 1.867490 0.000000 
#    z 0.000000 0.000000 1.863450 
# 
# From -- ./inp_files/27119.got.cif
#   From: 2010.03.12/outbox.cif.g09.slc.cpg/sg57_14_cif.got.tgz:27119.got - 2010.04.16 15:48:40.
