data_PCOD8232006
_publ_section_title
;
Structure prediction by ZEFSAII (Michael W. Deem and Ramdas Pophale) SiO2 
 PCOD8232006
Probable space group: P B C M
;
_chemical_formula_sum "Si O2"
_cell_formula_units_Z 56
_cell_length_a 14.580626
_cell_length_b 8.685201
_cell_length_c 21.578416
_cell_angle_alpha 90.000000
_cell_angle_beta 90.000000
_cell_angle_gamma 90.000000
_cell_volume 2732.597114
_symmetry_space_group_name_H-M "P B C M"
_symmetry_group_IT_number 57
_symmetry_cell_setting 'orthorhombic'
loop_
_space_group_symop_operation_xyz
x,y,z
-x,-y,1/2+z
x,1/2-y,-z
-x,1/2+y,1/2-z
-x,-y,-z
x,y,1/2-z
-x,1/2+y,z
x,1/2-y,1/2+z
loop_
_atom_site_type_symbol
_atom_site_label
_atom_site_fract_x
_atom_site_fract_y
_atom_site_fract_z
Si Si1 0.453492 0.817750 0.320217
Si Si2 0.122323 0.827960 0.323668
Si Si3 0.398548 0.568726 0.499312
Si Si4 0.381886 0.007848 0.865424
Si Si5 0.224419 0.298896 0.179176
Si Si6 0.940647 0.995904 0.177177
Si Si7 0.706697 0.489013 0.124141
O O1 0.487886 0.821378 0.250000
O O2 0.419731 0.649550 0.337591
O O3 0.539020 0.861979 0.363558
O O4 0.373887 0.943831 0.328659
O O5 0.144776 0.828396 0.250000
O O6 0.085967 0.663762 0.348474
O O7 0.211000 0.868533 0.364445
O O8 0.045015 0.955134 0.339645
O O9 0.409166 0.750000 0.500000
O O10 0.500000 0.500000 0.500000
O O11 0.349750 0.514675 0.436063
O O12 0.332574 0.515005 0.554679
O O13 0.295886 0.060186 0.824528
O O14 0.215221 0.240959 0.250000
O O15 0.127707 0.362212 0.152786
O O16 0.258236 0.160257 0.136585
O O17 0.926834 0.001597 0.250000
#
# Coordination Sequence:
#
# PCOD8232006 Si02
#       7
#     8   8   8   8   8   8   8
#     4  12  23  38  60  90 122 159 199 263 332 382
#     4  10  19  36  61  96 132 170 210 263 330 391
#     4  12  26  47  65  87 120 172 229 267 311 377
#     4  12  24  42  61  85 124 166 214 262 316 382
#     4  11  23  39  61  97 131 165 207 260 325 393
#     4   9  19  35  61  93 136 174 208 255 324 406
#     4  12  24  38  63  91 128 167 213 268 311 379
#
# _framework density 20.493324999999999
#
# number of rings (size 3 to 8) (size 9 to 14) (size 15 to 20)
#    0.000    0.857    2.857    5.143    2.000    3.429 
#    0.000    0.000    0.000    0.857    0.000    0.000 
#    0.000    0.000    0.000    0.000    0.000    0.000 
#
# Total GULP energy -694517.461747 kJ/mol
# GULP energy per Si atom -12402.097531 kJ/mol
# Density = 2.044668 g / cm^3
# Si number density = 20.493325 Si / 1000 Ang^3
#
#
#
# Elastic Constant Matrix: (Units=GPa)
#
#
# Indices 1 2 3 4 5 6 
#
# 1 99.9664 9.2092 41.8440 0.0000 0.0000 0.0000
# 2 9.2092 80.3100 46.3953 0.0000 0.0000 0.0000
# 3 41.8440 46.3953 108.1218 0.0000 0.0000 0.0000
# 4 0.0000 0.0000 0.0000 30.1238 0.0000 0.0000
# 5 0.0000 0.0000 0.0000 0.0000 25.7558 0.0000
# 6 0.0000 0.0000 0.0000 0.0000 0.0000 37.8478
#
#
#
# Elastic Compliance Matrix: (Units=1/GPa)
#
#
# Indices 1 2 3 4 5 6 
#
# 1 0.012120 0.001755 -0.005444 0.000000 0.000000 0.000000
# 2 0.001755 0.016810 -0.007892 0.000000 0.000000 0.000000
# 3 -0.005444 -0.007892 0.014742 0.000000 0.000000 0.000000
# 4 0.000000 0.000000 0.000000 0.033196 0.000000 0.000000
# 5 0.000000 0.000000 0.000000 0.000000 0.038826 0.000000
# 6 0.000000 0.000000 0.000000 0.000000 0.000000 0.026422
#
#
# Mechanical properties :
#
#
# Convention : Reuss Voigt Hill
#
# Bulk Modulus (GPa) = 48.75603 53.69947 51.22775
# Shear Modulus (GPa) = 29.05025 31.47547 30.26286
#
# Velocity S-wave (km/s) = 3.76912 3.92329 3.84698
# Velocity P-wave (km/s) = 6.54098 6.83983 6.69207
#
# Compressibility (1/GPa) = 0.02051028
#
# Stress axis : x y z
#
# Youngs Moduli (GPa) = 82.50600 59.48858 67.83234
#
# Poissons Ratio (x) = -0.10440 0.36926
# Poissons Ratio (y) = -0.14480 0.53536
# Poissons Ratio (z) = 0.44914 0.46951
#
# Static dielectric constant tensor:
#      x y z
#    x 3.902720 0.000000 0.000000 
#    y 0.000000 3.934770 0.000000 
#    z 0.000000 0.000000 3.712660 
# 
# 
# High freq. dielectric constant tensor:
#      x y z
#    x 1.806930 0.000000 0.000000 
#    y 0.000000 1.822200 0.000000 
#    z 0.000000 0.000000 1.766630 
# 
# From -- ./inp_files/25376.got.cif
#   From: 2010.03.12/outbox.cif.g09.slc.cpg/sg57_13_cif.got.tgz:25376.got - 2010.04.16 15:48:40.
