data_PCOD8232635
_publ_section_title
;
Structure prediction by ZEFSAII (Michael W. Deem and Ramdas Pophale) SiO2 
 PCOD8232635
Probable space group: P B C M
;
_chemical_formula_sum "Si O2"
_cell_formula_units_Z 64
_cell_length_a 20.831128
_cell_length_b 18.055774
_cell_length_c 8.751909
_cell_angle_alpha 90.000000
_cell_angle_beta 90.000000
_cell_angle_gamma 90.000000
_cell_volume 3291.786736
_symmetry_space_group_name_H-M "P B C M"
_symmetry_group_IT_number 57
_symmetry_cell_setting 'orthorhombic'
loop_
_space_group_symop_operation_xyz
x,y,z
-x,-y,1/2+z
x,1/2-y,-z
-x,1/2+y,1/2-z
-x,-y,-z
x,y,1/2-z
-x,1/2+y,z
x,1/2-y,1/2+z
loop_
_atom_site_type_symbol
_atom_site_label
_atom_site_fract_x
_atom_site_fract_y
_atom_site_fract_z
Si Si1 0.357142 0.423657 0.569401
Si Si2 0.992209 0.170694 0.068459
Si Si3 0.114109 0.421215 0.569167
Si Si4 0.757698 0.170440 0.430237
Si Si5 0.236921 0.168838 0.432065
Si Si6 0.126662 0.588185 0.931729
Si Si7 0.504660 0.920734 0.571380
Si Si8 0.366391 0.584290 0.071463
O O1 0.350178 0.426805 0.750000
O O2 0.300282 0.372714 0.503499
O O3 0.426397 0.386533 0.518501
O O4 0.350894 0.507630 0.512334
O O5 0.988217 0.175789 0.250000
O O6 0.048552 0.116251 0.011831
O O7 0.008632 0.250000 0.000000
O O8 0.925144 0.142833 0.003488
O O9 0.117478 0.421431 0.750000
O O10 0.175298 0.376234 0.505850
O O11 0.114522 0.505084 0.507934
O O12 0.771916 0.250000 0.500000
O O13 0.770047 0.172599 0.250000
O O14 0.803812 0.111098 0.508701
O O15 0.685424 0.146213 0.472859
O O16 0.234675 0.250000 0.500000
O O17 0.237060 0.173991 0.250000
O O18 0.123736 0.593820 0.750000
O O19 0.508559 0.931136 0.750000
O O20 0.437119 0.880829 0.526562
O O21 0.500000 0.000000 0.500000
O O22 0.363642 0.566014 0.250000
#
# Coordination Sequence:
#
# PCOD8232635 Si02
#       8
#     8   8   8   8   8   8   8   8
#     4   9  17  30  52  77 104 137 174 212 259 314
#     4  11  22  38  58  83 113 144 175 210 253 306
#     4   9  20  37  58  81 107 138 176 217 257 302
#     4  11  23  38  54  76 105 140 177 218 265 316
#     4  10  20  35  52  75 105 139 175 213 256 306
#     4  11  22  39  61  83 106 136 173 218 264 310
#     4   8  14  27  47  73 101 132 168 212 259 306
#     4   9  18  32  52  76 103 132 172 220 263 306
#
# _framework density 19.442329999999998
#
# number of rings (size 3 to 8) (size 9 to 14) (size 15 to 20)
#    0.000    2.250    0.000    3.000    0.000    2.500 
#    0.000    4.375    0.000    0.000    0.000    0.000 
#    0.000    0.000    0.000    0.000    0.000    0.000 
#
# Total GULP energy -793214.005989 kJ/mol
# GULP energy per Si atom -12393.968844 kJ/mol
# Density = 1.939808 g / cm^3
# Si number density = 19.442330 Si / 1000 Ang^3
#
#
#
# Elastic Constant Matrix: (Units=GPa)
#
#
# Indices 1 2 3 4 5 6 
#
# 1 127.5540 30.2550 27.3827 0.0000 0.0000 0.0000
# 2 30.2550 93.6657 24.1515 0.0000 0.0000 0.0000
# 3 27.3827 24.1515 43.0816 0.0000 0.0000 0.0000
# 4 0.0000 0.0000 0.0000 25.8292 0.0000 0.0000
# 5 0.0000 0.0000 0.0000 0.0000 17.2267 0.0000
# 6 0.0000 0.0000 0.0000 0.0000 0.0000 26.7926
#
#
#
# Elastic Compliance Matrix: (Units=1/GPa)
#
#
# Indices 1 2 3 4 5 6 
#
# 1 0.009313 -0.001732 -0.004948 0.000000 0.000000 0.000000
# 2 -0.001732 0.012803 -0.006076 0.000000 0.000000 0.000000
# 3 -0.004948 -0.006076 0.029763 0.000000 0.000000 0.000000
# 4 0.000000 0.000000 0.000000 0.038716 0.000000 0.000000
# 5 0.000000 0.000000 0.000000 0.000000 0.058049 0.000000
# 6 0.000000 0.000000 0.000000 0.000000 0.000000 0.037324
#
#
# Mechanical properties :
#
#
# Convention : Reuss Voigt Hill
#
# Bulk Modulus (GPa) = 37.92839 47.54220 42.73529
# Shear Modulus (GPa) = 22.69950 26.13717 24.41834
#
# Velocity S-wave (km/s) = 3.42062 3.67051 3.54776
# Velocity P-wave (km/s) = 5.92886 6.51686 6.22980
#
# Compressibility (1/GPa) = 0.02636548
#
# Stress axis : x y z
#
# Youngs Moduli (GPa) = 107.37721 78.10966 33.59871
#
# Poissons Ratio (x) = 0.13531 0.16625
# Poissons Ratio (y) = 0.18601 0.20415
# Poissons Ratio (z) = 0.53132 0.47460
#
# Static dielectric constant tensor:
#      x y z
#    x 4.280930 0.000000 0.000000 
#    y 0.000000 3.421080 0.000000 
#    z 0.000000 0.000000 3.376390 
# 
# 
# High freq. dielectric constant tensor:
#      x y z
#    x 1.786750 0.000000 0.000000 
#    y 0.000000 1.739870 0.000000 
#    z 0.000000 0.000000 1.743190 
# 
# From -- ./inp_files/8497.got.cif
#   From: 2010.03.12/outbox.cif.g09.slc.cpg/sg57_5_cif.got.tgz:8497.got - 2010.04.16 15:48:40.
