data_PCOD8232982
_publ_section_title
;
Structure prediction by ZEFSAII (Michael W. Deem and Ramdas Pophale) SiO2 
 PCOD8232982
Probable space group: P B C M
;
_chemical_formula_sum "Si O2"
_cell_formula_units_Z 64
_cell_length_a 20.748079
_cell_length_b 9.264096
_cell_length_c 16.559996
_cell_angle_alpha 90.000000
_cell_angle_beta 90.000000
_cell_angle_gamma 90.000000
_cell_volume 3183.033191
_symmetry_space_group_name_H-M "P B C M"
_symmetry_group_IT_number 57
_symmetry_cell_setting 'orthorhombic'
loop_
_space_group_symop_operation_xyz
x,y,z
-x,-y,1/2+z
x,1/2-y,-z
-x,1/2+y,1/2-z
-x,-y,-z
x,y,1/2-z
-x,1/2+y,z
x,1/2-y,1/2+z
loop_
_atom_site_type_symbol
_atom_site_label
_atom_site_fract_x
_atom_site_fract_y
_atom_site_fract_z
Si Si1 0.810389 0.288512 0.654107
Si Si2 0.197781 0.113504 0.844362
Si Si3 0.313577 0.618209 0.846207
Si Si4 0.563527 0.207535 0.346315
Si Si5 0.684139 0.706788 0.153518
Si Si6 0.560309 0.880490 0.153764
Si Si7 0.055734 0.099303 0.842319
Si Si8 0.051772 0.791432 0.590761
O O1 0.818841 0.283400 0.750000
O O2 0.793626 0.449878 0.624076
O O3 0.754017 0.183685 0.623145
O O4 0.877170 0.236072 0.614497
O O5 0.211520 0.113750 0.750000
O O6 0.251194 0.219305 0.883122
O O7 0.125484 0.169132 0.864463
O O8 0.315233 0.619534 0.750000
O O9 0.372158 0.715255 0.879707
O O10 0.320210 0.456072 0.880040
O O11 0.563479 0.206143 0.250000
O O12 0.502373 0.296870 0.379183
O O13 0.560557 0.044083 0.379672
O O14 0.684786 0.703210 0.250000
O O15 0.623202 0.797173 0.121456
O O16 0.559862 0.882497 0.250000
O O17 0.058231 0.043899 0.750000
O O18 0.000527 0.216569 0.851899
O O19 0.043502 0.962265 0.899107
O O20 0.035393 0.750000 0.500000
#
# Coordination Sequence:
#
# PCOD8232982 Si02
#       8
#     8   8   8   8   8   8   8   8
#     4   9  17  31  48  66  90 126 165 202 245 301
#     4   8  15  27  43  61  83 113 154 197 239 288
#     4   9  16  24  37  57  82 112 155 202 243 290
#     4   9  15  22  31  48  75 115 159 198 240 292
#     4   9  15  23  35  56  82 111 149 197 245 292
#     4   9  15  21  31  46  74 114 154 192 238 294
#     4  10  20  36  56  77 102 137 176 213 255 315
#     4  11  22  36  54  79 108 136 168 215 267 314
#
# _framework density 20.106608000000001
#
# number of rings (size 3 to 8) (size 9 to 14) (size 15 to 20)
#    0.000    2.750    0.000    3.750    0.000    7.000 
#    0.000    2.500    0.000    0.000    0.000    0.000 
#    0.000    0.000    0.000   19.125    0.000   23.000 
#
# Total GULP energy -793482.888011 kJ/mol
# GULP energy per Si atom -12398.170125 kJ/mol
# Density = 2.006084 g / cm^3
# Si number density = 20.106608 Si / 1000 Ang^3
#
#
#
# Elastic Constant Matrix: (Units=GPa)
#
#
# Indices 1 2 3 4 5 6 
#
# 1 182.9086 97.2850 5.9602 0.0000 0.0000 0.0000
# 2 97.2850 151.6282 3.4508 0.0000 0.0000 0.0000
# 3 5.9602 3.4508 13.6327 0.0000 0.0000 0.0000
# 4 0.0000 0.0000 0.0000 10.0683 0.0000 0.0000
# 5 0.0000 0.0000 0.0000 0.0000 1.6000 0.0000
# 6 0.0000 0.0000 0.0000 0.0000 0.0000 46.4940
#
#
#
# Elastic Compliance Matrix: (Units=1/GPa)
#
#
# Indices 1 2 3 4 5 6 
#
# 1 0.008371 -0.005318 -0.002314 0.000000 0.000000 0.000000
# 2 -0.005318 0.010012 -0.000209 0.000000 0.000000 0.000000
# 3 -0.002314 -0.000209 0.074418 0.000000 0.000000 0.000000
# 4 0.000000 0.000000 0.000000 0.099322 0.000000 0.000000
# 5 0.000000 0.000000 0.000000 0.000000 0.625004 0.000000
# 6 0.000000 0.000000 0.000000 0.000000 0.000000 0.021508
#
#
# Mechanical properties :
#
#
# Convention : Reuss Voigt Hill
#
# Bulk Modulus (GPa) = 12.96705 62.39571 37.68138
# Shear Modulus (GPa) = 5.68166 27.73069 16.70618
#
# Velocity S-wave (km/s) = 1.68283 3.71776 2.88563
# Velocity P-wave (km/s) = 3.19985 7.03767 5.46662
#
# Compressibility (1/GPa) = 0.07711857
#
# Stress axis : x y z
#
# Youngs Moduli (GPa) = 119.45496 99.87860 13.43768
#
# Poissons Ratio (x) = 0.53120 0.03109
# Poissons Ratio (y) = 0.63531 0.00281
# Poissons Ratio (z) = 0.27638 0.02089
#
# Static dielectric constant tensor:
#      x y z
#    x 3.906700 0.000000 0.000000 
#    y 0.000000 3.767700 0.000000 
#    z 0.000000 0.000000 2.863520 
# 
# 
# High freq. dielectric constant tensor:
#      x y z
#    x 1.803790 0.000000 0.000000 
#    y 0.000000 1.787960 0.000000 
#    z 0.000000 0.000000 1.712900 
# 
# From -- ./inp_files/23007.got.cif
#   From: 2010.03.12/outbox.cif.g09.slc.cpg/sg57_12_cif.got.tgz:23007.got - 2010.04.16 15:48:40.
