data_PCOD8232834
_publ_section_title
;
Structure prediction by ZEFSAII (Michael W. Deem and Ramdas Pophale) SiO2 
 PCOD8232834
Probable space group: P B C M
;
_chemical_formula_sum "Si O2"
_cell_formula_units_Z 56
_cell_length_a 20.805646
_cell_length_b 15.236952
_cell_length_c 9.297578
_cell_angle_alpha 90.000000
_cell_angle_beta 90.000000
_cell_angle_gamma 90.000000
_cell_volume 2947.468244
_symmetry_space_group_name_H-M "P B C M"
_symmetry_group_IT_number 57
_symmetry_cell_setting 'orthorhombic'
loop_
_space_group_symop_operation_xyz
x,y,z
-x,-y,1/2+z
x,1/2-y,-z
-x,1/2+y,1/2-z
-x,-y,-z
x,y,1/2-z
-x,1/2+y,z
x,1/2-y,1/2+z
loop_
_atom_site_type_symbol
_atom_site_label
_atom_site_fract_x
_atom_site_fract_y
_atom_site_fract_z
Si Si1 0.463953 0.575420 0.415022
Si Si2 0.990027 0.588787 0.584456
Si Si3 0.875307 0.165163 0.915913
Si Si4 0.793092 0.999160 0.917455
Si Si5 0.410830 0.166972 0.412572
Si Si6 0.354193 0.516839 0.583728
Si Si7 0.147859 0.160228 0.578669
O O1 0.500000 0.500000 0.500000
O O2 0.453075 0.547902 0.250000
O O3 0.511244 0.659335 0.424863
O O4 0.394494 0.589073 0.491446
O O5 0.986777 0.561458 0.750000
O O6 0.925384 0.637607 0.536040
O O7 0.000000 0.500000 0.500000
O O8 0.048995 0.654091 0.554147
O O9 0.859821 0.181420 0.750000
O O10 0.838949 0.077931 0.969365
O O11 0.849708 0.250000 0.000000
O O12 0.805256 0.974944 0.750000
O O13 0.720737 0.031851 0.942714
O O14 0.806195 0.915387 0.016871
O O15 0.385733 0.250000 0.500000
O O16 0.389412 0.183353 0.250000
O O17 0.374687 0.080181 0.470101
O O18 0.373239 0.528716 0.750000
O O19 0.167281 0.250000 0.500000
O O20 0.157315 0.169081 0.750000
#
# Coordination Sequence:
#
# PCOD8232834 Si02
#       7
#     8   8   8   8   8   8   8
#     4   9  17  31  51  75 101 131 169 212 255 307
#     4  10  20  35  57  84 110 141 183 232 287 341
#     4  10  21  37  58  82 108 143 185 232 287 340
#     4  10  21  39  59  79 111 151 190 234 282 335
#     4   9  18  31  49  76 105 132 169 213 260 312
#     4   9  19  35  54  76 104 141 180 219 267 321
#     4  11  23  37  56  83 114 149 188 233 284 340
#
# _framework density 18.999357
#
# number of rings (size 3 to 8) (size 9 to 14) (size 15 to 20)
#    0.000    2.286    1.429    2.143    0.000    5.714 
#    0.000    2.143    0.000    3.429    0.000    0.000 
#    0.000    0.000    0.000    0.000    0.000    0.000 
#
# Total GULP energy -694323.051115 kJ/mol
# GULP energy per Si atom -12398.625913 kJ/mol
# Density = 1.895611 g / cm^3
# Si number density = 18.999357 Si / 1000 Ang^3
#
#
#
# Elastic Constant Matrix: (Units=GPa)
#
#
# Indices 1 2 3 4 5 6 
#
# 1 66.7369 -4.3851 17.9969 0.0000 0.0000 0.0000
# 2 -4.3851 67.0942 30.2943 0.0000 0.0000 0.0000
# 3 17.9969 30.2943 69.7061 0.0000 0.0000 0.0000
# 4 0.0000 0.0000 0.0000 35.6750 0.0000 0.0000
# 5 0.0000 0.0000 0.0000 0.0000 27.9653 0.0000
# 6 0.0000 0.0000 0.0000 0.0000 0.0000 15.5838
#
#
#
# Elastic Compliance Matrix: (Units=1/GPa)
#
#
# Indices 1 2 3 4 5 6 
#
# 1 0.016856 0.003815 -0.006010 0.000000 0.000000 0.000000
# 2 0.003815 0.019407 -0.009419 0.000000 0.000000 0.000000
# 3 -0.006010 -0.009419 0.019991 0.000000 0.000000 0.000000
# 4 0.000000 0.000000 0.000000 0.028031 0.000000 0.000000
# 5 0.000000 0.000000 0.000000 0.000000 0.035759 0.000000
# 6 0.000000 0.000000 0.000000 0.000000 0.000000 0.064169
#
#
# Mechanical properties :
#
#
# Convention : Reuss Voigt Hill
#
# Bulk Modulus (GPa) = 30.27943 32.37217 31.32580
# Shear Modulus (GPa) = 22.88870 26.48689 24.68780
#
# Velocity S-wave (km/s) = 3.47466 3.73781 3.60863
# Velocity P-wave (km/s) = 5.66298 5.97527 5.82122
#
# Compressibility (1/GPa) = 0.03302572
#
# Stress axis : x y z
#
# Youngs Moduli (GPa) = 59.32748 51.52862 50.02209
#
# Poissons Ratio (x) = -0.19659 0.30063
# Poissons Ratio (y) = -0.22635 0.47117
# Poissons Ratio (z) = 0.35655 0.48536
#
# Static dielectric constant tensor:
#      x y z
#    x 3.782040 0.000000 0.000000 
#    y 0.000000 3.291310 0.000000 
#    z 0.000000 0.000000 3.575430 
# 
# 
# High freq. dielectric constant tensor:
#      x y z
#    x 1.738720 0.000000 0.000000 
#    y 0.000000 1.718660 0.000000 
#    z 0.000000 0.000000 1.738180 
# 
# From -- ./inp_files/8135.got.cif
#   From: 2010.03.12/outbox.cif.g09.slc.cpg/sg57_5_cif.got.tgz:8135.got - 2010.04.16 15:48:40.
