data_PCOD8232639
_publ_section_title
;
Structure prediction by ZEFSAII (Michael W. Deem and Ramdas Pophale) SiO2 
 PCOD8232639
Probable space group: P B C M
;
_chemical_formula_sum "Si O2"
_cell_formula_units_Z 40
_cell_length_a 25.057338
_cell_length_b 9.692642
_cell_length_c 8.991019
_cell_angle_alpha 90.000000
_cell_angle_beta 90.000000
_cell_angle_gamma 90.000000
_cell_volume 2183.665029
_symmetry_space_group_name_H-M "P B C M"
_symmetry_group_IT_number 57
_symmetry_cell_setting 'orthorhombic'
loop_
_space_group_symop_operation_xyz
x,y,z
-x,-y,1/2+z
x,1/2-y,-z
-x,1/2+y,1/2-z
-x,-y,-z
x,y,1/2-z
-x,1/2+y,z
x,1/2-y,1/2+z
loop_
_atom_site_type_symbol
_atom_site_label
_atom_site_fract_x
_atom_site_fract_y
_atom_site_fract_z
Si Si1 0.960349 0.895530 0.576098
Si Si2 0.839893 0.607527 0.422329
Si Si3 0.634909 0.390290 0.422836
Si Si4 0.755525 0.110263 0.574508
Si Si5 0.543538 0.598717 0.426550
O O1 0.969842 0.750000 0.500000
O O2 0.973186 0.882965 0.750000
O O3 0.899825 0.947138 0.547832
O O4 0.000000 0.000000 0.500000
O O5 0.828926 0.750000 0.500000
O O6 0.830051 0.631856 0.250000
O O7 0.796387 0.502815 0.487931
O O8 0.613583 0.250000 0.500000
O O9 0.632268 0.356652 0.250000
O O10 0.695055 0.426212 0.474536
O O11 0.599781 0.524333 0.461757
O O12 0.774623 0.250000 0.500000
O O13 0.760258 0.126017 0.750000
O O14 0.542925 0.750000 0.500000
O O15 0.500000 0.500000 0.500000
O O16 0.533270 0.612969 0.250000
#
# Coordination Sequence:
#
# PCOD8232639 Si02
#       5
#     8   8   8   8   8
#     4  10  20  35  53  75 102 135 172 213 259 309
#     4   9  19  34  52  74 102 133 168 208 253 303
#     4   9  19  35  55  77 104 136 171 211 256 303
#     4   9  18  34  53  76 104 134 169 210 253 302
#     4  11  23  38  56  80 108 140 176 216 260 309
#
# _framework density 18.317827000000001
#
# number of rings (size 3 to 8) (size 9 to 14) (size 15 to 20)
#    0.000    2.400    0.000    1.800    0.000    6.400 
#    0.000    2.000    0.000    0.000    0.000    0.000 
#    0.000    0.000    0.000    0.000    0.000    0.000 
#
# Total GULP energy -495948.629753 kJ/mol
# GULP energy per Si atom -12398.715744 kJ/mol
# Density = 1.827614 g / cm^3
# Si number density = 18.317827 Si / 1000 Ang^3
#
#
#
# Elastic Constant Matrix: (Units=GPa)
#
#
# Indices 1 2 3 4 5 6 
#
# 1 122.9474 98.5283 57.7331 0.0000 0.0000 0.0000
# 2 98.5283 149.8868 68.5644 0.0000 0.0000 0.0000
# 3 57.7331 68.5644 73.8044 0.0000 0.0000 0.0000
# 4 0.0000 0.0000 0.0000 38.1153 0.0000 0.0000
# 5 0.0000 0.0000 0.0000 0.0000 22.4660 0.0000
# 6 0.0000 0.0000 0.0000 0.0000 0.0000 38.4592
#
#
#
# Elastic Compliance Matrix: (Units=1/GPa)
#
#
# Indices 1 2 3 4 5 6 
#
# 1 0.018382 -0.009575 -0.005484 0.000000 0.000000 0.000000
# 2 -0.009575 0.016589 -0.007922 0.000000 0.000000 0.000000
# 3 -0.005484 -0.007922 0.025199 0.000000 0.000000 0.000000
# 4 0.000000 0.000000 0.000000 0.026236 0.000000 0.000000
# 5 0.000000 0.000000 0.000000 0.000000 0.044512 0.000000
# 6 0.000000 0.000000 0.000000 0.000000 0.000000 0.026002
#
#
# Mechanical properties :
#
#
# Convention : Reuss Voigt Hill
#
# Bulk Modulus (GPa) = 70.38035 88.47669 79.42852
# Shear Modulus (GPa) = 24.08284 27.92896 26.00590
#
# Velocity S-wave (km/s) = 3.62984 3.90896 3.77198
# Velocity P-wave (km/s) = 7.48818 8.29331 7.90101
#
# Compressibility (1/GPa) = 0.01420851
#
# Stress axis : x y z
#
# Youngs Moduli (GPa) = 54.40199 60.27977 39.68446
#
# Poissons Ratio (x) = 0.57715 0.21764
# Poissons Ratio (y) = 0.52087 0.31438
# Poissons Ratio (z) = 0.29835 0.47753
#
# Static dielectric constant tensor:
#      x y z
#    x 3.734330 0.000000 0.000000 
#    y 0.000000 3.436520 0.000000 
#    z 0.000000 0.000000 3.420670 
# 
# 
# High freq. dielectric constant tensor:
#      x y z
#    x 1.720860 0.000000 0.000000 
#    y 0.000000 1.709720 0.000000 
#    z 0.000000 0.000000 1.713450 
# 
# From -- ./inp_files/8850.got.cif
#   From: 2010.03.12/outbox.cif.g09.slc.cpg/sg57_5_cif.got.tgz:8850.got - 2010.04.16 15:48:40.
