data_PCOD8232999
_publ_section_title
;
Structure prediction by ZEFSAII (Michael W. Deem and Ramdas Pophale) SiO2 
 PCOD8232999
Probable space group: P B C M
;
_chemical_formula_sum "Si O2"
_cell_formula_units_Z 64
_cell_length_a 23.782782
_cell_length_b 15.207978
_cell_length_c 8.727559
_cell_angle_alpha 90.000000
_cell_angle_beta 90.000000
_cell_angle_gamma 90.000000
_cell_volume 3156.653582
_symmetry_space_group_name_H-M "P B C M"
_symmetry_group_IT_number 57
_symmetry_cell_setting 'orthorhombic'
loop_
_space_group_symop_operation_xyz
x,y,z
-x,-y,1/2+z
x,1/2-y,-z
-x,1/2+y,1/2-z
-x,-y,-z
x,y,1/2-z
-x,1/2+y,z
x,1/2-y,1/2+z
loop_
_atom_site_type_symbol
_atom_site_label
_atom_site_fract_x
_atom_site_fract_y
_atom_site_fract_z
Si Si1 0.239161 0.837121 0.931067
Si Si2 0.110911 0.432466 0.924395
Si Si3 0.579021 0.517408 0.430050
Si Si4 0.492870 0.849606 0.068633
Si Si5 0.700072 0.987609 0.431133
Si Si6 0.000369 0.839600 0.930659
Si Si7 0.879393 0.108425 0.071410
Si Si8 0.776853 0.841613 0.573509
O O1 0.238648 0.833212 0.750000
O O2 0.275189 0.919418 0.986833
O O3 0.174864 0.841171 0.995647
O O4 0.267771 0.750000 0.000000
O O5 0.110371 0.467559 0.750000
O O6 0.155638 0.353520 0.940384
O O7 0.047785 0.408397 0.976657
O O8 0.131610 0.506768 0.039220
O O9 0.571166 0.530406 0.250000
O O10 0.556752 0.419325 0.478070
O O11 0.548652 0.600356 0.511011
O O12 0.643146 0.526532 0.477318
O O13 0.496029 0.837031 0.250000
O O14 0.484934 0.750000 0.000000
O O15 0.688897 0.984934 0.250000
O O16 0.744924 0.914824 0.476843
O O17 0.004799 0.831499 0.750000
O O18 0.061304 0.862505 0.005173
O O19 0.978358 0.750000 0.000000
O O20 0.883550 0.124659 0.250000
O O21 0.759521 0.750000 0.500000
O O22 0.757478 0.845114 0.750000
#
# Coordination Sequence:
#
# PCOD8232999 Si02
#       8
#     8   8   8   8   8   8   8   8
#     4  10  22  38  58  84 114 153 198 245 299 356
#     4  10  21  36  55  81 109 143 188 238 296 361
#     4  10  22  40  63  93 128 165 207 251 297 347
#     4  10  21  39  65  96 131 169 206 247 294 346
#     4  11  23  41  62  87 122 160 204 252 300 352
#     4  10  21  35  52  78 109 141 184 235 292 359
#     4  10  20  36  56  79 109 145 188 238 295 358
#     4  11  23  39  60  85 115 153 198 248 303 363
#
# _framework density 20.274635
#
# number of rings (size 3 to 8) (size 9 to 14) (size 15 to 20)
#    0.000    1.750    1.250    2.625    0.000    5.500 
#    0.000    5.000    0.000    0.000    0.000    0.000 
#    0.000    0.000    0.000    0.000    0.000    0.000 
#
# Total GULP energy -793309.244574 kJ/mol
# GULP energy per Si atom -12395.456946 kJ/mol
# Density = 2.022849 g / cm^3
# Si number density = 20.274635 Si / 1000 Ang^3
#
#
#
# Elastic Constant Matrix: (Units=GPa)
#
#
# Indices 1 2 3 4 5 6 
#
# 1 86.8222 11.4252 15.5666 0.0000 0.0000 0.0000
# 2 11.4252 114.0433 22.6596 0.0000 0.0000 0.0000
# 3 15.5666 22.6596 29.4882 0.0000 0.0000 0.0000
# 4 0.0000 0.0000 0.0000 37.0068 0.0000 0.0000
# 5 0.0000 0.0000 0.0000 0.0000 16.7550 0.0000
# 6 0.0000 0.0000 0.0000 0.0000 0.0000 10.9936
#
#
#
# Elastic Compliance Matrix: (Units=1/GPa)
#
#
# Indices 1 2 3 4 5 6 
#
# 1 0.012722 0.000071 -0.006770 0.000000 0.000000 0.000000
# 2 0.000071 0.010349 -0.007990 0.000000 0.000000 0.000000
# 3 -0.006770 -0.007990 0.043625 0.000000 0.000000 0.000000
# 4 0.000000 0.000000 0.000000 0.027022 0.000000 0.000000
# 5 0.000000 0.000000 0.000000 0.000000 0.059684 0.000000
# 6 0.000000 0.000000 0.000000 0.000000 0.000000 0.090962
#
#
# Mechanical properties :
#
#
# Convention : Reuss Voigt Hill
#
# Bulk Modulus (GPa) = 26.79678 36.62850 31.71264
# Shear Modulus (GPa) = 17.47135 24.99791 21.23463
#
# Velocity S-wave (km/s) = 2.93872 3.51517 3.23979
# Velocity P-wave (km/s) = 4.97597 5.88053 5.44706
#
# Compressibility (1/GPa) = 0.03731792
#
# Stress axis : x y z
#
# Youngs Moduli (GPa) = 78.60175 96.62736 22.92239
#
# Poissons Ratio (x) = -0.00683 0.15519
# Poissons Ratio (y) = -0.00555 0.18314
# Poissons Ratio (z) = 0.53216 0.77203
#
# Static dielectric constant tensor:
#      x y z
#    x 3.846130 0.000000 0.000000 
#    y 0.000000 3.880310 0.000000 
#    z 0.000000 0.000000 3.551040 
# 
# 
# High freq. dielectric constant tensor:
#      x y z
#    x 1.794960 0.000000 0.000000 
#    y 0.000000 1.796640 0.000000 
#    z 0.000000 0.000000 1.786590 
# 
# From -- ./inp_files/9298.got.cif
#   From: 2010.03.12/outbox.cif.g09.slc.cpg/sg57_5_cif.got.tgz:9298.got - 2010.04.16 15:48:40.
