data_PCOD8232554
_publ_section_title
;
Structure prediction by ZEFSAII (Michael W. Deem and Ramdas Pophale) SiO2 
 PCOD8232554
Probable space group: P B C M
;
_chemical_formula_sum "Si O2"
_cell_formula_units_Z 48
_cell_length_a 31.230218
_cell_length_b 9.116099
_cell_length_c 8.676473
_cell_angle_alpha 90.000000
_cell_angle_beta 90.000000
_cell_angle_gamma 90.000000
_cell_volume 2470.172420
_symmetry_space_group_name_H-M "P B C M"
_symmetry_group_IT_number 57
_symmetry_cell_setting 'orthorhombic'
loop_
_space_group_symop_operation_xyz
x,y,z
-x,-y,1/2+z
x,1/2-y,-z
-x,1/2+y,1/2-z
-x,-y,-z
x,y,1/2-z
-x,1/2+y,z
x,1/2-y,1/2+z
loop_
_atom_site_type_symbol
_atom_site_label
_atom_site_fract_x
_atom_site_fract_y
_atom_site_fract_z
Si Si1 0.713524 0.410600 0.568971
Si Si2 0.380071 0.590525 0.069105
Si Si3 0.039617 0.588091 0.066820
Si Si4 0.798312 0.410387 0.429738
Si Si5 0.460943 0.089805 0.566987
Si Si6 0.117593 0.411538 0.931919
O O1 0.713894 0.250000 0.500000
O O2 0.720401 0.405656 0.750000
O O3 0.666822 0.478258 0.526095
O O4 0.754827 0.489633 0.493834
O O5 0.383750 0.611472 0.250000
O O6 0.416528 0.481455 0.008091
O O7 0.387548 0.750000 0.000000
O O8 0.036585 0.594042 0.250000
O O9 0.038622 0.750000 0.000000
O O10 0.083018 0.510866 0.016170
O O11 0.000000 0.500000 0.000000
O O12 0.806904 0.250000 0.500000
O O13 0.793401 0.387654 0.250000
O O14 0.836569 0.519350 0.471794
O O15 0.463458 0.250000 0.500000
O O16 0.463933 0.093630 0.750000
O O17 0.500000 0.000000 0.500000
O O18 0.108406 0.408038 0.750000
O O19 0.115498 0.250000 0.000000
#
# Coordination Sequence:
#
# PCOD8232554 Si02
#       6
#     8   8   8   8   8   8
#     4   9  16  29  51  78 108 142 181 225 273 326
#     4   9  19  34  54  80 109 141 179 224 273 328
#     4  12  25  43  66  92 122 155 193 236 284 337
#     4  10  20  34  55  83 113 146 187 233 280 331
#     4  11  23  39  57  80 109 142 182 226 276 331
#     4  11  24  41  60  85 117 154 195 238 287 339
#
# _framework density 19.431843000000001
#
# number of rings (size 3 to 8) (size 9 to 14) (size 15 to 20)
#    0.000    1.667    0.000    6.000    0.000    7.333 
#    0.000    0.833    0.000    4.000    0.000    0.000 
#    0.000    0.000    0.000    0.000    0.000    0.000 
#
# Total GULP energy -595065.000434 kJ/mol
# GULP energy per Si atom -12397.187509 kJ/mol
# Density = 1.938762 g / cm^3
# Si number density = 19.431843 Si / 1000 Ang^3
#
#
#
# Elastic Constant Matrix: (Units=GPa)
#
#
# Indices 1 2 3 4 5 6 
#
# 1 192.7055 87.0430 80.9944 0.0000 0.0000 0.0000
# 2 87.0430 136.6822 55.9620 0.0000 0.0000 0.0000
# 3 80.9944 55.9620 114.2983 0.0000 0.0000 0.0000
# 4 0.0000 0.0000 0.0000 31.2280 0.0000 0.0000
# 5 0.0000 0.0000 0.0000 0.0000 29.9422 0.0000
# 6 0.0000 0.0000 0.0000 0.0000 0.0000 24.5725
#
#
#
# Elastic Compliance Matrix: (Units=1/GPa)
#
#
# Indices 1 2 3 4 5 6 
#
# 1 0.008714 -0.003778 -0.004325 0.000000 0.000000 0.000000
# 2 -0.003778 0.010789 -0.002605 0.000000 0.000000 0.000000
# 3 -0.004325 -0.002605 0.013089 0.000000 0.000000 0.000000
# 4 0.000000 0.000000 0.000000 0.032023 0.000000 0.000000
# 5 0.000000 0.000000 0.000000 0.000000 0.033398 0.000000
# 6 0.000000 0.000000 0.000000 0.000000 0.000000 0.040696
#
#
# Mechanical properties :
#
#
# Convention : Reuss Voigt Hill
#
# Bulk Modulus (GPa) = 89.48155 99.07610 94.27883
# Shear Modulus (GPa) = 30.51587 31.79430 31.15509
#
# Velocity S-wave (km/s) = 3.96713 4.04938 4.00847
# Velocity P-wave (km/s) = 8.19348 8.54169 8.36940
#
# Compressibility (1/GPa) = 0.01117549
#
# Stress axis : x y z
#
# Youngs Moduli (GPa) = 114.76303 92.68711 76.39966
#
# Poissons Ratio (x) = 0.35021 0.33041
# Poissons Ratio (y) = 0.43362 0.19902
# Poissons Ratio (z) = 0.49632 0.24145
#
# Static dielectric constant tensor:
#      x y z
#    x 4.482740 0.000000 0.000000 
#    y 0.000000 3.503950 0.000000 
#    z 0.000000 0.000000 3.722660 
# 
# 
# High freq. dielectric constant tensor:
#      x y z
#    x 1.787190 0.000000 0.000000 
#    y 0.000000 1.735070 0.000000 
#    z 0.000000 0.000000 1.771400 
# 
# From -- ./inp_files/9957.got.cif
#   From: 2010.03.12/outbox.cif.g09.slc.cpg/sg57_5_cif.got.tgz:9957.got - 2010.04.16 15:48:40.
