data_PCOD8232454
_publ_section_title
;
Structure prediction by ZEFSAII (Michael W. Deem and Ramdas Pophale) SiO2 
 PCOD8232454
Probable space group: P B C M
;
_chemical_formula_sum "Si O2"
_cell_formula_units_Z 56
_cell_length_a 15.424758
_cell_length_b 19.751800
_cell_length_c 9.244868
_cell_angle_alpha 90.000000
_cell_angle_beta 90.000000
_cell_angle_gamma 90.000000
_cell_volume 2816.603750
_symmetry_space_group_name_H-M "P B C M"
_symmetry_group_IT_number 57
_symmetry_cell_setting 'orthorhombic'
loop_
_space_group_symop_operation_xyz
x,y,z
-x,-y,1/2+z
x,1/2-y,-z
-x,1/2+y,1/2-z
-x,-y,-z
x,y,1/2-z
-x,1/2+y,z
x,1/2-y,1/2+z
loop_
_atom_site_type_symbol
_atom_site_label
_atom_site_fract_x
_atom_site_fract_y
_atom_site_fract_z
Si Si1 0.842826 0.412638 0.415014
Si Si2 0.504542 0.814961 0.082608
Si Si3 0.035145 0.682555 0.080528
Si Si4 0.748570 0.955216 0.918574
Si Si5 0.309037 0.685893 0.583751
Si Si6 0.425159 0.040937 0.920496
Si Si7 0.165713 0.183877 0.417996
O O1 0.872483 0.399138 0.250000
O O2 0.828010 0.492371 0.443616
O O3 0.750091 0.378623 0.447415
O O4 0.915470 0.383485 0.521531
O O5 0.506381 0.796834 0.250000
O O6 0.406355 0.830832 0.030133
O O7 0.562732 0.879623 0.047112
O O8 0.543185 0.750000 0.000000
O O9 0.053383 0.690846 0.250000
O O10 0.934613 0.671075 0.045323
O O11 0.069425 0.750000 0.000000
O O12 0.721257 0.955686 0.750000
O O13 0.781003 0.881620 0.969556
O O14 0.667534 0.979064 0.014343
O O15 0.269864 0.750000 0.500000
O O16 0.309277 0.706225 0.750000
O O17 0.428696 0.024902 0.750000
O O18 0.500000 0.000000 0.000000
O O19 0.201355 0.250000 0.500000
O O20 0.179256 0.197470 0.250000
#
# Coordination Sequence:
#
# PCOD8232454 Si02
#       7
#     8   8   8   8   8   8   8
#     4  10  20  34  53  78 111 148 183 225 278 333
#     4   9  19  35  54  77 105 138 179 226 274 326
#     4  10  20  35  56  83 113 147 188 229 273 327
#     4  10  22  40  59  81 111 147 185 228 283 337
#     4   9  17  30  48  71 101 137 174 213 261 316
#     4  11  23  39  59  83 112 148 189 231 278 333
#     4   9  20  39  61  83 111 148 188 233 282 331
#
# _framework density 19.882100999999999
#
# number of rings (size 3 to 8) (size 9 to 14) (size 15 to 20)
#    0.000    2.286    0.000    2.143    0.000    8.000 
#    0.000    5.714    0.000    0.000    0.000    0.000 
#    0.000    0.000    0.000    0.000    0.000    0.000 
#
# Total GULP energy -694541.371092 kJ/mol
# GULP energy per Si atom -12402.524484 kJ/mol
# Density = 1.983685 g / cm^3
# Si number density = 19.882101 Si / 1000 Ang^3
#
#
#
# Elastic Constant Matrix: (Units=GPa)
#
#
# Indices 1 2 3 4 5 6 
#
# 1 66.1374 35.6527 42.2968 0.0000 0.0000 0.0000
# 2 35.6527 113.0924 52.6378 0.0000 0.0000 0.0000
# 3 42.2968 52.6378 81.8322 0.0000 0.0000 0.0000
# 4 0.0000 0.0000 0.0000 35.2399 0.0000 0.0000
# 5 0.0000 0.0000 0.0000 0.0000 28.7350 0.0000
# 6 0.0000 0.0000 0.0000 0.0000 0.0000 30.5024
#
#
#
# Elastic Compliance Matrix: (Units=1/GPa)
#
#
# Indices 1 2 3 4 5 6 
#
# 1 0.023055 -0.002457 -0.010336 0.000000 0.000000 0.000000
# 2 -0.002457 0.012883 -0.007017 0.000000 0.000000 0.000000
# 3 -0.010336 -0.007017 0.022076 0.000000 0.000000 0.000000
# 4 0.000000 0.000000 0.000000 0.028377 0.000000 0.000000
# 5 0.000000 0.000000 0.000000 0.000000 0.034801 0.000000
# 6 0.000000 0.000000 0.000000 0.000000 0.000000 0.032784
#
#
# Mechanical properties :
#
#
# Convention : Reuss Voigt Hill
#
# Bulk Modulus (GPa) = 54.36573 58.02627 56.19600
# Shear Modulus (GPa) = 25.03435 27.59380 26.31407
#
# Velocity S-wave (km/s) = 3.55229 3.72946 3.64195
# Velocity P-wave (km/s) = 6.65044 6.91330 6.78314
#
# Compressibility (1/GPa) = 0.01839394
#
# Stress axis : x y z
#
# Youngs Moduli (GPa) = 43.37518 77.62257 45.29877
#
# Poissons Ratio (x) = 0.19075 0.46819
# Poissons Ratio (y) = 0.10659 0.31784
# Poissons Ratio (z) = 0.44831 0.54465
#
# Static dielectric constant tensor:
#      x y z
#    x 3.503660 0.000000 0.000000 
#    y 0.000000 3.762440 0.000000 
#    z 0.000000 0.000000 3.555240 
# 
# 
# High freq. dielectric constant tensor:
#      x y z
#    x 1.767130 0.000000 0.000000 
#    y 0.000000 1.780480 0.000000 
#    z 0.000000 0.000000 1.769970 
# 
# From -- ./inp_files/5178.got.cif
#   From: 2010.03.12/outbox.cif.g09.slc.cpg/sg57_3_cif.got.tgz:5178.got - 2010.04.16 15:48:40.
