data_PCOD8232658
_publ_section_title
;
Structure prediction by ZEFSAII (Michael W. Deem and Ramdas Pophale) SiO2 
 PCOD8232658
Probable space group: P B C M
;
_chemical_formula_sum "Si O2"
_cell_formula_units_Z 64
_cell_length_a 15.867942
_cell_length_b 23.147796
_cell_length_c 8.805345
_cell_angle_alpha 90.000000
_cell_angle_beta 90.000000
_cell_angle_gamma 90.000000
_cell_volume 3234.272643
_symmetry_space_group_name_H-M "P B C M"
_symmetry_group_IT_number 57
_symmetry_cell_setting 'orthorhombic'
loop_
_space_group_symop_operation_xyz
x,y,z
-x,-y,1/2+z
x,1/2-y,-z
-x,1/2+y,1/2-z
-x,-y,-z
x,y,1/2-z
-x,1/2+y,z
x,1/2-y,1/2+z
loop_
_atom_site_type_symbol
_atom_site_label
_atom_site_fract_x
_atom_site_fract_y
_atom_site_fract_z
Si Si1 0.895644 0.035401 0.573233
Si Si2 0.665702 0.193767 0.075623
Si Si3 0.526213 0.808968 0.930558
Si Si4 0.409531 0.491186 0.924067
Si Si5 0.821448 0.814625 0.931595
Si Si6 0.953490 0.911007 0.570609
Si Si7 0.335858 0.383542 0.069575
Si Si8 0.278237 0.913274 0.080319
O O1 0.916347 0.038108 0.750000
O O2 0.798732 0.045908 0.534551
O O3 0.951678 0.085970 0.494717
O O4 0.911317 0.970627 0.510261
O O5 0.666743 0.206250 0.250000
O O6 0.570370 0.183456 0.019406
O O7 0.705975 0.250000 0.000000
O O8 0.722615 0.139421 0.035702
O O9 0.540223 0.811014 0.750000
O O10 0.563146 0.750000 0.000000
O O11 0.574514 0.859538 0.015422
O O12 0.420885 0.469716 0.750000
O O13 0.365865 0.553221 0.930300
O O14 0.500000 0.500000 0.000000
O O15 0.344035 0.449419 0.012954
O O16 0.815770 0.809591 0.750000
O O17 0.901354 0.854258 0.984045
O O18 0.829760 0.750000 0.000000
O O19 0.738377 0.847292 0.990510
O O20 0.956802 0.909655 0.750000
O O21 0.324320 0.380617 0.250000
O O22 0.265483 0.888845 0.250000
#
# Coordination Sequence:
#
# PCOD8232658 Si02
#       8
#     8   8   8   8   8   8   8   8
#     4   9  18  35  60  87 112 142 181 226 279 337
#     4  10  21  36  56  79 105 139 180 225 271 321
#     4  10  20  35  54  76 104 141 186 234 281 328
#     4  11  23  39  58  83 118 157 196 241 293 344
#     4  11  23  40  60  84 118 156 195 239 292 353
#     4   9  19  37  60  85 113 145 181 226 282 340
#     4  12  24  37  55  81 113 151 195 238 285 341
#     4  10  21  37  57  81 112 147 182 224 275 330
#
# _framework density 19.788066000000001
#
# number of rings (size 3 to 8) (size 9 to 14) (size 15 to 20)
#    0.000    1.750    0.000    4.500    0.000    8.000 
#    0.000    3.125    0.000    1.500    0.000    0.000 
#    0.000    0.000    0.000    0.000    0.000    0.000 
#
# Total GULP energy -793451.922585 kJ/mol
# GULP energy per Si atom -12397.686290 kJ/mol
# Density = 1.974303 g / cm^3
# Si number density = 19.788066 Si / 1000 Ang^3
#
#
#
# Elastic Constant Matrix: (Units=GPa)
#
#
# Indices 1 2 3 4 5 6 
#
# 1 88.0174 39.1611 32.6285 0.0000 0.0000 0.0000
# 2 39.1611 110.6294 39.1100 0.0000 0.0000 0.0000
# 3 32.6285 39.1100 74.5345 0.0000 0.0000 0.0000
# 4 0.0000 0.0000 0.0000 36.7415 0.0000 0.0000
# 5 0.0000 0.0000 0.0000 0.0000 29.6586 0.0000
# 6 0.0000 0.0000 0.0000 0.0000 0.0000 33.4825
#
#
#
# Elastic Compliance Matrix: (Units=1/GPa)
#
#
# Indices 1 2 3 4 5 6 
#
# 1 0.014632 -0.003579 -0.004527 0.000000 0.000000 0.000000
# 2 -0.003579 0.011973 -0.004716 0.000000 0.000000 0.000000
# 3 -0.004527 -0.004716 0.017873 0.000000 0.000000 0.000000
# 4 0.000000 0.000000 0.000000 0.027217 0.000000 0.000000
# 5 0.000000 0.000000 0.000000 0.000000 0.033717 0.000000
# 6 0.000000 0.000000 0.000000 0.000000 0.000000 0.029866
#
#
# Mechanical properties :
#
#
# Convention : Reuss Voigt Hill
#
# Bulk Modulus (GPa) = 53.09594 54.99783 54.04689
# Shear Modulus (GPa) = 29.90402 30.79530 30.34966
#
# Velocity S-wave (km/s) = 3.89165 3.94922 3.92054
# Velocity P-wave (km/s) = 6.86177 6.97488 6.91855
#
# Compressibility (1/GPa) = 0.01883383
#
# Stress axis : x y z
#
# Youngs Moduli (GPa) = 68.34281 83.51930 55.95004
#
# Poissons Ratio (x) = 0.29892 0.25331
# Poissons Ratio (y) = 0.24460 0.26385
# Poissons Ratio (z) = 0.30942 0.39387
#
# Static dielectric constant tensor:
#      x y z
#    x 3.583130 0.000000 0.000000 
#    y 0.000000 8.425820 0.000000 
#    z 0.000000 0.000000 3.621800 
# 
# 
# High freq. dielectric constant tensor:
#      x y z
#    x 1.762900 0.000000 0.000000 
#    y 0.000000 1.774660 0.000000 
#    z 0.000000 0.000000 1.774050 
# 
# From -- ./inp_files/5639.got.cif
#   From: 2010.03.12/outbox.cif.g09.slc.cpg/sg57_3_cif.got.tgz:5639.got - 2010.04.16 15:48:40.
