data_PCOD8232684
_publ_section_title
;
Structure prediction by ZEFSAII (Michael W. Deem and Ramdas Pophale) SiO2 
 PCOD8232684
Probable space group: P B C M
;
_chemical_formula_sum "Si O2"
_cell_formula_units_Z 48
_cell_length_a 29.262820
_cell_length_b 8.850892
_cell_length_c 9.726317
_cell_angle_alpha 90.000000
_cell_angle_beta 90.000000
_cell_angle_gamma 90.000000
_cell_volume 2519.136134
_symmetry_space_group_name_H-M "P B C M"
_symmetry_group_IT_number 57
_symmetry_cell_setting 'orthorhombic'
loop_
_space_group_symop_operation_xyz
x,y,z
-x,-y,1/2+z
x,1/2-y,-z
-x,1/2+y,1/2-z
-x,-y,-z
x,y,1/2-z
-x,1/2+y,z
x,1/2-y,1/2+z
loop_
_atom_site_type_symbol
_atom_site_label
_atom_site_fract_x
_atom_site_fract_y
_atom_site_fract_z
Si Si1 0.597775 0.429717 0.985624
Si Si2 0.965896 0.400778 0.588300
Si Si3 0.214667 0.107411 0.907890
Si Si4 0.558343 0.567749 0.250000
Si Si5 0.134845 0.608103 0.094886
Si Si6 0.460585 0.426727 0.250000
Si Si7 0.682795 0.894270 0.093342
O O1 0.589691 0.522475 0.123223
O O2 0.591906 0.250000 0.000000
O O3 0.560502 0.494190 0.882029
O O4 0.649062 0.466529 0.936567
O O5 0.964050 0.250000 0.500000
O O6 0.981288 0.377933 0.750000
O O7 0.914863 0.473907 0.587128
O O8 0.000000 0.500000 0.500000
O O9 0.206800 0.152654 0.750000
O O10 0.265882 0.043260 0.931490
O O11 0.176253 0.992980 0.959044
O O12 0.206763 0.250000 0.000000
O O13 0.514053 0.461240 0.250000
O O14 0.546925 0.746045 0.250000
O O15 0.144644 0.661103 0.250000
O O16 0.134290 0.750000 0.000000
O O17 0.676305 0.839801 0.250000
O O18 0.671402 0.750000 0.000000
#
# Coordination Sequence:
#
# PCOD8232684 Si02
#       7
#     8   8   8   4   8   4   8
#     4  12  25  41  62  92 122 154 195 242 289 344
#     4  10  20  35  54  79 110 149 193 241 295 353
#     4   9  19  36  57  83 113 147 187 233 281 338
#     4  12  26  42  68  90 120 160 194 240 287 346
#     4   9  19  35  55  79 111 148 189 236 288 344
#     4  12  24  46  64  90 122 156 198 236 291 344
#     4  10  21  39  62  86 116 153 192 236 289 346
#
# _framework density 19.054151999999998
#
# number of rings (size 3 to 8) (size 9 to 14) (size 15 to 20)
#    0.000    1.667    0.833    4.000    1.167    2.667 
#    0.000    1.667    0.000    0.000    0.000    0.000 
#    0.000    0.000    0.000    0.000    0.000    0.000 
#
# Total GULP energy -594947.885670 kJ/mol
# GULP energy per Si atom -12394.747618 kJ/mol
# Density = 1.901078 g / cm^3
# Si number density = 19.054152 Si / 1000 Ang^3
#
#
#
# Elastic Constant Matrix: (Units=GPa)
#
#
# Indices 1 2 3 4 5 6 
#
# 1 123.2913 47.9918 43.2831 0.0000 0.0000 0.0000
# 2 47.9918 100.2497 33.7247 0.0000 0.0000 0.0000
# 3 43.2831 33.7247 107.0441 0.0000 0.0000 0.0000
# 4 0.0000 0.0000 0.0000 31.3590 0.0000 0.0000
# 5 0.0000 0.0000 0.0000 0.0000 29.9994 0.0000
# 6 0.0000 0.0000 0.0000 0.0000 0.0000 41.5111
#
#
#
# Elastic Compliance Matrix: (Units=1/GPa)
#
#
# Indices 1 2 3 4 5 6 
#
# 1 0.010797 -0.004139 -0.003062 0.000000 0.000000 0.000000
# 2 -0.004139 0.012744 -0.002342 0.000000 0.000000 0.000000
# 3 -0.003062 -0.002342 0.011318 0.000000 0.000000 0.000000
# 4 0.000000 0.000000 0.000000 0.031889 0.000000 0.000000
# 5 0.000000 0.000000 0.000000 0.000000 0.033334 0.000000
# 6 0.000000 0.000000 0.000000 0.000000 0.000000 0.024090
#
#
# Mechanical properties :
#
#
# Convention : Reuss Voigt Hill
#
# Bulk Modulus (GPa) = 63.39351 64.50938 63.95144
# Shear Modulus (GPa) = 33.66699 34.27959 33.97329
#
# Velocity S-wave (km/s) = 4.20802 4.24614 4.22712
# Velocity P-wave (km/s) = 7.54668 7.61373 7.58028
#
# Compressibility (1/GPa) = 0.01577449
#
# Stress axis : x y z
#
# Youngs Moduli (GPa) = 92.62058 78.46769 88.35722
#
# Poissons Ratio (x) = 0.32475 0.27053
# Poissons Ratio (y) = 0.38332 0.20690
# Poissons Ratio (z) = 0.28358 0.18374
#
# Static dielectric constant tensor:
#      x y z
#    x 4.052390 0.000000 0.000000 
#    y 0.000000 3.289090 0.000000 
#    z 0.000000 0.000000 3.701090 
# 
# 
# High freq. dielectric constant tensor:
#      x y z
#    x 1.759790 0.000000 0.000000 
#    y 0.000000 1.720340 0.000000 
#    z 0.000000 0.000000 1.760870 
# 
# From -- ./inp_files/10103.got.cif
#   From: 2010.03.12/outbox.cif.g09.slc.cpg/sg57_6_cif.got.tgz:10103.got - 2010.04.16 15:48:40.
