data_PCOD8232266
_publ_section_title
;
Structure prediction by ZEFSAII (Michael W. Deem and Ramdas Pophale) SiO2 
 PCOD8232266
Probable space group: P B C M
;
_chemical_formula_sum "Si O2"
_cell_formula_units_Z 56
_cell_length_a 20.790404
_cell_length_b 15.133340
_cell_length_c 8.653248
_cell_angle_alpha 90.000000
_cell_angle_beta 90.000000
_cell_angle_gamma 90.000000
_cell_volume 2722.556296
_symmetry_space_group_name_H-M "P B C M"
_symmetry_group_IT_number 57
_symmetry_cell_setting 'orthorhombic'
loop_
_space_group_symop_operation_xyz
x,y,z
-x,-y,1/2+z
x,1/2-y,-z
-x,1/2+y,1/2-z
-x,-y,-z
x,y,1/2-z
-x,1/2+y,z
x,1/2-y,1/2+z
loop_
_atom_site_type_symbol
_atom_site_label
_atom_site_fract_x
_atom_site_fract_y
_atom_site_fract_z
Si Si1 0.724464 0.006735 0.927464
Si Si2 0.856341 0.424114 0.073550
Si Si3 0.509268 0.849714 0.432134
Si Si4 0.924942 0.582197 0.924779
Si Si5 0.792227 0.659101 0.929592
Si Si6 0.038018 0.665359 0.071844
Si Si7 0.410572 0.980963 0.929978
O O1 0.701366 0.004531 0.750000
O O2 0.779490 0.081938 0.954793
O O3 0.756567 0.914475 0.970523
O O4 0.664687 0.027407 0.036473
O O5 0.868596 0.453536 0.250000
O O6 0.890101 0.489607 0.952303
O O7 0.895101 0.336212 0.028135
O O8 0.518787 0.750000 0.500000
O O9 0.508559 0.836787 0.250000
O O10 0.564729 0.920892 0.483335
O O11 0.443583 0.897748 0.484458
O O12 0.950948 0.585827 0.750000
O O13 0.869284 0.655076 0.952557
O O14 0.985800 0.588530 0.040095
O O15 0.772853 0.649838 0.750000
O O16 0.766609 0.750000 0.000000
O O17 0.054273 0.672972 0.250000
O O18 0.001594 0.750000 0.000000
O O19 0.424520 0.968987 0.750000
#
# Coordination Sequence:
#
# PCOD8232266 Si02
#       7
#     8   8   8   8   8   8   8
#     4  10  21  37  58  81 110 148 188 229 274 329
#     4  10  21  38  57  78 105 139 179 222 270 325
#     4  10  21  38  62  92 124 158 195 236 282 331
#     4  10  20  35  55  78 104 137 177 223 276 335
#     4  10  20  33  51  76 108 144 184 230 282 338
#     4  12  24  37  54  76 103 135 174 225 280 332
#     4  10  21  38  61  89 123 159 195 237 283 335
#
# _framework density 20.568905999999998
#
# number of rings (size 3 to 8) (size 9 to 14) (size 15 to 20)
#    0.000    1.714    0.000    4.714    0.000    6.857 
#    0.000    2.143    0.000    3.429    0.000    0.000 
#    0.000    0.000    0.000    0.000    0.000    0.000 
#
# Total GULP energy -694007.434570 kJ/mol
# GULP energy per Si atom -12392.989903 kJ/mol
# Density = 2.052209 g / cm^3
# Si number density = 20.568906 Si / 1000 Ang^3
#
#
#
# Elastic Constant Matrix: (Units=GPa)
#
#
# Indices 1 2 3 4 5 6 
#
# 1 114.5733 20.7177 36.6317 0.0000 0.0000 0.0000
# 2 20.7177 75.4184 23.6028 0.0000 0.0000 0.0000
# 3 36.6317 23.6028 83.9930 0.0000 0.0000 0.0000
# 4 0.0000 0.0000 0.0000 32.4971 0.0000 0.0000
# 5 0.0000 0.0000 0.0000 0.0000 33.2624 0.0000
# 6 0.0000 0.0000 0.0000 0.0000 0.0000 14.4865
#
#
#
# Elastic Compliance Matrix: (Units=1/GPa)
#
#
# Indices 1 2 3 4 5 6 
#
# 1 0.010307 -0.001562 -0.004056 0.000000 0.000000 0.000000
# 2 -0.001562 0.014775 -0.003471 0.000000 0.000000 0.000000
# 3 -0.004056 -0.003471 0.014650 0.000000 0.000000 0.000000
# 4 0.000000 0.000000 0.000000 0.030772 0.000000 0.000000
# 5 0.000000 0.000000 0.000000 0.000000 0.030064 0.000000
# 6 0.000000 0.000000 0.000000 0.000000 0.000000 0.069030
#
#
# Mechanical properties :
#
#
# Convention : Reuss Voigt Hill
#
# Bulk Modulus (GPa) = 46.39471 48.43213 47.41342
# Shear Modulus (GPa) = 25.64624 28.91804 27.28214
#
# Velocity S-wave (km/s) = 3.53490 3.75361 3.64590
# Velocity P-wave (km/s) = 6.26621 6.51027 6.38940
#
# Compressibility (1/GPa) = 0.02155418
#
# Stress axis : x y z
#
# Youngs Moduli (GPa) = 97.01749 67.68373 68.25871
#
# Poissons Ratio (x) = 0.10572 0.27689
# Poissons Ratio (y) = 0.15154 0.23690
# Poissons Ratio (z) = 0.39354 0.23490
#
# Static dielectric constant tensor:
#      x y z
#    x 3.769380 0.000000 0.000000 
#    y 0.000000 3.953490 0.000000 
#    z 0.000000 0.000000 3.652340 
# 
# 
# High freq. dielectric constant tensor:
#      x y z
#    x 1.797150 0.000000 0.000000 
#    y 0.000000 1.795140 0.000000 
#    z 0.000000 0.000000 1.814750 
# 
# From -- ./inp_files/8147.got.cif
#   From: 2010.03.12/outbox.cif.g09.slc.cpg/sg57_5_cif.got.tgz:8147.got - 2010.04.16 15:48:40.
