data_PCOD8232036
_publ_section_title
;
Structure prediction by ZEFSAII (Michael W. Deem and Ramdas Pophale) SiO2 
 PCOD8232036
Probable space group: P B C M
;
_chemical_formula_sum "Si O2"
_cell_formula_units_Z 64
_cell_length_a 20.030416
_cell_length_b 9.138131
_cell_length_c 17.311413
_cell_angle_alpha 90.000000
_cell_angle_beta 90.000000
_cell_angle_gamma 90.000000
_cell_volume 3168.690823
_symmetry_space_group_name_H-M "P B C M"
_symmetry_group_IT_number 57
_symmetry_cell_setting 'orthorhombic'
loop_
_space_group_symop_operation_xyz
x,y,z
-x,-y,1/2+z
x,1/2-y,-z
-x,1/2+y,1/2-z
-x,-y,-z
x,y,1/2-z
-x,1/2+y,z
x,1/2-y,1/2+z
loop_
_atom_site_type_symbol
_atom_site_label
_atom_site_fract_x
_atom_site_fract_y
_atom_site_fract_z
Si Si1 0.208302 0.219363 0.086199
Si Si2 0.805393 0.030042 0.160161
Si Si3 0.555694 0.705682 0.158759
Si Si4 0.043078 0.006667 0.837791
Si Si5 0.306752 0.713840 0.410127
Si Si6 0.318271 0.473597 0.840962
Si Si7 0.944018 0.801947 0.915763
Si Si8 0.424881 0.960940 0.658085
O O1 0.215157 0.366466 0.135957
O O2 0.251823 0.091081 0.122071
O O3 0.133609 0.154494 0.084270
O O4 0.233742 0.250000 0.000000
O O5 0.787728 0.048119 0.250000
O O6 0.883598 0.057846 0.143798
O O7 0.766172 0.151712 0.111214
O O8 0.556405 0.692760 0.250000
O O9 0.617583 0.612524 0.125286
O O10 0.486446 0.637701 0.128735
O O11 0.560844 0.873055 0.132179
O O12 0.022536 0.975612 0.750000
O O13 0.988479 0.940664 0.894820
O O14 0.043029 0.179568 0.851375
O O15 0.309245 0.750000 0.500000
O O16 0.359593 0.589287 0.387617
O O17 0.324443 0.856626 0.361017
O O18 0.313637 0.454675 0.750000
O O19 0.966352 0.750000 0.000000
O O20 0.413032 0.948837 0.750000
#
# Coordination Sequence:
#
# PCOD8232036 Si02
#       8
#     8   8   8   8   8   8   8   8
#     4  10  21  38  59  86 117 150 187 232 284 342
#     4  10  21  39  59  80 110 152 193 233 285 344
#     4   9  19  35  61  90 114 146 189 234 281 337
#     4  10  21  36  57  84 113 145 190 241 285 332
#     4  12  25  39  56  83 116 151 191 240 292 340
#     4  11  22  37  58  86 115 149 195 241 282 335
#     4  10  21  37  58  83 116 154 189 227 284 348
#     4  10  19  37  61  84 113 149 188 232 283 344
#
# _framework density 20.197616
#
# number of rings (size 3 to 8) (size 9 to 14) (size 15 to 20)
#    0.000    1.750    0.000    4.500    0.000    6.000 
#    0.000    3.125    0.000    0.000    0.000    0.000 
#    0.000    0.000    0.000    0.000    0.000    0.000 
#
# Total GULP energy -793905.938280 kJ/mol
# GULP energy per Si atom -12404.780286 kJ/mol
# Density = 2.015165 g / cm^3
# Si number density = 20.197616 Si / 1000 Ang^3
#
#
#
# Elastic Constant Matrix: (Units=GPa)
#
#
# Indices 1 2 3 4 5 6 
#
# 1 77.8727 30.9087 33.3884 0.0000 0.0000 0.0000
# 2 30.9087 81.7974 6.6936 0.0000 0.0000 0.0000
# 3 33.3884 6.6936 57.4932 0.0000 0.0000 0.0000
# 4 0.0000 0.0000 0.0000 24.2749 0.0000 0.0000
# 5 0.0000 0.0000 0.0000 0.0000 -2.0264 0.0000
# 6 0.0000 0.0000 0.0000 0.0000 0.0000 64.6318
#
#
#
# Elastic Compliance Matrix: (Units=1/GPa)
#
#
# Indices 1 2 3 4 5 6 
#
# 1 0.020214 -0.006742 -0.010954 0.000000 0.000000 0.000000
# 2 -0.006742 0.014591 0.002216 0.000000 0.000000 0.000000
# 3 -0.010954 0.002216 0.023497 0.000000 0.000000 0.000000
# 4 0.000000 0.000000 0.000000 0.041195 0.000000 0.000000
# 5 0.000000 0.000000 0.000000 0.000000 -0.493487 0.000000
# 6 0.000000 0.000000 0.000000 0.000000 0.000000 0.015472
#
#
# Mechanical properties :
#
#
# Convention : Reuss Voigt Hill
#
# Bulk Modulus (GPa) = 36.57214 39.90497 38.23855
# Shear Modulus (GPa) = -14.77347 27.12091 6.17372
#
# Velocity S-wave (km/s) = -2.70746 3.66837 1.75023
# Velocity P-wave (km/s) = 2.89356 6.14351 4.80184
#
# Compressibility (1/GPa) = 0.02734322
#
# Stress axis : x y z
#
# Youngs Moduli (GPa) = 49.47054 68.53305 42.55911
#
# Poissons Ratio (x) = 0.46204 0.46620
# Poissons Ratio (y) = 0.33352 -0.09433
# Poissons Ratio (z) = 0.54190 -0.15190
#
# Static dielectric constant tensor:
#      x y z
#    x 3.791300 0.000000 0.000000 
#    y 0.000000 3.661690 0.000000 
#    z 0.000000 0.000000 3.537230 
# 
# 
# High freq. dielectric constant tensor:
#      x y z
#    x 1.798820 0.000000 0.000000 
#    y 0.000000 1.790040 0.000000 
#    z 0.000000 0.000000 1.781820 
# 
# From -- ./inp_files/23080.got.cif
#   From: 2010.03.12/outbox.cif.g09.slc.cpg/sg57_12_cif.got.tgz:23080.got - 2010.04.16 15:48:40.
