data_PCOD8232569
_publ_section_title
;
Structure prediction by ZEFSAII (Michael W. Deem and Ramdas Pophale) SiO2 
 PCOD8232569
Probable space group: P B C M
;
_chemical_formula_sum "Si O2"
_cell_formula_units_Z 48
_cell_length_a 10.875429
_cell_length_b 9.040099
_cell_length_c 25.278112
_cell_angle_alpha 90.000000
_cell_angle_beta 90.000000
_cell_angle_gamma 90.000000
_cell_volume 2485.216439
_symmetry_space_group_name_H-M "P B C M"
_symmetry_group_IT_number 57
_symmetry_cell_setting 'orthorhombic'
loop_
_space_group_symop_operation_xyz
x,y,z
-x,-y,1/2+z
x,1/2-y,-z
-x,1/2+y,1/2-z
-x,-y,-z
x,y,1/2-z
-x,1/2+y,z
x,1/2-y,1/2+z
loop_
_atom_site_type_symbol
_atom_site_label
_atom_site_fract_x
_atom_site_fract_y
_atom_site_fract_z
Si Si1 0.346019 0.982989 0.192596
Si Si2 0.842701 0.680987 0.147510
Si Si3 0.960566 0.521147 0.811601
Si Si4 0.723930 0.168815 0.308753
Si Si5 0.344255 0.243276 0.938829
Si Si6 0.537092 0.461619 0.889948
O O1 0.409447 0.993379 0.250000
O O2 0.251282 0.845136 0.190375
O O3 0.449370 0.948410 0.149448
O O4 0.275960 0.138215 0.182992
O O5 0.917153 0.816291 0.172212
O O6 0.785003 0.715777 0.090043
O O7 0.931842 0.537470 0.149355
O O8 0.002873 0.520672 0.750000
O O9 0.850276 0.409314 0.821738
O O10 0.676478 0.121102 0.250000
O O11 0.626367 0.134530 0.353894
O O12 0.455582 0.356422 0.927351
O O13 0.385173 0.077111 0.924394
O O14 0.311596 0.250000 0.000000
#
# Coordination Sequence:
#
# PCOD8232569 Si02
#       6
#     8   8   8   8   8   8
#     4  10  20  34  55  88 124 156 190 236 300 370
#     4  11  23  39  61  86 124 157 203 250 292 353
#     4  11  21  36  59  87 120 161 193 232 299 368
#     4  10  20  34  56  87 124 159 195 236 297 372
#     4  11  24  42  65  87 116 161 213 260 303 345
#     4  11  20  39  60  87 120 154 199 252 306 358
#
# _framework density 19.314212999999999
#
# number of rings (size 3 to 8) (size 9 to 14) (size 15 to 20)
#    0.000    1.333    3.333    3.500    0.000    1.333 
#    0.000    0.833    0.000    0.000    0.000    0.000 
#    0.000    0.000    0.000    0.000    0.000    0.000 
#
# Total GULP energy -594963.802457 kJ/mol
# GULP energy per Si atom -12395.079218 kJ/mol
# Density = 1.927025 g / cm^3
# Si number density = 19.314213 Si / 1000 Ang^3
#
#
#
# Elastic Constant Matrix: (Units=GPa)
#
#
# Indices 1 2 3 4 5 6 
#
# 1 79.5251 35.2254 39.9112 0.0000 0.0000 0.0000
# 2 35.2254 89.5642 43.6627 0.0000 0.0000 0.0000
# 3 39.9112 43.6627 86.9903 0.0000 0.0000 0.0000
# 4 0.0000 0.0000 0.0000 -42.4458 0.0000 0.0000
# 5 0.0000 0.0000 0.0000 0.0000 25.5787 0.0000
# 6 0.0000 0.0000 0.0000 0.0000 0.0000 39.7321
#
#
#
# Elastic Compliance Matrix: (Units=1/GPa)
#
#
# Indices 1 2 3 4 5 6 
#
# 1 0.017301 -0.003885 -0.005987 0.000000 0.000000 0.000000
# 2 -0.003885 0.015655 -0.006075 0.000000 0.000000 0.000000
# 3 -0.005987 -0.006075 0.017292 0.000000 0.000000 0.000000
# 4 0.000000 0.000000 0.000000 -0.023559 0.000000 0.000000
# 5 0.000000 0.000000 0.000000 0.000000 0.039095 0.000000
# 6 0.000000 0.000000 0.000000 0.000000 0.000000 0.025169
#
#
# Mechanical properties :
#
#
# Convention : Reuss Voigt Hill
#
# Bulk Modulus (GPa) = 54.49082 54.85315 54.67198
# Shear Modulus (GPa) = 38.77058 13.72502 26.24780
#
# Velocity S-wave (km/s) = 4.48522 2.66863 3.69045
# Velocity P-wave (km/s) = 7.42273 6.16097 6.82109
#
# Compressibility (1/GPa) = 0.01835172
#
# Stress axis : x y z
#
# Youngs Moduli (GPa) = 57.80175 63.87799 57.83130
#
# Poissons Ratio (x) = 0.24819 0.34625
# Poissons Ratio (y) = 0.22458 0.35132
# Poissons Ratio (z) = 0.34608 0.38806
#
# Static dielectric constant tensor:
#      x y z
#    x 3.571640 0.000000 0.000000 
#    y 0.000000 3.727200 0.000000 
#    z 0.000000 0.000000 3.154660 
# 
# 
# High freq. dielectric constant tensor:
#      x y z
#    x 1.751670 0.000000 0.000000 
#    y 0.000000 1.767370 0.000000 
#    z 0.000000 0.000000 1.725090 
# 
# From -- ./inp_files/27104.got.cif
#   From: 2010.03.12/outbox.cif.g09.slc.cpg/sg57_14_cif.got.tgz:27104.got - 2010.04.16 15:48:40.
