data_PCOD8232926
_publ_section_title
;
Structure prediction by ZEFSAII (Michael W. Deem and Ramdas Pophale) SiO2 
 PCOD8232926
Probable space group: P B C M
;
_chemical_formula_sum "Si O2"
_cell_formula_units_Z 64
_cell_length_a 6.862462
_cell_length_b 28.918997
_cell_length_c 17.836945
_cell_angle_alpha 90.000000
_cell_angle_beta 90.000000
_cell_angle_gamma 90.000000
_cell_volume 3539.840159
_symmetry_space_group_name_H-M "P B C M"
_symmetry_group_IT_number 57
_symmetry_cell_setting 'orthorhombic'
loop_
_space_group_symop_operation_xyz
x,y,z
-x,-y,1/2+z
x,1/2-y,-z
-x,1/2+y,1/2-z
-x,-y,-z
x,y,1/2-z
-x,1/2+y,z
x,1/2-y,1/2+z
loop_
_atom_site_type_symbol
_atom_site_label
_atom_site_fract_x
_atom_site_fract_y
_atom_site_fract_z
Si Si1 0.887732 0.173001 0.063521
Si Si2 0.128089 0.761729 0.339551
Si Si3 0.433466 0.795909 0.044213
Si Si4 0.146126 0.174211 0.575852
Si Si5 0.072442 0.430650 0.083586
Si Si6 0.929306 0.430898 0.917005
Si Si7 0.590417 0.499995 0.581757
Si Si8 0.804949 0.000043 0.836893
O O1 0.888867 0.209233 0.131378
O O2 0.912180 0.123202 0.101617
O O3 0.063181 0.185527 0.006857
O O4 0.690816 0.173111 0.013761
O O5 0.156140 0.762183 0.250000
O O6 0.311196 0.785382 0.380664
O O7 0.932977 0.789486 0.362740
O O8 0.621359 0.823732 0.070994
O O9 0.496539 0.750000 0.000000
O O10 0.084868 0.123280 0.602919
O O11 0.281786 0.454212 0.095557
O O12 0.907919 0.453418 0.134701
O O13 0.004226 0.439960 0.999893
O O14 0.719769 0.454353 0.905803
O O15 0.090397 0.453381 0.863949
O O16 0.500000 0.500000 0.500000
O O17 0.420910 0.499564 0.642342
O O18 0.823914 0.000833 0.750000
#
# Coordination Sequence:
#
# PCOD8232926 Si02
#       8
#     8   8   8   8   8   8   8   8
#     4   9  20  35  59  84 107 140 184 232 279 324
#     4  10  21  37  53  78 114 149 180 223 282 338
#     4   9  18  34  55  81 108 138 181 233 272 322
#     4  10  20  35  60  83 106 140 190 232 276 323
#     4  10  21  36  58  84 107 145 187 233 277 335
#     4  10  20  36  60  85 107 144 187 232 276 337
#     4  11  19  34  60  82 112 146 190 226 283 336
#     4  11  23  38  54  81 119 150 182 231 281 333
#
# _framework density 18.079912
#
# number of rings (size 3 to 8) (size 9 to 14) (size 15 to 20)
#    0.000    2.000    2.500    2.625    1.750    4.500 
#    0.000    0.000    0.000    0.000    0.000    0.000 
#    0.000    0.000    0.000    0.000    0.000    0.000 
#
# Total GULP energy -793697.456306 kJ/mol
# GULP energy per Si atom -12401.522755 kJ/mol
# Density = 1.803876 g / cm^3
# Si number density = 18.079912 Si / 1000 Ang^3
#
#
#
# Elastic Constant Matrix: (Units=GPa)
#
#
# Indices 1 2 3 4 5 6 
#
# 1 128.7168 54.4485 42.3055 0.0000 0.0000 0.0000
# 2 54.4485 111.9774 53.3692 0.0000 0.0000 0.0000
# 3 42.3055 53.3692 120.6356 0.0000 0.0000 0.0000
# 4 0.0000 0.0000 0.0000 -26.0755 0.0000 0.0000
# 5 0.0000 0.0000 0.0000 0.0000 18.2282 0.0000
# 6 0.0000 0.0000 0.0000 0.0000 0.0000 21.4244
#
#
#
# Elastic Compliance Matrix: (Units=1/GPa)
#
#
# Indices 1 2 3 4 5 6 
#
# 1 0.010057 -0.004067 -0.001728 0.000000 0.000000 0.000000
# 2 -0.004067 0.012961 -0.004308 0.000000 0.000000 0.000000
# 3 -0.001728 -0.004308 0.010801 0.000000 0.000000 0.000000
# 4 0.000000 0.000000 0.000000 -0.038350 0.000000 0.000000
# 5 0.000000 0.000000 0.000000 0.000000 0.054860 0.000000
# 6 0.000000 0.000000 0.000000 0.000000 0.000000 0.046676
#
#
# Mechanical properties :
#
#
# Convention : Reuss Voigt Hill
#
# Bulk Modulus (GPa) = 73.45076 73.50845 73.47961
# Shear Modulus (GPa) = 41.06862 16.79587 28.93224
#
# Velocity S-wave (km/s) = 4.77120 3.05122 4.00464
# Velocity P-wave (km/s) = 8.43008 7.29103 7.88116
#
# Compressibility (1/GPa) = 0.01361456
#
# Stress axis : x y z
#
# Youngs Moduli (GPa) = 99.43175 77.15499 92.58321
#
# Poissons Ratio (x) = 0.31377 0.15996
# Poissons Ratio (y) = 0.40437 0.39883
# Poissons Ratio (z) = 0.17180 0.33236
#
# Static dielectric constant tensor:
#      x y z
#    x 3.425040 0.000000 0.000000 
#    y 0.000000 3.436100 0.000000 
#    z 0.000000 0.000000 3.121330 
# 
# 
# High freq. dielectric constant tensor:
#      x y z
#    x 1.708760 0.000000 0.000000 
#    y 0.000000 1.706760 0.000000 
#    z 0.000000 0.000000 1.680740 
# 
# From -- ./inp_files/20343.got.cif
#   From: 2010.03.12/outbox.cif.g09.slc.cpg/sg57_11_cif.got.tgz:20343.got - 2010.04.16 15:48:40.
