data_PCOD8232813
_publ_section_title
;
Structure prediction by ZEFSAII (Michael W. Deem and Ramdas Pophale) SiO2 
 PCOD8232813
Probable space group: P B C M
;
_chemical_formula_sum "Si O2"
_cell_formula_units_Z 64
_cell_length_a 20.907559
_cell_length_b 18.579475
_cell_length_c 8.869500
_cell_angle_alpha 90.000000
_cell_angle_beta 90.000000
_cell_angle_gamma 90.000000
_cell_volume 3445.370311
_symmetry_space_group_name_H-M "P B C M"
_symmetry_group_IT_number 57
_symmetry_cell_setting 'orthorhombic'
loop_
_space_group_symop_operation_xyz
x,y,z
-x,-y,1/2+z
x,1/2-y,-z
-x,1/2+y,1/2-z
-x,-y,-z
x,y,1/2-z
-x,1/2+y,z
x,1/2-y,1/2+z
loop_
_atom_site_type_symbol
_atom_site_label
_atom_site_fract_x
_atom_site_fract_y
_atom_site_fract_z
Si Si1 0.803801 0.034829 0.927772
Si Si2 0.506732 0.576907 0.073015
Si Si3 0.392874 0.678787 0.423829
Si Si4 0.248348 0.675170 0.070877
Si Si5 0.126757 0.324125 0.928960
Si Si6 0.061827 0.467895 0.575752
Si Si7 0.616450 0.828067 0.426747
Si Si8 0.753556 0.896112 0.426928
O O1 0.790377 0.035841 0.750000
O O2 0.876774 0.015413 0.965687
O O3 0.793704 0.112280 0.000384
O O4 0.757056 0.975974 0.002856
O O5 0.520483 0.570935 0.250000
O O6 0.438642 0.612987 0.038238
O O7 0.500000 0.500000 0.000000
O O8 0.562933 0.621337 0.997022
O O9 0.421108 0.750000 0.500000
O O10 0.390763 0.697039 0.250000
O O11 0.321466 0.660726 0.480442
O O12 0.239709 0.676783 0.250000
O O13 0.223977 0.750000 0.000000
O O14 0.133832 0.317605 0.750000
O O15 0.075663 0.385617 0.974686
O O16 0.101573 0.250000 0.000000
O O17 0.196092 0.342904 0.995195
O O18 0.047463 0.470135 0.750000
O O19 0.000000 0.500000 0.500000
O O20 0.613287 0.750000 0.500000
O O21 0.603803 0.820155 0.250000
O O22 0.684133 0.864544 0.461198
O O23 0.768068 0.900537 0.250000
#
# Coordination Sequence:
#
# PCOD8232813 Si02
#       8
#     8   8   8   8   8   8   8   8
#     4  10  21  37  57  85 117 148 185 231 279 331
#     4  11  24  40  57  80 110 146 186 234 284 335
#     4   9  20  37  57  79 105 137 180 229 277 333
#     4  10  20  36  58  84 112 145 185 233 285 336
#     4  10  20  35  56  85 117 148 187 233 278 332
#     4   9  20  37  57  82 114 149 188 230 272 326
#     4  11  24  40  58  82 113 147 187 232 281 338
#     4  10  21  36  57  84 114 150 187 231 282 334
#
# _framework density 18.575651000000001
#
# number of rings (size 3 to 8) (size 9 to 14) (size 15 to 20)
#    0.000    2.000    0.000    3.750    1.750    8.500 
#    0.000    0.625    0.000    1.500    0.000    0.000 
#    0.000    0.000    0.000    0.000    0.000    0.000 
#
# Total GULP energy -793744.735489 kJ/mol
# GULP energy per Si atom -12402.261492 kJ/mol
# Density = 1.853337 g / cm^3
# Si number density = 18.575651 Si / 1000 Ang^3
#
#
#
# Elastic Constant Matrix: (Units=GPa)
#
#
# Indices 1 2 3 4 5 6 
#
# 1 87.9383 71.2108 67.6534 0.0000 0.0000 0.0000
# 2 71.2108 176.0218 85.2977 0.0000 0.0000 0.0000
# 3 67.6534 85.2977 101.5776 0.0000 0.0000 0.0000
# 4 0.0000 0.0000 0.0000 41.2741 0.0000 0.0000
# 5 0.0000 0.0000 0.0000 0.0000 30.9103 0.0000
# 6 0.0000 0.0000 0.0000 0.0000 0.0000 76.5063
#
#
#
# Elastic Compliance Matrix: (Units=1/GPa)
#
#
# Indices 1 2 3 4 5 6 
#
# 1 0.024454 -0.003373 -0.013454 0.000000 0.000000 0.000000
# 2 -0.003373 0.010044 -0.006188 0.000000 0.000000 0.000000
# 3 -0.013454 -0.006188 0.024002 0.000000 0.000000 0.000000
# 4 0.000000 0.000000 0.000000 0.024228 0.000000 0.000000
# 5 0.000000 0.000000 0.000000 0.000000 0.032352 0.000000
# 6 0.000000 0.000000 0.000000 0.000000 0.000000 0.013071
#
#
# Mechanical properties :
#
#
# Convention : Reuss Voigt Hill
#
# Bulk Modulus (GPa) = 80.19793 90.42905 85.31349
# Shear Modulus (GPa) = 28.03656 39.16319 33.59988
#
# Velocity S-wave (km/s) = 3.88921 4.59661 4.25763
# Velocity P-wave (km/s) = 7.96463 8.77263 8.37837
#
# Compressibility (1/GPa) = 0.01246915
#
# Stress axis : x y z
#
# Youngs Moduli (GPa) = 40.89299 99.55882 41.66340
#
# Poissons Ratio (x) = 0.33583 0.56056
# Poissons Ratio (y) = 0.13794 0.25781
# Poissons Ratio (z) = 0.55019 0.61606
#
# Static dielectric constant tensor:
#      x y z
#    x 3.466310 0.000000 0.000000 
#    y 0.000000 3.146660 0.000000 
#    z 0.000000 0.000000 3.519580 
# 
# 
# High freq. dielectric constant tensor:
#      x y z
#    x 1.712190 0.000000 0.000000 
#    y 0.000000 1.733220 0.000000 
#    z 0.000000 0.000000 1.734900 
# 
# From -- ./inp_files/8598.got.cif
#   From: 2010.03.12/outbox.cif.g09.slc.cpg/sg57_5_cif.got.tgz:8598.got - 2010.04.16 15:48:40.
