data_PCOD8232269
_publ_section_title
;
Structure prediction by ZEFSAII (Michael W. Deem and Ramdas Pophale) SiO2 
 PCOD8232269
Probable space group: P B C M
;
_chemical_formula_sum "Si O2"
_cell_formula_units_Z 48
_cell_length_a 9.820175
_cell_length_b 8.768952
_cell_length_c 30.464175
_cell_angle_alpha 90.000000
_cell_angle_beta 90.000000
_cell_angle_gamma 90.000000
_cell_volume 2623.350632
_symmetry_space_group_name_H-M "P B C M"
_symmetry_group_IT_number 57
_symmetry_cell_setting 'orthorhombic'
loop_
_space_group_symop_operation_xyz
x,y,z
-x,-y,1/2+z
x,1/2-y,-z
-x,1/2+y,1/2-z
-x,-y,-z
x,y,1/2-z
-x,1/2+y,z
x,1/2-y,1/2+z
loop_
_atom_site_type_symbol
_atom_site_label
_atom_site_fract_x
_atom_site_fract_y
_atom_site_fract_z
Si Si1 0.168085 0.180880 0.198915
Si Si2 0.674249 0.187077 0.458203
Si Si3 0.387446 0.338911 0.040548
Si Si4 0.888951 0.334507 0.301035
Si Si5 0.616274 0.670559 0.637706
Si Si6 0.673263 0.180491 0.138622
O O1 0.205318 0.193200 0.250000
O O2 0.298893 0.230409 0.171782
O O3 0.042527 0.289648 0.186494
O O4 0.130182 0.009232 0.185678
O O5 0.765261 0.250000 0.500000
O O6 0.546050 0.300223 0.458238
O O7 0.742215 0.197711 0.410067
O O8 0.626736 0.016863 0.467870
O O9 0.327855 0.292909 0.088450
O O10 0.313815 0.250000 0.000000
O O11 0.861662 0.304558 0.250000
O O12 0.784888 0.227013 0.326338
O O13 0.458226 0.712560 0.643091
O O14 0.628922 0.492108 0.648074
#
# Coordination Sequence:
#
# PCOD8232269 Si02
#       6
#     8   8   8   8   8   8
#     4  10  21  37  56  76  99 131 169 207 251 304
#     4   9  16  26  43  68  98 131 165 201 243 291
#     4   9  16  26  43  68  98 131 165 201 243 291
#     4  10  21  37  56  76  99 131 169 207 251 304
#     4  10  20  33  51  77 106 135 169 209 252 296
#     4  10  20  33  51  77 106 135 169 209 252 296
#
# _framework density 18.297211000000001
#
# number of rings (size 3 to 8) (size 9 to 14) (size 15 to 20)
#    0.000    2.333    0.000    4.000    0.000    6.667 
#    0.000    0.000    0.000    1.000    0.000    7.000 
#    0.000    0.000    0.000    0.000    0.000    0.000 
#
# Total GULP energy -594896.279917 kJ/mol
# GULP energy per Si atom -12393.672498 kJ/mol
# Density = 1.825557 g / cm^3
# Si number density = 18.297211 Si / 1000 Ang^3
#
#
#
# Elastic Constant Matrix: (Units=GPa)
#
#
# Indices 1 2 3 4 5 6 
#
# 1 36.5277 3.1423 29.5968 0.0000 0.0000 0.0000
# 2 3.1423 59.9740 29.2167 0.0000 0.0000 0.0000
# 3 29.5968 29.2167 80.6569 0.0000 0.0000 0.0000
# 4 0.0000 0.0000 0.0000 35.3095 0.0000 0.0000
# 5 0.0000 0.0000 0.0000 0.0000 11.7961 0.0000
# 6 0.0000 0.0000 0.0000 0.0000 0.0000 27.0503
#
#
#
# Elastic Compliance Matrix: (Units=1/GPa)
#
#
# Indices 1 2 3 4 5 6 
#
# 1 0.040809 0.006262 -0.017243 0.000000 0.000000 0.000000
# 2 0.006262 0.021208 -0.009980 0.000000 0.000000 0.000000
# 3 -0.017243 -0.009980 0.022341 0.000000 0.000000 0.000000
# 4 0.000000 0.000000 0.000000 0.028321 0.000000 0.000000
# 5 0.000000 0.000000 0.000000 0.000000 0.084774 0.000000
# 6 0.000000 0.000000 0.000000 0.000000 0.000000 0.036968
#
#
# Mechanical properties :
#
#
# Convention : Reuss Voigt Hill
#
# Bulk Modulus (GPa) = 23.56540 33.45225 28.50882
# Shear Modulus (GPa) = 17.21244 22.51135 19.86190
#
# Velocity S-wave (km/s) = 3.07043 3.51139 3.29829
# Velocity P-wave (km/s) = 5.04750 5.89595 5.48815
#
# Compressibility (1/GPa) = 0.04243510
#
# Stress axis : x y z
#
# Youngs Moduli (GPa) = 24.50432 47.15300 44.76174
#
# Poissons Ratio (x) = -0.29526 0.77183
# Poissons Ratio (y) = -0.15344 0.44672
# Poissons Ratio (z) = 0.42253 0.47058
#
# Static dielectric constant tensor:
#      x y z
#    x 2.905450 0.000000 0.000000 
#    y 0.000000 3.493280 0.000000 
#    z 0.000000 0.000000 3.985730 
# 
# 
# High freq. dielectric constant tensor:
#      x y z
#    x 1.653340 0.000000 0.000000 
#    y 0.000000 1.729730 0.000000 
#    z 0.000000 0.000000 1.730320 
# 
# From -- ./inp_files/29439.got.cif
#   From: 2010.03.12/outbox.cif.g09.slc.cpg/sg57_15_cif.got.tgz:29439.got - 2010.04.16 15:48:40.
