data_PCOD8232563
_publ_section_title
;
Structure prediction by ZEFSAII (Michael W. Deem and Ramdas Pophale) SiO2 
 PCOD8232563
Probable space group: P B C M
;
_chemical_formula_sum "Si O2"
_cell_formula_units_Z 40
_cell_length_a 5.089495
_cell_length_b 20.701384
_cell_length_c 17.344189
_cell_angle_alpha 90.000000
_cell_angle_beta 90.000000
_cell_angle_gamma 90.000000
_cell_volume 1827.376648
_symmetry_space_group_name_H-M "P B C M"
_symmetry_group_IT_number 57
_symmetry_cell_setting 'orthorhombic'
loop_
_space_group_symop_operation_xyz
x,y,z
-x,-y,1/2+z
x,1/2-y,-z
-x,1/2+y,1/2-z
-x,-y,-z
x,y,1/2-z
-x,1/2+y,z
x,1/2-y,1/2+z
loop_
_atom_site_type_symbol
_atom_site_label
_atom_site_fract_x
_atom_site_fract_y
_atom_site_fract_z
Si Si1 0.070820 0.469799 0.163475
Si Si2 0.432735 0.448864 0.870940
Si Si3 0.905491 0.300166 0.567411
Si Si4 0.599095 0.691755 0.165500
Si Si5 0.103063 0.427209 0.006371
O O1 0.116698 0.442452 0.250000
O O2 0.273767 0.526751 0.142956
O O3 0.122810 0.413448 0.099005
O O4 0.777132 0.497941 0.157553
O O5 0.399711 0.385035 0.820606
O O6 0.383446 0.428961 0.961431
O O7 0.949012 0.250000 0.500000
O O8 0.627284 0.287147 0.606731
O O9 0.125127 0.285660 0.630978
O O10 0.920422 0.373353 0.534032
O O11 0.561315 0.723850 0.250000
O O12 0.000000 0.500000 0.000000
#
# Coordination Sequence:
#
# PCOD8232563 Si02
#       5
#     8   8   8   8   8
#     4  11  20  32  51  82 118 151 186 237 291 345
#     4  10  20  34  55  84 117 148 189 241 292 338
#     4  11  24  41  61  87 122 158 193 239 295 355
#     4  11  21  38  63  90 114 151 201 250 290 338
#     4   9  20  37  59  83 112 152 193 231 285 348
#
# _framework density 21.889302000000001
#
# number of rings (size 3 to 8) (size 9 to 14) (size 15 to 20)
#    0.000    1.600    0.000    7.200    0.000    4.800 
#    0.000    2.000    0.000    0.000    0.000    0.000 
#    0.000    0.000    0.000    0.000    0.000    0.000 
#
# Total GULP energy -495675.997213 kJ/mol
# GULP energy per Si atom -12391.899930 kJ/mol
# Density = 2.183948 g / cm^3
# Si number density = 21.889302 Si / 1000 Ang^3
#
#
#
# Elastic Constant Matrix: (Units=GPa)
#
#
# Indices 1 2 3 4 5 6 
#
# 1 69.3737 5.5002 0.4517 0.0000 0.0000 0.0000
# 2 5.5002 48.6965 12.8657 0.0000 0.0000 0.0000
# 3 0.4517 12.8657 149.7972 0.0000 0.0000 0.0000
# 4 0.0000 0.0000 0.0000 8.6432 0.0000 0.0000
# 5 0.0000 0.0000 0.0000 0.0000 23.7276 0.0000
# 6 0.0000 0.0000 0.0000 0.0000 0.0000 14.0033
#
#
#
# Elastic Compliance Matrix: (Units=1/GPa)
#
#
# Indices 1 2 3 4 5 6 
#
# 1 0.014546 -0.001669 0.000100 0.000000 0.000000 0.000000
# 2 -0.001669 0.021204 -0.001816 0.000000 0.000000 0.000000
# 3 0.000100 -0.001816 0.006831 0.000000 0.000000 0.000000
# 4 0.000000 0.000000 0.000000 0.115698 0.000000 0.000000
# 5 0.000000 0.000000 0.000000 0.000000 0.042145 0.000000
# 6 0.000000 0.000000 0.000000 0.000000 0.000000 0.071411
#
#
# Mechanical properties :
#
#
# Convention : Reuss Voigt Hill
#
# Bulk Modulus (GPa) = 27.92537 33.94472 30.93505
# Shear Modulus (GPa) = 17.20907 25.87815 21.54361
#
# Velocity S-wave (km/s) = 2.80694 3.44208 3.14061
# Velocity P-wave (km/s) = 4.82602 5.59807 5.22632
#
# Compressibility (1/GPa) = 0.03580973
#
# Stress axis : x y z
#
# Youngs Moduli (GPa) = 68.74561 47.16154 146.38345
#
# Poissons Ratio (x) = 0.07873 -0.01457
# Poissons Ratio (y) = 0.11476 0.26585
# Poissons Ratio (z) = -0.00684 0.08565
#
# Static dielectric constant tensor:
#      x y z
#    x 3.893080 0.000000 0.000000 
#    y 0.000000 3.530000 0.000000 
#    z 0.000000 0.000000 4.921800 
# 
# 
# High freq. dielectric constant tensor:
#      x y z
#    x 1.865100 0.000000 0.000000 
#    y 0.000000 1.803790 0.000000 
#    z 0.000000 0.000000 1.884320 
# 
# From -- ./inp_files/20120.got.cif
#   From: 2010.03.12/outbox.cif.g09.slc.cpg/sg57_11_cif.got.tgz:20120.got - 2010.04.16 15:48:40.
