data_PCOD8232778
_publ_section_title
;
Structure prediction by ZEFSAII (Michael W. Deem and Ramdas Pophale) SiO2 
 PCOD8232778
Probable space group: P B C M
;
_chemical_formula_sum "Si O2"
_cell_formula_units_Z 48
_cell_length_a 30.269811
_cell_length_b 9.384528
_cell_length_c 8.955765
_cell_angle_alpha 90.000000
_cell_angle_beta 90.000000
_cell_angle_gamma 90.000000
_cell_volume 2544.045257
_symmetry_space_group_name_H-M "P B C M"
_symmetry_group_IT_number 57
_symmetry_cell_setting 'orthorhombic'
loop_
_space_group_symop_operation_xyz
x,y,z
-x,-y,1/2+z
x,1/2-y,-z
-x,1/2+y,1/2-z
-x,-y,-z
x,y,1/2-z
-x,1/2+y,z
x,1/2-y,1/2+z
loop_
_atom_site_type_symbol
_atom_site_label
_atom_site_fract_x
_atom_site_fract_y
_atom_site_fract_z
Si Si1 0.034701 0.599661 0.578732
Si Si2 0.798498 0.602945 0.925246
Si Si3 0.301961 0.397766 0.424854
Si Si4 0.866893 0.399921 0.078331
Si Si5 0.621402 0.401170 0.576170
Si Si6 0.537782 0.905595 0.073465
O O1 0.032953 0.750000 0.500000
O O2 0.020972 0.619997 0.750000
O O3 0.083990 0.532170 0.566235
O O4 0.000000 0.500000 0.500000
O O5 0.805405 0.617029 0.750000
O O6 0.748224 0.560747 0.966035
O O7 0.811811 0.750000 0.000000
O O8 0.830945 0.487491 0.989935
O O9 0.316260 0.250000 0.500000
O O10 0.308363 0.373917 0.250000
O O11 0.333027 0.526726 0.481323
O O12 0.852258 0.384742 0.250000
O O13 0.868303 0.250000 0.000000
O O14 0.612847 0.250000 0.500000
O O15 0.623652 0.368483 0.750000
O O16 0.583169 0.513343 0.538255
O O17 0.529285 0.889511 0.250000
O O18 0.539030 0.750000 0.000000
O O19 0.500000 0.000000 0.000000
#
# Coordination Sequence:
#
# PCOD8232778 Si02
#       6
#     8   8   8   8   8   8
#     4  10  21  37  57  80 107 140 178 221 268 320
#     4  10  20  35  56  81 110 143 181 225 270 320
#     4   9  19  36  56  80 108 140 180 223 269 320
#     4  10  21  37  56  79 108 142 179 220 269 322
#     4  10  22  38  56  81 112 145 183 226 272 324
#     4  11  23  39  60  85 114 148 186 229 277 328
#
# _framework density 18.867587
#
# number of rings (size 3 to 8) (size 9 to 14) (size 15 to 20)
#    0.000    2.000    0.000    3.000    0.000    7.333 
#    0.000    1.667    0.000    0.000    0.000    0.000 
#    0.000    0.000    0.000    0.000    0.000    0.000 
#
# Total GULP energy -595211.569400 kJ/mol
# GULP energy per Si atom -12400.241029 kJ/mol
# Density = 1.882464 g / cm^3
# Si number density = 18.867587 Si / 1000 Ang^3
#
#
#
# Elastic Constant Matrix: (Units=GPa)
#
#
# Indices 1 2 3 4 5 6 
#
# 1 110.4733 69.5604 55.1495 0.0000 0.0000 0.0000
# 2 69.5604 124.5849 58.3307 0.0000 0.0000 0.0000
# 3 55.1495 58.3307 101.8532 0.0000 0.0000 0.0000
# 4 0.0000 0.0000 0.0000 41.0695 0.0000 0.0000
# 5 0.0000 0.0000 0.0000 0.0000 31.5613 0.0000
# 6 0.0000 0.0000 0.0000 0.0000 0.0000 40.6013
#
#
#
# Elastic Compliance Matrix: (Units=1/GPa)
#
#
# Indices 1 2 3 4 5 6 
#
# 1 0.015433 -0.006428 -0.004675 0.000000 0.000000 0.000000
# 2 -0.006428 0.013645 -0.004334 0.000000 0.000000 0.000000
# 3 -0.004675 -0.004334 0.014831 0.000000 0.000000 0.000000
# 4 0.000000 0.000000 0.000000 0.024349 0.000000 0.000000
# 5 0.000000 0.000000 0.000000 0.000000 0.031684 0.000000
# 6 0.000000 0.000000 0.000000 0.000000 0.000000 0.024630
#
#
# Mechanical properties :
#
#
# Convention : Reuss Voigt Hill
#
# Bulk Modulus (GPa) = 76.71387 78.11030 77.41209
# Shear Modulus (GPa) = 31.29071 32.90447 32.09759
#
# Velocity S-wave (km/s) = 4.07681 4.18062 4.12904
# Velocity P-wave (km/s) = 7.93145 8.04938 7.99063
#
# Compressibility (1/GPa) = 0.01303545
#
# Stress axis : x y z
#
# Youngs Moduli (GPa) = 64.79453 73.28836 67.42448
#
# Poissons Ratio (x) = 0.47110 0.31523
# Poissons Ratio (y) = 0.41650 0.29220
# Poissons Ratio (z) = 0.30293 0.31761
#
# Static dielectric constant tensor:
#      x y z
#    x 3.819270 0.000000 0.000000 
#    y 0.000000 3.487680 0.000000 
#    z 0.000000 0.000000 3.607250 
# 
# 
# High freq. dielectric constant tensor:
#      x y z
#    x 1.747410 0.000000 0.000000 
#    y 0.000000 1.731480 0.000000 
#    z 0.000000 0.000000 1.744750 
# 
# From -- ./inp_files/9904.got.cif
#   From: 2010.03.12/outbox.cif.g09.slc.cpg/sg57_5_cif.got.tgz:9904.got - 2010.04.16 15:48:40.
