data_PCOD8232253
_publ_section_title
;
Structure prediction by ZEFSAII (Michael W. Deem and Ramdas Pophale) SiO2 
 PCOD8232253
Probable space group: P B C M
;
_chemical_formula_sum "Si O2"
_cell_formula_units_Z 64
_cell_length_a 22.576289
_cell_length_b 17.853729
_cell_length_c 8.896901
_cell_angle_alpha 90.000000
_cell_angle_beta 90.000000
_cell_angle_gamma 90.000000
_cell_volume 3586.082299
_symmetry_space_group_name_H-M "P B C M"
_symmetry_group_IT_number 57
_symmetry_cell_setting 'orthorhombic'
loop_
_space_group_symop_operation_xyz
x,y,z
-x,-y,1/2+z
x,1/2-y,-z
-x,1/2+y,1/2-z
-x,-y,-z
x,y,1/2-z
-x,1/2+y,z
x,1/2-y,1/2+z
loop_
_atom_site_type_symbol
_atom_site_label
_atom_site_fract_x
_atom_site_fract_y
_atom_site_fract_z
Si Si1 0.629653 0.823713 0.574685
Si Si2 0.187928 0.525353 0.427603
Si Si3 0.691849 0.978691 0.573991
Si Si4 0.859467 0.327063 0.429318
Si Si5 0.416199 0.546915 0.081118
Si Si6 0.018734 0.888991 0.084631
Si Si7 0.081791 0.046894 0.415811
Si Si8 0.520350 0.611686 0.581455
O O1 0.658969 0.750000 0.500000
O O2 0.622471 0.810977 0.750000
O O3 0.671205 0.894284 0.539259
O O4 0.564348 0.833511 0.505889
O O5 0.185508 0.536443 0.250000
O O6 0.249832 0.491119 0.477468
O O7 0.179800 0.605464 0.506977
O O8 0.137546 0.466179 0.475986
O O9 0.703796 0.991557 0.750000
O O10 0.642502 0.037576 0.519158
O O11 0.835592 0.250000 0.500000
O O12 0.853336 0.326871 0.250000
O O13 0.928263 0.337226 0.479361
O O14 0.398929 0.572200 0.250000
O O15 0.452229 0.470453 0.086877
O O16 0.457408 0.610036 0.004579
O O17 0.999700 0.861160 0.250000
O O18 0.043364 0.972536 0.096543
O O19 0.960587 0.886945 0.979483
O O20 0.104282 0.070638 0.250000
O O21 0.510343 0.642064 0.750000
#
# Coordination Sequence:
#
# PCOD8232253 Si02
#       8
#     8   8   8   8   8   8   8   8
#     4  10  20  33  51  74 101 132 166 209 259 310
#     4  11  21  33  51  74 101 135 175 216 257 302
#     4  10  20  34  51  73 101 134 174 216 257 302
#     4  10  20  34  52  75 103 133 167 209 257 308
#     4   9  16  27  45  70  97 124 157 197 241 287
#     4   8  15  27  44  68  96 124 154 191 238 291
#     4   9  16  27  45  69  96 124 156 197 242 288
#     4   9  16  27  45  69  97 126 156 193 239 290
#
# _framework density 17.846774
#
# number of rings (size 3 to 8) (size 9 to 14) (size 15 to 20)
#    0.000    2.500    0.000    4.125    0.000    8.000 
#    0.000    0.000    0.000    1.500    0.000   10.500 
#    0.000    0.000    0.000    0.000    0.000    0.000 
#
# Total GULP energy -793454.845359 kJ/mol
# GULP energy per Si atom -12397.731959 kJ/mol
# Density = 1.780615 g / cm^3
# Si number density = 17.846774 Si / 1000 Ang^3
#
#
#
# Elastic Constant Matrix: (Units=GPa)
#
#
# Indices 1 2 3 4 5 6 
#
# 1 91.0876 32.9693 48.7285 0.0000 0.0000 0.0000
# 2 32.9693 57.1929 38.9774 0.0000 0.0000 0.0000
# 3 48.7285 38.9774 128.9652 0.0000 0.0000 0.0000
# 4 0.0000 0.0000 0.0000 23.8598 0.0000 0.0000
# 5 0.0000 0.0000 0.0000 0.0000 33.5296 0.0000
# 6 0.0000 0.0000 0.0000 0.0000 0.0000 13.9820
#
#
#
# Elastic Compliance Matrix: (Units=1/GPa)
#
#
# Indices 1 2 3 4 5 6 
#
# 1 0.015303 -0.006147 -0.003924 0.000000 0.000000 0.000000
# 2 -0.006147 0.024489 -0.005079 0.000000 0.000000 0.000000
# 3 -0.003924 -0.005079 0.010772 0.000000 0.000000 0.000000
# 4 0.000000 0.000000 0.000000 0.041912 0.000000 0.000000
# 5 0.000000 0.000000 0.000000 0.000000 0.029824 0.000000
# 6 0.000000 0.000000 0.000000 0.000000 0.000000 0.071520
#
#
# Mechanical properties :
#
#
# Convention : Reuss Voigt Hill
#
# Bulk Modulus (GPa) = 49.34920 57.62179 53.48549
# Shear Modulus (GPa) = 21.65675 24.71231 23.18453
#
# Velocity S-wave (km/s) = 3.48729 3.72518 3.60820
# Velocity P-wave (km/s) = 6.62771 7.13160 6.88427
#
# Compressibility (1/GPa) = 0.02026375
#
# Stress axis : x y z
#
# Youngs Moduli (GPa) = 65.34816 40.83384 92.83533
#
# Poissons Ratio (x) = 0.25100 0.36430
# Poissons Ratio (y) = 0.40169 0.47150
# Poissons Ratio (z) = 0.25644 0.20739
#
# Static dielectric constant tensor:
#      x y z
#    x 3.239730 0.000000 0.000000 
#    y 0.000000 3.048590 0.000000 
#    z 0.000000 0.000000 3.555440 
# 
# 
# High freq. dielectric constant tensor:
#      x y z
#    x 1.675680 0.000000 0.000000 
#    y 0.000000 1.649780 0.000000 
#    z 0.000000 0.000000 1.709810 
# 
# From -- ./inp_files/9559.got.cif
#   From: 2010.03.12/outbox.cif.g09.slc.cpg/sg57_5_cif.got.tgz:9559.got - 2010.04.16 15:48:40.
