data_PCOD8232215
_publ_section_title
;
Structure prediction by ZEFSAII (Michael W. Deem and Ramdas Pophale) SiO2 
 PCOD8232215
Probable space group: P B C M
;
_chemical_formula_sum "Si O2"
_cell_formula_units_Z 64
_cell_length_a 21.431515
_cell_length_b 19.389088
_cell_length_c 8.734158
_cell_angle_alpha 90.000000
_cell_angle_beta 90.000000
_cell_angle_gamma 90.000000
_cell_volume 3629.370445
_symmetry_space_group_name_H-M "P B C M"
_symmetry_group_IT_number 57
_symmetry_cell_setting 'orthorhombic'
loop_
_space_group_symop_operation_xyz
x,y,z
-x,-y,1/2+z
x,1/2-y,-z
-x,1/2+y,1/2-z
-x,-y,-z
x,y,1/2-z
-x,1/2+y,z
x,1/2-y,1/2+z
loop_
_atom_site_type_symbol
_atom_site_label
_atom_site_fract_x
_atom_site_fract_y
_atom_site_fract_z
Si Si1 0.909453 0.033011 0.078820
Si Si2 0.986325 0.606700 0.578894
Si Si3 0.621931 0.821944 0.926960
Si Si4 0.800951 0.958265 0.570844
Si Si5 0.558638 0.039420 0.930489
Si Si6 0.475587 0.822142 0.573572
Si Si7 0.125483 0.178244 0.069796
Si Si8 0.330028 0.456435 0.429409
O O1 0.886969 0.052217 0.250000
O O2 0.952725 0.966414 0.084771
O O3 0.948104 0.097385 0.009745
O O4 0.850664 0.017486 0.970209
O O5 0.999645 0.633787 0.750000
O O6 0.943589 0.662510 0.493249
O O7 0.642119 0.824174 0.750000
O O8 0.548809 0.835798 0.946257
O O9 0.641603 0.750000 0.000000
O O10 0.659539 0.877885 0.022051
O O11 0.785634 0.961148 0.750000
O O12 0.826923 0.882800 0.523096
O O13 0.740035 0.976247 0.473294
O O14 0.551678 0.035942 0.750000
O O15 0.561008 0.118165 0.985617
O O16 0.500000 0.000000 0.000000
O O17 0.622998 0.005040 0.979258
O O18 0.455550 0.750000 0.500000
O O19 0.455844 0.822110 0.750000
O O20 0.120936 0.185276 0.250000
O O21 0.150539 0.250000 0.000000
O O22 0.341426 0.465801 0.250000
#
# Coordination Sequence:
#
# PCOD8232215 Si02
#       8
#     8   8   8   8   8   8   8   8
#     4   9  16  28  47  71  97 125 162 206 253 299
#     4   9  16  27  46  71  98 128 163 205 251 295
#     4  10  20  34  52  73 102 136 174 217 263 319
#     4  10  21  36  51  70 100 137 178 219 262 313
#     4  12  23  37  57  81 109 140 176 224 280 332
#     4  10  20  35  56  81 108 137 170 212 265 325
#     4  10  20  33  50  72 102 140 179 218 257 303
#     4  12  24  37  54  76 105 141 183 227 275 329
#
# _framework density 17.633911999999999
#
# number of rings (size 3 to 8) (size 9 to 14) (size 15 to 20)
#    0.000    1.750    1.250    4.500    0.000    6.000 
#    0.000    1.250    0.000    0.000    0.000    0.875 
#    0.000    0.000    0.000    0.000    0.000    0.000 
#
# Total GULP energy -793795.810833 kJ/mol
# GULP energy per Si atom -12403.059544 kJ/mol
# Density = 1.759378 g / cm^3
# Si number density = 17.633912 Si / 1000 Ang^3
#
#
#
# Elastic Constant Matrix: (Units=GPa)
#
#
# Indices 1 2 3 4 5 6 
#
# 1 80.4039 38.9312 34.8035 0.0000 0.0000 0.0000
# 2 38.9312 60.9586 34.1628 0.0000 0.0000 0.0000
# 3 34.8035 34.1628 123.4103 0.0000 0.0000 0.0000
# 4 0.0000 0.0000 0.0000 30.8668 0.0000 0.0000
# 5 0.0000 0.0000 0.0000 0.0000 29.5282 0.0000
# 6 0.0000 0.0000 0.0000 0.0000 0.0000 19.5840
#
#
#
# Elastic Compliance Matrix: (Units=1/GPa)
#
#
# Indices 1 2 3 4 5 6 
#
# 1 0.018545 -0.010549 -0.002310 0.000000 0.000000 0.000000
# 2 -0.010549 0.025418 -0.004061 0.000000 0.000000 0.000000
# 3 -0.002310 -0.004061 0.009879 0.000000 0.000000 0.000000
# 4 0.000000 0.000000 0.000000 0.032397 0.000000 0.000000
# 5 0.000000 0.000000 0.000000 0.000000 0.033866 0.000000
# 6 0.000000 0.000000 0.000000 0.000000 0.000000 0.051062
#
#
# Mechanical properties :
#
#
# Convention : Reuss Voigt Hill
#
# Bulk Modulus (GPa) = 49.99719 53.39643 51.69681
# Shear Modulus (GPa) = 23.62122 26.45416 25.03769
#
# Velocity S-wave (km/s) = 3.66393 3.87743 3.77219
# Velocity P-wave (km/s) = 6.80541 7.09874 6.95363
#
# Compressibility (1/GPa) = 0.02000113
#
# Stress axis : x y z
#
# Youngs Moduli (GPa) = 53.92322 39.34234 101.22862
#
# Poissons Ratio (x) = 0.41504 0.23380
# Poissons Ratio (y) = 0.56885 0.41111
# Poissons Ratio (z) = 0.12454 0.15978
#
# Static dielectric constant tensor:
#      x y z
#    x 3.147250 0.000000 0.000000 
#    y 0.000000 3.164320 0.000000 
#    z 0.000000 0.000000 3.261980 
# 
# 
# High freq. dielectric constant tensor:
#      x y z
#    x 1.660750 0.000000 0.000000 
#    y 0.000000 1.659500 0.000000 
#    z 0.000000 0.000000 1.703610 
# 
# From -- ./inp_files/8601.got.cif
#   From: 2010.03.12/outbox.cif.g09.slc.cpg/sg57_5_cif.got.tgz:8601.got - 2010.04.16 15:48:40.
