data_PCOD8232171
_publ_section_title
;
Structure prediction by ZEFSAII (Michael W. Deem and Ramdas Pophale) SiO2 
 PCOD8232171
Probable space group: P B C M
;
_chemical_formula_sum "Si O2"
_cell_formula_units_Z 64
_cell_length_a 18.451456
_cell_length_b 22.983375
_cell_length_c 9.106596
_cell_angle_alpha 90.000000
_cell_angle_beta 90.000000
_cell_angle_gamma 90.000000
_cell_volume 3861.895476
_symmetry_space_group_name_H-M "P B C M"
_symmetry_group_IT_number 57
_symmetry_cell_setting 'orthorhombic'
loop_
_space_group_symop_operation_xyz
x,y,z
-x,-y,1/2+z
x,1/2-y,-z
-x,1/2+y,1/2-z
-x,-y,-z
x,y,1/2-z
-x,1/2+y,z
x,1/2-y,1/2+z
loop_
_atom_site_type_symbol
_atom_site_label
_atom_site_fract_x
_atom_site_fract_y
_atom_site_fract_z
Si Si1 0.047682 0.920750 0.911590
Si Si2 0.459117 0.190055 0.423585
Si Si3 0.963792 0.689903 0.425377
Si Si4 0.541321 0.080491 0.411296
Si Si5 0.686255 0.625789 0.423987
Si Si6 0.833172 0.624671 0.925476
Si Si7 0.106711 0.018553 0.413426
Si Si8 0.392014 0.012495 0.089163
O O1 0.083462 0.920548 0.750000
O O2 0.029158 0.854982 0.961518
O O3 0.973031 0.955662 0.904436
O O4 0.102744 0.952734 0.022802
O O5 0.478762 0.250000 0.500000
O O6 0.466933 0.196123 0.250000
O O7 0.516909 0.142017 0.482590
O O8 0.377640 0.170674 0.463345
O O9 0.987119 0.750000 0.500000
O O10 0.951781 0.695579 0.250000
O O11 0.889983 0.668224 0.500200
O O12 0.572921 0.091831 0.250000
O O13 0.605260 0.047447 0.497945
O O14 0.471138 0.040148 0.401259
O O15 0.703377 0.626896 0.250000
O O16 0.754544 0.645620 0.520341
O O17 0.663118 0.560636 0.475390
O O18 0.839837 0.627831 0.750000
O O19 0.844773 0.558550 0.980594
O O20 0.141214 0.016453 0.250000
O O21 0.365028 0.994611 0.250000
#
# Coordination Sequence:
#
# PCOD8232171 Si02
#       8
#     8   8   8   8   8   8   8   8
#     4   8  15  27  43  63  84 106 135 173 215 256
#     4   9  18  30  43  59  82 113 144 176 210 245
#     4  10  20  33  47  63  86 116 148 181 215 250
#     4   8  14  25  40  59  81 102 128 167 213 252
#     4   9  18  32  44  57  83 114 145 180 215 248
#     4  11  21  31  44  62  85 115 150 182 214 252
#     4   9  16  27  44  63  83 108 137 173 217 257
#     4   8  14  25  42  60  77 102 133 168 212 256
#
# _framework density 16.572172999999999
#
# number of rings (size 3 to 8) (size 9 to 14) (size 15 to 20)
#    0.000    3.000    0.000    4.125    0.000    5.500 
#    0.000    3.750    0.000    0.000    0.000    0.000 
#    0.000    1.000    0.000    5.000    0.000    5.125 
#
# Total GULP energy -793098.707008 kJ/mol
# GULP energy per Si atom -12392.167297 kJ/mol
# Density = 1.653445 g / cm^3
# Si number density = 16.572173 Si / 1000 Ang^3
#
#
#
# Elastic Constant Matrix: (Units=GPa)
#
#
# Indices 1 2 3 4 5 6 
#
# 1 4.3832 14.2522 6.4122 0.0000 0.0000 0.0000
# 2 14.2522 119.9130 44.5850 0.0000 0.0000 0.0000
# 3 6.4122 44.5850 79.2577 0.0000 0.0000 0.0000
# 4 0.0000 0.0000 0.0000 29.8861 0.0000 0.0000
# 5 0.0000 0.0000 0.0000 0.0000 18.4169 0.0000
# 6 0.0000 0.0000 0.0000 0.0000 0.0000 14.6694
#
#
#
# Elastic Compliance Matrix: (Units=1/GPa)
#
#
# Indices 1 2 3 4 5 6 
#
# 1 0.374600 -0.042050 -0.006652 0.000000 0.000000 0.000000
# 2 -0.042050 0.015265 -0.005185 0.000000 0.000000 0.000000
# 3 -0.006652 -0.005185 0.016072 0.000000 0.000000 0.000000
# 4 0.000000 0.000000 0.000000 0.033460 0.000000 0.000000
# 5 0.000000 0.000000 0.000000 0.000000 0.054298 0.000000
# 6 0.000000 0.000000 0.000000 0.000000 0.000000 0.068169
#
#
# Mechanical properties :
#
#
# Convention : Reuss Voigt Hill
#
# Bulk Modulus (GPa) = 3.35386 37.11697 20.23542
# Shear Modulus (GPa) = 6.50172 21.81478 14.15825
#
# Velocity S-wave (km/s) = 1.98288 3.63209 2.92608
# Velocity P-wave (km/s) = 2.69640 6.32734 4.86342
#
# Compressibility (1/GPa) = 0.29816360
#
# Stress axis : x y z
#
# Youngs Moduli (GPa) = 2.66951 65.50905 62.21983
#
# Poissons Ratio (x) = 2.75463 0.41390
# Poissons Ratio (y) = 0.11225 0.32262
# Poissons Ratio (z) = 0.01776 0.33967
#
# Static dielectric constant tensor:
#      x y z
#    x 2.748130 0.000000 0.000000 
#    y 0.000000 3.250930 0.000000 
#    z 0.000000 0.000000 3.315850 
# 
# 
# High freq. dielectric constant tensor:
#      x y z
#    x 1.584930 0.000000 0.000000 
#    y 0.000000 1.631320 0.000000 
#    z 0.000000 0.000000 1.641440 
# 
# From -- ./inp_files/7424.got.cif
#   From: 2010.03.12/outbox.cif.g09.slc.cpg/sg57_4_cif.got.tgz:7424.got - 2010.04.16 15:48:40.
