data_PCOD8232460
_publ_section_title
;
Structure prediction by ZEFSAII (Michael W. Deem and Ramdas Pophale) SiO2 
 PCOD8232460
Probable space group: P B C M
;
_chemical_formula_sum "Si O2"
_cell_formula_units_Z 48
_cell_length_a 10.988683
_cell_length_b 25.573822
_cell_length_c 9.172370
_cell_angle_alpha 90.000000
_cell_angle_beta 90.000000
_cell_angle_gamma 90.000000
_cell_volume 2577.643477
_symmetry_space_group_name_H-M "P B C M"
_symmetry_group_IT_number 57
_symmetry_cell_setting 'orthorhombic'
loop_
_space_group_symop_operation_xyz
x,y,z
-x,-y,1/2+z
x,1/2-y,-z
-x,1/2+y,1/2-z
-x,-y,-z
x,y,1/2-z
-x,1/2+y,z
x,1/2-y,1/2+z
loop_
_atom_site_type_symbol
_atom_site_label
_atom_site_fract_x
_atom_site_fract_y
_atom_site_fract_z
Si Si1 0.120943 0.031273 0.964418
Si Si2 0.758065 0.428177 0.911774
Si Si3 0.692471 0.600764 0.091438
Si Si4 0.140864 0.197494 0.081060
Si Si5 0.481167 0.555003 0.576678
Si Si6 0.028496 0.625387 0.590599
O O1 0.199902 0.056716 0.095513
O O2 0.076065 0.081849 0.874527
O O3 0.210312 0.989816 0.887080
O O4 0.000000 0.000000 0.000000
O O5 0.736652 0.404601 0.750000
O O6 0.640729 0.419410 0.012430
O O7 0.865866 0.398374 0.992157
O O8 0.628629 0.597119 0.250000
O O9 0.746315 0.658182 0.067636
O O10 0.595421 0.591620 0.963211
O O11 0.107486 0.207902 0.250000
O O12 0.181564 0.250000 0.000000
O O13 0.023381 0.174513 0.998077
O O14 0.500000 0.500000 0.500000
O O15 0.470531 0.548695 0.750000
O O16 0.076600 0.643672 0.750000
#
# Coordination Sequence:
#
# PCOD8232460 Si02
#       6
#     8   8   8   8   8   8
#     4   9  19  30  49  75 110 145 184 219 272 321
#     4  11  21  34  52  76 110 150 189 225 270 324
#     4  10  21  37  56  79 110 146 188 232 277 330
#     4  10  21  38  61  87 112 142 180 229 285 336
#     4  12  24  36  53  77 110 152 194 232 275 327
#     4  10  20  34  53  80 111 143 182 226 275 330
#
# _framework density 18.621661
#
# number of rings (size 3 to 8) (size 9 to 14) (size 15 to 20)
#    0.000    1.667    1.667    3.500    0.000   10.000 
#    0.000    0.000    0.000    1.000    0.000    4.667 
#    0.000    0.000    0.000    0.000    0.000    0.000 
#
# Total GULP energy -594662.632566 kJ/mol
# GULP energy per Si atom -12388.804845 kJ/mol
# Density = 1.857928 g / cm^3
# Si number density = 18.621661 Si / 1000 Ang^3
#
#
#
# Elastic Constant Matrix: (Units=GPa)
#
#
# Indices 1 2 3 4 5 6 
#
# 1 93.8094 35.8416 53.3761 0.0000 0.0000 0.0000
# 2 35.8416 84.6814 47.7124 0.0000 0.0000 0.0000
# 3 53.3761 47.7124 183.0693 0.0000 0.0000 0.0000
# 4 0.0000 0.0000 0.0000 17.9441 0.0000 0.0000
# 5 0.0000 0.0000 0.0000 0.0000 28.0134 0.0000
# 6 0.0000 0.0000 0.0000 0.0000 0.0000 17.6771
#
#
#
# Elastic Compliance Matrix: (Units=1/GPa)
#
#
# Indices 1 2 3 4 5 6 
#
# 1 0.013968 -0.004240 -0.002968 0.000000 0.000000 0.000000
# 2 -0.004240 0.015129 -0.002707 0.000000 0.000000 0.000000
# 3 -0.002968 -0.002707 0.007033 0.000000 0.000000 0.000000
# 4 0.000000 0.000000 0.000000 0.055729 0.000000 0.000000
# 5 0.000000 0.000000 0.000000 0.000000 0.035697 0.000000
# 6 0.000000 0.000000 0.000000 0.000000 0.000000 0.056570
#
#
# Mechanical properties :
#
#
# Convention : Reuss Voigt Hill
#
# Bulk Modulus (GPa) = 61.34431 70.60224 65.97328
# Shear Modulus (GPa) = 23.87903 27.70227 25.79065
#
# Velocity S-wave (km/s) = 3.58484 3.86117 3.72557
# Velocity P-wave (km/s) = 7.08158 7.60753 7.34926
#
# Compressibility (1/GPa) = 0.01630143
#
# Stress axis : x y z
#
# Youngs Moduli (GPa) = 71.58993 66.09990 142.18558
#
# Poissons Ratio (x) = 0.28027 0.42195
# Poissons Ratio (y) = 0.30355 0.38484
# Poissons Ratio (z) = 0.21245 0.17891
#
# Static dielectric constant tensor:
#      x y z
#    x 3.598090 0.000000 0.000000 
#    y 0.000000 3.277740 0.000000 
#    z 0.000000 0.000000 3.611010 
# 
# 
# High freq. dielectric constant tensor:
#      x y z
#    x 1.717100 0.000000 0.000000 
#    y 0.000000 1.691290 0.000000 
#    z 0.000000 0.000000 1.734910 
# 
# From -- ./inp_files/3306.got.cif
#   From: 2010.03.12/outbox.cif.g09.slc.cpg/sg57_2_cif.got.tgz:3306.got - 2010.04.16 15:48:40.
