data_PCOD8232512
_publ_section_title
;
Structure prediction by ZEFSAII (Michael W. Deem and Ramdas Pophale) SiO2 
 PCOD8232512
Probable space group: P B C M
;
_chemical_formula_sum "Si O2"
_cell_formula_units_Z 56
_cell_length_a 15.147838
_cell_length_b 20.808296
_cell_length_c 8.912326
_cell_angle_alpha 90.000000
_cell_angle_beta 90.000000
_cell_angle_gamma 90.000000
_cell_volume 2809.171366
_symmetry_space_group_name_H-M "P B C M"
_symmetry_group_IT_number 57
_symmetry_cell_setting 'orthorhombic'
loop_
_space_group_symop_operation_xyz
x,y,z
-x,-y,1/2+z
x,1/2-y,-z
-x,1/2+y,1/2-z
-x,-y,-z
x,y,1/2-z
-x,1/2+y,z
x,1/2-y,1/2+z
loop_
_atom_site_type_symbol
_atom_site_label
_atom_site_fract_x
_atom_site_fract_y
_atom_site_fract_z
Si Si1 0.444724 0.558785 0.071702
Si Si2 0.526022 0.817028 0.076783
Si Si3 0.146182 0.308490 0.082084
Si Si4 0.950162 0.315038 0.427090
Si Si5 0.919489 0.459004 0.072612
Si Si6 0.720722 0.013580 0.576380
Si Si7 0.305979 0.391313 0.083512
O O1 0.453146 0.554525 0.250000
O O2 0.500000 0.500000 0.000000
O O3 0.479528 0.626204 0.012314
O O4 0.341475 0.559916 0.021846
O O5 0.495149 0.815659 0.250000
O O6 0.631003 0.829848 0.063310
O O7 0.501701 0.750000 0.000000
O O8 0.132766 0.285647 0.250000
O O9 0.204349 0.371621 0.068796
O O10 0.050272 0.321172 0.012395
O O11 0.195027 0.250000 0.000000
O O12 0.906756 0.250000 0.500000
O O13 0.940049 0.307470 0.250000
O O14 0.911494 0.384031 0.479156
O O15 0.935991 0.462642 0.250000
O O16 0.823442 0.486676 0.026151
O O17 0.000000 0.500000 0.000000
O O18 0.711288 0.031881 0.750000
O O19 0.678568 0.943347 0.545609
O O20 0.322756 0.421628 0.250000
#
# Coordination Sequence:
#
# PCOD8232512 Si02
#       7
#     8   8   8   8   8   8   8
#     4  12  24  42  66  91 121 161 207 255 309 371
#     4  11  23  39  61  91 126 164 206 255 312 370
#     4   9  17  29  47  73 106 147 189 234 291 357
#     4   9  18  34  54  77 110 151 198 248 301 357
#     4  10  22  39  60  89 124 161 204 259 313 368
#     4  11  23  38  60  89 119 157 205 254 310 373
#     4  10  20  34  54  81 116 156 196 242 304 371
#
# _framework density 19.934705999999998
#
# number of rings (size 3 to 8) (size 9 to 14) (size 15 to 20)
#    0.000    1.714    1.429    3.429    0.000    4.000 
#    0.000    3.571    0.000    1.714    0.000    0.000 
#    0.000    0.000    0.000    0.000    0.000    0.000 
#
# Total GULP energy -693866.569542 kJ/mol
# GULP energy per Si atom -12390.474456 kJ/mol
# Density = 1.988933 g / cm^3
# Si number density = 19.934706 Si / 1000 Ang^3
#
#
#
# Elastic Constant Matrix: (Units=GPa)
#
#
# Indices 1 2 3 4 5 6 
#
# 1 90.3757 37.0582 44.8918 0.0000 0.0000 0.0000
# 2 37.0582 142.8006 55.5231 0.0000 0.0000 0.0000
# 3 44.8918 55.5231 101.4764 0.0000 0.0000 0.0000
# 4 0.0000 0.0000 0.0000 36.8701 0.0000 0.0000
# 5 0.0000 0.0000 0.0000 0.0000 26.6013 0.0000
# 6 0.0000 0.0000 0.0000 0.0000 0.0000 23.2031
#
#
#
# Elastic Compliance Matrix: (Units=1/GPa)
#
#
# Indices 1 2 3 4 5 6 
#
# 1 0.014466 -0.001608 -0.005520 0.000000 0.000000 0.000000
# 2 -0.001608 0.009074 -0.004253 0.000000 0.000000 0.000000
# 3 -0.005520 -0.004253 0.014624 0.000000 0.000000 0.000000
# 4 0.000000 0.000000 0.000000 0.027122 0.000000 0.000000
# 5 0.000000 0.000000 0.000000 0.000000 0.037592 0.000000
# 6 0.000000 0.000000 0.000000 0.000000 0.000000 0.043098
#
#
# Mechanical properties :
#
#
# Convention : Reuss Voigt Hill
#
# Bulk Modulus (GPa) = 64.92986 67.73320 66.33153
# Shear Modulus (GPa) = 28.75681 30.48020 29.61850
#
# Velocity S-wave (km/s) = 3.80221 3.91449 3.85876
# Velocity P-wave (km/s) = 7.20540 7.38121 7.29383
#
# Compressibility (1/GPa) = 0.01540123
#
# Stress axis : x y z
#
# Youngs Moduli (GPa) = 69.12729 110.20674 68.38210
#
# Poissons Ratio (x) = 0.17720 0.37746
# Poissons Ratio (y) = 0.11115 0.29086
# Poissons Ratio (z) = 0.38157 0.46876
#
# Static dielectric constant tensor:
#      x y z
#    x 3.788380 0.000000 0.000000 
#    y 0.000000 3.820110 0.000000 
#    z 0.000000 0.000000 3.573850 
# 
# 
# High freq. dielectric constant tensor:
#      x y z
#    x 1.770050 0.000000 0.000000 
#    y 0.000000 1.776660 0.000000 
#    z 0.000000 0.000000 1.774570 
# 
# From -- ./inp_files/5269.got.cif
#   From: 2010.03.12/outbox.cif.g09.slc.cpg/sg57_3_cif.got.tgz:5269.got - 2010.04.16 15:48:40.
