data_PCOD8232404
_publ_section_title
;
Structure prediction by ZEFSAII (Michael W. Deem and Ramdas Pophale) SiO2 
 PCOD8232404
Probable space group: P B C M
;
_chemical_formula_sum "Si O2"
_cell_formula_units_Z 56
_cell_length_a 19.412103
_cell_length_b 16.068313
_cell_length_c 8.687118
_cell_angle_alpha 90.000000
_cell_angle_beta 90.000000
_cell_angle_gamma 90.000000
_cell_volume 2709.683649
_symmetry_space_group_name_H-M "P B C M"
_symmetry_group_IT_number 57
_symmetry_cell_setting 'orthorhombic'
loop_
_space_group_symop_operation_xyz
x,y,z
-x,-y,1/2+z
x,1/2-y,-z
-x,1/2+y,1/2-z
-x,-y,-z
x,y,1/2-z
-x,1/2+y,z
x,1/2-y,1/2+z
loop_
_atom_site_type_symbol
_atom_site_label
_atom_site_fract_x
_atom_site_fract_y
_atom_site_fract_z
Si Si1 0.290403 0.413207 0.569426
Si Si2 0.924313 0.998199 0.066933
Si Si3 0.849595 0.662346 0.068470
Si Si4 0.714912 0.404348 0.068938
Si Si5 0.579798 0.341009 0.569502
Si Si6 0.428628 0.160236 0.070411
Si Si7 0.154399 0.664337 0.069015
O O1 0.301192 0.420186 0.750000
O O2 0.231657 0.346201 0.527636
O O3 0.264606 0.503134 0.512413
O O4 0.364792 0.390585 0.495068
O O5 0.925814 0.995244 0.250000
O O6 0.886229 0.082574 0.008657
O O7 0.888753 0.914916 0.005728
O O8 0.000000 0.000000 0.000000
O O9 0.863242 0.661227 0.250000
O O10 0.876097 0.750000 0.000000
O O11 0.722986 0.389948 0.250000
O O12 0.635842 0.394671 0.019731
O O13 0.765816 0.341222 0.982749
O O14 0.582316 0.250000 0.500000
O O15 0.597002 0.337453 0.750000
O O16 0.503746 0.381119 0.539090
O O17 0.416087 0.170738 0.250000
O O18 0.427721 0.250000 0.000000
O O19 0.149311 0.671092 0.250000
O O20 0.122708 0.750000 0.000000
#
# Coordination Sequence:
#
# PCOD8232404 Si02
#       7
#     8   8   8   8   8   8   8
#     4   9  19  35  57  84 116 156 200 252 308 363
#     4  11  25  45  69  98 132 167 205 253 305 368
#     4  11  22  40  66  96 130 169 212 257 310 368
#     4  11  21  36  58  83 116 157 201 251 307 366
#     4  10  20  34  52  76 109 150 197 252 306 363
#     4   9  18  34  53  76 109 149 197 249 305 363
#     4  11  24  42  66  95 126 162 207 254 306 365
#
# _framework density 20.666619000000001
#
# number of rings (size 3 to 8) (size 9 to 14) (size 15 to 20)
#    0.000    1.714    1.429    3.000    0.000    3.429 
#    0.000    3.571    0.000    0.000    0.000    0.000 
#    0.000    0.000    0.000    0.000    0.000    0.000 
#
# Total GULP energy -694189.007278 kJ/mol
# GULP energy per Si atom -12396.232273 kJ/mol
# Density = 2.061958 g / cm^3
# Si number density = 20.666619 Si / 1000 Ang^3
#
#
#
# Elastic Constant Matrix: (Units=GPa)
#
#
# Indices 1 2 3 4 5 6 
#
# 1 115.8196 55.9900 34.3224 0.0000 0.0000 0.0000
# 2 55.9900 142.9747 42.2837 0.0000 0.0000 0.0000
# 3 34.3224 42.2837 67.9469 0.0000 0.0000 0.0000
# 4 0.0000 0.0000 0.0000 29.5154 0.0000 0.0000
# 5 0.0000 0.0000 0.0000 0.0000 21.0240 0.0000
# 6 0.0000 0.0000 0.0000 0.0000 0.0000 29.0487
#
#
#
# Elastic Compliance Matrix: (Units=1/GPa)
#
#
# Indices 1 2 3 4 5 6 
#
# 1 0.011338 -0.003366 -0.003633 0.000000 0.000000 0.000000
# 2 -0.003366 0.009571 -0.004256 0.000000 0.000000 0.000000
# 3 -0.003633 -0.004256 0.019201 0.000000 0.000000 0.000000
# 4 0.000000 0.000000 0.000000 0.033881 0.000000 0.000000
# 5 0.000000 0.000000 0.000000 0.000000 0.047565 0.000000
# 6 0.000000 0.000000 0.000000 0.000000 0.000000 0.034425
#
#
# Mechanical properties :
#
#
# Convention : Reuss Voigt Hill
#
# Bulk Modulus (GPa) = 56.81474 65.77039 61.29256
# Shear Modulus (GPa) = 27.12160 28.86063 27.99111
#
# Velocity S-wave (km/s) = 3.62655 3.74101 3.68423
# Velocity P-wave (km/s) = 6.71465 7.11012 6.91521
#
# Compressibility (1/GPa) = 0.01760107
#
# Stress axis : x y z
#
# Youngs Moduli (GPa) = 88.20187 104.48342 52.08109
#
# Poissons Ratio (x) = 0.35165 0.18919
# Poissons Ratio (y) = 0.29685 0.22165
# Poissons Ratio (z) = 0.32040 0.44467
#
# Static dielectric constant tensor:
#      x y z
#    x 3.953360 0.000000 0.000000 
#    y 0.000000 3.847700 0.000000 
#    z 0.000000 0.000000 3.656940 
# 
# 
# High freq. dielectric constant tensor:
#      x y z
#    x 1.816920 0.000000 0.000000 
#    y 0.000000 1.810720 0.000000 
#    z 0.000000 0.000000 1.799990 
# 
# From -- ./inp_files/8078.got.cif
#   From: 2010.03.12/outbox.cif.g09.slc.cpg/sg57_5_cif.got.tgz:8078.got - 2010.04.16 15:48:40.
