data_PCOD8232914
_publ_section_title
;
Structure prediction by ZEFSAII (Michael W. Deem and Ramdas Pophale) SiO2 
 PCOD8232914
Probable space group: P B C M
;
_chemical_formula_sum "Si O2"
_cell_formula_units_Z 48
_cell_length_a 14.641513
_cell_length_b 18.490213
_cell_length_c 8.844125
_cell_angle_alpha 90.000000
_cell_angle_beta 90.000000
_cell_angle_gamma 90.000000
_cell_volume 2394.323034
_symmetry_space_group_name_H-M "P B C M"
_symmetry_group_IT_number 57
_symmetry_cell_setting 'orthorhombic'
loop_
_space_group_symop_operation_xyz
x,y,z
-x,-y,1/2+z
x,1/2-y,-z
-x,1/2+y,1/2-z
-x,-y,-z
x,y,1/2-z
-x,1/2+y,z
x,1/2-y,1/2+z
loop_
_atom_site_type_symbol
_atom_site_label
_atom_site_fract_x
_atom_site_fract_y
_atom_site_fract_z
Si Si1 0.432519 0.401924 0.423928
Si Si2 0.371437 0.548342 0.925695
Si Si3 0.859114 0.921460 0.076141
Si Si4 0.186017 0.916379 0.573365
Si Si5 0.031976 0.826338 0.071797
Si Si6 0.716895 0.822628 0.926345
O O1 0.405253 0.393635 0.250000
O O2 0.541468 0.398937 0.447266
O O3 0.389108 0.476386 0.480553
O O4 0.386483 0.336513 0.516229
O O5 0.357715 0.528130 0.750000
O O6 0.283459 0.588531 0.991036
O O7 0.834230 0.905431 0.250000
O O8 0.954864 0.885295 0.031952
O O9 0.863723 0.006933 0.043875
O O10 0.779778 0.889921 0.971458
O O11 0.200082 0.901671 0.750000
O O12 0.125595 0.852910 0.502767
O O13 0.045301 0.817245 0.250000
O O14 0.002894 0.750000 0.000000
O O15 0.716846 0.811847 0.750000
O O16 0.757041 0.750000 0.000000
#
# Coordination Sequence:
#
# PCOD8232914 Si02
#       6
#     8   8   8   8   8   8
#     4  10  20  36  57  84 120 155 196 244 292 352
#     4  10  20  35  59  89 118 154 197 243 294 347
#     4  10  22  40  62  90 121 156 199 250 302 358
#     4  11  22  38  63  92 123 158 199 250 301 355
#     4  11  24  42  62  86 120 159 203 249 302 363
#     4  12  24  37  58  86 122 163 203 249 306 364
#
# _framework density 20.047419999999999
#
# number of rings (size 3 to 8) (size 9 to 14) (size 15 to 20)
#    0.000    1.333    1.667    4.500    0.000    5.333 
#    0.000    0.833    0.000    4.000    0.000    0.000 
#    0.000    0.000    0.000    0.000    0.000    0.000 
#
# Total GULP energy -595452.197836 kJ/mol
# GULP energy per Si atom -12405.254122 kJ/mol
# Density = 2.000179 g / cm^3
# Si number density = 20.047420 Si / 1000 Ang^3
#
#
#
# Elastic Constant Matrix: (Units=GPa)
#
#
# Indices 1 2 3 4 5 6 
#
# 1 105.6128 13.9960 38.2032 0.0000 0.0000 0.0000
# 2 13.9960 50.5239 26.4242 0.0000 0.0000 0.0000
# 3 38.2032 26.4242 118.3316 0.0000 0.0000 0.0000
# 4 0.0000 0.0000 0.0000 33.6565 0.0000 0.0000
# 5 0.0000 0.0000 0.0000 0.0000 32.6763 0.0000
# 6 0.0000 0.0000 0.0000 0.0000 0.0000 21.8894
#
#
#
# Elastic Compliance Matrix: (Units=1/GPa)
#
#
# Indices 1 2 3 4 5 6 
#
# 1 0.010798 -0.001322 -0.003191 0.000000 0.000000 0.000000
# 2 -0.001322 0.022572 -0.004614 0.000000 0.000000 0.000000
# 3 -0.003191 -0.004614 0.010511 0.000000 0.000000 0.000000
# 4 0.000000 0.000000 0.000000 0.029712 0.000000 0.000000
# 5 0.000000 0.000000 0.000000 0.000000 0.030603 0.000000
# 6 0.000000 0.000000 0.000000 0.000000 0.000000 0.045684
#
#
# Mechanical properties :
#
#
# Convention : Reuss Voigt Hill
#
# Bulk Modulus (GPa) = 39.02047 47.96833 43.49440
# Shear Modulus (GPa) = 28.30031 30.70075 29.50053
#
# Velocity S-wave (km/s) = 3.76129 3.91756 3.84022
# Velocity P-wave (km/s) = 6.19431 6.66652 6.43475
#
# Compressibility (1/GPa) = 0.02562758
#
# Stress axis : x y z
#
# Youngs Moduli (GPa) = 92.60964 44.30299 95.13653
#
# Poissons Ratio (x) = 0.05859 0.30356
# Poissons Ratio (y) = 0.12247 0.43891
# Poissons Ratio (z) = 0.29550 0.20439
#
# Static dielectric constant tensor:
#      x y z
#    x 3.799860 0.000000 0.000000 
#    y 0.000000 3.484040 0.000000 
#    z 0.000000 0.000000 3.708420 
# 
# 
# High freq. dielectric constant tensor:
#      x y z
#    x 1.790170 0.000000 0.000000 
#    y 0.000000 1.764750 0.000000 
#    z 0.000000 0.000000 1.795390 
# 
# From -- ./inp_files/4577.got.cif
#   From: 2010.03.12/outbox.cif.g09.slc.cpg/sg57_3_cif.got.tgz:4577.got - 2010.04.16 15:48:40.
