data_PCOD8232496
_publ_section_title
;
Structure prediction by ZEFSAII (Michael W. Deem and Ramdas Pophale) SiO2 
 PCOD8232496
Probable space group: P B C M
;
_chemical_formula_sum "Si O2"
_cell_formula_units_Z 40
_cell_length_a 9.401642
_cell_length_b 25.707949
_cell_length_c 8.996796
_cell_angle_alpha 90.000000
_cell_angle_beta 90.000000
_cell_angle_gamma 90.000000
_cell_volume 2174.498000
_symmetry_space_group_name_H-M "P B C M"
_symmetry_group_IT_number 57
_symmetry_cell_setting 'orthorhombic'
loop_
_space_group_symop_operation_xyz
x,y,z
-x,-y,1/2+z
x,1/2-y,-z
-x,1/2+y,1/2-z
-x,-y,-z
x,y,1/2-z
-x,1/2+y,z
x,1/2-y,1/2+z
loop_
_atom_site_type_symbol
_atom_site_label
_atom_site_fract_x
_atom_site_fract_y
_atom_site_fract_z
Si Si1 0.844022 0.889233 0.917470
Si Si2 0.179968 0.895436 0.577291
Si Si3 0.347257 0.803286 0.425358
Si Si4 0.150063 0.995894 0.077485
Si Si5 0.674129 0.802302 0.422789
O O1 0.814361 0.869943 0.750000
O O2 0.012001 0.889726 0.948425
O O3 0.777405 0.947226 0.939293
O O4 0.768826 0.851039 0.031215
O O5 0.221231 0.894817 0.750000
O O6 0.255793 0.849193 0.492772
O O7 0.236192 0.949842 0.505408
O O8 0.294291 0.750000 0.500000
O O9 0.322332 0.799778 0.250000
O O10 0.511356 0.813559 0.466779
O O11 0.130465 0.981373 0.250000
O O12 0.000000 0.000000 0.000000
O O13 0.730728 0.750000 0.500000
O O14 0.692009 0.793246 0.250000
#
# Coordination Sequence:
#
# PCOD8232496 Si02
#       5
#     8   8   8   8   8
#     4   9  19  34  53  78 106 134 169 210 253 301
#     4  10  20  34  54  80 106 136 173 213 256 304
#     4  10  21  37  55  76 102 135 173 213 258 309
#     4   9  17  31  51  76 106 138 170 209 256 306
#     4  10  21  36  55  76 101 135 173 211 257 308
#
# _framework density 18.395049
#
# number of rings (size 3 to 8) (size 9 to 14) (size 15 to 20)
#    0.000    2.400    0.000    3.600    0.000    8.000 
#    0.000    1.000    0.000    0.000    0.000    0.000 
#    0.000    0.000    0.000    0.000    0.000    0.000 
#
# Total GULP energy -495929.253324 kJ/mol
# GULP energy per Si atom -12398.231333 kJ/mol
# Density = 1.835318 g / cm^3
# Si number density = 18.395049 Si / 1000 Ang^3
#
#
#
# Elastic Constant Matrix: (Units=GPa)
#
#
# Indices 1 2 3 4 5 6 
#
# 1 36.1959 42.0370 29.3485 0.0000 0.0000 0.0000
# 2 42.0370 147.1248 63.6492 0.0000 0.0000 0.0000
# 3 29.3485 63.6492 102.9996 0.0000 0.0000 0.0000
# 4 0.0000 0.0000 0.0000 43.5818 0.0000 0.0000
# 5 0.0000 0.0000 0.0000 0.0000 25.8436 0.0000
# 6 0.0000 0.0000 0.0000 0.0000 0.0000 229.6482
#
#
#
# Elastic Compliance Matrix: (Units=1/GPa)
#
#
# Indices 1 2 3 4 5 6 
#
# 1 0.044378 -0.009840 -0.006564 0.000000 0.000000 0.000000
# 2 -0.009840 0.011459 -0.004277 0.000000 0.000000 0.000000
# 3 -0.006564 -0.004277 0.014222 0.000000 0.000000 0.000000
# 4 0.000000 0.000000 0.000000 0.022945 0.000000 0.000000
# 5 0.000000 0.000000 0.000000 0.000000 0.038694 0.000000
# 6 0.000000 0.000000 0.000000 0.000000 0.000000 0.004354
#
#
# Mechanical properties :
#
#
# Convention : Reuss Voigt Hill
#
# Bulk Modulus (GPa) = 34.84808 61.82109 48.33458
# Shear Modulus (GPa) = 26.74062 69.90043 48.32052
#
# Velocity S-wave (km/s) = 3.81686 6.17107 5.13081
# Velocity P-wave (km/s) = 6.19758 9.19002 7.83794
#
# Compressibility (1/GPa) = 0.02869599
#
# Stress axis : x y z
#
# Youngs Moduli (GPa) = 22.53383 87.26824 70.31168
#
# Poissons Ratio (x) = 0.85871 0.46154
# Poissons Ratio (y) = 0.22173 0.30075
# Poissons Ratio (z) = 0.14792 0.37328
#
# Static dielectric constant tensor:
#      x y z
#    x 3.076180 0.000000 0.000000 
#    y 0.000000 3.760070 0.000000 
#    z 0.000000 0.000000 3.687750 
# 
# 
# High freq. dielectric constant tensor:
#      x y z
#    x 1.675910 0.000000 0.000000 
#    y 0.000000 1.731990 0.000000 
#    z 0.000000 0.000000 1.730690 
# 
# From -- ./inp_files/1516.got.cif
#   From: 2010.03.12/outbox.cif.g09.slc.cpg/sg57_1_cif.got.tgz:1516.got - 2010.04.16 15:48:40.
