data_PCOD8232866
_publ_section_title
;
Structure prediction by ZEFSAII (Michael W. Deem and Ramdas Pophale) SiO2 
 PCOD8232866
Probable space group: P B C M
;
_chemical_formula_sum "Si O2"
_cell_formula_units_Z 48
_cell_length_a 15.103463
_cell_length_b 18.705014
_cell_length_c 9.046729
_cell_angle_alpha 90.000000
_cell_angle_beta 90.000000
_cell_angle_gamma 90.000000
_cell_volume 2555.795814
_symmetry_space_group_name_H-M "P B C M"
_symmetry_group_IT_number 57
_symmetry_cell_setting 'orthorhombic'
loop_
_space_group_symop_operation_xyz
x,y,z
-x,-y,1/2+z
x,1/2-y,-z
-x,1/2+y,1/2-z
-x,-y,-z
x,y,1/2-z
-x,1/2+y,z
x,1/2-y,1/2+z
loop_
_atom_site_type_symbol
_atom_site_label
_atom_site_fract_x
_atom_site_fract_y
_atom_site_fract_z
Si Si1 0.903951 0.077396 0.422845
Si Si2 0.260852 0.674661 0.425381
Si Si3 0.081324 0.085289 0.575988
Si Si4 0.598907 0.081396 0.921680
Si Si5 0.604230 0.935881 0.420658
Si Si6 0.247593 0.325013 0.423807
O O1 0.920426 0.084336 0.250000
O O2 0.817563 0.120899 0.471663
O O3 0.989846 0.110272 0.502343
O O4 0.891639 0.995069 0.471526
O O5 0.239949 0.750000 0.500000
O O6 0.268813 0.683832 0.250000
O O7 0.352453 0.643736 0.488404
O O8 0.069372 0.090269 0.750000
O O9 0.157998 0.137682 0.518896
O O10 0.623972 0.087085 0.750000
O O11 0.494662 0.092091 0.948915
O O12 0.628263 0.004241 0.981159
O O13 0.618827 0.957904 0.250000
O O14 0.669186 0.873103 0.469858
O O15 0.260083 0.250000 0.500000
O O16 0.244113 0.313483 0.250000
#
# Coordination Sequence:
#
# PCOD8232866 Si02
#       6
#     8   8   8   8   8   8
#     4   9  19  36  57  78 101 135 177 220 268 318
#     4  11  23  38  55  77 110 147 181 221 270 322
#     4   9  18  34  56  79 103 134 173 218 266 315
#     4  10  20  35  58  85 108 137 180 224 268 319
#     4   9  19  37  58  80 109 143 178 220 268 317
#     4  10  21  36  53  76 109 145 178 214 262 316
#
# _framework density 18.780843000000001
#
# number of rings (size 3 to 8) (size 9 to 14) (size 15 to 20)
#    0.000    2.333    0.000    2.000    0.000    7.333 
#    0.000    8.333    0.000    0.000    0.000    0.000 
#    0.000    0.000    0.000    0.000    0.000    0.000 
#
# Total GULP energy -595386.213400 kJ/mol
# GULP energy per Si atom -12403.879446 kJ/mol
# Density = 1.873810 g / cm^3
# Si number density = 18.780843 Si / 1000 Ang^3
#
#
#
# Elastic Constant Matrix: (Units=GPa)
#
#
# Indices 1 2 3 4 5 6 
#
# 1 92.2573 42.6431 37.0597 0.0000 0.0000 0.0000
# 2 42.6431 81.1627 36.1925 0.0000 0.0000 0.0000
# 3 37.0597 36.1925 58.2095 0.0000 0.0000 0.0000
# 4 0.0000 0.0000 0.0000 35.9991 0.0000 0.0000
# 5 0.0000 0.0000 0.0000 0.0000 30.3120 0.0000
# 6 0.0000 0.0000 0.0000 0.0000 0.0000 18.9770
#
#
#
# Elastic Compliance Matrix: (Units=1/GPa)
#
#
# Indices 1 2 3 4 5 6 
#
# 1 0.016100 -0.005380 -0.006905 0.000000 0.000000 0.000000
# 2 -0.005380 0.018845 -0.008292 0.000000 0.000000 0.000000
# 3 -0.006905 -0.008292 0.026731 0.000000 0.000000 0.000000
# 4 0.000000 0.000000 0.000000 0.027778 0.000000 0.000000
# 5 0.000000 0.000000 0.000000 0.000000 0.032990 0.000000
# 6 0.000000 0.000000 0.000000 0.000000 0.000000 0.052695
#
#
# Mechanical properties :
#
#
# Convention : Reuss Voigt Hill
#
# Bulk Modulus (GPa) = 48.72787 51.49114 50.10950
# Shear Modulus (GPa) = 22.40796 24.77321 23.59059
#
# Velocity S-wave (km/s) = 3.45792 3.63584 3.54799
# Velocity P-wave (km/s) = 6.47648 6.71581 6.59723
#
# Compressibility (1/GPa) = 0.02052214
#
# Stress axis : x y z
#
# Youngs Moduli (GPa) = 62.11326 53.06415 37.40922
#
# Poissons Ratio (x) = 0.28546 0.25832
# Poissons Ratio (y) = 0.33414 0.31021
# Poissons Ratio (z) = 0.42890 0.44002
#
# Static dielectric constant tensor:
#      x y z
#    x 3.605070 0.000000 0.000000 
#    y 0.000000 3.409830 0.000000 
#    z 0.000000 0.000000 3.399040 
# 
# 
# High freq. dielectric constant tensor:
#      x y z
#    x 1.740950 0.000000 0.000000 
#    y 0.000000 1.724530 0.000000 
#    z 0.000000 0.000000 1.726740 
# 
# From -- ./inp_files/4533.got.cif
#   From: 2010.03.12/outbox.cif.g09.slc.cpg/sg57_3_cif.got.tgz:4533.got - 2010.04.16 15:48:40.
