data_PCOD8232623
_publ_section_title
;
Structure prediction by ZEFSAII (Michael W. Deem and Ramdas Pophale) SiO2 
 PCOD8232623
Probable space group: P B C M
;
_chemical_formula_sum "Si O2"
_cell_formula_units_Z 56
_cell_length_a 15.827536
_cell_length_b 11.728264
_cell_length_c 13.693341
_cell_angle_alpha 90.000000
_cell_angle_beta 90.000000
_cell_angle_gamma 90.000000
_cell_volume 2541.888326
_symmetry_space_group_name_H-M "P B C M"
_symmetry_group_IT_number 57
_symmetry_cell_setting 'orthorhombic'
loop_
_space_group_symop_operation_xyz
x,y,z
-x,-y,1/2+z
x,1/2-y,-z
-x,1/2+y,1/2-z
-x,-y,-z
x,y,1/2-z
-x,1/2+y,z
x,1/2-y,1/2+z
loop_
_atom_site_type_symbol
_atom_site_label
_atom_site_fract_x
_atom_site_fract_y
_atom_site_fract_z
Si Si1 0.720202 0.317523 0.860039
Si Si2 0.758067 0.077518 0.553798
Si Si3 0.574986 0.479467 0.636844
Si Si4 0.672044 0.805794 0.138653
Si Si5 0.609803 0.564381 0.136121
Si Si6 0.913575 0.936553 0.979051
Si Si7 0.139147 0.277020 0.134841
O O1 0.750135 0.348439 0.750000
O O2 0.734622 0.184035 0.877456
O O3 0.622320 0.357079 0.875426
O O4 0.771683 0.387990 0.940446
O O5 0.682088 0.990019 0.569537
O O6 0.847867 0.020212 0.577400
O O7 0.562466 0.507657 0.750000
O O8 0.630298 0.582266 0.587357
O O9 0.480377 0.476449 0.593233
O O10 0.686552 0.840201 0.250000
O O11 0.609180 0.700699 0.123402
O O12 0.763319 0.764483 0.100074
O O13 0.625063 0.532606 0.250000
O O14 0.918129 0.825465 0.908939
O O15 0.887208 0.897191 0.087630
O O16 0.000000 0.000000 0.000000
O O17 0.125161 0.280734 0.250000
#
# Coordination Sequence:
#
# PCOD8232623 Si02
#       7
#     8   8   8   8   8   8   8
#     4  10  23  41  61  88 129 172 215 264 324 389
#     4  11  23  41  65  90 123 170 217 266 333 397
#     4   9  19  34  57  92 134 177 221 275 325 372
#     4   9  17  34  60  91 128 175 224 266 317 384
#     4  10  20  34  60  95 131 173 222 273 323 382
#     4  11  25  44  67  99 132 161 212 281 336 398
#     4  10  22  43  70  98 131 173 217 264 332 405
#
# _framework density 22.030864999999999
#
# number of rings (size 3 to 8) (size 9 to 14) (size 15 to 20)
#    0.000    2.000    1.429    1.286    2.000    5.714 
#    0.000    1.429    0.000    0.000    0.000    0.000 
#    0.000    0.000    0.000    0.000    0.000    0.000 
#
# Total GULP energy -693880.910705 kJ/mol
# GULP energy per Si atom -12390.730548 kJ/mol
# Density = 2.198072 g / cm^3
# Si number density = 22.030865 Si / 1000 Ang^3
#
#
#
# Elastic Constant Matrix: (Units=GPa)
#
#
# Indices 1 2 3 4 5 6 
#
# 1 108.9388 66.8419 17.8807 0.0000 0.0000 0.0000
# 2 66.8419 124.8606 34.6635 0.0000 0.0000 0.0000
# 3 17.8807 34.6635 95.3966 0.0000 0.0000 0.0000
# 4 0.0000 0.0000 0.0000 31.7305 0.0000 0.0000
# 5 0.0000 0.0000 0.0000 0.0000 21.7630 0.0000
# 6 0.0000 0.0000 0.0000 0.0000 0.0000 42.4326
#
#
#
# Elastic Compliance Matrix: (Units=1/GPa)
#
#
# Indices 1 2 3 4 5 6 
#
# 1 0.013670 -0.007348 0.000108 0.000000 0.000000 0.000000
# 2 -0.007348 0.012857 -0.003295 0.000000 0.000000 0.000000
# 3 0.000108 -0.003295 0.011659 0.000000 0.000000 0.000000
# 4 0.000000 0.000000 0.000000 0.031515 0.000000 0.000000
# 5 0.000000 0.000000 0.000000 0.000000 0.045950 0.000000
# 6 0.000000 0.000000 0.000000 0.000000 0.000000 0.023567
#
#
# Mechanical properties :
#
#
# Convention : Reuss Voigt Hill
#
# Bulk Modulus (GPa) = 58.42065 63.10757 60.76411
# Shear Modulus (GPa) = 30.12148 33.17254 31.64701
#
# Velocity S-wave (km/s) = 3.70163 3.88458 3.79421
# Velocity P-wave (km/s) = 6.69661 6.98765 6.84368
#
# Compressibility (1/GPa) = 0.01711723
#
# Stress axis : x y z
#
# Youngs Moduli (GPa) = 73.15084 77.77724 85.76714
#
# Poissons Ratio (x) = 0.57152 -0.00924
# Poissons Ratio (y) = 0.53752 0.28256
# Poissons Ratio (z) = -0.00788 0.25624
#
# Static dielectric constant tensor:
#      x y z
#    x 3.808520 0.000000 0.000000 
#    y 0.000000 4.082910 0.000000 
#    z 0.000000 0.000000 4.042240 
# 
# 
# High freq. dielectric constant tensor:
#      x y z
#    x 1.838140 0.000000 0.000000 
#    y 0.000000 1.872630 0.000000 
#    z 0.000000 0.000000 1.875820 
# 
# From -- ./inp_files/18515.got.cif
#   From: 2010.03.12/outbox.cif.g09.slc.cpg/sg57_10_cif.got.tgz:18515.got - 2010.04.16 15:48:40.
