data_PCOD8232318
_publ_section_title
;
Structure prediction by ZEFSAII (Michael W. Deem and Ramdas Pophale) SiO2 
 PCOD8232318
Probable space group: P B C M
;
_chemical_formula_sum "Si O2"
_cell_formula_units_Z 64
_cell_length_a 9.299642
_cell_length_b 23.223219
_cell_length_c 14.161991
_cell_angle_alpha 90.000000
_cell_angle_beta 90.000000
_cell_angle_gamma 90.000000
_cell_volume 3058.531530
_symmetry_space_group_name_H-M "P B C M"
_symmetry_group_IT_number 57
_symmetry_cell_setting 'orthorhombic'
loop_
_space_group_symop_operation_xyz
x,y,z
-x,-y,1/2+z
x,1/2-y,-z
-x,1/2+y,1/2-z
-x,-y,-z
x,y,1/2-z
-x,1/2+y,z
x,1/2-y,1/2+z
loop_
_atom_site_type_symbol
_atom_site_label
_atom_site_fract_x
_atom_site_fract_y
_atom_site_fract_z
Si Si1 0.512273 0.612904 0.958789
Si Si2 0.792382 0.079723 0.016517
Si Si3 0.646762 0.775848 0.403780
Si Si4 0.170306 0.682609 0.140724
Si Si5 0.988847 0.416189 0.144592
Si Si6 0.709197 0.527117 0.859587
Si Si7 0.500425 0.829438 0.649218
Si Si8 0.031859 0.214112 0.858388
O O1 0.566262 0.663123 0.887017
O O2 0.581356 0.553870 0.921762
O O3 0.341260 0.605621 0.957849
O O4 0.560607 0.628465 0.066890
O O5 0.876916 0.128837 0.075605
O O6 0.742690 0.034190 0.094513
O O7 0.897157 0.051906 0.937096
O O8 0.583573 0.750000 0.500000
O O9 0.599191 0.726865 0.330346
O O10 0.817554 0.783124 0.412702
O O11 0.133692 0.669542 0.250000
O O12 0.339806 0.692778 0.125420
O O13 0.081152 0.738253 0.104627
O O14 0.937828 0.434862 0.250000
O O15 0.155597 0.430517 0.132460
O O16 0.961680 0.348435 0.128472
O O17 0.664157 0.518542 0.750000
O O18 0.500522 0.863394 0.750000
O O19 0.070632 0.224936 0.750000
#
# Coordination Sequence:
#
# PCOD8232318 Si02
#       8
#     8   8   8   8   8   8   8   8
#     4  10  22  39  59  91 121 157 205 251 305 369
#     4  11  23  39  63  88 122 158 209 256 309 361
#     4  10  20  33  53  84 119 155 198 242 299 358
#     4   9  20  36  57  88 122 159 200 244 301 362
#     4  10  23  40  58  85 117 154 200 253 308 366
#     4  11  23  43  66  87 118 161 207 257 312 367
#     4   9  19  36  57  85 126 162 193 244 304 361
#     4  10  20  35  55  83 116 153 199 243 295 365
#
# _framework density 20.925076000000001
#
# number of rings (size 3 to 8) (size 9 to 14) (size 15 to 20)
#    0.000    2.000    1.250    1.500    3.500    1.500 
#    0.000    0.625    0.000    0.750    0.000    0.000 
#    0.000    0.000    0.000    0.000    0.000    0.000 
#
# Total GULP energy -793277.313439 kJ/mol
# GULP energy per Si atom -12394.958022 kJ/mol
# Density = 2.087745 g / cm^3
# Si number density = 20.925076 Si / 1000 Ang^3
#
#
#
# Elastic Constant Matrix: (Units=GPa)
#
#
# Indices 1 2 3 4 5 6 
#
# 1 70.8608 18.0557 39.8812 0.0000 0.0000 0.0000
# 2 18.0557 67.0016 22.9172 0.0000 0.0000 0.0000
# 3 39.8812 22.9172 101.0002 0.0000 0.0000 0.0000
# 4 0.0000 0.0000 0.0000 26.1249 0.0000 0.0000
# 5 0.0000 0.0000 0.0000 0.0000 31.0555 0.0000
# 6 0.0000 0.0000 0.0000 0.0000 0.0000 30.7310
#
#
#
# Elastic Compliance Matrix: (Units=1/GPa)
#
#
# Indices 1 2 3 4 5 6 
#
# 1 0.018587 -0.002709 -0.006725 0.000000 0.000000 0.000000
# 2 -0.002709 0.016576 -0.002691 0.000000 0.000000 0.000000
# 3 -0.006725 -0.002691 0.013167 0.000000 0.000000 0.000000
# 4 0.000000 0.000000 0.000000 0.038278 0.000000 0.000000
# 5 0.000000 0.000000 0.000000 0.000000 0.032200 0.000000
# 6 0.000000 0.000000 0.000000 0.000000 0.000000 0.032540
#
#
# Mechanical properties :
#
#
# Convention : Reuss Voigt Hill
#
# Bulk Modulus (GPa) = 41.52859 44.50789 43.01824
# Shear Modulus (GPa) = 27.22943 28.11616 27.67280
#
# Velocity S-wave (km/s) = 3.61124 3.66957 3.64052
# Velocity P-wave (km/s) = 6.10553 6.26663 6.18660
#
# Compressibility (1/GPa) = 0.02407980
#
# Stress axis : x y z
#
# Youngs Moduli (GPa) = 53.80065 60.32975 75.94738
#
# Poissons Ratio (x) = 0.16342 0.51073
# Poissons Ratio (y) = 0.14573 0.20441
# Poissons Ratio (z) = 0.36180 0.16237
#
# Static dielectric constant tensor:
#      x y z
#    x 3.549970 0.000000 0.000000 
#    y 0.000000 3.691220 0.000000 
#    z 0.000000 0.000000 3.921220 
# 
# 
# High freq. dielectric constant tensor:
#      x y z
#    x 1.805760 0.000000 0.000000 
#    y 0.000000 1.806000 0.000000 
#    z 0.000000 0.000000 1.831050 
# 
# From -- ./inp_files/16920.got.cif
#   From: 2010.03.12/outbox.cif.g09.slc.cpg/sg57_9_cif.got.tgz:16920.got - 2010.04.16 15:48:40.
