data_PCOD8232484
_publ_section_title
;
Structure prediction by ZEFSAII (Michael W. Deem and Ramdas Pophale) SiO2 
 PCOD8232484
Probable space group: P B C M
;
_chemical_formula_sum "Si O2"
_cell_formula_units_Z 48
_cell_length_a 15.035646
_cell_length_b 19.353437
_cell_length_c 8.769628
_cell_angle_alpha 90.000000
_cell_angle_beta 90.000000
_cell_angle_gamma 90.000000
_cell_volume 2551.886571
_symmetry_space_group_name_H-M "P B C M"
_symmetry_group_IT_number 57
_symmetry_cell_setting 'orthorhombic'
loop_
_space_group_symop_operation_xyz
x,y,z
-x,-y,1/2+z
x,1/2-y,-z
-x,1/2+y,1/2-z
-x,-y,-z
x,y,1/2-z
-x,1/2+y,z
x,1/2-y,1/2+z
loop_
_atom_site_type_symbol
_atom_site_label
_atom_site_fract_x
_atom_site_fract_y
_atom_site_fract_z
Si Si1 0.389608 0.324712 0.070567
Si Si2 0.736380 0.436870 0.430676
Si Si3 0.537028 0.430621 0.430093
Si Si4 0.767696 0.908812 0.927318
Si Si5 0.125850 0.823642 0.068266
Si Si6 0.061265 0.178380 0.427999
O O1 0.387102 0.317095 0.250000
O O2 0.475914 0.367300 0.015280
O O3 0.396606 0.250000 0.000000
O O4 0.300241 0.362063 0.019445
O O5 0.740907 0.436132 0.250000
O O6 0.637456 0.417728 0.488320
O O7 0.763355 0.512969 0.490015
O O8 0.804762 0.380240 0.495319
O O9 0.500000 0.500000 0.500000
O O10 0.534676 0.439354 0.250000
O O11 0.741396 0.905008 0.750000
O O12 0.866724 0.881076 0.955938
O O13 0.125744 0.819353 0.250000
O O14 0.154165 0.750000 0.000000
O O15 0.028754 0.845844 0.010053
O O16 0.096311 0.250000 0.500000
O O17 0.042453 0.190659 0.250000
#
# Coordination Sequence:
#
# PCOD8232484 Si02
#       6
#     8   8   8   8   8   8
#     4  11  23  36  55  85 114 146 186 228 273 324
#     4   9  19  36  58  81 109 145 180 221 280 333
#     4  10  20  37  59  81 109 145 185 224 273 329
#     4  10  20  36  58  81 110 147 182 224 278 332
#     4  10  20  36  57  79 107 145 184 226 275 326
#     4  10  20  34  54  79 107 143 183 224 275 327
#
# _framework density 18.809614
#
# number of rings (size 3 to 8) (size 9 to 14) (size 15 to 20)
#    0.000    2.000    1.667    3.000    0.000    4.667 
#    0.000    3.333    0.000    0.000    0.000    0.000 
#    0.000    0.000    0.000    0.000    0.000    0.000 
#
# Total GULP energy -595281.225274 kJ/mol
# GULP energy per Si atom -12401.692193 kJ/mol
# Density = 1.876680 g / cm^3
# Si number density = 18.809614 Si / 1000 Ang^3
#
#
#
# Elastic Constant Matrix: (Units=GPa)
#
#
# Indices 1 2 3 4 5 6 
#
# 1 140.6823 97.4248 38.7068 0.0000 0.0000 0.0000
# 2 97.4248 169.7843 43.9867 0.0000 0.0000 0.0000
# 3 38.7068 43.9867 58.9134 0.0000 0.0000 0.0000
# 4 0.0000 0.0000 0.0000 24.6660 0.0000 0.0000
# 5 0.0000 0.0000 0.0000 0.0000 14.3253 0.0000
# 6 0.0000 0.0000 0.0000 0.0000 0.0000 43.1442
#
#
#
# Elastic Compliance Matrix: (Units=1/GPa)
#
#
# Indices 1 2 3 4 5 6 
#
# 1 0.012351 -0.006181 -0.003500 0.000000 0.000000 0.000000
# 2 -0.006181 0.010395 -0.003701 0.000000 0.000000 0.000000
# 3 -0.003500 -0.003701 0.022037 0.000000 0.000000 0.000000
# 4 0.000000 0.000000 0.000000 0.040542 0.000000 0.000000
# 5 0.000000 0.000000 0.000000 0.000000 0.069806 0.000000
# 6 0.000000 0.000000 0.000000 0.000000 0.000000 0.023178
#
#
# Mechanical properties :
#
#
# Convention : Reuss Voigt Hill
#
# Bulk Modulus (GPa) = 55.49330 81.06852 68.28091
# Shear Modulus (GPa) = 23.68776 29.04456 26.36616
#
# Velocity S-wave (km/s) = 3.55257 3.93381 3.74804
# Velocity P-wave (km/s) = 6.81134 7.98913 7.42363
#
# Compressibility (1/GPa) = 0.01802019
#
# Stress axis : x y z
#
# Youngs Moduli (GPa) = 80.96207 96.19955 45.37854
#
# Poissons Ratio (x) = 0.59457 0.15884
# Poissons Ratio (y) = 0.50039 0.16793
# Poissons Ratio (z) = 0.28340 0.35599
#
# Static dielectric constant tensor:
#      x y z
#    x 3.690300 0.000000 0.000000 
#    y 0.000000 3.957490 0.000000 
#    z 0.000000 0.000000 3.353800 
# 
# 
# High freq. dielectric constant tensor:
#      x y z
#    x 1.741980 0.000000 0.000000 
#    y 0.000000 1.736540 0.000000 
#    z 0.000000 0.000000 1.720190 
# 
# From -- ./inp_files/4702.got.cif
#   From: 2010.03.12/outbox.cif.g09.slc.cpg/sg57_3_cif.got.tgz:4702.got - 2010.04.16 15:48:40.
