data_PCOD8232911
_publ_section_title
;
Structure prediction by ZEFSAII (Michael W. Deem and Ramdas Pophale) SiO2 
 PCOD8232911
Probable space group: P B C M
;
_chemical_formula_sum "Si O2"
_cell_formula_units_Z 64
_cell_length_a 13.197668
_cell_length_b 12.705253
_cell_length_c 18.469635
_cell_angle_alpha 90.000000
_cell_angle_beta 90.000000
_cell_angle_gamma 90.000000
_cell_volume 3096.983058
_symmetry_space_group_name_H-M "P B C M"
_symmetry_group_IT_number 57
_symmetry_cell_setting 'orthorhombic'
loop_
_space_group_symop_operation_xyz
x,y,z
-x,-y,1/2+z
x,1/2-y,-z
-x,1/2+y,1/2-z
-x,-y,-z
x,y,1/2-z
-x,1/2+y,z
x,1/2-y,1/2+z
loop_
_atom_site_type_symbol
_atom_site_label
_atom_site_fract_x
_atom_site_fract_y
_atom_site_fract_z
Si Si1 0.442319 0.113204 0.830519
Si Si2 0.850752 0.498287 0.029347
Si Si3 0.502293 0.699103 0.076601
Si Si4 0.798584 0.098366 0.669528
Si Si5 0.613094 0.549254 0.328686
Si Si6 0.160029 0.832842 0.831317
Si Si7 0.008854 0.847132 0.551094
Si Si8 0.316383 0.536254 0.079877
O O1 0.402828 0.147096 0.750000
O O2 0.510460 0.206487 0.865321
O O3 0.507718 0.009480 0.820353
O O4 0.353620 0.074226 0.885066
O O5 0.871484 0.436510 0.104705
O O6 0.890605 0.617713 0.045635
O O7 0.922293 0.446088 0.970125
O O8 0.735718 0.492924 0.997770
O O9 0.599891 0.634269 0.107000
O O10 0.404036 0.624130 0.067531
O O11 0.530424 0.750000 0.000000
O O12 0.840615 0.069033 0.750000
O O13 0.779276 0.222643 0.665281
O O14 0.696614 0.035907 0.650990
O O15 0.637699 0.602379 0.250000
O O16 0.137934 0.868619 0.750000
O O17 0.049262 0.819075 0.868616
O O18 0.232198 0.918420 0.866867
O O19 0.031225 0.750000 0.500000
#
# Coordination Sequence:
#
# PCOD8232911 Si02
#       8
#     8   8   8   8   8   8   8   8
#     4  10  21  39  59  83 118 159 199 245 301 348
#     4  10  22  37  62  88 119 155 191 247 306 362
#     4  11  24  35  56  83 116 163 203 248 293 346
#     4  10  20  35  59  88 117 151 198 245 293 355
#     4   9  20  37  56  80 115 154 193 245 298 345
#     4  10  20  36  64  94 116 150 198 246 296 360
#     4  10  20  40  61  86 119 152 191 240 310 367
#     4  10  23  37  60  88 123 154 204 251 295 355
#
# _framework density 20.665272000000002
#
# number of rings (size 3 to 8) (size 9 to 14) (size 15 to 20)
#    0.000    2.000    1.250    1.500    5.250    4.000 
#    2.250    0.000    0.000    0.750    0.000    0.000 
#    0.000    0.000    0.000    0.000    0.000    0.000 
#
# Total GULP energy -792835.763865 kJ/mol
# GULP energy per Si atom -12388.058810 kJ/mol
# Density = 2.061824 g / cm^3
# Si number density = 20.665272 Si / 1000 Ang^3
#
#
#
# Elastic Constant Matrix: (Units=GPa)
#
#
# Indices 1 2 3 4 5 6 
#
# 1 61.7514 40.4464 45.0842 0.0000 0.0000 0.0000
# 2 40.4464 74.9617 41.7061 0.0000 0.0000 0.0000
# 3 45.0842 41.7061 144.3882 0.0000 0.0000 0.0000
# 4 0.0000 0.0000 0.0000 30.6991 0.0000 0.0000
# 5 0.0000 0.0000 0.0000 0.0000 10.4897 0.0000
# 6 0.0000 0.0000 0.0000 0.0000 0.0000 31.1949
#
#
#
# Elastic Compliance Matrix: (Units=1/GPa)
#
#
# Indices 1 2 3 4 5 6 
#
# 1 0.027995 -0.012203 -0.005217 0.000000 0.000000 0.000000
# 2 -0.012203 0.021214 -0.002317 0.000000 0.000000 0.000000
# 3 -0.005217 -0.002317 0.009224 0.000000 0.000000 0.000000
# 4 0.000000 0.000000 0.000000 0.032574 0.000000 0.000000
# 5 0.000000 0.000000 0.000000 0.000000 0.095331 0.000000
# 6 0.000000 0.000000 0.000000 0.000000 0.000000 0.032057
#
#
# Mechanical properties :
#
#
# Convention : Reuss Voigt Hill
#
# Bulk Modulus (GPa) = 52.74402 59.50827 56.12615
# Shear Modulus (GPa) = 18.92592 24.73437 21.83014
#
# Velocity S-wave (km/s) = 3.02955 3.46338 3.25371
# Velocity P-wave (km/s) = 6.14947 6.69718 6.42916
#
# Compressibility (1/GPa) = 0.01895950
#
# Stress axis : x y z
#
# Youngs Moduli (GPa) = 35.72037 47.13969 108.41364
#
# Poissons Ratio (x) = 0.57524 0.56555
# Poissons Ratio (y) = 0.43589 0.25122
# Poissons Ratio (z) = 0.18634 0.10923
#
# Static dielectric constant tensor:
#      x y z
#    x 3.615370 0.000000 0.000000 
#    y 0.000000 3.708190 0.000000 
#    z 0.000000 0.000000 4.105170 
# 
# 
# High freq. dielectric constant tensor:
#      x y z
#    x 1.774300 0.000000 0.000000 
#    y 0.000000 1.801040 0.000000 
#    z 0.000000 0.000000 1.826830 
# 
# From -- ./inp_files/22650.got.cif
#   From: 2010.03.12/outbox.cif.g09.slc.cpg/sg57_12_cif.got.tgz:22650.got - 2010.04.16 15:48:40.
