data_PCOD8232342
_publ_section_title
;
Structure prediction by ZEFSAII (Michael W. Deem and Ramdas Pophale) SiO2 
 PCOD8232342
Probable space group: P B C M
;
_chemical_formula_sum "Si O2"
_cell_formula_units_Z 48
_cell_length_a 12.599172
_cell_length_b 14.286399
_cell_length_c 13.710258
_cell_angle_alpha 90.000000
_cell_angle_beta 90.000000
_cell_angle_gamma 90.000000
_cell_volume 2467.802543
_symmetry_space_group_name_H-M "P B C M"
_symmetry_group_IT_number 57
_symmetry_cell_setting 'orthorhombic'
loop_
_space_group_symop_operation_xyz
x,y,z
-x,-y,1/2+z
x,1/2-y,-z
-x,1/2+y,1/2-z
-x,-y,-z
x,y,1/2-z
-x,1/2+y,z
x,1/2-y,1/2+z
loop_
_atom_site_type_symbol
_atom_site_label
_atom_site_fract_x
_atom_site_fract_y
_atom_site_fract_z
Si Si1 0.451147 0.152011 0.021657
Si Si2 0.507851 0.478785 0.137891
Si Si3 0.978582 0.738655 0.362584
Si Si4 0.752486 0.667741 0.357989
Si Si5 0.944045 0.400321 0.481956
Si Si6 0.754341 0.045713 0.858297
O O1 0.338261 0.185053 0.063214
O O2 0.510947 0.085138 0.099619
O O3 0.513760 0.250000 0.000000
O O4 0.434558 0.093434 0.921639
O O5 0.474937 0.474778 0.250000
O O6 0.629252 0.448266 0.118061
O O7 0.005327 0.723151 0.250000
O O8 0.854971 0.726662 0.387258
O O9 0.051041 0.663680 0.421165
O O10 0.998414 0.845485 0.394041
O O11 0.709978 0.695778 0.250000
O O12 0.790591 0.561112 0.355663
O O13 0.821584 0.407616 0.445604
O O14 0.000000 0.500000 0.500000
O O15 0.775776 0.089972 0.750000
#
# Coordination Sequence:
#
# PCOD8232342 Si02
#       6
#     8   8   8   8   8   8
#     4  10  20  33  59  86 111 144 187 232 278 336
#     4   9  20  38  57  82 114 149 189 231 278 337
#     4  10  22  36  52  82 116 147 186 230 274 331
#     4   9  18  34  57  83 115 149 184 226 282 343
#     4  11  21  33  58  83 109 146 192 236 276 324
#     4   9  17  34  58  79 107 152 193 225 278 337
#
# _framework density 19.450503000000001
#
# number of rings (size 3 to 8) (size 9 to 14) (size 15 to 20)
#    0.000    2.333    1.667    2.000    2.333    2.000 
#    3.000    0.000    0.000   10.000    0.000    0.000 
#    0.000    0.000    0.000    0.000    0.000    0.000 
#
# Total GULP energy -594814.065920 kJ/mol
# GULP energy per Si atom -12391.959707 kJ/mol
# Density = 1.940623 g / cm^3
# Si number density = 19.450503 Si / 1000 Ang^3
#
#
#
# Elastic Constant Matrix: (Units=GPa)
#
#
# Indices 1 2 3 4 5 6 
#
# 1 52.7542 21.9857 34.3887 0.0000 0.0000 0.0000
# 2 21.9857 101.6392 41.8009 0.0000 0.0000 0.0000
# 3 34.3887 41.8009 141.6038 0.0000 0.0000 0.0000
# 4 0.0000 0.0000 0.0000 26.7432 0.0000 0.0000
# 5 0.0000 0.0000 0.0000 0.0000 35.7628 0.0000
# 6 0.0000 0.0000 0.0000 0.0000 0.0000 16.6668
#
#
#
# Elastic Compliance Matrix: (Units=1/GPa)
#
#
# Indices 1 2 3 4 5 6 
#
# 1 0.023346 -0.003094 -0.004756 0.000000 0.000000 0.000000
# 2 -0.003094 0.011608 -0.002675 0.000000 0.000000 0.000000
# 3 -0.004756 -0.002675 0.009007 0.000000 0.000000 0.000000
# 4 0.000000 0.000000 0.000000 0.037393 0.000000 0.000000
# 5 0.000000 0.000000 0.000000 0.000000 0.027962 0.000000
# 6 0.000000 0.000000 0.000000 0.000000 0.000000 0.059999
#
#
# Mechanical properties :
#
#
# Convention : Reuss Voigt Hill
#
# Bulk Modulus (GPa) = 43.64946 54.70533 49.17740
# Shear Modulus (GPa) = 25.25222 29.02268 27.13745
#
# Velocity S-wave (km/s) = 3.60708 3.86700 3.73930
# Velocity P-wave (km/s) = 6.31174 6.93720 6.63185
#
# Compressibility (1/GPa) = 0.02290979
#
# Stress axis : x y z
#
# Youngs Moduli (GPa) = 42.83447 86.14562 111.02747
#
# Poissons Ratio (x) = 0.26652 0.52807
# Poissons Ratio (y) = 0.13252 0.29704
# Poissons Ratio (z) = 0.20373 0.23047
#
# Static dielectric constant tensor:
#      x y z
#    x 3.230280 0.000000 0.000000 
#    y 0.000000 3.573930 0.000000 
#    z 0.000000 0.000000 3.742220 
# 
# 
# High freq. dielectric constant tensor:
#      x y z
#    x 1.723600 0.000000 0.000000 
#    y 0.000000 1.754890 0.000000 
#    z 0.000000 0.000000 1.770870 
# 
# From -- ./inp_files/17588.got.cif
#   From: 2010.03.12/outbox.cif.g09.slc.cpg/sg57_9_cif.got.tgz:17588.got - 2010.04.16 15:48:40.
