data_PCOD8232986
_publ_section_title
;
Structure prediction by ZEFSAII (Michael W. Deem and Ramdas Pophale) SiO2 
 PCOD8232986
Probable space group: P B C M
;
_chemical_formula_sum "Si O2"
_cell_formula_units_Z 48
_cell_length_a 15.454343
_cell_length_b 9.406261
_cell_length_c 16.719398
_cell_angle_alpha 90.000000
_cell_angle_beta 90.000000
_cell_angle_gamma 90.000000
_cell_volume 2430.458491
_symmetry_space_group_name_H-M "P B C M"
_symmetry_group_IT_number 57
_symmetry_cell_setting 'orthorhombic'
loop_
_space_group_symop_operation_xyz
x,y,z
-x,-y,1/2+z
x,1/2-y,-z
-x,1/2+y,1/2-z
-x,-y,-z
x,y,1/2-z
-x,1/2+y,z
x,1/2-y,1/2+z
loop_
_atom_site_type_symbol
_atom_site_label
_atom_site_fract_x
_atom_site_fract_y
_atom_site_fract_z
Si Si1 0.748310 0.777186 0.344979
Si Si2 0.415382 0.101654 0.154829
Si Si3 0.266142 0.596730 0.156519
Si Si4 0.066593 0.213899 0.590790
Si Si5 0.422102 0.718908 0.654366
Si Si6 0.074299 0.910842 0.841843
O O1 0.761236 0.773399 0.250000
O O2 0.675139 0.668274 0.374747
O O3 0.838212 0.731095 0.385587
O O4 0.721713 0.935064 0.374151
O O5 0.417987 0.101242 0.250000
O O6 0.493966 0.197549 0.122025
O O7 0.423745 0.941905 0.120932
O O8 0.284124 0.597635 0.250000
O O9 0.337326 0.701955 0.118218
O O10 0.169369 0.651391 0.136089
O O11 0.045834 0.250000 0.500000
O O12 0.996487 0.290641 0.646273
O O13 0.054781 0.046313 0.603173
O O14 0.421301 0.715476 0.750000
O O15 0.075207 0.962682 0.750000
#
# Coordination Sequence:
#
# PCOD8232986 Si02
#       6
#     8   8   8   8   8   8
#     4   9  17  31  48  69  97 134 173 210 254 310
#     4   9  16  24  40  66  98 130 163 205 257 310
#     4   8  15  27  44  65  93 126 165 209 255 303
#     4  11  22  36  54  79 108 140 176 222 273 321
#     4   9  15  24  39  67 101 130 160 205 260 310
#     4  10  20  36  56  78 104 140 180 221 267 322
#
# _framework density 19.749359999999999
#
# number of rings (size 3 to 8) (size 9 to 14) (size 15 to 20)
#    0.000    2.667    0.000    4.000    0.000    5.333 
#    0.000    3.333    0.000    0.000    0.000   11.667 
#    0.000    0.000    0.000    0.000    0.000    0.000 
#
# Total GULP energy -595124.401523 kJ/mol
# GULP energy per Si atom -12398.425032 kJ/mol
# Density = 1.970441 g / cm^3
# Si number density = 19.749360 Si / 1000 Ang^3
#
#
#
# Elastic Constant Matrix: (Units=GPa)
#
#
# Indices 1 2 3 4 5 6 
#
# 1 149.8814 79.3636 9.6369 0.0000 0.0000 0.0000
# 2 79.3636 118.3163 6.2260 0.0000 0.0000 0.0000
# 3 9.6369 6.2260 20.2246 0.0000 0.0000 0.0000
# 4 0.0000 0.0000 0.0000 13.7302 0.0000 0.0000
# 5 0.0000 0.0000 0.0000 0.0000 3.1558 0.0000
# 6 0.0000 0.0000 0.0000 0.0000 0.0000 45.3866
#
#
#
# Elastic Compliance Matrix: (Units=1/GPa)
#
#
# Indices 1 2 3 4 5 6 
#
# 1 0.010510 -0.006898 -0.002884 0.000000 0.000000 0.000000
# 2 -0.006898 0.013119 -0.000752 0.000000 0.000000 0.000000
# 3 -0.002884 -0.000752 0.051051 0.000000 0.000000 0.000000
# 4 0.000000 0.000000 0.000000 0.072832 0.000000 0.000000
# 5 0.000000 0.000000 0.000000 0.000000 0.316875 0.000000
# 6 0.000000 0.000000 0.000000 0.000000 0.000000 0.022033
#
#
# Mechanical properties :
#
#
# Convention : Reuss Voigt Hill
#
# Bulk Modulus (GPa) = 18.65289 53.20836 35.93062
# Shear Modulus (GPa) = 9.51733 25.33424 17.42578
#
# Velocity S-wave (km/s) = 2.19762 3.58549 2.97365
# Velocity P-wave (km/s) = 3.98807 6.64389 5.47932
#
# Compressibility (1/GPa) = 0.05361101
#
# Stress axis : x y z
#
# Youngs Moduli (GPa) = 95.14760 76.22819 19.58841
#
# Poissons Ratio (x) = 0.52583 0.05650
# Poissons Ratio (y) = 0.65633 0.01472
# Poissons Ratio (z) = 0.27445 0.05729
#
# Static dielectric constant tensor:
#      x y z
#    x 3.819940 0.000000 0.000000 
#    y 0.000000 3.688110 0.000000 
#    z 0.000000 0.000000 2.956910 
# 
# 
# High freq. dielectric constant tensor:
#      x y z
#    x 1.786650 0.000000 0.000000 
#    y 0.000000 1.769600 0.000000 
#    z 0.000000 0.000000 1.711690 
# 
# From -- ./inp_files/22404.got.cif
#   From: 2010.03.12/outbox.cif.g09.slc.cpg/sg57_12_cif.got.tgz:22404.got - 2010.04.16 15:48:40.
