data_PCOD8232268
_publ_section_title
;
Structure prediction by ZEFSAII (Michael W. Deem and Ramdas Pophale) SiO2 
 PCOD8232268
Probable space group: P B C M
;
_chemical_formula_sum "Si O2"
_cell_formula_units_Z 64
_cell_length_a 21.532930
_cell_length_b 17.907140
_cell_length_c 9.142692
_cell_angle_alpha 90.000000
_cell_angle_beta 90.000000
_cell_angle_gamma 90.000000
_cell_volume 3525.359793
_symmetry_space_group_name_H-M "P B C M"
_symmetry_group_IT_number 57
_symmetry_cell_setting 'orthorhombic'
loop_
_space_group_symop_operation_xyz
x,y,z
-x,-y,1/2+z
x,1/2-y,-z
-x,1/2+y,1/2-z
-x,-y,-z
x,y,1/2-z
-x,1/2+y,z
x,1/2-y,1/2+z
loop_
_atom_site_type_symbol
_atom_site_label
_atom_site_fract_x
_atom_site_fract_y
_atom_site_fract_z
Si Si1 0.559859 0.466846 0.923466
Si Si2 0.114717 0.075657 0.578524
Si Si3 0.996448 0.327099 0.421201
Si Si4 0.380575 0.827327 0.424435
Si Si5 0.769179 0.827460 0.080174
Si Si6 0.879332 0.081354 0.920428
Si Si7 0.742001 0.092876 0.581985
Si Si8 0.686626 0.960207 0.082782
O O1 0.549599 0.454326 0.750000
O O2 0.614569 0.526569 0.955188
O O3 0.500000 0.500000 0.000000
O O4 0.575469 0.389186 0.002593
O O5 0.121554 0.061273 0.750000
O O6 0.050618 0.115601 0.537480
O O7 0.171137 0.127218 0.521466
O O8 0.115383 0.996608 0.501115
O O9 0.009909 0.250000 0.500000
O O10 0.994525 0.310756 0.250000
O O11 0.931573 0.361755 0.478100
O O12 0.398656 0.750000 0.500000
O O13 0.391876 0.823841 0.250000
O O14 0.308620 0.845156 0.465313
O O15 0.777476 0.809914 0.250000
O O16 0.706655 0.875325 0.047995
O O17 0.761782 0.750000 0.000000
O O18 0.889495 0.065001 0.750000
O O19 0.812197 0.120027 0.950659
O O20 0.731912 0.074192 0.750000
O O21 0.731962 0.014957 0.502406
O O22 0.699695 0.979565 0.250000
#
# Coordination Sequence:
#
# PCOD8232268 Si02
#       8
#     8   8   8   8   8   8   8   8
#     4  10  20  36  59  84 111 147 186 224 269 319
#     4  10  20  35  54  75 101 135 178 222 266 320
#     4  10  22  37  51  72 103 138 177 222 269 321
#     4  10  20  35  55  82 114 146 184 227 271 320
#     4  10  20  33  51  77 105 134 172 217 265 315
#     4  10  20  34  53  78 105 135 176 222 269 322
#     4   9  18  32  52  77 105 137 173 217 267 319
#     4   9  18  34  54  76 105 138 175 217 259 313
#
# _framework density 18.154176
#
# number of rings (size 3 to 8) (size 9 to 14) (size 15 to 20)
#    0.000    2.250    1.250    1.500    0.000    3.500 
#    0.000    0.625    0.000    1.500    0.000    0.000 
#    0.000    0.000    0.000    0.000    0.000    0.000 
#
# Total GULP energy -793553.929407 kJ/mol
# GULP energy per Si atom -12399.280147 kJ/mol
# Density = 1.811286 g / cm^3
# Si number density = 18.154176 Si / 1000 Ang^3
#
#
#
# Elastic Constant Matrix: (Units=GPa)
#
#
# Indices 1 2 3 4 5 6 
#
# 1 119.7147 45.5266 39.2724 0.0000 0.0000 0.0000
# 2 45.5266 91.0434 41.4406 0.0000 0.0000 0.0000
# 3 39.2724 41.4406 57.6856 0.0000 0.0000 0.0000
# 4 0.0000 0.0000 0.0000 31.5701 0.0000 0.0000
# 5 0.0000 0.0000 0.0000 0.0000 22.7223 0.0000
# 6 0.0000 0.0000 0.0000 0.0000 0.0000 19.8428
#
#
#
# Elastic Compliance Matrix: (Units=1/GPa)
#
#
# Indices 1 2 3 4 5 6 
#
# 1 0.011353 -0.003208 -0.005424 0.000000 0.000000 0.000000
# 2 -0.003208 0.017227 -0.010192 0.000000 0.000000 0.000000
# 3 -0.005424 -0.010192 0.028350 0.000000 0.000000 0.000000
# 4 0.000000 0.000000 0.000000 0.031676 0.000000 0.000000
# 5 0.000000 0.000000 0.000000 0.000000 0.044010 0.000000
# 6 0.000000 0.000000 0.000000 0.000000 0.000000 0.050396
#
#
# Mechanical properties :
#
#
# Convention : Reuss Voigt Hill
#
# Bulk Modulus (GPa) = 51.86317 57.88033 54.87175
# Shear Modulus (GPa) = 22.01816 24.30733 23.16274
#
# Velocity S-wave (km/s) = 3.48637 3.66312 3.57584
# Velocity P-wave (km/s) = 6.69601 7.05997 6.88040
#
# Compressibility (1/GPa) = 0.01928151
#
# Stress axis : x y z
#
# Youngs Moduli (GPa) = 88.08569 58.04892 35.27362
#
# Poissons Ratio (x) = 0.18621 0.19134
# Poissons Ratio (y) = 0.28257 0.35950
# Poissons Ratio (z) = 0.47781 0.59161
#
# Static dielectric constant tensor:
#      x y z
#    x 3.686140 0.000000 0.000000 
#    y 0.000000 3.253610 0.000000 
#    z 0.000000 0.000000 3.347180 
# 
# 
# High freq. dielectric constant tensor:
#      x y z
#    x 1.709830 0.000000 0.000000 
#    y 0.000000 1.695640 0.000000 
#    z 0.000000 0.000000 1.703450 
# 
# From -- ./inp_files/8422.got.cif
#   From: 2010.03.12/outbox.cif.g09.slc.cpg/sg57_5_cif.got.tgz:8422.got - 2010.04.16 15:48:40.
