data_PCOD8232351
_publ_section_title
;
Structure prediction by ZEFSAII (Michael W. Deem and Ramdas Pophale) SiO2 
 PCOD8232351
Probable space group: P B C M
;
_chemical_formula_sum "Si O2"
_cell_formula_units_Z 48
_cell_length_a 15.328608
_cell_length_b 19.717639
_cell_length_c 9.270308
_cell_angle_alpha 90.000000
_cell_angle_beta 90.000000
_cell_angle_gamma 90.000000
_cell_volume 2801.894590
_symmetry_space_group_name_H-M "P B C M"
_symmetry_group_IT_number 57
_symmetry_cell_setting 'orthorhombic'
loop_
_space_group_symop_operation_xyz
x,y,z
-x,-y,1/2+z
x,1/2-y,-z
-x,1/2+y,1/2-z
-x,-y,-z
x,y,1/2-z
-x,1/2+y,z
x,1/2-y,1/2+z
loop_
_atom_site_type_symbol
_atom_site_label
_atom_site_fract_x
_atom_site_fract_y
_atom_site_fract_z
Si Si1 0.734566 0.921953 0.917389
Si Si2 0.391518 0.817968 0.580750
Si Si3 0.591505 0.816900 0.581940
Si Si4 0.101352 0.427861 0.415005
Si Si5 0.085685 0.937351 0.413763
Si Si6 0.724953 0.419911 0.086268
O O1 0.750904 0.911271 0.750000
O O2 0.650428 0.879924 0.969896
O O3 0.719571 0.000642 0.954998
O O4 0.821471 0.892306 0.994956
O O5 0.361032 0.750000 0.500000
O O6 0.375969 0.808039 0.750000
O O7 0.491796 0.834669 0.543711
O O8 0.335191 0.880613 0.525156
O O9 0.623249 0.750000 0.500000
O O10 0.602655 0.802286 0.750000
O O11 0.131144 0.426586 0.250000
O O12 0.089415 0.504862 0.466198
O O13 0.004257 0.393845 0.435196
O O14 0.085344 0.968625 0.250000
O O15 0.174585 0.893518 0.430096
O O16 0.691684 0.408264 0.250000
#
# Coordination Sequence:
#
# PCOD8232351 Si02
#       6
#     8   8   8   8   8   8
#     4   9  18  32  48  69  99 129 154 188 237 281
#     4  10  20  34  51  70  92 121 158 196 234 280
#     4   9  19  35  52  69  92 124 159 193 233 282
#     4   9  15  24  42  68  94 122 158 193 224 268
#     4   8  15  27  42  63  95 129 154 184 231 278
#     4   9  17  30  48  70  97 127 155 188 233 278
#
# _framework density 17.131264999999999
#
# number of rings (size 3 to 8) (size 9 to 14) (size 15 to 20)
#    0.000    3.000    0.000    2.000    0.000    5.333 
#    0.000    0.000    0.000    1.000    0.000    2.333 
#    0.000    0.000    0.000    0.000    0.000    0.000 
#
# Total GULP energy -594781.209806 kJ/mol
# GULP energy per Si atom -12391.275204 kJ/mol
# Density = 1.709227 g / cm^3
# Si number density = 17.131265 Si / 1000 Ang^3
#
#
#
# Elastic Constant Matrix: (Units=GPa)
#
#
# Indices 1 2 3 4 5 6 
#
# 1 128.7383 59.9430 54.6186 0.0000 0.0000 0.0000
# 2 59.9430 62.5302 37.6926 0.0000 0.0000 0.0000
# 3 54.6186 37.6926 68.1426 0.0000 0.0000 0.0000
# 4 0.0000 0.0000 0.0000 23.1075 0.0000 0.0000
# 5 0.0000 0.0000 0.0000 0.0000 30.3468 0.0000
# 6 0.0000 0.0000 0.0000 0.0000 0.0000 4.4270
#
#
#
# Elastic Compliance Matrix: (Units=1/GPa)
#
#
# Indices 1 2 3 4 5 6 
#
# 1 0.015686 -0.011189 -0.006384 0.000000 0.000000 0.000000
# 2 -0.011189 0.031973 -0.008717 0.000000 0.000000 0.000000
# 3 -0.006384 -0.008717 0.024614 0.000000 0.000000 0.000000
# 4 0.000000 0.000000 0.000000 0.043276 0.000000 0.000000
# 5 0.000000 0.000000 0.000000 0.000000 0.032952 0.000000
# 6 0.000000 0.000000 0.000000 0.000000 0.000000 0.225889
#
#
# Mechanical properties :
#
#
# Convention : Reuss Voigt Hill
#
# Bulk Modulus (GPa) = 50.78007 62.65770 56.71888
# Shear Modulus (GPa) = 11.53314 18.72006 15.12660
#
# Velocity S-wave (km/s) = 2.59747 3.30925 2.97473
# Velocity P-wave (km/s) = 6.22108 7.15933 6.70663
#
# Compressibility (1/GPa) = 0.01969277
#
# Stress axis : x y z
#
# Youngs Moduli (GPa) = 63.75232 31.27660 40.62760
#
# Poissons Ratio (x) = 0.34994 0.25935
# Poissons Ratio (y) = 0.71330 0.35417
# Poissons Ratio (z) = 0.40697 0.27265
#
# Static dielectric constant tensor:
#      x y z
#    x 3.673680 0.000000 0.000000 
#    y 0.000000 2.838410 0.000000 
#    z 0.000000 0.000000 3.222350 
# 
# 
# High freq. dielectric constant tensor:
#      x y z
#    x 1.680560 0.000000 0.000000 
#    y 0.000000 1.604560 0.000000 
#    z 0.000000 0.000000 1.667590 
# 
# From -- ./inp_files/4911.got.cif
#   From: 2010.03.12/outbox.cif.g09.slc.cpg/sg57_3_cif.got.tgz:4911.got - 2010.04.16 15:48:40.
