data_PCOD8232501
_publ_section_title
;
Structure prediction by ZEFSAII (Michael W. Deem and Ramdas Pophale) SiO2 
 PCOD8232501
Probable space group: P B C M
;
_chemical_formula_sum "Si O2"
_cell_formula_units_Z 56
_cell_length_a 15.267185
_cell_length_b 23.127812
_cell_length_c 8.841812
_cell_angle_alpha 90.000000
_cell_angle_beta 90.000000
_cell_angle_gamma 90.000000
_cell_volume 3122.013618
_symmetry_space_group_name_H-M "P B C M"
_symmetry_group_IT_number 57
_symmetry_cell_setting 'orthorhombic'
loop_
_space_group_symop_operation_xyz
x,y,z
-x,-y,1/2+z
x,1/2-y,-z
-x,1/2+y,1/2-z
-x,-y,-z
x,y,1/2-z
-x,1/2+y,z
x,1/2-y,1/2+z
loop_
_atom_site_type_symbol
_atom_site_label
_atom_site_fract_x
_atom_site_fract_y
_atom_site_fract_z
Si Si1 0.691058 0.186934 0.572179
Si Si2 0.009649 0.190995 0.073931
Si Si3 0.326773 0.187137 0.426378
Si Si4 0.841181 0.116726 0.076375
Si Si5 0.520572 0.311956 0.574606
Si Si6 0.906335 0.993831 0.073726
Si Si7 0.167960 0.372592 0.429390
O O1 0.705843 0.250000 0.500000
O O2 0.684194 0.194253 0.750000
O O3 0.771718 0.145803 0.533613
O O4 0.601888 0.156177 0.508497
O O5 0.028358 0.200522 0.250000
O O6 0.937144 0.142359 0.045191
O O7 0.974688 0.250000 0.000000
O O8 0.099144 0.173401 0.992783
O O9 0.316448 0.250000 0.500000
O O10 0.304647 0.193706 0.250000
O O11 0.424612 0.160041 0.449334
O O12 0.262989 0.141488 0.504439
O O13 0.813337 0.127577 0.250000
O O14 0.845306 0.048864 0.036647
O O15 0.515317 0.250000 0.500000
O O16 0.544077 0.306443 0.750000
O O17 0.924337 0.989019 0.250000
O O18 0.857029 0.936797 0.013960
O O19 0.000000 0.000000 0.000000
O O20 0.170575 0.368000 0.250000
#
# Coordination Sequence:
#
# PCOD8232501 Si02
#       7
#     8   8   8   8   8   8   8
#     4  11  21  33  53  81 111 142 174 214 263 317
#     4  11  22  35  52  74 105 140 173 214 262 313
#     4  10  20  34  54  80 110 142 177 216 263 315
#     4  10  21  37  55  76 104 138 177 220 264 310
#     4   9  17  31  52  77 106 140 174 213 259 313
#     4  10  21  38  58  78 101 136 180 224 266 310
#     4  11  22  35  54  78 106 138 175 218 264 314
#
# _framework density 17.937142999999999
#
# number of rings (size 3 to 8) (size 9 to 14) (size 15 to 20)
#    0.000    1.714    1.429    4.714    0.000    5.143 
#    0.000    0.000    0.000    0.857    0.000    0.000 
#    0.000    0.000    0.000    0.000    0.000    0.000 
#
# Total GULP energy -694380.259769 kJ/mol
# GULP energy per Si atom -12399.647496 kJ/mol
# Density = 1.789632 g / cm^3
# Si number density = 17.937143 Si / 1000 Ang^3
#
#
#
# Elastic Constant Matrix: (Units=GPa)
#
#
# Indices 1 2 3 4 5 6 
#
# 1 116.2890 32.5209 56.3626 0.0000 0.0000 0.0000
# 2 32.5209 79.5876 34.9433 0.0000 0.0000 0.0000
# 3 56.3626 34.9433 112.8372 0.0000 0.0000 0.0000
# 4 0.0000 0.0000 0.0000 21.6216 0.0000 0.0000
# 5 0.0000 0.0000 0.0000 0.0000 32.1720 0.0000
# 6 0.0000 0.0000 0.0000 0.0000 0.0000 15.6658
#
#
#
# Elastic Compliance Matrix: (Units=1/GPa)
#
#
# Indices 1 2 3 4 5 6 
#
# 1 0.011788 -0.002583 -0.005088 0.000000 0.000000 0.000000
# 2 -0.002583 0.015108 -0.003389 0.000000 0.000000 0.000000
# 3 -0.005088 -0.003389 0.012453 0.000000 0.000000 0.000000
# 4 0.000000 0.000000 0.000000 0.046250 0.000000 0.000000
# 5 0.000000 0.000000 0.000000 0.000000 0.031083 0.000000
# 6 0.000000 0.000000 0.000000 0.000000 0.000000 0.063833
#
#
# Mechanical properties :
#
#
# Convention : Reuss Voigt Hill
#
# Bulk Modulus (GPa) = 58.03833 61.81863 59.92848
# Shear Modulus (GPa) = 23.99498 26.21768 25.10633
#
# Velocity S-wave (km/s) = 3.66146 3.82729 3.74529
# Velocity P-wave (km/s) = 7.09238 7.35321 7.22397
#
# Compressibility (1/GPa) = 0.01722999
#
# Stress axis : x y z
#
# Youngs Moduli (GPa) = 84.83459 66.19077 80.30035
#
# Poissons Ratio (x) = 0.17095 0.40858
# Poissons Ratio (y) = 0.21910 0.27210
# Poissons Ratio (z) = 0.43165 0.22429
#
# Static dielectric constant tensor:
#      x y z
#    x 3.785170 0.000000 0.000000 
#    y 0.000000 3.249460 0.000000 
#    z 0.000000 0.000000 3.444270 
# 
# 
# High freq. dielectric constant tensor:
#      x y z
#    x 1.703270 0.000000 0.000000 
#    y 0.000000 1.666810 0.000000 
#    z 0.000000 0.000000 1.708030 
# 
# From -- ./inp_files/5232.got.cif
#   From: 2010.03.12/outbox.cif.g09.slc.cpg/sg57_3_cif.got.tgz:5232.got - 2010.04.16 15:48:40.
