data_PCOD8232944
_publ_section_title
;
Structure prediction by ZEFSAII (Michael W. Deem and Ramdas Pophale) SiO2 
 PCOD8232944
Probable space group: P B C M
;
_chemical_formula_sum "Si O2"
_cell_formula_units_Z 56
_cell_length_a 17.646288
_cell_length_b 8.909238
_cell_length_c 17.968726
_cell_angle_alpha 90.000000
_cell_angle_beta 90.000000
_cell_angle_gamma 90.000000
_cell_volume 2824.952892
_symmetry_space_group_name_H-M "P B C M"
_symmetry_group_IT_number 57
_symmetry_cell_setting 'orthorhombic'
loop_
_space_group_symop_operation_xyz
x,y,z
-x,-y,1/2+z
x,1/2-y,-z
-x,1/2+y,1/2-z
-x,-y,-z
x,y,1/2-z
-x,1/2+y,z
x,1/2-y,1/2+z
loop_
_atom_site_type_symbol
_atom_site_label
_atom_site_fract_x
_atom_site_fract_y
_atom_site_fract_z
Si Si1 0.422030 0.187636 0.582318
Si Si2 0.424606 0.676187 0.081270
Si Si3 0.271872 0.348752 0.901060
Si Si4 0.719865 0.333419 0.664826
Si Si5 0.832945 0.429885 0.332518
Si Si6 0.077248 0.579498 0.519830
Si Si7 0.221083 0.056257 0.950545
O O1 0.415603 0.250000 0.500000
O O2 0.498175 0.258315 0.617888
O O3 0.349056 0.263140 0.623633
O O4 0.425365 0.006333 0.582429
O O5 0.357170 0.740422 0.132960
O O6 0.414639 0.750000 0.000000
O O7 0.234671 0.446799 0.835950
O O8 0.207976 0.225990 0.923345
O O9 0.277360 0.450737 0.976862
O O10 0.707323 0.380442 0.750000
O O11 0.792381 0.228245 0.655101
O O12 0.734200 0.479039 0.616025
O O13 0.869595 0.439639 0.250000
O O14 0.898736 0.448835 0.394029
O O15 0.064845 0.750000 0.500000
O O16 0.141106 0.518354 0.465240
O O17 0.000000 0.500000 0.500000
#
# Coordination Sequence:
#
# PCOD8232944 Si02
#       7
#     8   8   8   8   8   8   8
#     4  11  20  36  54  92 118 158 210 267 311 367
#     4  11  24  34  60  84 120 160 209 265 320 359
#     4  10  20  35  65  90 123 158 218 253 310 354
#     4  11  23  40  60  88 120 164 211 256 313 372
#     4  10  24  42  64  94 128 163 204 254 312 369
#     4  11  24  41  70  97 128 160 202 245 301 367
#     4  10  20  39  63  90 121 159 204 259 289 363
#
# _framework density 19.823340000000002
#
# number of rings (size 3 to 8) (size 9 to 14) (size 15 to 20)
#    0.000    1.429    4.286    1.714   12.000    0.571 
#    0.000    2.857    0.000    0.000    0.000    0.000 
#    0.000    0.000    0.000    0.000    0.000    0.000 
#
# Total GULP energy -693874.016275 kJ/mol
# GULP energy per Si atom -12390.607433 kJ/mol
# Density = 1.977822 g / cm^3
# Si number density = 19.823340 Si / 1000 Ang^3
#
#
#
# Elastic Constant Matrix: (Units=GPa)
#
#
# Indices 1 2 3 4 5 6 
#
# 1 133.2295 42.9054 61.9431 0.0000 0.0000 0.0000
# 2 42.9054 85.9052 41.2641 0.0000 0.0000 0.0000
# 3 61.9431 41.2641 103.5012 0.0000 0.0000 0.0000
# 4 0.0000 0.0000 0.0000 8.8350 0.0000 0.0000
# 5 0.0000 0.0000 0.0000 0.0000 21.4490 0.0000
# 6 0.0000 0.0000 0.0000 0.0000 0.0000 36.4841
#
#
#
# Elastic Compliance Matrix: (Units=1/GPa)
#
#
# Indices 1 2 3 4 5 6 
#
# 1 0.010943 -0.002869 -0.005405 0.000000 0.000000 0.000000
# 2 -0.002869 0.015150 -0.004323 0.000000 0.000000 0.000000
# 3 -0.005405 -0.004323 0.014620 0.000000 0.000000 0.000000
# 4 0.000000 0.000000 0.000000 0.113186 0.000000 0.000000
# 5 0.000000 0.000000 0.000000 0.000000 0.046622 0.000000
# 6 0.000000 0.000000 0.000000 0.000000 0.000000 0.027409
#
#
# Mechanical properties :
#
#
# Convention : Reuss Voigt Hill
#
# Bulk Modulus (GPa) = 64.43886 68.31791 66.37839
# Shear Modulus (GPa) = 19.35747 25.12185 22.23966
#
# Velocity S-wave (km/s) = 3.12829 3.56376 3.35310
# Velocity P-wave (km/s) = 6.75466 7.17440 6.96769
#
# Compressibility (1/GPa) = 0.01551859
#
# Stress axis : x y z
#
# Youngs Moduli (GPa) = 91.38368 66.00551 68.39880
#
# Poissons Ratio (x) = 0.18937 0.36971
# Poissons Ratio (y) = 0.26219 0.29569
# Poissons Ratio (z) = 0.49395 0.28535
#
# Static dielectric constant tensor:
#      x y z
#    x 3.793440 0.000000 0.000000 
#    y 0.000000 3.604850 0.000000 
#    z 0.000000 0.000000 3.419930 
# 
# 
# High freq. dielectric constant tensor:
#      x y z
#    x 1.767550 0.000000 0.000000 
#    y 0.000000 1.788300 0.000000 
#    z 0.000000 0.000000 1.743960 
# 
# From -- ./inp_files/25565.got.cif
#   From: 2010.03.12/outbox.cif.g09.slc.cpg/sg57_13_cif.got.tgz:25565.got - 2010.04.16 15:48:40.
