data_PCOD8232802
_publ_section_title
;
Structure prediction by ZEFSAII (Michael W. Deem and Ramdas Pophale) SiO2 
 PCOD8232802
Probable space group: P B C M
;
_chemical_formula_sum "Si O2"
_cell_formula_units_Z 64
_cell_length_a 21.366220
_cell_length_b 17.747104
_cell_length_c 9.096828
_cell_angle_alpha 90.000000
_cell_angle_beta 90.000000
_cell_angle_gamma 90.000000
_cell_volume 3449.412823
_symmetry_space_group_name_H-M "P B C M"
_symmetry_group_IT_number 57
_symmetry_cell_setting 'orthorhombic'
loop_
_space_group_symop_operation_xyz
x,y,z
-x,-y,1/2+z
x,1/2-y,-z
-x,1/2+y,1/2-z
-x,-y,-z
x,y,1/2-z
-x,1/2+y,z
x,1/2-y,1/2+z
loop_
_atom_site_type_symbol
_atom_site_label
_atom_site_fract_x
_atom_site_fract_y
_atom_site_fract_z
Si Si1 0.756701 0.091904 0.418393
Si Si2 0.508526 0.173267 0.580108
Si Si3 0.877149 0.175935 0.418726
Si Si4 0.383716 0.911231 0.581359
Si Si5 0.935299 0.482075 0.923718
Si Si6 0.275143 0.328141 0.579796
Si Si7 0.817815 0.959550 0.579930
Si Si8 0.616141 0.916264 0.080107
O O1 0.769309 0.065741 0.250000
O O2 0.804659 0.158798 0.459387
O O3 0.686300 0.121537 0.438049
O O4 0.767873 0.020296 0.521879
O O5 0.490375 0.250000 0.500000
O O6 0.518852 0.191499 0.750000
O O7 0.572384 0.139138 0.518692
O O8 0.453277 0.114330 0.553648
O O9 0.901432 0.250000 0.500000
O O10 0.885449 0.194550 0.250000
O O11 0.918507 0.103986 0.463745
O O12 0.406263 0.905877 0.750000
O O13 0.384358 0.997475 0.527282
O O14 0.939848 0.495102 0.750000
O O15 0.882053 0.537156 0.988140
O O16 0.000000 0.500000 0.000000
O O17 0.262393 0.250000 0.500000
O O18 0.289022 0.312655 0.750000
O O19 0.212873 0.377808 0.558283
O O20 0.335802 0.368847 0.515371
O O21 0.832416 0.976208 0.750000
O O22 0.636641 0.910358 0.250000
#
# Coordination Sequence:
#
# PCOD8232802 Si02
#       8
#     8   8   8   8   8   8   8   8
#     4   9  18  34  56  81 111 145 181 225 279 334
#     4  11  24  39  54  76 107 145 189 236 288 345
#     4   9  19  34  54  83 115 148 184 224 271 323
#     4  10  20  36  59  83 109 144 184 232 288 344
#     4  10  21  38  61  87 115 152 194 234 278 328
#     4  11  23  36  56  85 115 147 187 235 286 339
#     4  10  20  35  56  84 114 145 185 228 271 328
#     4  10  21  38  60  82 107 144 187 233 289 347
#
# _framework density 18.553882999999999
#
# number of rings (size 3 to 8) (size 9 to 14) (size 15 to 20)
#    0.000    2.000    1.250    3.000    0.000    7.500 
#    0.000    1.875    0.000    0.000    0.000    0.000 
#    0.000    0.000    0.000    0.000    0.000    0.000 
#
# Total GULP energy -793778.168157 kJ/mol
# GULP energy per Si atom -12402.783877 kJ/mol
# Density = 1.851165 g / cm^3
# Si number density = 18.553883 Si / 1000 Ang^3
#
#
#
# Elastic Constant Matrix: (Units=GPa)
#
#
# Indices 1 2 3 4 5 6 
#
# 1 101.6358 28.0805 48.2043 0.0000 0.0000 0.0000
# 2 28.0805 77.0163 38.0310 0.0000 0.0000 0.0000
# 3 48.2043 38.0310 93.4687 0.0000 0.0000 0.0000
# 4 0.0000 0.0000 0.0000 33.0435 0.0000 0.0000
# 5 0.0000 0.0000 0.0000 0.0000 32.1349 0.0000
# 6 0.0000 0.0000 0.0000 0.0000 0.0000 18.9163
#
#
#
# Elastic Compliance Matrix: (Units=1/GPa)
#
#
# Indices 1 2 3 4 5 6 
#
# 1 0.013226 -0.001820 -0.006080 0.000000 0.000000 0.000000
# 2 -0.001820 0.016499 -0.005775 0.000000 0.000000 0.000000
# 3 -0.006080 -0.005775 0.016184 0.000000 0.000000 0.000000
# 4 0.000000 0.000000 0.000000 0.030263 0.000000 0.000000
# 5 0.000000 0.000000 0.000000 0.000000 0.031119 0.000000
# 6 0.000000 0.000000 0.000000 0.000000 0.000000 0.052865
#
#
# Mechanical properties :
#
#
# Convention : Reuss Voigt Hill
#
# Bulk Modulus (GPa) = 53.88097 55.63916 54.76007
# Shear Modulus (GPa) = 25.81412 27.33926 26.57669
#
# Velocity S-wave (km/s) = 3.73407 3.84279 3.78882
# Velocity P-wave (km/s) = 6.90611 7.05283 6.97985
#
# Compressibility (1/GPa) = 0.01855943
#
# Stress axis : x y z
#
# Youngs Moduli (GPa) = 75.61067 60.60829 61.78795
#
# Poissons Ratio (x) = 0.11028 0.37570
# Poissons Ratio (y) = 0.13758 0.35682
# Poissons Ratio (z) = 0.45975 0.35001
#
# Static dielectric constant tensor:
#      x y z
#    x 3.411260 0.000000 0.000000 
#    y 0.000000 3.413230 0.000000 
#    z 0.000000 0.000000 3.491530 
# 
# 
# High freq. dielectric constant tensor:
#      x y z
#    x 1.720270 0.000000 0.000000 
#    y 0.000000 1.714440 0.000000 
#    z 0.000000 0.000000 1.726810 
# 
# From -- ./inp_files/8450.got.cif
#   From: 2010.03.12/outbox.cif.g09.slc.cpg/sg57_5_cif.got.tgz:8450.got - 2010.04.16 15:48:40.
