data_PCOD8232155
_publ_section_title
;
Structure prediction by ZEFSAII (Michael W. Deem and Ramdas Pophale) SiO2 
 PCOD8232155
Probable space group: P B C M
;
_chemical_formula_sum "Si O2"
_cell_formula_units_Z 48
_cell_length_a 31.368357
_cell_length_b 9.710635
_cell_length_c 8.612767
_cell_angle_alpha 90.000000
_cell_angle_beta 90.000000
_cell_angle_gamma 90.000000
_cell_volume 2623.506236
_symmetry_space_group_name_H-M "P B C M"
_symmetry_group_IT_number 57
_symmetry_cell_setting 'orthorhombic'
loop_
_space_group_symop_operation_xyz
x,y,z
-x,-y,1/2+z
x,1/2-y,-z
-x,1/2+y,1/2-z
-x,-y,-z
x,y,1/2-z
-x,1/2+y,z
x,1/2-y,1/2+z
loop_
_atom_site_type_symbol
_atom_site_label
_atom_site_fract_x
_atom_site_fract_y
_atom_site_fract_z
Si Si1 0.963781 0.096435 0.066916
Si Si2 0.464604 0.099818 0.434459
Si Si3 0.785876 0.401256 0.431415
Si Si4 0.625503 0.898770 0.065537
Si Si5 0.299250 0.902006 0.567485
Si Si6 0.121942 0.901155 0.067913
O O1 0.967652 0.102553 0.250000
O O2 0.968341 0.250000 0.000000
O O3 0.918234 0.027592 0.017395
O O4 0.000000 0.000000 0.000000
O O5 0.474369 0.250000 0.500000
O O6 0.465704 0.102421 0.250000
O O7 0.418615 0.047679 0.492581
O O8 0.500000 0.000000 0.500000
O O9 0.788053 0.250000 0.500000
O O10 0.777175 0.391147 0.250000
O O11 0.745044 0.474629 0.510104
O O12 0.831979 0.475546 0.463431
O O13 0.620806 0.890253 0.250000
O O14 0.661835 0.004128 0.010907
O O15 0.637880 0.750000 0.000000
O O16 0.305235 0.750000 0.500000
O O17 0.298115 0.891185 0.750000
O O18 0.112039 0.893750 0.250000
O O19 0.125702 0.750000 0.000000
#
# Coordination Sequence:
#
# PCOD8232155 Si02
#       6
#     8   8   8   8   8   8
#     4  11  21  34  52  75 102 134 170 211 256 307
#     4  11  22  38  59  82 108 139 174 215 259 307
#     4   9  16  26  44  69  99 130 163 205 252 297
#     4  10  21  37  55  77 104 138 176 212 252 304
#     4  10  20  32  50  76 105 133 167 209 253 300
#     4   9  16  27  44  69  97 128 165 206 250 301
#
# _framework density 18.296125
#
# number of rings (size 3 to 8) (size 9 to 14) (size 15 to 20)
#    0.000    2.000    0.000    8.000    0.000    5.333 
#    0.000    1.667    0.000    1.000    0.000    2.333 
#    0.000    0.000    0.000    0.000    0.000    0.000 
#
# Total GULP energy -594840.748666 kJ/mol
# GULP energy per Si atom -12392.515597 kJ/mol
# Density = 1.825448 g / cm^3
# Si number density = 18.296125 Si / 1000 Ang^3
#
#
#
# Elastic Constant Matrix: (Units=GPa)
#
#
# Indices 1 2 3 4 5 6 
#
# 1 210.2771 77.4743 76.1162 0.0000 0.0000 0.0000
# 2 77.4743 55.2124 36.7496 0.0000 0.0000 0.0000
# 3 76.1162 36.7496 132.7239 0.0000 0.0000 0.0000
# 4 0.0000 0.0000 0.0000 24.1258 0.0000 0.0000
# 5 0.0000 0.0000 0.0000 0.0000 34.3916 0.0000
# 6 0.0000 0.0000 0.0000 0.0000 0.0000 27.5455
#
#
#
# Elastic Compliance Matrix: (Units=1/GPa)
#
#
# Indices 1 2 3 4 5 6 
#
# 1 0.010417 -0.013045 -0.002362 0.000000 0.000000 0.000000
# 2 -0.013045 0.038540 -0.003190 0.000000 0.000000 0.000000
# 3 -0.002362 -0.003190 0.009772 0.000000 0.000000 0.000000
# 4 0.000000 0.000000 0.000000 0.041449 0.000000 0.000000
# 5 0.000000 0.000000 0.000000 0.000000 0.029077 0.000000
# 6 0.000000 0.000000 0.000000 0.000000 0.000000 0.036304
#
#
# Mechanical properties :
#
#
# Convention : Reuss Voigt Hill
#
# Bulk Modulus (GPa) = 46.43582 86.54373 66.48977
# Shear Modulus (GPa) = 23.81736 31.07082 27.44409
#
# Velocity S-wave (km/s) = 3.61192 4.12542 3.87718
# Velocity P-wave (km/s) = 6.54445 8.37236 7.51420
#
# Compressibility (1/GPa) = 0.02153510
#
# Stress axis : x y z
#
# Youngs Moduli (GPa) = 95.99818 25.94724 102.32954
#
# Poissons Ratio (x) = 0.33848 0.24171
# Poissons Ratio (y) = 1.25228 0.32644
# Poissons Ratio (z) = 0.22675 0.08277
#
# Static dielectric constant tensor:
#      x y z
#    x 4.415890 0.000000 0.000000 
#    y 0.000000 2.975300 0.000000 
#    z 0.000000 0.000000 3.540590 
# 
# 
# High freq. dielectric constant tensor:
#      x y z
#    x 1.740010 0.000000 0.000000 
#    y 0.000000 1.653420 0.000000 
#    z 0.000000 0.000000 1.732240 
# 
# From -- ./inp_files/10234.got.cif
#   From: 2010.03.12/outbox.cif.g09.slc.cpg/sg57_6_cif.got.tgz:10234.got - 2010.04.16 15:48:40.
