data_PCOD8232523
_publ_section_title
;
Structure prediction by ZEFSAII (Michael W. Deem and Ramdas Pophale) SiO2 
 PCOD8232523
Probable space group: P B C M
;
_chemical_formula_sum "Si O2"
_cell_formula_units_Z 64
_cell_length_a 22.843673
_cell_length_b 16.100242
_cell_length_c 9.075770
_cell_angle_alpha 90.000000
_cell_angle_beta 90.000000
_cell_angle_gamma 90.000000
_cell_volume 3337.965318
_symmetry_space_group_name_H-M "P B C M"
_symmetry_group_IT_number 57
_symmetry_cell_setting 'orthorhombic'
loop_
_space_group_symop_operation_xyz
x,y,z
-x,-y,1/2+z
x,1/2-y,-z
-x,1/2+y,1/2-z
-x,-y,-z
x,y,1/2-z
-x,1/2+y,z
x,1/2-y,1/2+z
loop_
_atom_site_type_symbol
_atom_site_label
_atom_site_fract_x
_atom_site_fract_y
_atom_site_fract_z
Si Si1 0.541035 0.167626 0.077910
Si Si2 0.701659 0.670874 0.922995
Si Si3 0.079211 0.164696 0.577236
Si Si4 0.411602 0.129413 0.414010
Si Si5 0.122750 0.501081 0.920465
Si Si6 0.057830 0.666215 0.920965
Si Si7 0.255095 0.485591 0.582116
Si Si8 0.373754 0.942242 0.088842
O O1 0.540000 0.180001 0.250000
O O2 0.476589 0.142481 0.020433
O O3 0.562472 0.250000 0.000000
O O4 0.590223 0.101093 0.038998
O O5 0.705566 0.679978 0.750000
O O6 0.732235 0.750000 0.000000
O O7 0.633895 0.669776 0.973158
O O8 0.737837 0.590951 0.972079
O O9 0.101834 0.250000 0.500000
O O10 0.094310 0.170026 0.750000
O O11 0.109179 0.082755 0.510031
O O12 0.010518 0.155053 0.548396
O O13 0.405238 0.169366 0.250000
O O14 0.399496 0.033262 0.401476
O O15 0.106064 0.484900 0.750000
O O16 0.088394 0.581988 0.982275
O O17 0.191064 0.524120 0.938731
O O18 0.072551 0.677019 0.750000
O O19 0.081312 0.750000 0.000000
O O20 0.264816 0.453753 0.750000
O O21 0.304623 0.554848 0.546382
O O22 0.381777 0.899257 0.250000
#
# Coordination Sequence:
#
# PCOD8232523 Si02
#       8
#     8   8   8   8   8   8   8   8
#     4  11  22  34  51  76 103 131 165 206 253 306
#     4  11  21  33  52  76 104 137 173 213 259 312
#     4  10  20  34  54  83 118 151 183 220 266 322
#     4   9  19  35  54  77 103 130 163 204 254 311
#     4  10  20  36  58  82 110 145 184 227 274 320
#     4   9  19  35  56  83 113 146 183 225 274 324
#     4   9  20  38  56  74 101 137 176 217 261 310
#     4   9  18  35  55  73  98 131 165 206 256 305
#
# _framework density 19.173356999999999
#
# number of rings (size 3 to 8) (size 9 to 14) (size 15 to 20)
#    0.000    2.250    0.000    3.750    0.000    6.000 
#    0.000    0.625    0.000    1.500    0.000    0.000 
#    0.000    0.000    0.000    0.000    0.000    0.000 
#
# Total GULP energy -793443.296840 kJ/mol
# GULP energy per Si atom -12397.551513 kJ/mol
# Density = 1.912972 g / cm^3
# Si number density = 19.173357 Si / 1000 Ang^3
#
#
#
# Elastic Constant Matrix: (Units=GPa)
#
#
# Indices 1 2 3 4 5 6 
#
# 1 67.1536 28.7071 24.4088 0.0000 0.0000 0.0000
# 2 28.7071 80.1481 31.4624 0.0000 0.0000 0.0000
# 3 24.4088 31.4624 86.3988 0.0000 0.0000 0.0000
# 4 0.0000 0.0000 0.0000 33.1526 0.0000 0.0000
# 5 0.0000 0.0000 0.0000 0.0000 24.1500 0.0000
# 6 0.0000 0.0000 0.0000 0.0000 0.0000 1.5386
#
#
#
# Elastic Compliance Matrix: (Units=1/GPa)
#
#
# Indices 1 2 3 4 5 6 
#
# 1 0.018335 -0.005290 -0.003254 0.000000 0.000000 0.000000
# 2 -0.005290 0.016084 -0.004363 0.000000 0.000000 0.000000
# 3 -0.003254 -0.004363 0.014082 0.000000 0.000000 0.000000
# 4 0.000000 0.000000 0.000000 0.030164 0.000000 0.000000
# 5 0.000000 0.000000 0.000000 0.000000 0.041408 0.000000
# 6 0.000000 0.000000 0.000000 0.000000 0.000000 0.649929
#
#
# Mechanical properties :
#
#
# Convention : Reuss Voigt Hill
#
# Bulk Modulus (GPa) = 44.07401 44.76188 44.41794
# Shear Modulus (GPa) = 6.22373 21.70972 13.96672
#
# Velocity S-wave (km/s) = 1.80363 3.36860 2.70190
# Velocity P-wave (km/s) = 5.23206 6.20697 5.74025
#
# Compressibility (1/GPa) = 0.02268911
#
# Stress axis : x y z
#
# Youngs Moduli (GPa) = 54.53983 62.17273 71.01229
#
# Poissons Ratio (x) = 0.32890 0.23104
# Poissons Ratio (y) = 0.28852 0.30980
# Poissons Ratio (z) = 0.17745 0.27124
#
# Static dielectric constant tensor:
#      x y z
#    x 3.589000 0.000000 0.000000 
#    y 0.000000 3.702050 0.000000 
#    z 0.000000 0.000000 3.498280 
# 
# 
# High freq. dielectric constant tensor:
#      x y z
#    x 1.741710 0.000000 0.000000 
#    y 0.000000 1.737660 0.000000 
#    z 0.000000 0.000000 1.743190 
# 
# From -- ./inp_files/9501.got.cif
#   From: 2010.03.12/outbox.cif.g09.slc.cpg/sg57_5_cif.got.tgz:9501.got - 2010.04.16 15:48:40.
