data_PCOD8232008
_publ_section_title
;
Structure prediction by ZEFSAII (Michael W. Deem and Ramdas Pophale) SiO2 
 PCOD8232008
Probable space group: P B C M
;
_chemical_formula_sum "Si O2"
_cell_formula_units_Z 56
_cell_length_a 18.846161
_cell_length_b 16.040401
_cell_length_c 8.889361
_cell_angle_alpha 90.000000
_cell_angle_beta 90.000000
_cell_angle_gamma 90.000000
_cell_volume 2687.253650
_symmetry_space_group_name_H-M "P B C M"
_symmetry_group_IT_number 57
_symmetry_cell_setting 'orthorhombic'
loop_
_space_group_symop_operation_xyz
x,y,z
-x,-y,1/2+z
x,1/2-y,-z
-x,1/2+y,1/2-z
-x,-y,-z
x,y,1/2-z
-x,1/2+y,z
x,1/2-y,1/2+z
loop_
_atom_site_type_symbol
_atom_site_label
_atom_site_fract_x
_atom_site_fract_y
_atom_site_fract_z
Si Si1 0.576799 0.001945 0.429092
Si Si2 0.335500 0.836509 0.928173
Si Si3 0.345259 0.164542 0.926722
Si Si4 0.924332 0.831244 0.573943
Si Si5 0.189893 0.909122 0.918393
Si Si6 0.801887 0.595033 0.582226
Si Si7 0.958590 0.422506 0.072499
O O1 0.572353 0.002582 0.250000
O O2 0.617783 0.085166 0.486405
O O3 0.500000 0.000000 0.500000
O O4 0.614193 0.917090 0.487520
O O5 0.341818 0.829650 0.750000
O O6 0.252731 0.848858 0.975753
O O7 0.363232 0.750000 0.000000
O O8 0.355846 0.172372 0.750000
O O9 0.262397 0.153959 0.969199
O O10 0.374321 0.250000 0.000000
O O11 0.888534 0.750000 0.500000
O O12 0.937465 0.825304 0.750000
O O13 0.867327 0.903130 0.535546
O O14 0.998823 0.842560 0.487837
O O15 0.164615 0.884394 0.750000
O O16 0.225765 0.000415 0.914708
O O17 0.122626 0.908486 0.027603
O O18 0.828651 0.620297 0.750000
O O19 0.963813 0.432267 0.250000
O O20 0.000000 0.500000 0.000000
#
# Coordination Sequence:
#
# PCOD8232008 Si02
#       7
#     8   8   8   8   8   8   8
#     4  10  22  42  65  92 127 166 205 246 303 365
#     4  10  22  42  67  94 126 167 211 259 312 370
#     4  10  21  38  61  91 125 162 202 247 302 366
#     4  12  25  40  58  85 119 157 200 252 309 369
#     4  10  20  38  64  88 117 160 207 255 313 373
#     4  10  19  36  62  87 117 158 200 249 307 367
#     4  12  24  39  59  86 118 157 206 258 313 375
#
# _framework density 20.839120999999999
#
# number of rings (size 3 to 8) (size 9 to 14) (size 15 to 20)
#    0.000    1.429    2.857    3.000    0.000    4.571 
#    0.000    4.286    0.000    0.000    0.000    0.000 
#    0.000    0.000    0.000    0.000    0.000    0.000 
#
# Total GULP energy -694270.720861 kJ/mol
# GULP energy per Si atom -12397.691444 kJ/mol
# Density = 2.079169 g / cm^3
# Si number density = 20.839121 Si / 1000 Ang^3
#
#
#
# Elastic Constant Matrix: (Units=GPa)
#
#
# Indices 1 2 3 4 5 6 
#
# 1 121.0702 59.4058 52.6227 0.0000 0.0000 0.0000
# 2 59.4058 134.3066 39.3125 0.0000 0.0000 0.0000
# 3 52.6227 39.3125 103.5759 0.0000 0.0000 0.0000
# 4 0.0000 0.0000 0.0000 32.6855 0.0000 0.0000
# 5 0.0000 0.0000 0.0000 0.0000 34.8459 0.0000
# 6 0.0000 0.0000 0.0000 0.0000 0.0000 22.6430
#
#
#
# Elastic Compliance Matrix: (Units=1/GPa)
#
#
# Indices 1 2 3 4 5 6 
#
# 1 0.012299 -0.004062 -0.004707 0.000000 0.000000 0.000000
# 2 -0.004062 0.009718 -0.001625 0.000000 0.000000 0.000000
# 3 -0.004707 -0.001625 0.012663 0.000000 0.000000 0.000000
# 4 0.000000 0.000000 0.000000 0.030595 0.000000 0.000000
# 5 0.000000 0.000000 0.000000 0.000000 0.028698 0.000000
# 6 0.000000 0.000000 0.000000 0.000000 0.000000 0.044164
#
#
# Mechanical properties :
#
#
# Convention : Reuss Voigt Hill
#
# Bulk Modulus (GPa) = 71.98229 73.51498 72.74863
# Shear Modulus (GPa) = 30.57115 31.87566 31.22340
#
# Velocity S-wave (km/s) = 3.83431 3.91526 3.87500
# Velocity P-wave (km/s) = 7.36339 7.46947 7.41662
#
# Compressibility (1/GPa) = 0.01389231
#
# Stress axis : x y z
#
# Youngs Moduli (GPa) = 81.31022 102.90224 78.97258
#
# Poissons Ratio (x) = 0.41801 0.37169
# Poissons Ratio (y) = 0.33030 0.12830
# Poissons Ratio (z) = 0.38269 0.16718
#
# Static dielectric constant tensor:
#      x y z
#    x 3.706970 0.000000 0.000000 
#    y 0.000000 3.947840 0.000000 
#    z 0.000000 0.000000 3.656400 
# 
# 
# High freq. dielectric constant tensor:
#      x y z
#    x 1.812000 0.000000 0.000000 
#    y 0.000000 1.825150 0.000000 
#    z 0.000000 0.000000 1.800270 
# 
# From -- ./inp_files/8082.got.cif
#   From: 2010.03.12/outbox.cif.g09.slc.cpg/sg57_5_cif.got.tgz:8082.got - 2010.04.16 15:48:40.
