data_PCOD8232527
_publ_section_title
;
Structure prediction by ZEFSAII (Michael W. Deem and Ramdas Pophale) SiO2 
 PCOD8232527
Probable space group: P B C M
;
_chemical_formula_sum "Si O2"
_cell_formula_units_Z 56
_cell_length_a 16.467685
_cell_length_b 21.092153
_cell_length_c 8.776557
_cell_angle_alpha 90.000000
_cell_angle_beta 90.000000
_cell_angle_gamma 90.000000
_cell_volume 3048.439931
_symmetry_space_group_name_H-M "P B C M"
_symmetry_group_IT_number 57
_symmetry_cell_setting 'orthorhombic'
loop_
_space_group_symop_operation_xyz
x,y,z
-x,-y,1/2+z
x,1/2-y,-z
-x,1/2+y,1/2-z
-x,-y,-z
x,y,1/2-z
-x,1/2+y,z
x,1/2-y,1/2+z
loop_
_atom_site_type_symbol
_atom_site_label
_atom_site_fract_x
_atom_site_fract_y
_atom_site_fract_z
Si Si1 0.363088 0.185368 0.076473
Si Si2 0.953472 0.059749 0.929691
Si Si3 0.203739 0.517495 0.429461
Si Si4 0.372642 0.524821 0.924550
Si Si5 0.052631 0.184484 0.570048
Si Si6 0.534450 0.589083 0.574813
Si Si7 0.196030 0.382505 0.924831
O O1 0.388276 0.197563 0.250000
O O2 0.289665 0.136157 0.062989
O O3 0.334747 0.250000 0.000000
O O4 0.440835 0.158332 0.985216
O O5 0.952762 0.050795 0.750000
O O6 0.995103 0.125937 0.976704
O O7 0.861899 0.063708 0.993230
O O8 0.000000 0.000000 0.000000
O O9 0.194624 0.521572 0.250000
O O10 0.293539 0.540042 0.476522
O O11 0.183638 0.446533 0.481627
O O12 0.345048 0.516638 0.750000
O O13 0.437386 0.581741 0.945265
O O14 0.416585 0.460672 0.973545
O O15 0.017902 0.250000 0.500000
O O16 0.060266 0.191932 0.750000
O O17 0.141396 0.172214 0.499126
O O18 0.559984 0.579531 0.750000
O O19 0.170107 0.393230 0.750000
#
# Coordination Sequence:
#
# PCOD8232527 Si02
#       7
#     8   8   8   8   8   8   8
#     4  11  23  36  53  78 113 154 192 230 278 334
#     4  11  23  39  60  86 117 153 195 240 290 347
#     4  12  23  35  57  86 117 152 190 237 289 341
#     4  10  20  35  55  81 111 144 181 227 280 330
#     4  11  24  40  60  85 115 154 196 239 289 348
#     4  10  20  34  55  80 109 144 185 229 274 330
#     4  11  22  36  56  82 116 154 191 235 283 340
#
# _framework density 18.370052000000001
#
# number of rings (size 3 to 8) (size 9 to 14) (size 15 to 20)
#    0.000    1.143    2.857    4.286    0.000    6.286 
#    0.000    0.000    0.000    0.857    0.000    4.000 
#    0.000    0.000    0.000    0.000    0.000    0.000 
#
# Total GULP energy -694640.249596 kJ/mol
# GULP energy per Si atom -12404.290171 kJ/mol
# Density = 1.832824 g / cm^3
# Si number density = 18.370052 Si / 1000 Ang^3
#
#
#
# Elastic Constant Matrix: (Units=GPa)
#
#
# Indices 1 2 3 4 5 6 
#
# 1 95.1957 41.5740 41.0039 0.0000 0.0000 0.0000
# 2 41.5740 88.5559 49.9835 0.0000 0.0000 0.0000
# 3 41.0039 49.9835 109.4908 0.0000 0.0000 0.0000
# 4 0.0000 0.0000 0.0000 31.1128 0.0000 0.0000
# 5 0.0000 0.0000 0.0000 0.0000 30.8415 0.0000
# 6 0.0000 0.0000 0.0000 0.0000 0.0000 27.3008
#
#
#
# Elastic Compliance Matrix: (Units=1/GPa)
#
#
# Indices 1 2 3 4 5 6 
#
# 1 0.013909 -0.004836 -0.003001 0.000000 0.000000 0.000000
# 2 -0.004836 0.016893 -0.005901 0.000000 0.000000 0.000000
# 3 -0.003001 -0.005901 0.012951 0.000000 0.000000 0.000000
# 4 0.000000 0.000000 0.000000 0.032141 0.000000 0.000000
# 5 0.000000 0.000000 0.000000 0.000000 0.032424 0.000000
# 6 0.000000 0.000000 0.000000 0.000000 0.000000 0.036629
#
#
# Mechanical properties :
#
#
# Convention : Reuss Voigt Hill
#
# Bulk Modulus (GPa) = 61.43533 62.04057 61.73795
# Shear Modulus (GPa) = 28.11363 28.56309 28.33836
#
# Velocity S-wave (km/s) = 3.91628 3.94746 3.93191
# Velocity P-wave (km/s) = 7.34612 7.39071 7.36845
#
# Compressibility (1/GPa) = 0.01627728
#
# Stress axis : x y z
#
# Youngs Moduli (GPa) = 71.89368 59.19527 77.21418
#
# Poissons Ratio (x) = 0.28626 0.23175
# Poissons Ratio (y) = 0.34767 0.45563
# Poissons Ratio (z) = 0.21578 0.34930
#
# Static dielectric constant tensor:
#      x y z
#    x 3.595120 0.000000 0.000000 
#    y 0.000000 3.278210 0.000000 
#    z 0.000000 0.000000 3.536280 
# 
# 
# High freq. dielectric constant tensor:
#      x y z
#    x 1.710280 0.000000 0.000000 
#    y 0.000000 1.690260 0.000000 
#    z 0.000000 0.000000 1.733370 
# 
# From -- ./inp_files/5136.got.cif
#   From: 2010.03.12/outbox.cif.g09.slc.cpg/sg57_3_cif.got.tgz:5136.got - 2010.04.16 15:48:40.
