data_PCOD8232034
_publ_section_title
;
Structure prediction by ZEFSAII (Michael W. Deem and Ramdas Pophale) SiO2 
 PCOD8232034
Probable space group: P B C M
;
_chemical_formula_sum "Si O2"
_cell_formula_units_Z 48
_cell_length_a 14.725983
_cell_length_b 10.564143
_cell_length_c 16.282570
_cell_angle_alpha 90.000000
_cell_angle_beta 90.000000
_cell_angle_gamma 90.000000
_cell_volume 2533.036921
_symmetry_space_group_name_H-M "P B C M"
_symmetry_group_IT_number 57
_symmetry_cell_setting 'orthorhombic'
loop_
_space_group_symop_operation_xyz
x,y,z
-x,-y,1/2+z
x,1/2-y,-z
-x,1/2+y,1/2-z
-x,-y,-z
x,y,1/2-z
-x,1/2+y,z
x,1/2-y,1/2+z
loop_
_atom_site_type_symbol
_atom_site_label
_atom_site_fract_x
_atom_site_fract_y
_atom_site_fract_z
Si Si1 0.888859 0.621061 0.048254
Si Si2 0.756020 0.234624 0.342115
Si Si3 0.545383 0.992688 0.909774
Si Si4 0.563876 0.265462 0.905007
Si Si5 0.904910 0.373003 0.944747
Si Si6 0.260796 0.476521 0.844555
O O1 0.873470 0.501046 0.989155
O O2 0.870718 0.750000 0.000000
O O3 0.818405 0.616358 0.123642
O O4 0.990886 0.617522 0.084324
O O5 0.728601 0.199888 0.250000
O O6 0.669707 0.201546 0.398210
O O7 0.841163 0.147155 0.366032
O O8 0.780045 0.382440 0.350440
O O9 0.493049 0.879250 0.862967
O O10 0.652641 0.959536 0.905465
O O11 0.537154 0.129583 0.863824
O O12 0.500000 0.000000 0.000000
O O13 0.538768 0.250000 0.000000
O O14 0.889024 0.250000 0.000000
O O15 0.286028 0.442805 0.750000
#
# Coordination Sequence:
#
# PCOD8232034 Si02
#       6
#     8   8   8   8   8   8
#     4  10  22  36  59  88 112 147 191 240 286 341
#     4  10  20  34  58  84 110 150 194 234 283 342
#     4   9  19  33  55  81 106 145 190 230 277 337
#     4   9  18  33  54  79 105 141 184 235 274 332
#     4  10  19  37  61  83 110 145 192 238 280 341
#     4  10  21  38  58  83 119 158 190 233 296 351
#
# _framework density 18.949584999999999
#
# number of rings (size 3 to 8) (size 9 to 14) (size 15 to 20)
#    0.000    2.333    1.667    0.500    4.667    3.333 
#    0.000    0.833    0.000    0.000    0.000    0.000 
#    0.000    0.000    0.000    0.000    0.000    0.000 
#
# Total GULP energy -594821.997404 kJ/mol
# GULP energy per Si atom -12392.124946 kJ/mol
# Density = 1.890645 g / cm^3
# Si number density = 18.949585 Si / 1000 Ang^3
#
#
#
# Elastic Constant Matrix: (Units=GPa)
#
#
# Indices 1 2 3 4 5 6 
#
# 1 118.9881 64.1059 44.2745 0.0000 0.0000 0.0000
# 2 64.1059 127.0806 28.7167 0.0000 0.0000 0.0000
# 3 44.2745 28.7167 55.1078 0.0000 0.0000 0.0000
# 4 0.0000 0.0000 0.0000 17.6477 0.0000 0.0000
# 5 0.0000 0.0000 0.0000 0.0000 14.4941 0.0000
# 6 0.0000 0.0000 0.0000 0.0000 0.0000 37.8112
#
#
#
# Elastic Compliance Matrix: (Units=1/GPa)
#
#
# Indices 1 2 3 4 5 6 
#
# 1 0.014620 -0.005351 -0.008958 0.000000 0.000000 0.000000
# 2 -0.005351 0.010878 -0.001369 0.000000 0.000000 0.000000
# 3 -0.008958 -0.001369 0.026057 0.000000 0.000000 0.000000
# 4 0.000000 0.000000 0.000000 0.056665 0.000000 0.000000
# 5 0.000000 0.000000 0.000000 0.000000 0.068993 0.000000
# 6 0.000000 0.000000 0.000000 0.000000 0.000000 0.026447
#
#
# Mechanical properties :
#
#
# Convention : Reuss Voigt Hill
#
# Bulk Modulus (GPa) = 49.50867 63.93006 56.71937
# Shear Modulus (GPa) = 20.68264 24.92924 22.80594
#
# Velocity S-wave (km/s) = 3.30730 3.63099 3.47292
# Velocity P-wave (km/s) = 6.38495 7.16861 6.78810
#
# Compressibility (1/GPa) = 0.02019848
#
# Stress axis : x y z
#
# Youngs Moduli (GPa) = 68.39868 91.93071 38.37810
#
# Poissons Ratio (x) = 0.49192 0.34378
# Poissons Ratio (y) = 0.36600 0.05255
# Poissons Ratio (z) = 0.61269 0.12588
#
# Static dielectric constant tensor:
#      x y z
#    x 3.500770 0.000000 0.000000 
#    y 0.000000 4.110610 0.000000 
#    z 0.000000 0.000000 3.134110 
# 
# 
# High freq. dielectric constant tensor:
#      x y z
#    x 1.740910 0.000000 0.000000 
#    y 0.000000 1.741780 0.000000 
#    z 0.000000 0.000000 1.701870 
# 
# From -- ./inp_files/18372.got.cif
#   From: 2010.03.12/outbox.cif.g09.slc.cpg/sg57_10_cif.got.tgz:18372.got - 2010.04.16 15:48:40.
