data_PCOD8232469
_publ_section_title
;
Structure prediction by ZEFSAII (Michael W. Deem and Ramdas Pophale) SiO2 
 PCOD8232469
Probable space group: P B C M
;
_chemical_formula_sum "Si O2"
_cell_formula_units_Z 56
_cell_length_a 13.337176
_cell_length_b 12.285450
_cell_length_c 18.014547
_cell_angle_alpha 90.000000
_cell_angle_beta 90.000000
_cell_angle_gamma 90.000000
_cell_volume 2951.741333
_symmetry_space_group_name_H-M "P B C M"
_symmetry_group_IT_number 57
_symmetry_cell_setting 'orthorhombic'
loop_
_space_group_symop_operation_xyz
x,y,z
-x,-y,1/2+z
x,1/2-y,-z
-x,1/2+y,1/2-z
-x,-y,-z
x,y,1/2-z
-x,1/2+y,z
x,1/2-y,1/2+z
loop_
_atom_site_type_symbol
_atom_site_label
_atom_site_fract_x
_atom_site_fract_y
_atom_site_fract_z
Si Si1 0.768447 0.642494 0.045370
Si Si2 0.892792 0.757914 0.165151
Si Si3 0.322126 0.776609 0.335627
Si Si4 0.110336 0.684344 0.164661
Si Si5 0.606309 0.427783 0.915832
Si Si6 0.396151 0.521341 0.583087
Si Si7 0.817450 0.974008 0.403888
O O1 0.839860 0.668432 0.114086
O O2 0.667777 0.589078 0.076868
O O3 0.736556 0.750000 0.000000
O O4 0.828105 0.561022 0.990053
O O5 0.870816 0.726376 0.250000
O O6 0.851553 0.877919 0.150261
O O7 0.011314 0.754159 0.147613
O O8 0.345702 0.755719 0.250000
O O9 0.204626 0.760976 0.353708
O O10 0.390020 0.692969 0.382246
O O11 0.348738 0.899737 0.355984
O O12 0.113382 0.644616 0.250000
O O13 0.112982 0.578227 0.111949
O O14 0.506853 0.489963 0.889023
O O15 0.701314 0.497336 0.886851
O O16 0.603374 0.416125 0.004656
#
# Coordination Sequence:
#
# PCOD8232469 Si02
#       7
#     8   8   8   8   8   8   8
#     4   9  20  36  53  80 110 135 174 223 264 309
#     4  10  20  34  54  77 104 141 177 214 268 326
#     4  10  21  36  54  81 112 137 174 225 268 312
#     4   9  19  35  54  77 106 142 181 217 259 317
#     4   9  20  37  57  77 104 145 182 212 258 324
#     4  10  20  36  59  80 105 142 181 220 264 312
#     4   9  18  36  55  74 103 139 179 220 262 312
#
# _framework density 18.971851999999998
#
# number of rings (size 3 to 8) (size 9 to 14) (size 15 to 20)
#    0.000    2.571    0.000    0.857    0.000    8.000 
#    0.000   15.714    0.000    0.000    0.000    0.000 
#    0.000    0.000    0.000    0.000    0.000    0.000 
#
# Total GULP energy -694519.138973 kJ/mol
# GULP energy per Si atom -12402.127482 kJ/mol
# Density = 1.892867 g / cm^3
# Si number density = 18.971852 Si / 1000 Ang^3
#
#
#
# Elastic Constant Matrix: (Units=GPa)
#
#
# Indices 1 2 3 4 5 6 
#
# 1 114.7528 58.0934 51.1877 0.0000 0.0000 0.0000
# 2 58.0934 93.7524 37.9630 0.0000 0.0000 0.0000
# 3 51.1877 37.9630 66.9724 0.0000 0.0000 0.0000
# 4 0.0000 0.0000 0.0000 32.1792 0.0000 0.0000
# 5 0.0000 0.0000 0.0000 0.0000 27.4466 0.0000
# 6 0.0000 0.0000 0.0000 0.0000 0.0000 26.4679
#
#
#
# Elastic Compliance Matrix: (Units=1/GPa)
#
#
# Indices 1 2 3 4 5 6 
#
# 1 0.015644 -0.006297 -0.008387 0.000000 0.000000 0.000000
# 2 -0.006297 0.016379 -0.004471 0.000000 0.000000 0.000000
# 3 -0.008387 -0.004471 0.023876 0.000000 0.000000 0.000000
# 4 0.000000 0.000000 0.000000 0.031076 0.000000 0.000000
# 5 0.000000 0.000000 0.000000 0.000000 0.036434 0.000000
# 6 0.000000 0.000000 0.000000 0.000000 0.000000 0.037782
#
#
# Mechanical properties :
#
#
# Convention : Reuss Voigt Hill
#
# Bulk Modulus (GPa) = 56.85756 63.32954 60.09355
# Shear Modulus (GPa) = 24.34695 25.76765 25.05730
#
# Velocity S-wave (km/s) = 3.58623 3.68938 3.63817
# Velocity P-wave (km/s) = 6.86896 7.18345 7.02796
#
# Compressibility (1/GPa) = 0.01758781
#
# Stress axis : x y z
#
# Youngs Moduli (GPa) = 63.92402 61.05339 41.88267
#
# Poissons Ratio (x) = 0.38448 0.35127
# Poissons Ratio (y) = 0.40256 0.18727
# Poissons Ratio (z) = 0.53612 0.27298
#
# Static dielectric constant tensor:
#      x y z
#    x 3.500870 0.000000 0.000000 
#    y 0.000000 3.398600 0.000000 
#    z 0.000000 0.000000 3.444990 
# 
# 
# High freq. dielectric constant tensor:
#      x y z
#    x 1.736260 0.000000 0.000000 
#    y 0.000000 1.734510 0.000000 
#    z 0.000000 0.000000 1.733190 
# 
# From -- ./inp_files/24993.got.cif
#   From: 2010.03.12/outbox.cif.g09.slc.cpg/sg57_13_cif.got.tgz:24993.got - 2010.04.16 15:48:40.
