data_PCOD8232922
_publ_section_title
;
Structure prediction by ZEFSAII (Michael W. Deem and Ramdas Pophale) SiO2 
 PCOD8232922
Probable space group: P B C M
;
_chemical_formula_sum "Si O2"
_cell_formula_units_Z 56
_cell_length_a 22.133238
_cell_length_b 13.997729
_cell_length_c 8.662307
_cell_angle_alpha 90.000000
_cell_angle_beta 90.000000
_cell_angle_gamma 90.000000
_cell_volume 2683.713227
_symmetry_space_group_name_H-M "P B C M"
_symmetry_group_IT_number 57
_symmetry_cell_setting 'orthorhombic'
loop_
_space_group_symop_operation_xyz
x,y,z
-x,-y,1/2+z
x,1/2-y,-z
-x,1/2+y,1/2-z
-x,-y,-z
x,y,1/2-z
-x,1/2+y,z
x,1/2-y,1/2+z
loop_
_atom_site_type_symbol
_atom_site_label
_atom_site_fract_x
_atom_site_fract_y
_atom_site_fract_z
Si Si1 0.846550 0.650100 0.567814
Si Si2 0.588446 0.044965 0.568239
Si Si3 0.808952 0.035822 0.930482
Si Si4 0.299979 0.646055 0.067860
Si Si5 0.523980 0.648458 0.068126
Si Si6 0.029843 0.408599 0.924514
Si Si7 0.098064 0.844244 0.923421
O O1 0.824089 0.750000 0.500000
O O2 0.839242 0.648829 0.750000
O O3 0.801995 0.571696 0.492806
O O4 0.916583 0.634000 0.526132
O O5 0.592557 0.059255 0.750000
O O6 0.652432 0.068029 0.492378
O O7 0.540151 0.120238 0.503709
O O8 0.571673 0.935286 0.525800
O O9 0.796418 0.039428 0.750000
O O10 0.765454 0.109766 0.016130
O O11 0.877804 0.066423 0.974340
O O12 0.303375 0.653143 0.250000
O O13 0.314195 0.750000 0.000000
O O14 0.516097 0.658588 0.250000
O O15 0.546288 0.750000 0.000000
O O16 0.053565 0.428253 0.750000
O O17 0.974306 0.334306 0.921397
O O18 0.000000 0.500000 0.000000
O O19 0.123309 0.856005 0.750000
O O20 0.126123 0.750000 0.000000
#
# Coordination Sequence:
#
# PCOD8232922 Si02
#       7
#     8   8   8   8   8   8   8
#     4  12  25  43  65  90 120 156 201 248 302 366
#     4  10  21  38  60  90 127 167 213 258 306 363
#     4  12  25  43  65  88 118 154 199 250 302 358
#     4  12  25  43  66  92 124 161 204 252 306 363
#     4  10  20  35  59  91 129 170 210 256 307 361
#     4  11  22  37  60  88 120 155 194 242 298 361
#     4  11  23  38  58  86 118 153 192 238 295 357
#
# _framework density 20.866610999999999
#
# number of rings (size 3 to 8) (size 9 to 14) (size 15 to 20)
#    0.000    0.857    1.429    6.857    0.000    4.571 
#    0.000    0.714    0.000    1.714    0.000    0.000 
#    0.000    0.000    0.000    0.000    0.000    0.000 
#
# Total GULP energy -694585.704625 kJ/mol
# GULP energy per Si atom -12403.316154 kJ/mol
# Density = 2.081912 g / cm^3
# Si number density = 20.866611 Si / 1000 Ang^3
#
#
#
# Elastic Constant Matrix: (Units=GPa)
#
#
# Indices 1 2 3 4 5 6 
#
# 1 63.7490 20.5148 26.6570 0.0000 0.0000 0.0000
# 2 20.5148 132.9355 61.0573 0.0000 0.0000 0.0000
# 3 26.6570 61.0573 136.5399 0.0000 0.0000 0.0000
# 4 0.0000 0.0000 0.0000 38.3249 0.0000 0.0000
# 5 0.0000 0.0000 0.0000 0.0000 34.8691 0.0000
# 6 0.0000 0.0000 0.0000 0.0000 0.0000 31.6823
#
#
#
# Elastic Compliance Matrix: (Units=1/GPa)
#
#
# Indices 1 2 3 4 5 6 
#
# 1 0.017287 -0.001407 -0.002746 0.000000 0.000000 0.000000
# 2 -0.001407 0.009581 -0.004010 0.000000 0.000000 0.000000
# 3 -0.002746 -0.004010 0.009653 0.000000 0.000000 0.000000
# 4 0.000000 0.000000 0.000000 0.026093 0.000000 0.000000
# 5 0.000000 0.000000 0.000000 0.000000 0.028679 0.000000
# 6 0.000000 0.000000 0.000000 0.000000 0.000000 0.031563
#
#
# Mechanical properties :
#
#
# Convention : Reuss Voigt Hill
#
# Bulk Modulus (GPa) = 49.51294 61.07585 55.29439
# Shear Modulus (GPa) = 34.26679 35.97496 35.12087
#
# Velocity S-wave (km/s) = 4.05678 4.15667 4.10703
# Velocity P-wave (km/s) = 6.76189 7.23674 7.00334
#
# Compressibility (1/GPa) = 0.02019674
#
# Stress axis : x y z
#
# Youngs Moduli (GPa) = 57.84546 104.37049 103.59347
#
# Poissons Ratio (x) = 0.14680 0.28448
# Poissons Ratio (y) = 0.08136 0.41540
# Poissons Ratio (z) = 0.15885 0.41851
#
# Static dielectric constant tensor:
#      x y z
#    x 3.178790 0.000000 0.000000 
#    y 0.000000 4.187780 0.000000 
#    z 0.000000 0.000000 3.882290 
# 
# 
# High freq. dielectric constant tensor:
#      x y z
#    x 1.794950 0.000000 0.000000 
#    y 0.000000 1.829020 0.000000 
#    z 0.000000 0.000000 1.835850 
# 
# From -- ./inp_files/8111.got.cif
#   From: 2010.03.12/outbox.cif.g09.slc.cpg/sg57_5_cif.got.tgz:8111.got - 2010.04.16 15:48:40.
