data_PCOD8232047
_publ_section_title
;
Structure prediction by ZEFSAII (Michael W. Deem and Ramdas Pophale) SiO2 
 PCOD8232047
Probable space group: P B C M
;
_chemical_formula_sum "Si O2"
_cell_formula_units_Z 56
_cell_length_a 10.447950
_cell_length_b 12.644299
_cell_length_c 20.874855
_cell_angle_alpha 90.000000
_cell_angle_beta 90.000000
_cell_angle_gamma 90.000000
_cell_volume 2757.714547
_symmetry_space_group_name_H-M "P B C M"
_symmetry_group_IT_number 57
_symmetry_cell_setting 'orthorhombic'
loop_
_space_group_symop_operation_xyz
x,y,z
-x,-y,1/2+z
x,1/2-y,-z
-x,1/2+y,1/2-z
-x,-y,-z
x,y,1/2-z
-x,1/2+y,z
x,1/2-y,1/2+z
loop_
_atom_site_type_symbol
_atom_site_label
_atom_site_fract_x
_atom_site_fract_y
_atom_site_fract_z
Si Si1 0.466122 0.352345 0.960075
Si Si2 0.886651 0.462438 0.609408
Si Si3 0.173563 0.164053 0.822532
Si Si4 0.086372 0.752047 0.822259
Si Si5 0.642387 0.647088 0.177962
Si Si6 0.709855 0.040918 0.995990
Si Si7 0.826310 0.464356 0.363861
O O1 0.454879 0.354080 0.882062
O O2 0.614844 0.373955 0.973103
O O3 0.426286 0.250000 0.000000
O O4 0.366596 0.432062 0.991952
O O5 0.800853 0.551826 0.644125
O O6 0.851804 0.346713 0.636938
O O7 0.841172 0.466910 0.536098
O O8 0.036359 0.486916 0.617573
O O9 0.135417 0.137899 0.750000
O O10 0.296883 0.236936 0.827883
O O11 0.052568 0.225952 0.853184
O O12 0.074919 0.794535 0.750000
O O13 0.166250 0.642392 0.822038
O O14 0.579241 0.637140 0.250000
O O15 0.748126 0.554539 0.173593
O O16 0.751013 0.075950 0.925793
#
# Coordination Sequence:
#
# PCOD8232047 Si02
#       7
#     8   8   8   8   8   8   8
#     4  10  22  41  63  81 113 157 201 250 292 339
#     4  11  20  34  56  87 120 150 188 236 284 357
#     4   9  18  32  53  81 115 151 184 227 285 345
#     4  10  20  32  52  85 120 153 182 224 292 350
#     4  10  19  37  63  87 113 153 201 245 289 347
#     4  10  23  39  58  84 112 154 198 237 294 345
#     4  10  21  36  57  87 121 151 187 236 292 360
#
# _framework density 20.30667
#
# number of rings (size 3 to 8) (size 9 to 14) (size 15 to 20)
#    0.000    2.000    1.429    2.143    2.000    1.143 
#    0.000    1.429    0.000    5.143    0.000    0.000 
#    0.000    0.000    0.000    0.000    0.000    0.000 
#
# Total GULP energy -694014.420744 kJ/mol
# GULP energy per Si atom -12393.114656 kJ/mol
# Density = 2.026045 g / cm^3
# Si number density = 20.306670 Si / 1000 Ang^3
#
#
#
# Elastic Constant Matrix: (Units=GPa)
#
#
# Indices 1 2 3 4 5 6 
#
# 1 47.2773 16.2044 29.2097 0.0000 0.0000 0.0000
# 2 16.2044 95.8398 19.5153 0.0000 0.0000 0.0000
# 3 29.2097 19.5153 87.5079 0.0000 0.0000 0.0000
# 4 0.0000 0.0000 0.0000 25.3507 0.0000 0.0000
# 5 0.0000 0.0000 0.0000 0.0000 26.7768 0.0000
# 6 0.0000 0.0000 0.0000 0.0000 0.0000 17.0173
#
#
#
# Elastic Compliance Matrix: (Units=1/GPa)
#
#
# Indices 1 2 3 4 5 6 
#
# 1 0.027397 -0.002902 -0.008498 0.000000 0.000000 0.000000
# 2 -0.002902 0.011238 -0.001538 0.000000 0.000000 0.000000
# 3 -0.008498 -0.001538 0.014607 0.000000 0.000000 0.000000
# 4 0.000000 0.000000 0.000000 0.039447 0.000000 0.000000
# 5 0.000000 0.000000 0.000000 0.000000 0.037346 0.000000
# 6 0.000000 0.000000 0.000000 0.000000 0.000000 0.058764
#
#
# Mechanical properties :
#
#
# Convention : Reuss Voigt Hill
#
# Bulk Modulus (GPa) = 36.54016 40.05376 38.29696
# Shear Modulus (GPa) = 22.34198 24.87534 23.60866
#
# Velocity S-wave (km/s) = 3.32057 3.50377 3.41340
# Velocity P-wave (km/s) = 5.72143 6.01131 5.86816
#
# Compressibility (1/GPa) = 0.02736715
#
# Stress axis : x y z
#
# Youngs Moduli (GPa) = 36.50088 88.98545 68.46063
#
# Poissons Ratio (x) = 0.25822 0.58176
# Poissons Ratio (y) = 0.10592 0.10526
# Poissons Ratio (z) = 0.31017 0.13682
#
# Static dielectric constant tensor:
#      x y z
#    x 3.452040 0.000000 0.000000 
#    y 0.000000 3.730830 0.000000 
#    z 0.000000 0.000000 3.708590 
# 
# 
# High freq. dielectric constant tensor:
#      x y z
#    x 1.765100 0.000000 0.000000 
#    y 0.000000 1.803680 0.000000 
#    z 0.000000 0.000000 1.795720 
# 
# From -- ./inp_files/25024.got.cif
#   From: 2010.03.12/outbox.cif.g09.slc.cpg/sg57_13_cif.got.tgz:25024.got - 2010.04.16 15:48:40.
