data_PCOD8232412
_publ_section_title
;
Structure prediction by ZEFSAII (Michael W. Deem and Ramdas Pophale) SiO2 
 PCOD8232412
Probable space group: P B C M
;
_chemical_formula_sum "Si O2"
_cell_formula_units_Z 48
_cell_length_a 11.744849
_cell_length_b 25.619748
_cell_length_c 8.755972
_cell_angle_alpha 90.000000
_cell_angle_beta 90.000000
_cell_angle_gamma 90.000000
_cell_volume 2634.672602
_symmetry_space_group_name_H-M "P B C M"
_symmetry_group_IT_number 57
_symmetry_cell_setting 'orthorhombic'
loop_
_space_group_symop_operation_xyz
x,y,z
-x,-y,1/2+z
x,1/2-y,-z
-x,1/2+y,1/2-z
-x,-y,-z
x,y,1/2-z
-x,1/2+y,z
x,1/2-y,1/2+z
loop_
_atom_site_type_symbol
_atom_site_label
_atom_site_fract_x
_atom_site_fract_y
_atom_site_fract_z
Si Si1 0.506336 0.557582 0.069038
Si Si2 0.736710 0.403291 0.930678
Si Si3 0.123238 0.001014 0.569463
Si Si4 0.133351 0.194752 0.430596
Si Si5 0.267503 0.100042 0.930992
Si Si6 0.872811 0.195391 0.070165
O O1 0.516442 0.551872 0.250000
O O2 0.394341 0.590317 0.021314
O O3 0.500000 0.500000 0.000000
O O4 0.609330 0.590881 0.002749
O O5 0.749861 0.403228 0.750000
O O6 0.806827 0.452159 0.997483
O O7 0.790393 0.349747 0.996553
O O8 0.114151 0.998111 0.750000
O O9 0.185833 0.053341 0.516039
O O10 0.000000 0.000000 0.500000
O O11 0.169294 0.250000 0.500000
O O12 0.150628 0.195363 0.250000
O O13 0.216687 0.153151 0.505222
O O14 0.002795 0.181813 0.475575
O O15 0.279507 0.102869 0.750000
O O16 0.861052 0.200430 0.250000
O O17 0.832822 0.250000 0.000000
#
# Coordination Sequence:
#
# PCOD8232412 Si02
#       6
#     8   8   8   8   8   8
#     4  11  21  37  58  79 109 149 192 232 282 338
#     4   9  18  35  55  76 107 146 181 223 277 330
#     4  10  20  34  52  78 110 141 178 227 281 337
#     4  10  20  36  59  85 113 147 185 226 277 335
#     4  11  22  37  56  81 113 146 187 234 280 335
#     4   9  18  34  57  81 110 143 180 222 274 332
#
# _framework density 18.218581
#
# number of rings (size 3 to 8) (size 9 to 14) (size 15 to 20)
#    0.000    2.000    1.667    2.500    0.000    3.333 
#    0.000    3.333    0.000    2.000    0.000    0.000 
#    0.000    0.000    0.000    0.000    0.000    0.000 
#
# Total GULP energy -595277.903576 kJ/mol
# GULP energy per Si atom -12401.622991 kJ/mol
# Density = 1.817711 g / cm^3
# Si number density = 18.218581 Si / 1000 Ang^3
#
#
#
# Elastic Constant Matrix: (Units=GPa)
#
#
# Indices 1 2 3 4 5 6 
#
# 1 165.5316 103.8057 46.9958 0.0000 0.0000 0.0000
# 2 103.8057 173.4352 45.7215 0.0000 0.0000 0.0000
# 3 46.9958 45.7215 51.3405 0.0000 0.0000 0.0000
# 4 0.0000 0.0000 0.0000 31.1453 0.0000 0.0000
# 5 0.0000 0.0000 0.0000 0.0000 29.0935 0.0000
# 6 0.0000 0.0000 0.0000 0.0000 0.0000 32.5594
#
#
#
# Elastic Compliance Matrix: (Units=1/GPa)
#
#
# Indices 1 2 3 4 5 6 
#
# 1 0.010685 -0.004988 -0.005339 0.000000 0.000000 0.000000
# 2 -0.004988 0.009863 -0.004218 0.000000 0.000000 0.000000
# 3 -0.005339 -0.004218 0.028121 0.000000 0.000000 0.000000
# 4 0.000000 0.000000 0.000000 0.032108 0.000000 0.000000
# 5 0.000000 0.000000 0.000000 0.000000 0.034372 0.000000
# 6 0.000000 0.000000 0.000000 0.000000 0.000000 0.030713
#
#
# Mechanical properties :
#
#
# Convention : Reuss Voigt Hill
#
# Bulk Modulus (GPa) = 51.07236 87.03925 69.05581
# Shear Modulus (GPa) = 27.55177 31.47861 29.51519
#
# Velocity S-wave (km/s) = 3.89304 4.16123 4.02936
# Velocity P-wave (km/s) = 6.94994 8.42416 7.72231
#
# Compressibility (1/GPa) = 0.01958006
#
# Stress axis : x y z
#
# Youngs Moduli (GPa) = 93.59264 101.38867 35.56056
#
# Poissons Ratio (x) = 0.50569 0.18985
# Poissons Ratio (y) = 0.46681 0.14999
# Poissons Ratio (z) = 0.49966 0.42766
#
# Static dielectric constant tensor:
#      x y z
#    x 3.514330 0.000000 0.000000 
#    y 0.000000 3.537170 0.000000 
#    z 0.000000 0.000000 3.255100 
# 
# 
# High freq. dielectric constant tensor:
#      x y z
#    x 1.709690 0.000000 0.000000 
#    y 0.000000 1.713020 0.000000 
#    z 0.000000 0.000000 1.696890 
# 
# From -- ./inp_files/3086.got.cif
#   From: 2010.03.12/outbox.cif.g09.slc.cpg/sg57_2_cif.got.tgz:3086.got - 2010.04.16 15:48:40.
