data_PCOD8232740
_publ_section_title
;
Structure prediction by ZEFSAII (Michael W. Deem and Ramdas Pophale) SiO2 
 PCOD8232740
Probable space group: P B C M
;
_chemical_formula_sum "Si O2"
_cell_formula_units_Z 48
_cell_length_a 30.589170
_cell_length_b 9.488371
_cell_length_c 8.521833
_cell_angle_alpha 90.000000
_cell_angle_beta 90.000000
_cell_angle_gamma 90.000000
_cell_volume 2473.388685
_symmetry_space_group_name_H-M "P B C M"
_symmetry_group_IT_number 57
_symmetry_cell_setting 'orthorhombic'
loop_
_space_group_symop_operation_xyz
x,y,z
-x,-y,1/2+z
x,1/2-y,-z
-x,1/2+y,1/2-z
-x,-y,-z
x,y,1/2-z
-x,1/2+y,z
x,1/2-y,1/2+z
loop_
_atom_site_type_symbol
_atom_site_label
_atom_site_fract_x
_atom_site_fract_y
_atom_site_fract_z
Si Si1 0.708780 0.098301 0.436628
Si Si2 0.214491 0.101274 0.564761
Si Si3 0.615822 0.406143 0.064149
Si Si4 0.460578 0.092379 0.564162
Si Si5 0.038992 0.593376 0.435586
Si Si6 0.117038 0.099468 0.564555
O O1 0.720565 0.250000 0.500000
O O2 0.702619 0.098044 0.250000
O O3 0.664279 0.044090 0.516268
O O4 0.749515 0.007117 0.496363
O O5 0.229729 0.250000 0.500000
O O6 0.213989 0.105728 0.750000
O O7 0.165847 0.062308 0.501967
O O8 0.610345 0.403902 0.250000
O O9 0.605315 0.250000 0.000000
O O10 0.584240 0.521450 0.989983
O O11 0.463966 0.250000 0.500000
O O12 0.462958 0.097410 0.750000
O O13 0.500000 0.000000 0.500000
O O14 0.036030 0.750000 0.500000
O O15 0.035939 0.598092 0.250000
O O16 0.084368 0.522678 0.493346
O O17 0.000000 0.500000 0.500000
O O18 0.101095 0.250000 0.500000
O O19 0.116491 0.110861 0.750000
#
# Coordination Sequence:
#
# PCOD8232740 Si02
#       6
#     8   8   8   8   8   8
#     4  10  20  35  55  81 112 147 186 231 278 331
#     4   9  19  35  55  79 109 143 183 227 276 330
#     4  11  22  39  61  86 116 153 193 236 284 336
#     4  12  25  43  64  90 120 153 192 235 283 336
#     4  11  23  38  57  81 111 144 183 227 277 332
#     4   9  19  36  56  79 107 142 181 226 275 329
#
# _framework density 19.406572000000001
#
# number of rings (size 3 to 8) (size 9 to 14) (size 15 to 20)
#    0.000    1.667    0.000    6.000    0.000    5.333 
#    0.000    1.667    0.000    0.000    0.000    0.000 
#    0.000    0.000    0.000    0.000    0.000    0.000 
#
# Total GULP energy -595243.977273 kJ/mol
# GULP energy per Si atom -12400.916193 kJ/mol
# Density = 1.936240 g / cm^3
# Si number density = 19.406572 Si / 1000 Ang^3
#
#
#
# Elastic Constant Matrix: (Units=GPa)
#
#
# Indices 1 2 3 4 5 6 
#
# 1 157.3386 116.5269 49.4784 0.0000 0.0000 0.0000
# 2 116.5269 165.2747 52.1169 0.0000 0.0000 0.0000
# 3 49.4784 52.1169 102.8304 0.0000 0.0000 0.0000
# 4 0.0000 0.0000 0.0000 36.7121 0.0000 0.0000
# 5 0.0000 0.0000 0.0000 0.0000 30.1407 0.0000
# 6 0.0000 0.0000 0.0000 0.0000 0.0000 45.3743
#
#
#
# Elastic Compliance Matrix: (Units=1/GPa)
#
#
# Indices 1 2 3 4 5 6 
#
# 1 0.013642 -0.008984 -0.002011 0.000000 0.000000 0.000000
# 2 -0.008984 0.013118 -0.002326 0.000000 0.000000 0.000000
# 3 -0.002011 -0.002326 0.011871 0.000000 0.000000 0.000000
# 4 0.000000 0.000000 0.000000 0.027239 0.000000 0.000000
# 5 0.000000 0.000000 0.000000 0.000000 0.033178 0.000000
# 6 0.000000 0.000000 0.000000 0.000000 0.000000 0.022039
#
#
# Mechanical properties :
#
#
# Convention : Reuss Voigt Hill
#
# Bulk Modulus (GPa) = 83.40316 95.74310 89.57313
# Shear Modulus (GPa) = 32.95459 36.26683 34.61071
#
# Velocity S-wave (km/s) = 4.12529 4.32764 4.22768
# Velocity P-wave (km/s) = 8.10930 8.62634 8.37181
#
# Compressibility (1/GPa) = 0.01198995
#
# Stress axis : x y z
#
# Youngs Moduli (GPa) = 73.30466 76.23031 84.23943
#
# Poissons Ratio (x) = 0.68486 0.16937
# Poissons Ratio (y) = 0.65857 0.19592
# Poissons Ratio (z) = 0.14738 0.17729
#
# Static dielectric constant tensor:
#      x y z
#    x 4.365430 0.000000 0.000000 
#    y 0.000000 3.526360 0.000000 
#    z 0.000000 0.000000 3.596260 
# 
# 
# High freq. dielectric constant tensor:
#      x y z
#    x 1.773320 0.000000 0.000000 
#    y 0.000000 1.756860 0.000000 
#    z 0.000000 0.000000 1.764250 
# 
# From -- ./inp_files/10039.got.cif
#   From: 2010.03.12/outbox.cif.g09.slc.cpg/sg57_6_cif.got.tgz:10039.got - 2010.04.16 15:48:40.
