data_PCOD8232002
_publ_section_title
;
Structure prediction by ZEFSAII (Michael W. Deem and Ramdas Pophale) SiO2 
 PCOD8232002
Probable space group: P B C M
;
_chemical_formula_sum "Si O2"
_cell_formula_units_Z 48
_cell_length_a 8.814511
_cell_length_b 18.962687
_cell_length_c 14.279403
_cell_angle_alpha 90.000000
_cell_angle_beta 90.000000
_cell_angle_gamma 90.000000
_cell_volume 2386.756705
_symmetry_space_group_name_H-M "P B C M"
_symmetry_group_IT_number 57
_symmetry_cell_setting 'orthorhombic'
loop_
_space_group_symop_operation_xyz
x,y,z
-x,-y,1/2+z
x,1/2-y,-z
-x,1/2+y,1/2-z
-x,-y,-z
x,y,1/2-z
-x,1/2+y,z
x,1/2-y,1/2+z
loop_
_atom_site_type_symbol
_atom_site_label
_atom_site_fract_x
_atom_site_fract_y
_atom_site_fract_z
Si Si1 0.789861 0.593208 0.533774
Si Si2 0.872962 0.363513 0.477946
Si Si3 0.611704 0.875449 0.643090
Si Si4 0.728012 0.772523 0.145049
Si Si5 0.073466 0.765243 0.642736
Si Si6 0.367086 0.959929 0.550796
O O1 0.734382 0.588006 0.425762
O O2 0.704728 0.662002 0.575745
O O3 0.739954 0.522740 0.591561
O O4 0.970268 0.596118 0.542095
O O5 0.848140 0.305181 0.397819
O O6 0.873239 0.331728 0.582699
O O7 0.731904 0.416613 0.474770
O O8 0.662409 0.890510 0.750000
O O9 0.608089 0.790428 0.625556
O O10 0.442413 0.907221 0.626882
O O11 0.712246 0.801995 0.250000
O O12 0.893389 0.739073 0.129101
O O13 0.122980 0.775386 0.750000
O O14 0.500000 0.000000 0.500000
#
# Coordination Sequence:
#
# PCOD8232002 Si02
#       6
#     8   8   8   8   8   8
#     4  10  19  36  61  86 113 154 203 250 297 350
#     4  10  19  36  61  86 116 153 198 251 296 348
#     4  10  20  36  57  83 119 158 196 242 296 358
#     4   9  17  33  60  88 113 148 196 248 299 349
#     4   9  18  34  60  92 115 141 194 255 299 339
#     4  10  23  39  53  80 121 160 197 237 296 362
#
# _framework density 20.110973999999999
#
# number of rings (size 3 to 8) (size 9 to 14) (size 15 to 20)
#    0.000    2.333    1.667    1.000    0.000    1.333 
#   12.000    3.333    0.000    6.000    0.000    0.000 
#    0.000    0.000    0.000    0.000    0.000    0.000 
#
# Total GULP energy -594913.833494 kJ/mol
# GULP energy per Si atom -12394.038198 kJ/mol
# Density = 2.006520 g / cm^3
# Si number density = 20.110974 Si / 1000 Ang^3
#
#
#
# Elastic Constant Matrix: (Units=GPa)
#
#
# Indices 1 2 3 4 5 6 
#
# 1 78.4056 58.0499 25.3839 0.0000 0.0000 0.0000
# 2 58.0499 119.4199 35.2377 0.0000 0.0000 0.0000
# 3 25.3839 35.2377 97.4984 0.0000 0.0000 0.0000
# 4 0.0000 0.0000 0.0000 15.0322 0.0000 0.0000
# 5 0.0000 0.0000 0.0000 0.0000 22.1104 0.0000
# 6 0.0000 0.0000 0.0000 0.0000 0.0000 42.2942
#
#
#
# Elastic Compliance Matrix: (Units=1/GPa)
#
#
# Indices 1 2 3 4 5 6 
#
# 1 0.020241 -0.009273 -0.001918 0.000000 0.000000 0.000000
# 2 -0.009273 0.013622 -0.002509 0.000000 0.000000 0.000000
# 3 -0.001918 -0.002509 0.011663 0.000000 0.000000 0.000000
# 4 0.000000 0.000000 0.000000 0.066524 0.000000 0.000000
# 5 0.000000 0.000000 0.000000 0.000000 0.045228 0.000000
# 6 0.000000 0.000000 0.000000 0.000000 0.000000 0.023644
#
#
# Mechanical properties :
#
#
# Convention : Reuss Voigt Hill
#
# Bulk Modulus (GPa) = 55.17271 59.18521 57.17896
# Shear Modulus (GPa) = 23.32496 27.66418 25.49457
#
# Velocity S-wave (km/s) = 3.40930 3.71290 3.56433
# Velocity P-wave (km/s) = 6.55679 6.91911 6.74038
#
# Compressibility (1/GPa) = 0.01812490
#
# Stress axis : x y z
#
# Youngs Moduli (GPa) = 49.40519 73.41217 85.74288
#
# Poissons Ratio (x) = 0.68075 0.16448
# Poissons Ratio (y) = 0.45813 0.21512
# Poissons Ratio (z) = 0.09477 0.18418
#
# Static dielectric constant tensor:
#      x y z
#    x 3.620090 0.000000 0.000000 
#    y 0.000000 4.048080 0.000000 
#    z 0.000000 0.000000 3.582350 
# 
# 
# High freq. dielectric constant tensor:
#      x y z
#    x 1.768000 0.000000 0.000000 
#    y 0.000000 1.790940 0.000000 
#    z 0.000000 0.000000 1.766340 
# 
# From -- ./inp_files/16305.got.cif
#   From: 2010.03.12/outbox.cif.g09.slc.cpg/sg57_9_cif.got.tgz:16305.got - 2010.04.16 15:48:40.
