data_PCOD8232211
_publ_section_title
;
Structure prediction by ZEFSAII (Michael W. Deem and Ramdas Pophale) SiO2 
 PCOD8232211
Probable space group: P B C M
;
_chemical_formula_sum "Si O2"
_cell_formula_units_Z 64
_cell_length_a 15.054919
_cell_length_b 29.603761
_cell_length_c 8.784577
_cell_angle_alpha 90.000000
_cell_angle_beta 90.000000
_cell_angle_gamma 90.000000
_cell_volume 3915.129814
_symmetry_space_group_name_H-M "P B C M"
_symmetry_group_IT_number 57
_symmetry_cell_setting 'orthorhombic'
loop_
_space_group_symop_operation_xyz
x,y,z
-x,-y,1/2+z
x,1/2-y,-z
-x,1/2+y,1/2-z
-x,-y,-z
x,y,1/2-z
-x,1/2+y,z
x,1/2-y,1/2+z
loop_
_atom_site_type_symbol
_atom_site_label
_atom_site_fract_x
_atom_site_fract_y
_atom_site_fract_z
Si Si1 0.557585 0.443063 0.575897
Si Si2 0.967735 0.889270 0.930586
Si Si3 0.782425 0.203362 0.572541
Si Si4 0.866878 0.440294 0.429584
Si Si5 0.283803 0.616060 0.074678
Si Si6 0.371030 0.469105 0.928307
Si Si7 0.010521 0.702713 0.572695
Si Si8 0.176592 0.040656 0.069385
O O1 0.558643 0.460237 0.750000
O O2 0.611991 0.396686 0.557907
O O3 0.606662 0.480268 0.476147
O O4 0.454186 0.436733 0.524004
O O5 0.968800 0.885284 0.750000
O O6 0.884440 0.918627 0.991915
O O7 0.056539 0.913993 0.983058
O O8 0.957958 0.839087 0.999019
O O9 0.751539 0.250000 0.500000
O O10 0.761065 0.203287 0.750000
O O11 0.724456 0.166098 0.488691
O O12 0.885824 0.194315 0.540174
O O13 0.881596 0.434379 0.250000
O O14 0.773440 0.418465 0.474921
O O15 0.865535 0.492633 0.480996
O O16 0.252670 0.613802 0.250000
O O17 0.356408 0.469155 0.750000
O O18 0.276464 0.453476 0.000055
O O19 0.978846 0.750000 0.500000
O O20 0.989173 0.704808 0.750000
O O21 0.178779 0.042063 0.250000
#
# Coordination Sequence:
#
# PCOD8232211 Si02
#       8
#     8   8   8   8   8   8   8   8
#     4   9  18  29  46  71  95 122 158 197 238 278
#     4  11  21  33  48  69  96 129 164 200 240 283
#     4  10  20  33  50  70  95 125 158 194 238 288
#     4  11  20  32  46  66  95 132 171 200 231 277
#     4  11  20  30  46  71 100 128 160 196 237 285
#     4   9  16  31  49  66  93 126 160 199 236 277
#     4  10  20  34  51  71  94 122 157 196 240 286
#     4   9  19  32  48  68  94 131 170 202 238 280
#
# _framework density 16.34684
#
# number of rings (size 3 to 8) (size 9 to 14) (size 15 to 20)
#    0.000    2.000    2.500    2.250    0.000    1.500 
#    0.000    3.125    0.000    0.000    0.000    0.875 
#    0.000    0.000    0.000    0.000    0.000    0.000 
#
# Total GULP energy -793423.741805 kJ/mol
# GULP energy per Si atom -12397.245966 kJ/mol
# Density = 1.630963 g / cm^3
# Si number density = 16.346840 Si / 1000 Ang^3
#
#
#
# Elastic Constant Matrix: (Units=GPa)
#
#
# Indices 1 2 3 4 5 6 
#
# 1 85.7873 57.3533 23.0452 0.0000 0.0000 0.0000
# 2 57.3533 134.4920 39.4386 0.0000 0.0000 0.0000
# 3 23.0452 39.4386 46.8998 0.0000 0.0000 0.0000
# 4 0.0000 0.0000 0.0000 25.9979 0.0000 0.0000
# 5 0.0000 0.0000 0.0000 0.0000 13.6382 0.0000
# 6 0.0000 0.0000 0.0000 0.0000 0.0000 22.7623
#
#
#
# Elastic Compliance Matrix: (Units=1/GPa)
#
#
# Indices 1 2 3 4 5 6 
#
# 1 0.016602 -0.006222 -0.002926 0.000000 0.000000 0.000000
# 2 -0.006222 0.012201 -0.007202 0.000000 0.000000 0.000000
# 3 -0.002926 -0.007202 0.028816 0.000000 0.000000 0.000000
# 4 0.000000 0.000000 0.000000 0.038465 0.000000 0.000000
# 5 0.000000 0.000000 0.000000 0.000000 0.073323 0.000000
# 6 0.000000 0.000000 0.000000 0.000000 0.000000 0.043932
#
#
# Mechanical properties :
#
#
# Convention : Reuss Voigt Hill
#
# Bulk Modulus (GPa) = 40.13001 56.31705 48.22353
# Shear Modulus (GPa) = 19.65819 22.30247 20.98033
#
# Velocity S-wave (km/s) = 3.47157 3.69769 3.58641
# Velocity P-wave (km/s) = 6.37742 7.26338 6.83477
#
# Compressibility (1/GPa) = 0.02491901
#
# Stress axis : x y z
#
# Youngs Moduli (GPa) = 60.23195 81.96165 34.70258
#
# Poissons Ratio (x) = 0.50997 0.10153
# Poissons Ratio (y) = 0.37477 0.24994
# Poissons Ratio (z) = 0.17622 0.59033
#
# Static dielectric constant tensor:
#      x y z
#    x 3.336910 0.000000 0.000000 
#    y 0.000000 3.092920 0.000000 
#    z 0.000000 0.000000 3.082180 
# 
# 
# High freq. dielectric constant tensor:
#      x y z
#    x 1.612940 0.000000 0.000000 
#    y 0.000000 1.616390 0.000000 
#    z 0.000000 0.000000 1.631570 
# 
# From -- ./inp_files/6001.got.cif
#   From: 2010.03.12/outbox.cif.g09.slc.cpg/sg57_4_cif.got.tgz:6001.got - 2010.04.16 15:48:40.
