data_PCOD8232873
_publ_section_title
;
Structure prediction by ZEFSAII (Michael W. Deem and Ramdas Pophale) SiO2 
 PCOD8232873
Probable space group: P B C M
;
_chemical_formula_sum "Si O2"
_cell_formula_units_Z 48
_cell_length_a 9.545184
_cell_length_b 18.387420
_cell_length_c 13.825266
_cell_angle_alpha 90.000000
_cell_angle_beta 90.000000
_cell_angle_gamma 90.000000
_cell_volume 2426.490508
_symmetry_space_group_name_H-M "P B C M"
_symmetry_group_IT_number 57
_symmetry_cell_setting 'orthorhombic'
loop_
_space_group_symop_operation_xyz
x,y,z
-x,-y,1/2+z
x,1/2-y,-z
-x,1/2+y,1/2-z
-x,-y,-z
x,y,1/2-z
-x,1/2+y,z
x,1/2-y,1/2+z
loop_
_atom_site_type_symbol
_atom_site_label
_atom_site_fract_x
_atom_site_fract_y
_atom_site_fract_z
Si Si1 0.999277 0.869101 0.469148
Si Si2 0.354628 0.780478 0.858596
Si Si3 0.766970 0.947947 0.137856
Si Si4 0.487212 0.871417 0.359900
Si Si5 0.975165 0.228185 0.141979
Si Si6 0.693340 0.085053 0.018807
O O1 0.897091 0.933108 0.433960
O O2 0.965504 0.837619 0.576210
O O3 0.968379 0.805833 0.391664
O O4 0.156598 0.898125 0.471490
O O5 0.396314 0.802646 0.750000
O O6 0.444621 0.710437 0.891561
O O7 0.383280 0.847476 0.928687
O O8 0.190802 0.763127 0.866637
O O9 0.813963 0.959505 0.250000
O O10 0.654079 0.882898 0.130571
O O11 0.698501 0.021618 0.097685
O O12 0.438192 0.885646 0.250000
O O13 0.407784 0.930625 0.427428
O O14 0.026622 0.211355 0.250000
#
# Coordination Sequence:
#
# PCOD8232873 Si02
#       6
#     8   8   8   8   8   8
#     4  10  20  35  58  85 114 153 192 234 294 352
#     4   9  17  33  60  87 107 142 197 244 282 332
#     4  11  24  39  55  83 124 158 187 238 307 361
#     4  10  21  37  58  82 112 153 196 241 293 348
#     4   9  17  33  58  85 112 144 192 244 280 332
#     4  11  20  37  60  86 112 152 200 244 283 348
#
# _framework density 19.781656000000002
#
# number of rings (size 3 to 8) (size 9 to 14) (size 15 to 20)
#    0.000    2.000    1.667    2.500    0.000    1.333 
#    6.000    0.833    0.000    1.000    0.000    0.000 
#    0.000    0.000    0.000    0.000    0.000    0.000 
#
# Total GULP energy -594977.668009 kJ/mol
# GULP energy per Si atom -12395.368084 kJ/mol
# Density = 1.973663 g / cm^3
# Si number density = 19.781656 Si / 1000 Ang^3
#
#
#
# Elastic Constant Matrix: (Units=GPa)
#
#
# Indices 1 2 3 4 5 6 
#
# 1 56.6431 22.6527 41.8720 0.0000 0.0000 0.0000
# 2 22.6527 56.4806 44.6861 0.0000 0.0000 0.0000
# 3 41.8720 44.6861 130.1009 0.0000 0.0000 0.0000
# 4 0.0000 0.0000 0.0000 27.5245 0.0000 0.0000
# 5 0.0000 0.0000 0.0000 0.0000 24.9801 0.0000
# 6 0.0000 0.0000 0.0000 0.0000 0.0000 18.5401
#
#
#
# Elastic Compliance Matrix: (Units=1/GPa)
#
#
# Indices 1 2 3 4 5 6 
#
# 1 0.024094 -0.004845 -0.006090 0.000000 0.000000 0.000000
# 2 -0.004845 0.025286 -0.007126 0.000000 0.000000 0.000000
# 3 -0.006090 -0.007126 0.012094 0.000000 0.000000 0.000000
# 4 0.000000 0.000000 0.000000 0.036331 0.000000 0.000000
# 5 0.000000 0.000000 0.000000 0.000000 0.040032 0.000000
# 6 0.000000 0.000000 0.000000 0.000000 0.000000 0.053937
#
#
# Mechanical properties :
#
#
# Convention : Reuss Voigt Hill
#
# Bulk Modulus (GPa) = 39.44450 51.29402 45.36926
# Shear Modulus (GPa) = 21.15530 23.14319 22.14924
#
# Velocity S-wave (km/s) = 3.27378 3.42414 3.34980
# Velocity P-wave (km/s) = 5.85435 6.45131 6.16006
#
# Compressibility (1/GPa) = 0.02535208
#
# Stress axis : x y z
#
# Youngs Moduli (GPa) = 41.50387 39.54742 82.68548
#
# Poissons Ratio (x) = 0.19160 0.50359
# Poissons Ratio (y) = 0.20108 0.58920
# Poissons Ratio (z) = 0.25278 0.28181
#
# Static dielectric constant tensor:
#      x y z
#    x 3.301560 0.000000 0.000000 
#    y 0.000000 3.483000 0.000000 
#    z 0.000000 0.000000 3.912430 
# 
# 
# High freq. dielectric constant tensor:
#      x y z
#    x 1.741630 0.000000 0.000000 
#    y 0.000000 1.758040 0.000000 
#    z 0.000000 0.000000 1.791320 
# 
# From -- ./inp_files/16380.got.cif
#   From: 2010.03.12/outbox.cif.g09.slc.cpg/sg57_9_cif.got.tgz:16380.got - 2010.04.16 15:48:40.
