data_PCOD8232322
_publ_section_title
;
Structure prediction by ZEFSAII (Michael W. Deem and Ramdas Pophale) SiO2 
 PCOD8232322
Probable space group: P B C M
;
_chemical_formula_sum "Si O2"
_cell_formula_units_Z 64
_cell_length_a 23.626529
_cell_length_b 14.442914
_cell_length_c 9.259885
_cell_angle_alpha 90.000000
_cell_angle_beta 90.000000
_cell_angle_gamma 90.000000
_cell_volume 3159.805437
_symmetry_space_group_name_H-M "P B C M"
_symmetry_group_IT_number 57
_symmetry_cell_setting 'orthorhombic'
loop_
_space_group_symop_operation_xyz
x,y,z
-x,-y,1/2+z
x,1/2-y,-z
-x,1/2+y,1/2-z
-x,-y,-z
x,y,1/2-z
-x,1/2+y,z
x,1/2-y,1/2+z
loop_
_atom_site_type_symbol
_atom_site_label
_atom_site_fract_x
_atom_site_fract_y
_atom_site_fract_z
Si Si1 0.737955 0.835035 0.589863
Si Si2 0.025889 0.915223 0.414529
Si Si3 0.606210 0.665207 0.411214
Si Si4 0.351870 0.654885 0.416054
Si Si5 0.252164 0.977395 0.583494
Si Si6 0.440928 0.999116 0.581581
Si Si7 0.125435 0.538858 0.084351
Si Si8 0.909772 0.663176 0.587262
O O1 0.765496 0.750000 0.500000
O O2 0.765344 0.839356 0.750000
O O3 0.671871 0.815476 0.607386
O O4 0.748414 0.930309 0.508794
O O5 0.038427 0.943102 0.250000
O O6 0.085932 0.890905 0.491450
O O7 0.978665 0.834930 0.422474
O O8 0.000000 0.000000 0.500000
O O9 0.577559 0.750000 0.500000
O O10 0.578475 0.656545 0.250000
O O11 0.599152 0.573349 0.505398
O O12 0.356454 0.750000 0.500000
O O13 0.340840 0.678930 0.250000
O O14 0.299259 0.593916 0.475426
O O15 0.410729 0.600016 0.436321
O O16 0.265342 0.003502 0.750000
O O17 0.190502 0.930082 0.567879
O O18 0.449087 0.024020 0.750000
O O19 0.500000 0.000000 0.500000
O O20 0.105083 0.543954 0.250000
O O21 0.116710 0.433000 0.027648
O O22 0.885189 0.750000 0.500000
O O23 0.889080 0.676410 0.750000
#
# Coordination Sequence:
#
# PCOD8232322 Si02
#       8
#     8   8   8   8   8   8   8   8
#     4  10  20  33  54  83 114 150 190 233 283 342
#     4   9  17  31  50  72 100 135 181 226 272 329
#     4  10  20  35  57  85 116 151 188 231 283 342
#     4  10  23  42  65  88 115 154 198 243 295 348
#     4  10  20  38  60  83 115 154 195 242 295 351
#     4  11  23  40  62  90 121 154 194 242 295 353
#     4   9  19  34  53  77 107 142 182 229 282 337
#     4   9  18  31  48  74 104 139 177 220 273 330
#
# _framework density 20.254411999999999
#
# number of rings (size 3 to 8) (size 9 to 14) (size 15 to 20)
#    0.000    2.250    1.250    2.250    0.000    6.500 
#    0.000    3.125    0.000    3.000    0.000    0.000 
#    0.000    0.000    0.000    0.000    0.000    0.000 
#
# Total GULP energy -793375.801555 kJ/mol
# GULP energy per Si atom -12396.496899 kJ/mol
# Density = 2.020831 g / cm^3
# Si number density = 20.254412 Si / 1000 Ang^3
#
#
#
# Elastic Constant Matrix: (Units=GPa)
#
#
# Indices 1 2 3 4 5 6 
#
# 1 84.4365 13.7092 31.3188 0.0000 0.0000 0.0000
# 2 13.7092 78.6507 45.3120 0.0000 0.0000 0.0000
# 3 31.3188 45.3120 123.5196 0.0000 0.0000 0.0000
# 4 0.0000 0.0000 0.0000 36.6189 0.0000 0.0000
# 5 0.0000 0.0000 0.0000 0.0000 29.0563 0.0000
# 6 0.0000 0.0000 0.0000 0.0000 0.0000 10.8754
#
#
#
# Elastic Compliance Matrix: (Units=1/GPa)
#
#
# Indices 1 2 3 4 5 6 
#
# 1 0.013086 -0.000468 -0.003146 0.000000 0.000000 0.000000
# 2 -0.000468 0.016138 -0.005801 0.000000 0.000000 0.000000
# 3 -0.003146 -0.005801 0.011022 0.000000 0.000000 0.000000
# 4 0.000000 0.000000 0.000000 0.027308 0.000000 0.000000
# 5 0.000000 0.000000 0.000000 0.000000 0.034416 0.000000
# 6 0.000000 0.000000 0.000000 0.000000 0.000000 0.091951
#
#
# Mechanical properties :
#
#
# Convention : Reuss Voigt Hill
#
# Bulk Modulus (GPa) = 46.69773 51.92073 49.30923
# Shear Modulus (GPa) = 22.73846 28.39458 25.56652
#
# Velocity S-wave (km/s) = 3.35422 3.74825 3.55670
# Velocity P-wave (km/s) = 6.17306 6.66502 6.42375
#
# Compressibility (1/GPa) = 0.02141432
#
# Stress axis : x y z
#
# Youngs Moduli (GPa) = 76.41608 61.96398 90.72907
#
# Poissons Ratio (x) = 0.02902 0.28545
# Poissons Ratio (y) = 0.03579 0.52636
# Poissons Ratio (z) = 0.24042 0.35948
#
# Static dielectric constant tensor:
#      x y z
#    x 3.922220 0.000000 0.000000 
#    y 0.000000 3.449830 0.000000 
#    z 0.000000 0.000000 -0.309490 
# 
# 
# High freq. dielectric constant tensor:
#      x y z
#    x 1.788860 0.000000 0.000000 
#    y 0.000000 1.763570 0.000000 
#    z 0.000000 0.000000 1.797870 
# 
# From -- ./inp_files/9513.got.cif
#   From: 2010.03.12/outbox.cif.g09.slc.cpg/sg57_5_cif.got.tgz:9513.got - 2010.04.16 15:48:40.
