data_PCOD8232928
_publ_section_title
;
Structure prediction by ZEFSAII (Michael W. Deem and Ramdas Pophale) SiO2 
 PCOD8232928
Probable space group: P B C M
;
_chemical_formula_sum "Si O2"
_cell_formula_units_Z 40
_cell_length_a 9.682593
_cell_length_b 15.871750
_cell_length_c 13.822409
_cell_angle_alpha 90.000000
_cell_angle_beta 90.000000
_cell_angle_gamma 90.000000
_cell_volume 2124.223605
_symmetry_space_group_name_H-M "P B C M"
_symmetry_group_IT_number 57
_symmetry_cell_setting 'orthorhombic'
loop_
_space_group_symop_operation_xyz
x,y,z
-x,-y,1/2+z
x,1/2-y,-z
-x,1/2+y,1/2-z
-x,-y,-z
x,y,1/2-z
-x,1/2+y,z
x,1/2-y,1/2+z
loop_
_atom_site_type_symbol
_atom_site_label
_atom_site_fract_x
_atom_site_fract_y
_atom_site_fract_z
Si Si1 0.343198 0.121187 0.137253
Si Si2 0.694049 0.689140 0.859465
Si Si3 0.917718 0.552767 0.861251
Si Si4 0.556017 0.345816 0.007357
Si Si5 0.802896 0.467767 0.459296
O O1 0.350642 0.100870 0.250000
O O2 0.281358 0.213449 0.111984
O O3 0.241807 0.056254 0.085994
O O4 0.500073 0.118364 0.095410
O O5 0.640845 0.684025 0.750000
O O6 0.837436 0.640632 0.873664
O O7 0.574473 0.645678 0.921545
O O8 0.912989 0.521167 0.750000
O O9 0.073914 0.570012 0.894825
O O10 0.850473 0.480822 0.929511
O O11 0.679354 0.401814 0.046714
O O12 0.609183 0.250000 0.000000
#
# Coordination Sequence:
#
# PCOD8232928 Si02
#       5
#     8   8   8   8   8
#     4  10  20  35  60  88 115 149 193 235 282 342
#     4   9  19  37  60  83 113 154 191 231 285 345
#     4  10  22  39  57  83 116 149 192 236 286 346
#     4  10  21  39  57  86 116 150 188 237 286 339
#     4  11  22  38  58  87 115 152 191 238 292 330
#
# _framework density 18.830409
#
# number of rings (size 3 to 8) (size 9 to 14) (size 15 to 20)
#    0.000    2.000    2.000    1.200    0.000    2.400 
#    7.200    0.000    0.000    0.000    0.000    0.000 
#    0.000    0.000    0.000    0.000    0.000    0.000 
#
# Total GULP energy -496038.212840 kJ/mol
# GULP energy per Si atom -12400.955321 kJ/mol
# Density = 1.878755 g / cm^3
# Si number density = 18.830409 Si / 1000 Ang^3
#
#
#
# Elastic Constant Matrix: (Units=GPa)
#
#
# Indices 1 2 3 4 5 6 
#
# 1 133.2977 72.3740 63.9333 0.0000 0.0000 0.0000
# 2 72.3740 87.8845 51.2521 0.0000 0.0000 0.0000
# 3 63.9333 51.2521 124.0826 0.0000 0.0000 0.0000
# 4 0.0000 0.0000 0.0000 22.8071 0.0000 0.0000
# 5 0.0000 0.0000 0.0000 0.0000 22.1085 0.0000
# 6 0.0000 0.0000 0.0000 0.0000 0.0000 18.2620
#
#
#
# Elastic Compliance Matrix: (Units=1/GPa)
#
#
# Indices 1 2 3 4 5 6 
#
# 1 0.014559 -0.010031 -0.003358 0.000000 0.000000 0.000000
# 2 -0.010031 0.021901 -0.003877 0.000000 0.000000 0.000000
# 3 -0.003358 -0.003877 0.011391 0.000000 0.000000 0.000000
# 4 0.000000 0.000000 0.000000 0.043846 0.000000 0.000000
# 5 0.000000 0.000000 0.000000 0.000000 0.045232 0.000000
# 6 0.000000 0.000000 0.000000 0.000000 0.000000 0.054759
#
#
# Mechanical properties :
#
#
# Convention : Reuss Voigt Hill
#
# Bulk Modulus (GPa) = 75.09154 80.04263 77.56709
# Shear Modulus (GPa) = 21.67696 23.14921 22.41308
#
# Velocity S-wave (km/s) = 3.39657 3.51002 3.45376
# Velocity P-wave (km/s) = 7.43953 7.68286 7.56217
#
# Compressibility (1/GPa) = 0.01331708
#
# Stress axis : x y z
#
# Youngs Moduli (GPa) = 68.68528 45.66071 87.78846
#
# Poissons Ratio (x) = 0.45803 0.29481
# Poissons Ratio (y) = 0.68900 0.34039
# Poissons Ratio (z) = 0.23066 0.17705
#
# Static dielectric constant tensor:
#      x y z
#    x 3.379600 0.000000 0.000000 
#    y 0.000000 3.382850 0.000000 
#    z 0.000000 0.000000 3.770970 
# 
# 
# High freq. dielectric constant tensor:
#      x y z
#    x 1.720620 0.000000 0.000000 
#    y 0.000000 1.724090 0.000000 
#    z 0.000000 0.000000 1.750350 
# 
# From -- ./inp_files/15880.got.cif
#   From: 2010.03.12/outbox.cif.g09.slc.cpg/sg57_8_cif.got.tgz:15880.got - 2010.04.16 15:48:40.
