data_PCOD8232789
_publ_section_title
;
Structure prediction by ZEFSAII (Michael W. Deem and Ramdas Pophale) SiO2 
 PCOD8232789
Probable space group: P B C M
;
_chemical_formula_sum "Si O2"
_cell_formula_units_Z 64
_cell_length_a 24.071946
_cell_length_b 14.805142
_cell_length_c 8.604835
_cell_angle_alpha 90.000000
_cell_angle_beta 90.000000
_cell_angle_gamma 90.000000
_cell_volume 3066.664916
_symmetry_space_group_name_H-M "P B C M"
_symmetry_group_IT_number 57
_symmetry_cell_setting 'orthorhombic'
loop_
_space_group_symop_operation_xyz
x,y,z
-x,-y,1/2+z
x,1/2-y,-z
-x,1/2+y,1/2-z
-x,-y,-z
x,y,1/2-z
-x,1/2+y,z
x,1/2-y,1/2+z
loop_
_atom_site_type_symbol
_atom_site_label
_atom_site_fract_x
_atom_site_fract_y
_atom_site_fract_z
Si Si1 0.890376 0.340375 0.431083
Si Si2 0.373417 0.469752 0.927400
Si Si3 0.771775 0.162925 0.066885
Si Si4 0.749789 0.976690 0.570362
Si Si5 0.851812 0.649341 0.434014
Si Si6 0.939547 0.515952 0.931814
Si Si7 0.540124 0.658399 0.569613
Si Si8 0.583787 0.157980 0.568696
O O1 0.920097 0.250000 0.500000
O O2 0.906030 0.353509 0.250000
O O3 0.825212 0.332276 0.454664
O O4 0.906272 0.425709 0.533720
O O5 0.393100 0.457629 0.750000
O O6 0.310955 0.431049 0.949236
O O7 0.375571 0.575532 0.974897
O O8 0.417118 0.420675 0.035443
O O9 0.784702 0.172276 0.250000
O O10 0.736540 0.250000 0.000000
O O11 0.744868 0.066076 0.034731
O O12 0.760756 0.002813 0.750000
O O13 0.797810 0.908514 0.510959
O O14 0.847211 0.750000 0.500000
O O15 0.853881 0.655200 0.250000
O O16 0.908199 0.601633 0.492713
O O17 0.943622 0.534596 0.750000
O O18 0.000000 0.500000 0.000000
O O19 0.565168 0.750000 0.500000
O O20 0.535423 0.671477 0.750000
O O21 0.478452 0.638739 0.500875
O O22 0.609085 0.250000 0.500000
O O23 0.580239 0.172033 0.750000
#
# Coordination Sequence:
#
# PCOD8232789 Si02
#       8
#     8   8   8   8   8   8   8   8
#     4  11  21  37  61  91 124 158 196 242 295 353
#     4  10  21  37  57  85 119 156 197 252 306 360
#     4  11  21  35  59  87 117 155 197 241 294 355
#     4  10  22  40  61  86 122 162 204 252 305 360
#     4  11  24  44  68  92 123 165 210 257 306 363
#     4  12  25  43  67  97 129 163 203 251 305 362
#     4  10  20  35  56  82 112 152 198 252 306 366
#     4   9  19  35  56  82 116 155 199 246 306 367
#
# _framework density 20.869578000000001
#
# number of rings (size 3 to 8) (size 9 to 14) (size 15 to 20)
#    0.000    1.500    1.250    5.250    0.000    3.500 
#    0.000    5.000    0.000    0.000    0.000    0.000 
#    0.000    0.000    0.000    0.000    0.000    0.000 
#
# Total GULP energy -793360.150861 kJ/mol
# GULP energy per Si atom -12396.252357 kJ/mol
# Density = 2.082208 g / cm^3
# Si number density = 20.869578 Si / 1000 Ang^3
#
#
#
# Elastic Constant Matrix: (Units=GPa)
#
#
# Indices 1 2 3 4 5 6 
#
# 1 90.4405 39.1244 29.4812 0.0000 0.0000 0.0000
# 2 39.1244 125.8600 39.6641 0.0000 0.0000 0.0000
# 3 29.4812 39.6641 86.9493 0.0000 0.0000 0.0000
# 4 0.0000 0.0000 0.0000 40.4389 0.0000 0.0000
# 5 0.0000 0.0000 0.0000 0.0000 19.5699 0.0000
# 6 0.0000 0.0000 0.0000 0.0000 0.0000 7.0426
#
#
#
# Elastic Compliance Matrix: (Units=1/GPa)
#
#
# Indices 1 2 3 4 5 6 
#
# 1 0.013454 -0.003205 -0.003099 0.000000 0.000000 0.000000
# 2 -0.003205 0.010043 -0.003495 0.000000 0.000000 0.000000
# 3 -0.003099 -0.003495 0.014146 0.000000 0.000000 0.000000
# 4 0.000000 0.000000 0.000000 0.024729 0.000000 0.000000
# 5 0.000000 0.000000 0.000000 0.000000 0.051099 0.000000
# 6 0.000000 0.000000 0.000000 0.000000 0.000000 0.141993
#
#
# Mechanical properties :
#
#
# Convention : Reuss Voigt Hill
#
# Bulk Modulus (GPa) = 55.41987 57.75435 56.58711
# Shear Modulus (GPa) = 17.78868 26.40895 22.09881
#
# Velocity S-wave (km/s) = 2.92271 3.56114 3.25761
# Velocity P-wave (km/s) = 6.16463 6.68154 6.42828
#
# Compressibility (1/GPa) = 0.01804407
#
# Stress axis : x y z
#
# Youngs Moduli (GPa) = 74.32721 99.57119 70.69147
#
# Poissons Ratio (x) = 0.31917 0.21911
# Poissons Ratio (y) = 0.23825 0.24703
# Poissons Ratio (z) = 0.23038 0.34795
#
# Static dielectric constant tensor:
#      x y z
#    x 6.300280 0.000000 0.000000 
#    y 0.000000 5.138590 0.000000 
#    z 0.000000 0.000000 3.659730 
# 
# 
# High freq. dielectric constant tensor:
#      x y z
#    x 1.807840 0.000000 0.000000 
#    y 0.000000 1.824340 0.000000 
#    z 0.000000 0.000000 1.816580 
# 
# From -- ./inp_files/9439.got.cif
#   From: 2010.03.12/outbox.cif.g09.slc.cpg/sg57_5_cif.got.tgz:9439.got - 2010.04.16 15:48:40.
