data_PCOD8232017
_publ_section_title
;
Structure prediction by ZEFSAII (Michael W. Deem and Ramdas Pophale) SiO2 
 PCOD8232017
Probable space group: P B C M
;
_chemical_formula_sum "Si O2"
_cell_formula_units_Z 48
_cell_length_a 4.815381
_cell_length_b 16.999454
_cell_length_c 26.343120
_cell_angle_alpha 90.000000
_cell_angle_beta 90.000000
_cell_angle_gamma 90.000000
_cell_volume 2156.417451
_symmetry_space_group_name_H-M "P B C M"
_symmetry_group_IT_number 57
_symmetry_cell_setting 'orthorhombic'
loop_
_space_group_symop_operation_xyz
x,y,z
-x,-y,1/2+z
x,1/2-y,-z
-x,1/2+y,1/2-z
-x,-y,-z
x,y,1/2-z
-x,1/2+y,z
x,1/2-y,1/2+z
loop_
_atom_site_type_symbol
_atom_site_label
_atom_site_fract_x
_atom_site_fract_y
_atom_site_fract_z
Si Si1 0.365001 0.385994 0.443471
Si Si2 0.142131 0.360129 0.944843
Si Si3 0.624527 0.052205 0.095665
Si Si4 0.098774 0.791764 0.805578
Si Si5 0.600386 0.600566 0.305693
Si Si6 0.897058 0.201453 0.594692
O O1 0.206862 0.375031 0.496467
O O2 0.468746 0.475180 0.435524
O O3 0.618117 0.326005 0.433995
O O4 0.122074 0.368660 0.403038
O O5 0.439202 0.371298 0.917951
O O6 0.936209 0.425441 0.920336
O O7 0.023702 0.273245 0.937790
O O8 0.549364 0.039167 0.155449
O O9 0.997512 0.760403 0.750000
O O10 0.404333 0.824827 0.799698
O O11 0.135220 0.722885 0.846398
O O12 0.894062 0.862226 0.825064
O O13 0.640147 0.559841 0.250000
#
# Coordination Sequence:
#
# PCOD8232017 Si02
#       6
#     8   8   8   8   8   8
#     4  12  27  40  63  97 136 166 210 276 327 384
#     4  12  24  42  67  88 126 180 226 255 311 393
#     4  12  22  43  64  94 128 169 218 266 325 382
#     4  10  20  38  65  94 123 165 219 267 313 383
#     4  10  19  36  64  95 121 162 218 269 312 379
#     4  12  23  43  62  95 129 169 216 268 328 378
#
# _framework density 22.259143000000002
#
# number of rings (size 3 to 8) (size 9 to 14) (size 15 to 20)
#    0.000    0.667    3.333    5.500    0.000    1.333 
#    0.000    1.667    0.000    0.000    0.000    0.000 
#    0.000    0.000    0.000    0.000    0.000    0.000 
#
# Total GULP energy -594794.351204 kJ/mol
# GULP energy per Si atom -12391.548983 kJ/mol
# Density = 2.220848 g / cm^3
# Si number density = 22.259143 Si / 1000 Ang^3
#
#
#
# Elastic Constant Matrix: (Units=GPa)
#
#
# Indices 1 2 3 4 5 6 
#
# 1 98.0469 19.0860 31.1328 0.0000 0.0000 0.0000
# 2 19.0860 59.3983 40.5866 0.0000 0.0000 0.0000
# 3 31.1328 40.5866 117.9017 0.0000 0.0000 0.0000
# 4 0.0000 0.0000 0.0000 16.7681 0.0000 0.0000
# 5 0.0000 0.0000 0.0000 0.0000 37.0467 0.0000
# 6 0.0000 0.0000 0.0000 0.0000 0.0000 30.8698
#
#
#
# Elastic Compliance Matrix: (Units=1/GPa)
#
#
# Indices 1 2 3 4 5 6 
#
# 1 0.011327 -0.002087 -0.002273 0.000000 0.000000 0.000000
# 2 -0.002087 0.022398 -0.007159 0.000000 0.000000 0.000000
# 3 -0.002273 -0.007159 0.011546 0.000000 0.000000 0.000000
# 4 0.000000 0.000000 0.000000 0.059637 0.000000 0.000000
# 5 0.000000 0.000000 0.000000 0.000000 0.026993 0.000000
# 6 0.000000 0.000000 0.000000 0.000000 0.000000 0.032394
#
#
# Mechanical properties :
#
#
# Convention : Reuss Voigt Hill
#
# Bulk Modulus (GPa) = 44.97634 50.77309 47.87472
# Shear Modulus (GPa) = 25.67472 29.23968 27.45720
#
# Velocity S-wave (km/s) = 3.39993 3.62830 3.51597
# Velocity P-wave (km/s) = 5.97179 6.35706 6.16744
#
# Compressibility (1/GPa) = 0.02223391
#
# Stress axis : x y z
#
# Youngs Moduli (GPa) = 88.28431 44.64704 86.60811
#
# Poissons Ratio (x) = 0.09317 0.19683
# Poissons Ratio (y) = 0.18423 0.62005
# Poissons Ratio (z) = 0.20064 0.31964
#
# Static dielectric constant tensor:
#      x y z
#    x 4.196130 0.000000 0.000000 
#    y 0.000000 3.650570 0.000000 
#    z 0.000000 0.000000 4.574010 
# 
# 
# High freq. dielectric constant tensor:
#      x y z
#    x 1.900690 0.000000 0.000000 
#    y 0.000000 1.831100 0.000000 
#    z 0.000000 0.000000 1.895050 
# 
# From -- ./inp_files/27969.got.cif
#   From: 2010.03.12/outbox.cif.g09.slc.cpg/sg57_14_cif.got.tgz:27969.got - 2010.04.16 15:48:40.
