data_PCOD8232525
_publ_section_title
;
Structure prediction by ZEFSAII (Michael W. Deem and Ramdas Pophale) SiO2 
 PCOD8232525
Probable space group: P B C M
;
_chemical_formula_sum "Si O2"
_cell_formula_units_Z 48
_cell_length_a 18.969726
_cell_length_b 9.166362
_cell_length_c 14.496664
_cell_angle_alpha 90.000000
_cell_angle_beta 90.000000
_cell_angle_gamma 90.000000
_cell_volume 2520.728871
_symmetry_space_group_name_H-M "P B C M"
_symmetry_group_IT_number 57
_symmetry_cell_setting 'orthorhombic'
loop_
_space_group_symop_operation_xyz
x,y,z
-x,-y,1/2+z
x,1/2-y,-z
-x,1/2+y,1/2-z
-x,-y,-z
x,y,1/2-z
-x,1/2+y,z
x,1/2-y,1/2+z
loop_
_atom_site_type_symbol
_atom_site_label
_atom_site_fract_x
_atom_site_fract_y
_atom_site_fract_z
Si Si1 0.400044 0.789911 0.250000
Si Si2 0.169479 0.582825 0.522699
Si Si3 0.320777 0.615749 0.931500
Si Si4 0.952859 0.157576 0.644981
Si Si5 0.487535 0.066452 0.250000
Si Si6 0.089502 0.514729 0.355754
Si Si7 0.559019 0.903252 0.548201
O O1 0.349379 0.822275 0.164630
O O2 0.430316 0.622644 0.250000
O O3 0.471378 0.891642 0.250000
O O4 0.177846 0.750000 0.500000
O O5 0.242711 0.541951 0.573522
O O6 0.102383 0.558908 0.588559
O O7 0.155251 0.494771 0.426445
O O8 0.368057 0.484995 0.968838
O O9 0.323472 0.750000 0.000000
O O10 0.934945 0.122688 0.750000
O O11 0.946638 0.328923 0.623097
O O12 0.032436 0.109642 0.622249
O O13 0.452946 0.127887 0.156552
O O14 0.116810 0.505762 0.250000
O O15 0.562238 0.750000 0.500000
O O16 0.500000 0.000000 0.500000
#
# Coordination Sequence:
#
# PCOD8232525 Si02
#       7
#     4   8   8   8   4   8   8
#     4  10  20  34  56  78 110 132 174 222 264 318
#     4   9  18  32  49  72 104 135 173 209 260 316
#     4  10  21  36  52  80 107 141 181 215 267 327
#     4   9  17  29  50  74  99 131 172 214 262 303
#     4  10  20  34  54  84 102 134 172 216 266 314
#     4   9  17  31  50  74 101 131 174 219 259 303
#     4  11  21  36  59  79 110 139 176 224 268 316
#
# _framework density 19.042110000000001
#
# number of rings (size 3 to 8) (size 9 to 14) (size 15 to 20)
#    0.000    2.333    0.000    4.000    1.167    0.000 
#    4.500    1.667    0.000    0.000    0.000    0.000 
#    0.000    0.000    0.000    0.000    0.000    0.000 
#
# Total GULP energy -594793.935331 kJ/mol
# GULP energy per Si atom -12391.540319 kJ/mol
# Density = 1.899877 g / cm^3
# Si number density = 19.042110 Si / 1000 Ang^3
#
#
#
# Elastic Constant Matrix: (Units=GPa)
#
#
# Indices 1 2 3 4 5 6 
#
# 1 111.9835 24.2316 48.5467 0.0000 0.0000 0.0000
# 2 24.2316 51.0914 32.0394 0.0000 0.0000 0.0000
# 3 48.5467 32.0394 105.9435 0.0000 0.0000 0.0000
# 4 0.0000 0.0000 0.0000 24.1379 0.0000 0.0000
# 5 0.0000 0.0000 0.0000 0.0000 47.9152 0.0000
# 6 0.0000 0.0000 0.0000 0.0000 0.0000 18.4125
#
#
#
# Elastic Compliance Matrix: (Units=1/GPa)
#
#
# Indices 1 2 3 4 5 6 
#
# 1 0.011424 -0.002635 -0.004438 0.000000 0.000000 0.000000
# 2 -0.002635 0.024761 -0.006281 0.000000 0.000000 0.000000
# 3 -0.004438 -0.006281 0.013372 0.000000 0.000000 0.000000
# 4 0.000000 0.000000 0.000000 0.041429 0.000000 0.000000
# 5 0.000000 0.000000 0.000000 0.000000 0.020870 0.000000
# 6 0.000000 0.000000 0.000000 0.000000 0.000000 0.054311
#
#
# Mechanical properties :
#
#
# Convention : Reuss Voigt Hill
#
# Bulk Modulus (GPa) = 43.76448 53.18374 48.47411
# Shear Modulus (GPa) = 24.93876 29.03985 26.98930
#
# Velocity S-wave (km/s) = 3.62285 3.90940 3.76885
# Velocity P-wave (km/s) = 6.36655 6.95472 6.66712
#
# Compressibility (1/GPa) = 0.02284958
#
# Stress axis : x y z
#
# Youngs Moduli (GPa) = 87.53493 40.38570 74.78297
#
# Poissons Ratio (x) = 0.10642 0.33188
# Poissons Ratio (y) = 0.23067 0.46969
# Poissons Ratio (z) = 0.38847 0.25365
#
# Static dielectric constant tensor:
#      x y z
#    x 3.945780 0.000000 0.000000 
#    y 0.000000 3.532230 0.000000 
#    z 0.000000 0.000000 3.916430 
# 
# 
# High freq. dielectric constant tensor:
#      x y z
#    x 1.727860 0.000000 0.000000 
#    y 0.000000 1.715910 0.000000 
#    z 0.000000 0.000000 1.759230 
# 
# From -- ./inp_files/18999.got.cif
#   From: 2010.03.12/outbox.cif.g09.slc.cpg/sg57_10_cif.got.tgz:18999.got - 2010.04.16 15:48:40.
