data_PCOD8232056
_publ_section_title
;
Structure prediction by ZEFSAII (Michael W. Deem and Ramdas Pophale) SiO2 
 PCOD8232056
Probable space group: P B C M
;
_chemical_formula_sum "Si O2"
_cell_formula_units_Z 64
_cell_length_a 12.564357
_cell_length_b 14.574505
_cell_length_c 16.211764
_cell_angle_alpha 90.000000
_cell_angle_beta 90.000000
_cell_angle_gamma 90.000000
_cell_volume 2968.686615
_symmetry_space_group_name_H-M "P B C M"
_symmetry_group_IT_number 57
_symmetry_cell_setting 'orthorhombic'
loop_
_space_group_symop_operation_xyz
x,y,z
-x,-y,1/2+z
x,1/2-y,-z
-x,1/2+y,1/2-z
-x,-y,-z
x,y,1/2-z
-x,1/2+y,z
x,1/2-y,1/2+z
loop_
_atom_site_type_symbol
_atom_site_label
_atom_site_fract_x
_atom_site_fract_y
_atom_site_fract_z
Si Si1 0.296931 0.002387 0.018398
Si Si2 0.511945 0.288971 0.847276
Si Si3 0.072783 0.085707 0.014092
Si Si4 0.073477 0.616530 0.157550
Si Si5 0.555789 0.509506 0.160513
Si Si6 0.624553 0.619959 0.881959
Si Si7 0.135096 0.095855 0.659684
Si Si8 0.732225 0.314339 0.573672
O O1 0.186858 0.049795 0.044311
O O2 0.356750 0.967104 0.099623
O O3 0.282785 0.917837 0.957337
O O4 0.368828 0.079762 0.974208
O O5 0.520190 0.273134 0.750000
O O6 0.479616 0.391327 0.871344
O O7 0.422778 0.222365 0.885793
O O8 0.626962 0.269978 0.886997
O O9 0.018776 0.141549 0.089917
O O10 0.083434 0.140153 0.924692
O O11 0.000000 0.000000 0.000000
O O12 0.029745 0.636029 0.250000
O O13 0.115044 0.512337 0.150806
O O14 0.173705 0.683191 0.141151
O O15 0.609923 0.518151 0.250000
O O16 0.455042 0.443358 0.169994
O O17 0.739705 0.618133 0.839126
O O18 0.089829 0.129983 0.750000
O O19 0.771521 0.250000 0.500000
#
# Coordination Sequence:
#
# PCOD8232056 Si02
#       8
#     8   8   8   8   8   8   8   8
#     4  11  22  39  62  89 124 162 219 265 320 384
#     4  11  24  38  58  90 126 163 213 262 314 389
#     4   9  17  35  61  88 116 147 211 263 309 381
#     4  10  19  37  65  91 120 163 209 258 325 390
#     4  11  23  37  55  83 124 166 204 258 320 381
#     4  11  20  37  62  85 125 169 212 255 313 386
#     4   9  16  30  59  92 121 156 203 257 307 371
#     4  12  23  37  61  92 127 169 211 268 318 387
#
# _framework density 21.558353
#
# number of rings (size 3 to 8) (size 9 to 14) (size 15 to 20)
#    0.000    1.500    5.000    2.625    1.750    2.500 
#    0.000    0.625    5.500    1.500    0.000    0.000 
#    0.000    0.000    0.000    0.000    0.000    0.000 
#
# Total GULP energy -793124.681394 kJ/mol
# GULP energy per Si atom -12392.573147 kJ/mol
# Density = 2.150929 g / cm^3
# Si number density = 21.558353 Si / 1000 Ang^3
#
#
#
# Elastic Constant Matrix: (Units=GPa)
#
#
# Indices 1 2 3 4 5 6 
#
# 1 99.0425 10.2370 64.7122 0.0000 0.0000 0.0000
# 2 10.2370 45.7871 4.3149 0.0000 0.0000 0.0000
# 3 64.7122 4.3149 160.4181 0.0000 0.0000 0.0000
# 4 0.0000 0.0000 0.0000 24.3242 0.0000 0.0000
# 5 0.0000 0.0000 0.0000 0.0000 37.3968 0.0000
# 6 0.0000 0.0000 0.0000 0.0000 0.0000 24.4782
#
#
#
# Elastic Compliance Matrix: (Units=1/GPa)
#
#
# Indices 1 2 3 4 5 6 
#
# 1 0.014014 -0.002607 -0.005583 0.000000 0.000000 0.000000
# 2 -0.002607 0.022381 0.000450 0.000000 0.000000 0.000000
# 3 -0.005583 0.000450 0.008474 0.000000 0.000000 0.000000
# 4 0.000000 0.000000 0.000000 0.041111 0.000000 0.000000
# 5 0.000000 0.000000 0.000000 0.000000 0.026740 0.000000
# 6 0.000000 0.000000 0.000000 0.000000 0.000000 0.040853
#
#
# Mechanical properties :
#
#
# Convention : Reuss Voigt Hill
#
# Bulk Modulus (GPa) = 34.02796 51.53065 42.77931
# Shear Modulus (GPa) = 27.95644 32.30541 30.13093
#
# Velocity S-wave (km/s) = 3.60499 3.87526 3.74257
# Velocity P-wave (km/s) = 5.75728 6.63161 6.20985
#
# Compressibility (1/GPa) = 0.02938759
#
# Stress axis : x y z
#
# Youngs Moduli (GPa) = 71.35720 44.68136 118.01056
#
# Poissons Ratio (x) = 0.11649 0.65886
# Poissons Ratio (y) = 0.18603 -0.05307
# Poissons Ratio (z) = 0.39839 -0.02009
#
# Static dielectric constant tensor:
#      x y z
#    x 3.819840 0.000000 0.000000 
#    y 0.000000 3.580270 0.000000 
#    z 0.000000 0.000000 4.409690 
# 
# 
# High freq. dielectric constant tensor:
#      x y z
#    x 1.838180 0.000000 0.000000 
#    y 0.000000 1.814610 0.000000 
#    z 0.000000 0.000000 1.862970 
# 
# From -- ./inp_files/22059.got.cif
#   From: 2010.03.12/outbox.cif.g09.slc.cpg/sg57_12_cif.got.tgz:22059.got - 2010.04.16 15:48:40.
