data_PCOD8232984
_publ_section_title
;
Structure prediction by ZEFSAII (Michael W. Deem and Ramdas Pophale) SiO2 
 PCOD8232984
Probable space group: P B C M
;
_chemical_formula_sum "Si O2"
_cell_formula_units_Z 56
_cell_length_a 23.363823
_cell_length_b 8.543438
_cell_length_c 14.640123
_cell_angle_alpha 90.000000
_cell_angle_beta 90.000000
_cell_angle_gamma 90.000000
_cell_volume 2922.276496
_symmetry_space_group_name_H-M "P B C M"
_symmetry_group_IT_number 57
_symmetry_cell_setting 'orthorhombic'
loop_
_space_group_symop_operation_xyz
x,y,z
-x,-y,1/2+z
x,1/2-y,-z
-x,1/2+y,1/2-z
-x,-y,-z
x,y,1/2-z
-x,1/2+y,z
x,1/2-y,1/2+z
loop_
_atom_site_type_symbol
_atom_site_label
_atom_site_fract_x
_atom_site_fract_y
_atom_site_fract_z
Si Si1 0.561206 0.546155 0.151059
Si Si2 0.852454 0.563310 0.354820
Si Si3 0.759275 0.569019 0.502410
Si Si4 0.937004 0.433430 0.000442
Si Si5 0.546869 0.636970 0.913645
Si Si6 0.637373 0.067285 0.999011
Si Si7 0.854659 0.930207 0.354428
O O1 0.564384 0.467462 0.250000
O O2 0.555179 0.734707 0.166100
O O3 0.508318 0.471777 0.096363
O O4 0.619307 0.505018 0.098308
O O5 0.847107 0.502272 0.250000
O O6 0.794100 0.526124 0.410162
O O7 0.905063 0.483182 0.406653
O O8 0.865571 0.746224 0.356438
O O9 0.740357 0.750000 0.500000
O O10 0.704488 0.459073 0.511028
O O11 0.796094 0.530761 0.592608
O O12 0.906527 0.489575 0.907728
O O13 0.940202 0.250000 0.000000
O O14 0.000000 0.500000 0.000000
O O15 0.539427 0.750000 0.000000
O O16 0.601766 0.522392 0.921664
O O17 0.623008 0.250000 0.000000
O O18 0.851110 0.992405 0.250000
#
# Coordination Sequence:
#
# PCOD8232984 Si02
#       7
#     8   8   8   8   8   8   8
#     4  11  21  35  56  81 106 135 175 223 270 321
#     4   9  19  37  61  84 110 144 184 227 275 326
#     4   9  18  35  57  82 111 144 182 223 272 327
#     4  11  22  36  56  83 116 151 186 226 270 320
#     4  10  20  36  56  77 105 141 175 213 268 329
#     4  11  22  37  55  77 108 145 180 217 266 322
#     4   9  19  38  61  84 110 144 183 227 275 325
#
# _framework density 19.163142000000001
#
# number of rings (size 3 to 8) (size 9 to 14) (size 15 to 20)
#    0.000    2.000    0.000    6.857    0.000    4.000 
#    0.000    5.714    0.000    0.000    0.000    0.000 
#    0.000    0.000    0.000    0.000    0.000    0.000 
#
# Total GULP energy -694225.740723 kJ/mol
# GULP energy per Si atom -12396.888227 kJ/mol
# Density = 1.911953 g / cm^3
# Si number density = 19.163142 Si / 1000 Ang^3
#
#
#
# Elastic Constant Matrix: (Units=GPa)
#
#
# Indices 1 2 3 4 5 6 
#
# 1 133.6346 58.5177 53.7909 0.0000 0.0000 0.0000
# 2 58.5177 107.2479 35.7109 0.0000 0.0000 0.0000
# 3 53.7909 35.7109 141.1448 0.0000 0.0000 0.0000
# 4 0.0000 0.0000 0.0000 19.5673 0.0000 0.0000
# 5 0.0000 0.0000 0.0000 0.0000 7.0173 0.0000
# 6 0.0000 0.0000 0.0000 0.0000 0.0000 34.9655
#
#
#
# Elastic Compliance Matrix: (Units=1/GPa)
#
#
# Indices 1 2 3 4 5 6 
#
# 1 0.010799 -0.004938 -0.002866 0.000000 0.000000 0.000000
# 2 -0.004938 0.012440 -0.001266 0.000000 0.000000 0.000000
# 3 -0.002866 -0.001266 0.008497 0.000000 0.000000 0.000000
# 4 0.000000 0.000000 0.000000 0.051106 0.000000 0.000000
# 5 0.000000 0.000000 0.000000 0.000000 0.142505 0.000000
# 6 0.000000 0.000000 0.000000 0.000000 0.000000 0.028600
#
#
# Mechanical properties :
#
#
# Convention : Reuss Voigt Hill
#
# Bulk Modulus (GPa) = 73.54555 75.34068 74.44312
# Shear Modulus (GPa) = 18.07547 27.91055 22.99301
#
# Velocity S-wave (km/s) = 3.07456 3.82051 3.46765
# Velocity P-wave (km/s) = 7.14604 7.67219 7.41378
#
# Compressibility (1/GPa) = 0.01359701
#
# Stress axis : x y z
#
# Youngs Moduli (GPa) = 92.60026 80.38673 117.68232
#
# Poissons Ratio (x) = 0.39694 0.33731
# Poissons Ratio (y) = 0.45725 0.14893
# Poissons Ratio (z) = 0.26542 0.10173
#
# Static dielectric constant tensor:
#      x y z
#    x 3.359060 0.000000 0.000000 
#    y 0.000000 3.721280 0.000000 
#    z 0.000000 0.000000 4.110860 
# 
# 
# High freq. dielectric constant tensor:
#      x y z
#    x 1.740010 0.000000 0.000000 
#    y 0.000000 1.750330 0.000000 
#    z 0.000000 0.000000 1.744880 
# 
# From -- ./inp_files/19380.got.cif
#   From: 2010.03.12/outbox.cif.g09.slc.cpg/sg57_10_cif.got.tgz:19380.got - 2010.04.16 15:48:40.
