data_PCOD8232135
_publ_section_title
;
Structure prediction by ZEFSAII (Michael W. Deem and Ramdas Pophale) SiO2 
 PCOD8232135
Probable space group: P B C M
;
_chemical_formula_sum "Si O2"
_cell_formula_units_Z 64
_cell_length_a 11.359595
_cell_length_b 34.176782
_cell_length_c 8.725587
_cell_angle_alpha 90.000000
_cell_angle_beta 90.000000
_cell_angle_gamma 90.000000
_cell_volume 3387.573050
_symmetry_space_group_name_H-M "P B C M"
_symmetry_group_IT_number 57
_symmetry_cell_setting 'orthorhombic'
loop_
_space_group_symop_operation_xyz
x,y,z
-x,-y,1/2+z
x,1/2-y,-z
-x,1/2+y,1/2-z
-x,-y,-z
x,y,1/2-z
-x,1/2+y,z
x,1/2-y,1/2+z
loop_
_atom_site_type_symbol
_atom_site_label
_atom_site_fract_x
_atom_site_fract_y
_atom_site_fract_z
Si Si1 0.271299 0.441031 0.070221
Si Si2 0.123177 0.131394 0.931547
Si Si3 0.882881 0.397450 0.933147
Si Si4 0.646047 0.359772 0.576827
Si Si5 0.480270 0.939587 0.576306
Si Si6 0.240332 0.525686 0.431433
Si Si7 0.496156 0.290313 0.932174
Si Si8 0.771901 0.791212 0.568547
O O1 0.259725 0.437396 0.250000
O O2 0.209424 0.402522 0.999260
O O3 0.205965 0.481526 0.016986
O O4 0.406815 0.445331 0.028329
O O5 0.135215 0.135418 0.750000
O O6 0.150530 0.173029 0.006787
O O7 0.992576 0.118720 0.975115
O O8 0.901399 0.394324 0.750000
O O9 0.771735 0.371914 0.993632
O O10 0.857349 0.442647 0.984345
O O11 0.672534 0.347741 0.750000
O O12 0.552300 0.394282 0.570082
O O13 0.583074 0.322945 0.495295
O O14 0.510741 0.952211 0.750000
O O15 0.371512 0.964337 0.505311
O O16 0.252614 0.530133 0.250000
O O17 0.500664 0.289517 0.750000
O O18 0.362305 0.298405 0.985749
O O19 0.543111 0.250000 0.000000
O O20 0.818221 0.750000 0.500000
O O21 0.784434 0.789291 0.750000
#
# Coordination Sequence:
#
# PCOD8232135 Si02
#       8
#     8   8   8   8   8   8   8   8
#     4  10  20  32  47  72 107 139 166 208 264 313
#     4  11  23  36  50  73 106 139 174 215 256 300
#     4   9  18  35  56  71  91 133 183 220 253 299
#     4   8  15  30  51  72  95 126 163 205 252 301
#     4   9  16  29  51  75  97 125 167 213 257 313
#     4   8  16  32  52  73  99 133 171 214 266 314
#     4   9  17  30  50  77 105 127 152 191 242 300
#     4  10  20  36  59  83 107 134 164 201 248 302
#
# _framework density 18.892582000000001
#
# number of rings (size 3 to 8) (size 9 to 14) (size 15 to 20)
#    0.000    2.750    0.000    3.375    0.000    3.000 
#    0.000    5.000    0.000    1.500    0.000    0.000 
#    0.000    0.000    0.000    0.000    0.000    0.000 
#
# Total GULP energy -793147.445632 kJ/mol
# GULP energy per Si atom -12392.928838 kJ/mol
# Density = 1.884958 g / cm^3
# Si number density = 18.892582 Si / 1000 Ang^3
#
#
#
# Elastic Constant Matrix: (Units=GPa)
#
#
# Indices 1 2 3 4 5 6 
#
# 1 72.1498 65.8904 18.2472 0.0000 0.0000 0.0000
# 2 65.8904 158.8940 29.9465 0.0000 0.0000 0.0000
# 3 18.2472 29.9465 26.8763 0.0000 0.0000 0.0000
# 4 0.0000 0.0000 0.0000 21.5322 0.0000 0.0000
# 5 0.0000 0.0000 0.0000 0.0000 24.1858 0.0000
# 6 0.0000 0.0000 0.0000 0.0000 0.0000 23.2496
#
#
#
# Elastic Compliance Matrix: (Units=1/GPa)
#
#
# Indices 1 2 3 4 5 6 
#
# 1 0.023134 -0.008396 -0.006351 0.000000 0.000000 0.000000
# 2 -0.008396 0.011014 -0.006571 0.000000 0.000000 0.000000
# 3 -0.006351 -0.006571 0.048841 0.000000 0.000000 0.000000
# 4 0.000000 0.000000 0.000000 0.046442 0.000000 0.000000
# 5 0.000000 0.000000 0.000000 0.000000 0.041347 0.000000
# 6 0.000000 0.000000 0.000000 0.000000 0.000000 0.043011
#
#
# Mechanical properties :
#
#
# Convention : Reuss Voigt Hill
#
# Bulk Modulus (GPa) = 24.78201 54.00983 39.39592
# Shear Modulus (GPa) = 18.52690 23.38259 20.95474
#
# Velocity S-wave (km/s) = 3.13492 3.52186 3.33401
# Velocity P-wave (km/s) = 5.12342 6.72219 5.97651
#
# Compressibility (1/GPa) = 0.04035186
#
# Stress axis : x y z
#
# Youngs Moduli (GPa) = 43.22605 90.79499 20.47440
#
# Poissons Ratio (x) = 0.76235 0.13003
# Poissons Ratio (y) = 0.36294 0.13455
# Poissons Ratio (z) = 0.27453 0.59665
#
# Static dielectric constant tensor:
#      x y z
#    x 3.370120 0.000000 0.000000 
#    y 0.000000 3.831950 0.000000 
#    z 0.000000 0.000000 3.109350 
# 
# 
# High freq. dielectric constant tensor:
#      x y z
#    x 1.721590 0.000000 0.000000 
#    y 0.000000 1.748440 0.000000 
#    z 0.000000 0.000000 1.701590 
# 
# From -- ./inp_files/3839.got.cif
#   From: 2010.03.12/outbox.cif.g09.slc.cpg/sg57_2_cif.got.tgz:3839.got - 2010.04.16 15:48:40.
