data_PCOD8232417
_publ_section_title
;
Structure prediction by ZEFSAII (Michael W. Deem and Ramdas Pophale) SiO2 
 PCOD8232417
Probable space group: P B C M
;
_chemical_formula_sum "Si O2"
_cell_formula_units_Z 56
_cell_length_a 19.928606
_cell_length_b 15.743392
_cell_length_c 8.749278
_cell_angle_alpha 90.000000
_cell_angle_beta 90.000000
_cell_angle_gamma 90.000000
_cell_volume 2745.032219
_symmetry_space_group_name_H-M "P B C M"
_symmetry_group_IT_number 57
_symmetry_cell_setting 'orthorhombic'
loop_
_space_group_symop_operation_xyz
x,y,z
-x,-y,1/2+z
x,1/2-y,-z
-x,1/2+y,1/2-z
-x,-y,-z
x,y,1/2-z
-x,1/2+y,z
x,1/2-y,1/2+z
loop_
_atom_site_type_symbol
_atom_site_label
_atom_site_fract_x
_atom_site_fract_y
_atom_site_fract_z
Si Si1 0.926873 0.508541 0.568458
Si Si2 0.600780 0.330847 0.420174
Si Si3 0.174317 0.342610 0.432184
Si Si4 0.253815 0.870278 0.416776
Si Si5 0.296981 0.060523 0.429075
Si Si6 0.573117 0.999636 0.072062
Si Si7 0.872011 0.332249 0.924666
O O1 0.930852 0.509920 0.750000
O O2 0.883777 0.590658 0.512986
O O3 0.892953 0.422575 0.505065
O O4 0.000000 0.500000 0.500000
O O5 0.565456 0.250000 0.500000
O O6 0.569447 0.349184 0.250000
O O7 0.679551 0.314321 0.400925
O O8 0.596684 0.405602 0.541372
O O9 0.156661 0.250000 0.500000
O O10 0.176548 0.337251 0.250000
O O11 0.247522 0.371913 0.491134
O O12 0.217386 0.868952 0.250000
O O13 0.207627 0.827193 0.545356
O O14 0.269082 0.967247 0.463685
O O15 0.300912 0.080768 0.250000
O O16 0.373348 0.066106 0.495948
O O17 0.569488 0.978549 0.250000
O O18 0.500000 0.000000 0.000000
O O19 0.890870 0.327746 0.750000
O O20 0.908104 0.250000 0.000000
#
# Coordination Sequence:
#
# PCOD8232417 Si02
#       7
#     8   8   8   8   8   8   8
#     4  10  24  43  63  87 121 162 207 258 317 381
#     4  10  20  34  52  81 115 150 194 238 290 354
#     4  11  23  42  66  96 127 165 216 270 325 386
#     4   9  18  32  54  83 115 150 187 230 284 345
#     4  10  20  37  62  91 121 159 205 255 310 370
#     4  11  22  38  60  86 120 163 205 254 310 373
#     4  11  22  36  55  84 118 153 193 239 293 358
#
# _framework density 20.400489
#
# number of rings (size 3 to 8) (size 9 to 14) (size 15 to 20)
#    0.000    1.714    1.429    4.286    0.000    6.857 
#    0.000    3.571    0.000    0.000    0.000    0.000 
#    0.000    0.000    0.000    0.000    0.000    0.000 
#
# Total GULP energy -693883.851947 kJ/mol
# GULP energy per Si atom -12390.783070 kJ/mol
# Density = 2.035406 g / cm^3
# Si number density = 20.400489 Si / 1000 Ang^3
#
#
#
# Elastic Constant Matrix: (Units=GPa)
#
#
# Indices 1 2 3 4 5 6 
#
# 1 121.3268 47.0430 40.3388 0.0000 0.0000 0.0000
# 2 47.0430 128.8615 43.4439 0.0000 0.0000 0.0000
# 3 40.3388 43.4439 97.8005 0.0000 0.0000 0.0000
# 4 0.0000 0.0000 0.0000 33.8226 0.0000 0.0000
# 5 0.0000 0.0000 0.0000 0.0000 33.6103 0.0000
# 6 0.0000 0.0000 0.0000 0.0000 0.0000 12.7528
#
#
#
# Elastic Compliance Matrix: (Units=1/GPa)
#
#
# Indices 1 2 3 4 5 6 
#
# 1 0.010315 -0.002742 -0.003037 0.000000 0.000000 0.000000
# 2 -0.002742 0.009856 -0.003247 0.000000 0.000000 0.000000
# 3 -0.003037 -0.003247 0.012920 0.000000 0.000000 0.000000
# 4 0.000000 0.000000 0.000000 0.029566 0.000000 0.000000
# 5 0.000000 0.000000 0.000000 0.000000 0.029753 0.000000
# 6 0.000000 0.000000 0.000000 0.000000 0.000000 0.078414
#
#
# Mechanical properties :
#
#
# Convention : Reuss Voigt Hill
#
# Bulk Modulus (GPa) = 66.49178 67.73779 67.11479
# Shear Modulus (GPa) = 25.78809 30.51469 28.15139
#
# Velocity S-wave (km/s) = 3.55926 3.87173 3.71878
# Velocity P-wave (km/s) = 7.03954 7.29816 7.17002
#
# Compressibility (1/GPa) = 0.01503945
#
# Stress axis : x y z
#
# Youngs Moduli (GPa) = 96.94683 101.46110 77.40073
#
# Poissons Ratio (x) = 0.27820 0.23503
# Poissons Ratio (y) = 0.26582 0.25134
# Poissons Ratio (z) = 0.29438 0.32946
#
# Static dielectric constant tensor:
#      x y z
#    x 4.289580 0.000000 0.000000 
#    y 0.000000 4.201770 0.000000 
#    z 0.000000 0.000000 3.682820 
# 
# 
# High freq. dielectric constant tensor:
#      x y z
#    x 1.781320 0.000000 0.000000 
#    y 0.000000 1.795780 0.000000 
#    z 0.000000 0.000000 1.802270 
# 
# From -- ./inp_files/7988.got.cif
#   From: 2010.03.12/outbox.cif.g09.slc.cpg/sg57_4_cif.got.tgz:7988.got - 2010.04.16 15:48:40.
