data_PCOD8232674
_publ_section_title
;
Structure prediction by ZEFSAII (Michael W. Deem and Ramdas Pophale) SiO2 
 PCOD8232674
Probable space group: P B C M
;
_chemical_formula_sum "Si O2"
_cell_formula_units_Z 64
_cell_length_a 18.385258
_cell_length_b 20.627327
_cell_length_c 8.815278
_cell_angle_alpha 90.000000
_cell_angle_beta 90.000000
_cell_angle_gamma 90.000000
_cell_volume 3343.094822
_symmetry_space_group_name_H-M "P B C M"
_symmetry_group_IT_number 57
_symmetry_cell_setting 'orthorhombic'
loop_
_space_group_symop_operation_xyz
x,y,z
-x,-y,1/2+z
x,1/2-y,-z
-x,1/2+y,1/2-z
-x,-y,-z
x,y,1/2-z
-x,1/2+y,z
x,1/2-y,1/2+z
loop_
_atom_site_type_symbol
_atom_site_label
_atom_site_fract_x
_atom_site_fract_y
_atom_site_fract_z
Si Si1 0.794728 0.437780 0.570096
Si Si2 0.704763 0.938183 0.430479
Si Si3 0.297537 0.816924 0.570309
Si Si4 0.048894 0.183522 0.427736
Si Si5 0.784467 0.817668 0.929499
Si Si6 0.536815 0.316326 0.571709
Si Si7 0.452331 0.056375 0.069455
Si Si8 0.959400 0.060552 0.430317
O O1 0.794239 0.434606 0.750000
O O2 0.756504 0.503480 0.514376
O O3 0.751499 0.375547 0.505613
O O4 0.876996 0.437280 0.508303
O O5 0.699039 0.934809 0.250000
O O6 0.735524 0.871877 0.494963
O O7 0.626850 0.951133 0.500930
O O8 0.268104 0.750000 0.500000
O O9 0.291554 0.812122 0.750000
O O10 0.380486 0.829842 0.518037
O O11 0.020401 0.250000 0.500000
O O12 0.041245 0.191519 0.250000
O O13 0.131941 0.169019 0.474475
O O14 0.999335 0.125246 0.488870
O O15 0.772332 0.816974 0.750000
O O16 0.758385 0.750000 0.000000
O O17 0.506533 0.250000 0.500000
O O18 0.533702 0.308072 0.750000
O O19 0.486278 0.375131 0.517205
O O20 0.450524 0.050325 0.250000
O O21 0.500000 0.000000 0.000000
O O22 0.962485 0.054961 0.250000
O O23 0.000000 0.000000 0.500000
#
# Coordination Sequence:
#
# PCOD8232674 Si02
#       8
#     8   8   8   8   8   8   8   8
#     4   9  19  35  55  76 106 145 180 214 266 329
#     4  11  22  37  57  81 108 143 183 226 275 329
#     4   9  17  33  54  77 104 136 172 211 253 307
#     4   9  19  34  54  79 109 142 180 224 272 324
#     4  10  20  36  56  80 109 143 181 225 274 327
#     4   9  19  35  56  79 106 138 174 214 261 315
#     4  11  23  39  58  82 111 145 184 228 274 326
#     4  10  20  35  54  78 106 140 179 222 268 319
#
# _framework density 19.143939
#
# number of rings (size 3 to 8) (size 9 to 14) (size 15 to 20)
#    0.000    2.250    0.000    2.625    0.000    5.000 
#    0.000    6.250    0.000    0.000    0.000    0.000 
#    0.000    0.000    0.000    0.000    0.000    0.000 
#
# Total GULP energy -793768.561760 kJ/mol
# GULP energy per Si atom -12402.633777 kJ/mol
# Density = 1.910037 g / cm^3
# Si number density = 19.143939 Si / 1000 Ang^3
#
#
#
# Elastic Constant Matrix: (Units=GPa)
#
#
# Indices 1 2 3 4 5 6 
#
# 1 129.1407 85.2278 35.7862 0.0000 0.0000 0.0000
# 2 85.2278 167.0406 45.1626 0.0000 0.0000 0.0000
# 3 35.7862 45.1626 46.7161 0.0000 0.0000 0.0000
# 4 0.0000 0.0000 0.0000 35.6812 0.0000 0.0000
# 5 0.0000 0.0000 0.0000 0.0000 26.1971 0.0000
# 6 0.0000 0.0000 0.0000 0.0000 0.0000 44.6927
#
#
#
# Elastic Compliance Matrix: (Units=1/GPa)
#
#
# Indices 1 2 3 4 5 6 
#
# 1 0.012353 -0.005069 -0.004562 0.000000 0.000000 0.000000
# 2 -0.005069 0.010185 -0.005963 0.000000 0.000000 0.000000
# 3 -0.004562 -0.005963 0.030666 0.000000 0.000000 0.000000
# 4 0.000000 0.000000 0.000000 0.028026 0.000000 0.000000
# 5 0.000000 0.000000 0.000000 0.000000 0.038172 0.000000
# 6 0.000000 0.000000 0.000000 0.000000 0.000000 0.022375
#
#
# Mechanical properties :
#
#
# Convention : Reuss Voigt Hill
#
# Bulk Modulus (GPa) = 45.42464 75.02783 60.22623
# Shear Modulus (GPa) = 27.73067 33.09560 30.41313
#
# Velocity S-wave (km/s) = 3.81009 4.16237 3.99012
# Velocity P-wave (km/s) = 6.56774 7.89791 7.26334
#
# Compressibility (1/GPa) = 0.02201449
#
# Stress axis : x y z
#
# Youngs Moduli (GPa) = 80.94940 98.17955 32.60971
#
# Poissons Ratio (x) = 0.49772 0.14877
# Poissons Ratio (y) = 0.41037 0.19446
# Poissons Ratio (z) = 0.36931 0.58547
#
# Static dielectric constant tensor:
#      x y z
#    x 3.682860 0.000000 0.000000 
#    y 0.000000 0.057890 0.000000 
#    z 0.000000 0.000000 3.354650 
# 
# 
# High freq. dielectric constant tensor:
#      x y z
#    x 1.748310 0.000000 0.000000 
#    y 0.000000 1.761330 0.000000 
#    z 0.000000 0.000000 1.730180 
# 
# From -- ./inp_files/7200.got.cif
#   From: 2010.03.12/outbox.cif.g09.slc.cpg/sg57_4_cif.got.tgz:7200.got - 2010.04.16 15:48:40.
