data_PCOD8232664
_publ_section_title
;
Structure prediction by ZEFSAII (Michael W. Deem and Ramdas Pophale) SiO2 
 PCOD8232664
Probable space group: P B C M
;
_chemical_formula_sum "Si O2"
_cell_formula_units_Z 56
_cell_length_a 19.285482
_cell_length_b 15.893747
_cell_length_c 8.933315
_cell_angle_alpha 90.000000
_cell_angle_beta 90.000000
_cell_angle_gamma 90.000000
_cell_volume 2738.226954
_symmetry_space_group_name_H-M "P B C M"
_symmetry_group_IT_number 57
_symmetry_cell_setting 'orthorhombic'
loop_
_space_group_symop_operation_xyz
x,y,z
-x,-y,1/2+z
x,1/2-y,-z
-x,1/2+y,1/2-z
-x,-y,-z
x,y,1/2-z
-x,1/2+y,z
x,1/2-y,1/2+z
loop_
_atom_site_type_symbol
_atom_site_label
_atom_site_fract_x
_atom_site_fract_y
_atom_site_fract_z
Si Si1 0.284253 0.406418 0.580046
Si Si2 0.925472 0.999969 0.072900
Si Si3 0.842282 0.664505 0.926037
Si Si4 0.710822 0.403426 0.077653
Si Si5 0.580565 0.340044 0.572588
Si Si6 0.427305 0.163110 0.076338
Si Si7 0.158674 0.665218 0.072425
O O1 0.273684 0.374551 0.750000
O O2 0.237662 0.348627 0.473155
O O3 0.260424 0.502291 0.563604
O O4 0.365531 0.400857 0.534320
O O5 0.932920 0.998783 0.250000
O O6 0.885904 0.916075 0.017066
O O7 0.885793 0.084418 0.020909
O O8 0.000000 0.000000 0.000000
O O9 0.847075 0.674839 0.750000
O O10 0.871917 0.750000 0.000000
O O11 0.705463 0.374639 0.250000
O O12 0.635550 0.402923 0.000690
O O13 0.763317 0.343080 0.989782
O O14 0.594516 0.250000 0.500000
O O15 0.591611 0.335676 0.750000
O O16 0.503049 0.371997 0.527728
O O17 0.430313 0.182594 0.250000
O O18 0.409009 0.250000 0.000000
O O19 0.160569 0.674285 0.250000
O O20 0.125949 0.750000 0.000000
#
# Coordination Sequence:
#
# PCOD8232664 Si02
#       7
#     8   8   8   8   8   8   8
#     4  10  21  37  58  85 117 155 201 253 304 359
#     4  10  24  44  67  94 129 163 200 246 297 358
#     4  11  23  41  64  94 127 164 206 249 299 359
#     4  11  22  36  57  85 117 155 200 252 305 361
#     4  10  20  35  54  76 109 151 196 249 305 361
#     4   9  19  35  53  77 109 148 196 248 302 360
#     4  11  23  42  65  93 125 162 206 251 301 360
#
# _framework density 20.45119
#
# number of rings (size 3 to 8) (size 9 to 14) (size 15 to 20)
#    0.000    1.714    1.429    2.571    0.000    6.286 
#    0.000    2.857    0.000    0.000    0.000    0.000 
#    0.000    0.000    0.000    0.000    0.000    0.000 
#
# Total GULP energy -694429.021803 kJ/mol
# GULP energy per Si atom -12400.518246 kJ/mol
# Density = 2.040464 g / cm^3
# Si number density = 20.451190 Si / 1000 Ang^3
#
#
#
# Elastic Constant Matrix: (Units=GPa)
#
#
# Indices 1 2 3 4 5 6 
#
# 1 121.9203 57.3820 44.2343 0.0000 0.0000 0.0000
# 2 57.3820 130.9646 47.7750 0.0000 0.0000 0.0000
# 3 44.2343 47.7750 76.9206 0.0000 0.0000 0.0000
# 4 0.0000 0.0000 0.0000 32.4435 0.0000 0.0000
# 5 0.0000 0.0000 0.0000 0.0000 35.6134 0.0000
# 6 0.0000 0.0000 0.0000 0.0000 0.0000 25.8100
#
#
#
# Elastic Compliance Matrix: (Units=1/GPa)
#
#
# Indices 1 2 3 4 5 6 
#
# 1 0.011409 -0.003369 -0.004469 0.000000 0.000000 0.000000
# 2 -0.003369 0.010867 -0.004812 0.000000 0.000000 0.000000
# 3 -0.004469 -0.004812 0.018559 0.000000 0.000000 0.000000
# 4 0.000000 0.000000 0.000000 0.030823 0.000000 0.000000
# 5 0.000000 0.000000 0.000000 0.000000 0.028079 0.000000
# 6 0.000000 0.000000 0.000000 0.000000 0.000000 0.038745
#
#
# Mechanical properties :
#
#
# Convention : Reuss Voigt Hill
#
# Bulk Modulus (GPa) = 64.36700 69.84312 67.10506
# Shear Modulus (GPa) = 29.59292 30.80100 30.19696
#
# Velocity S-wave (km/s) = 3.80807 3.88503 3.84674
# Velocity P-wave (km/s) = 7.13281 7.37223 7.25351
#
# Compressibility (1/GPa) = 0.01553591
#
# Stress axis : x y z
#
# Youngs Moduli (GPa) = 87.65177 92.02059 53.88220
#
# Poissons Ratio (x) = 0.30999 0.24077
# Poissons Ratio (y) = 0.29527 0.25930
# Poissons Ratio (z) = 0.39167 0.44283
#
# Static dielectric constant tensor:
#      x y z
#    x 3.753880 0.000000 0.000000 
#    y 0.000000 3.721030 0.000000 
#    z 0.000000 0.000000 3.668040 
# 
# 
# High freq. dielectric constant tensor:
#      x y z
#    x 1.799940 0.000000 0.000000 
#    y 0.000000 1.799530 0.000000 
#    z 0.000000 0.000000 1.799530 
# 
# From -- ./inp_files/8077.got.cif
#   From: 2010.03.12/outbox.cif.g09.slc.cpg/sg57_5_cif.got.tgz:8077.got - 2010.04.16 15:48:40.
