data_PCOD8232689
_publ_section_title
;
Structure prediction by ZEFSAII (Michael W. Deem and Ramdas Pophale) SiO2 
 PCOD8232689
Probable space group: P B C M
;
_chemical_formula_sum "Si O2"
_cell_formula_units_Z 64
_cell_length_a 21.299612
_cell_length_b 18.905820
_cell_length_c 8.859512
_cell_angle_alpha 90.000000
_cell_angle_beta 90.000000
_cell_angle_gamma 90.000000
_cell_volume 3567.607036
_symmetry_space_group_name_H-M "P B C M"
_symmetry_group_IT_number 57
_symmetry_cell_setting 'orthorhombic'
loop_
_space_group_symop_operation_xyz
x,y,z
-x,-y,1/2+z
x,1/2-y,-z
-x,1/2+y,1/2-z
-x,-y,-z
x,y,1/2-z
-x,1/2+y,z
x,1/2-y,1/2+z
loop_
_atom_site_type_symbol
_atom_site_label
_atom_site_fract_x
_atom_site_fract_y
_atom_site_fract_z
Si Si1 0.989716 0.576140 0.428724
Si Si2 0.603442 0.678055 0.568963
Si Si3 0.735653 0.632591 0.584313
Si Si4 0.202168 0.932090 0.073544
Si Si5 0.151192 0.081481 0.425597
Si Si6 0.680744 0.477120 0.581550
Si Si7 0.906289 0.326274 0.427906
Si Si8 0.438479 0.033446 0.070078
O O1 0.999547 0.570506 0.250000
O O2 0.919487 0.602124 0.470262
O O3 0.000000 0.500000 0.500000
O O4 0.035889 0.632952 0.498943
O O5 0.574291 0.750000 0.500000
O O6 0.596759 0.674778 0.750000
O O7 0.676822 0.676216 0.517545
O O8 0.567193 0.612112 0.497373
O O9 0.751673 0.661064 0.750000
O O10 0.799740 0.639368 0.489728
O O11 0.714546 0.551866 0.588963
O O12 0.216219 0.937532 0.250000
O O13 0.158678 0.865577 0.034124
O O14 0.165884 0.002233 0.015240
O O15 0.269106 0.922361 0.989889
O O16 0.161024 0.082817 0.250000
O O17 0.661669 0.451927 0.750000
O O18 0.619240 0.483005 0.477741
O O19 0.901449 0.250000 0.500000
O O20 0.917961 0.321422 0.250000
O O21 0.442469 0.037203 0.250000
O O22 0.500000 0.000000 0.000000
#
# Coordination Sequence:
#
# PCOD8232689 Si02
#       8
#     8   8   8   8   8   8   8   8
#     4  11  21  35  54  78 105 140 183 232 280 335
#     4  10  20  35  54  80 111 146 188 229 273 329
#     4   8  16  29  46  72 103 133 168 211 258 310
#     4   9  17  32  52  75 103 133 170 217 269 322
#     4   9  17  30  49  74 101 129 170 219 267 318
#     4   9  17  30  50  79 108 134 171 215 261 313
#     4  11  23  39  55  77 106 140 181 229 284 344
#     4  11  21  35  56  83 116 153 189 230 276 322
#
# _framework density 17.939195000000002
#
# number of rings (size 3 to 8) (size 9 to 14) (size 15 to 20)
#    0.000    2.250    1.250    3.375    0.000    5.500 
#    0.000    0.625    0.000    2.250    0.000    3.500 
#    0.000    0.000    0.000    0.000    0.000    0.000 
#
# Total GULP energy -793360.746982 kJ/mol
# GULP energy per Si atom -12396.261672 kJ/mol
# Density = 1.789836 g / cm^3
# Si number density = 17.939195 Si / 1000 Ang^3
#
#
#
# Elastic Constant Matrix: (Units=GPa)
#
#
# Indices 1 2 3 4 5 6 
#
# 1 132.3315 59.8949 69.9101 0.0000 0.0000 0.0000
# 2 59.8949 90.0072 47.2417 0.0000 0.0000 0.0000
# 3 69.9101 47.2417 107.7812 0.0000 0.0000 0.0000
# 4 0.0000 0.0000 0.0000 25.9251 0.0000 0.0000
# 5 0.0000 0.0000 0.0000 0.0000 33.7265 0.0000
# 6 0.0000 0.0000 0.0000 0.0000 0.0000 19.8920
#
#
#
# Elastic Compliance Matrix: (Units=1/GPa)
#
#
# Indices 1 2 3 4 5 6 
#
# 1 0.013398 -0.005655 -0.006212 0.000000 0.000000 0.000000
# 2 -0.005655 0.016817 -0.003703 0.000000 0.000000 0.000000
# 3 -0.006212 -0.003703 0.014930 0.000000 0.000000 0.000000
# 4 0.000000 0.000000 0.000000 0.038573 0.000000 0.000000
# 5 0.000000 0.000000 0.000000 0.000000 0.029650 0.000000
# 6 0.000000 0.000000 0.000000 0.000000 0.000000 0.050271
#
#
# Mechanical properties :
#
#
# Convention : Reuss Voigt Hill
#
# Bulk Modulus (GPa) = 71.40019 76.02371 73.71195
# Shear Modulus (GPa) = 25.06924 26.11360 25.59142
#
# Velocity S-wave (km/s) = 3.74231 3.81947 3.78109
# Velocity P-wave (km/s) = 7.65250 7.86903 7.76152
#
# Compressibility (1/GPa) = 0.01400556
#
# Stress axis : x y z
#
# Youngs Moduli (GPa) = 74.63793 59.46331 66.97917
#
# Poissons Ratio (x) = 0.33629 0.41604
# Poissons Ratio (y) = 0.42211 0.24801
# Poissons Ratio (z) = 0.46361 0.22018
#
# Static dielectric constant tensor:
#      x y z
#    x 3.371690 0.000000 0.000000 
#    y 0.000000 -1.169550 0.000000 
#    z 0.000000 0.000000 3.622530 
# 
# 
# High freq. dielectric constant tensor:
#      x y z
#    x 1.694630 0.000000 0.000000 
#    y 0.000000 1.662410 0.000000 
#    z 0.000000 0.000000 1.704690 
# 
# From -- ./inp_files/8473.got.cif
#   From: 2010.03.12/outbox.cif.g09.slc.cpg/sg57_5_cif.got.tgz:8473.got - 2010.04.16 15:48:40.
