data_PCOD8232493
_publ_section_title
;
Structure prediction by ZEFSAII (Michael W. Deem and Ramdas Pophale) SiO2 
 PCOD8232493
Probable space group: P B C M
;
_chemical_formula_sum "Si O2"
_cell_formula_units_Z 48
_cell_length_a 30.662483
_cell_length_b 9.570824
_cell_length_c 8.666780
_cell_angle_alpha 90.000000
_cell_angle_beta 90.000000
_cell_angle_gamma 90.000000
_cell_volume 2543.398570
_symmetry_space_group_name_H-M "P B C M"
_symmetry_group_IT_number 57
_symmetry_cell_setting 'orthorhombic'
loop_
_space_group_symop_operation_xyz
x,y,z
-x,-y,1/2+z
x,1/2-y,-z
-x,1/2+y,1/2-z
-x,-y,-z
x,y,1/2-z
-x,1/2+y,z
x,1/2-y,1/2+z
loop_
_atom_site_type_symbol
_atom_site_label
_atom_site_fract_x
_atom_site_fract_y
_atom_site_fract_z
Si Si1 0.205261 0.404955 0.933240
Si Si2 0.368426 0.598576 0.929685
Si Si3 0.535919 0.097995 0.571296
Si Si4 0.965891 0.396231 0.570341
Si Si5 0.866212 0.099318 0.431880
Si Si6 0.718759 0.406164 0.932685
O O1 0.207116 0.398066 0.750000
O O2 0.207763 0.250000 0.000000
O O3 0.160698 0.477289 0.986922
O O4 0.245027 0.495106 0.996351
O O5 0.356141 0.607454 0.750000
O O6 0.415931 0.527720 0.955443
O O7 0.373576 0.750000 0.000000
O O8 0.328198 0.525738 0.019724
O O9 0.532284 0.250000 0.500000
O O10 0.526299 0.114970 0.750000
O O11 0.500000 0.000000 0.500000
O O12 0.978448 0.250000 0.500000
O O13 0.973008 0.388891 0.750000
O O14 0.916274 0.436879 0.529352
O O15 0.000000 0.500000 0.500000
O O16 0.852830 0.250000 0.500000
O O17 0.856685 0.101682 0.250000
O O18 0.723981 0.401075 0.750000
O O19 0.723306 0.250000 0.000000
#
# Coordination Sequence:
#
# PCOD8232493 Si02
#       6
#     8   8   8   8   8   8
#     4  12  25  41  59  82 113 147 182 226 277 331
#     4   9  17  31  52  79 107 139 180 226 271 320
#     4  10  20  34  54  79 110 144 182 226 273 324
#     4  10  21  37  59  85 116 150 188 231 277 327
#     4  10  21  39  61  86 113 147 189 232 274 323
#     4  11  21  36  59  85 111 143 182 225 270 323
#
# _framework density 18.872387
#
# number of rings (size 3 to 8) (size 9 to 14) (size 15 to 20)
#    0.000    1.667    0.000    6.500    0.000    4.667 
#    0.000    0.833    0.000    4.000    0.000    0.000 
#    0.000    0.000    0.000    0.000    0.000    0.000 
#
# Total GULP energy -595059.665406 kJ/mol
# GULP energy per Si atom -12397.076363 kJ/mol
# Density = 1.882943 g / cm^3
# Si number density = 18.872387 Si / 1000 Ang^3
#
#
#
# Elastic Constant Matrix: (Units=GPa)
#
#
# Indices 1 2 3 4 5 6 
#
# 1 151.8940 88.3784 74.1535 0.0000 0.0000 0.0000
# 2 88.3784 113.7640 70.4445 0.0000 0.0000 0.0000
# 3 74.1535 70.4445 140.6098 0.0000 0.0000 0.0000
# 4 0.0000 0.0000 0.0000 35.2681 0.0000 0.0000
# 5 0.0000 0.0000 0.0000 0.0000 36.5779 0.0000
# 6 0.0000 0.0000 0.0000 0.0000 0.0000 36.5486
#
#
#
# Elastic Compliance Matrix: (Units=1/GPa)
#
#
# Indices 1 2 3 4 5 6 
#
# 1 0.012603 -0.008228 -0.002525 0.000000 0.000000 0.000000
# 2 -0.008228 0.018115 -0.004736 0.000000 0.000000 0.000000
# 3 -0.002525 -0.004736 0.010816 0.000000 0.000000 0.000000
# 4 0.000000 0.000000 0.000000 0.028354 0.000000 0.000000
# 5 0.000000 0.000000 0.000000 0.000000 0.027339 0.000000
# 6 0.000000 0.000000 0.000000 0.000000 0.000000 0.027361
#
#
# Mechanical properties :
#
#
# Convention : Reuss Voigt Hill
#
# Bulk Modulus (GPa) = 94.72435 96.91341 95.81888
# Shear Modulus (GPa) = 31.42996 33.23167 32.33082
#
# Velocity S-wave (km/s) = 4.08535 4.20082 4.14349
# Velocity P-wave (km/s) = 8.51789 8.65983 8.58915
#
# Compressibility (1/GPa) = 0.01055695
#
# Stress axis : x y z
#
# Youngs Moduli (GPa) = 79.34492 55.20406 92.45465
#
# Poissons Ratio (x) = 0.45420 0.23341
# Poissons Ratio (y) = 0.65282 0.43789
# Poissons Ratio (z) = 0.20031 0.26146
#
# Static dielectric constant tensor:
#      x y z
#    x 4.070960 0.000000 0.000000 
#    y 0.000000 3.245260 0.000000 
#    z 0.000000 0.000000 3.729010 
# 
# 
# High freq. dielectric constant tensor:
#      x y z
#    x 1.756790 0.000000 0.000000 
#    y 0.000000 1.705720 0.000000 
#    z 0.000000 0.000000 1.757160 
# 
# From -- ./inp_files/10074.got.cif
#   From: 2010.03.12/outbox.cif.g09.slc.cpg/sg57_6_cif.got.tgz:10074.got - 2010.04.16 15:48:40.
