data_PCOD8232797
_publ_section_title
;
Structure prediction by ZEFSAII (Michael W. Deem and Ramdas Pophale) SiO2 
 PCOD8232797
Probable space group: P B C M
;
_chemical_formula_sum "Si O2"
_cell_formula_units_Z 48
_cell_length_a 9.611790
_cell_length_b 30.526421
_cell_length_c 8.738102
_cell_angle_alpha 90.000000
_cell_angle_beta 90.000000
_cell_angle_gamma 90.000000
_cell_volume 2563.877512
_symmetry_space_group_name_H-M "P B C M"
_symmetry_group_IT_number 57
_symmetry_cell_setting 'orthorhombic'
loop_
_space_group_symop_operation_xyz
x,y,z
-x,-y,1/2+z
x,1/2-y,-z
-x,1/2+y,1/2-z
-x,-y,-z
x,y,1/2-z
-x,1/2+y,z
x,1/2-y,1/2+z
loop_
_atom_site_type_symbol
_atom_site_label
_atom_site_fract_x
_atom_site_fract_y
_atom_site_fract_z
Si Si1 0.359626 0.982795 0.926062
Si Si2 0.005820 0.872496 0.570740
Si Si3 0.777140 0.927993 0.074352
Si Si4 0.795064 0.703184 0.427721
Si Si5 0.431547 0.363387 0.568393
Si Si6 0.705900 0.108897 0.569727
O O1 0.388778 0.970274 0.750000
O O2 0.240651 0.019813 0.938562
O O3 0.302265 0.940869 0.013954
O O4 0.500000 0.000000 0.000000
O O5 0.037593 0.877089 0.750000
O O6 0.147355 0.870563 0.476496
O O7 0.913493 0.914033 0.519699
O O8 0.924279 0.827976 0.530533
O O9 0.793729 0.913116 0.250000
O O10 0.638743 0.906197 0.004737
O O11 0.817645 0.750000 0.500000
O O12 0.785800 0.710985 0.250000
O O13 0.652456 0.680017 0.484606
O O14 0.426325 0.368558 0.750000
O O15 0.588664 0.360678 0.508494
O O16 0.685915 0.110547 0.750000
#
# Coordination Sequence:
#
# PCOD8232797 Si02
#       6
#     8   8   8   8   8   8
#     4  11  22  35  55  82 115 153 197 242 286 333
#     4  10  22  40  59  82 115 154 190 232 290 344
#     4  10  20  35  56  83 111 148 196 238 278 330
#     4   9  20  38  63  90 112 142 182 227 281 344
#     4  10  20  36  58  83 114 149 186 230 282 334
#     4  12  24  37  56  84 115 152 195 239 289 336
#
# _framework density 18.721644000000001
#
# number of rings (size 3 to 8) (size 9 to 14) (size 15 to 20)
#    0.000    1.667    1.667    4.500    0.000    6.667 
#    0.000    0.833    0.000    0.000    0.000    0.000 
#    0.000    0.000    0.000    0.000    0.000    0.000 
#
# Total GULP energy -595332.570576 kJ/mol
# GULP energy per Si atom -12402.761887 kJ/mol
# Density = 1.867903 g / cm^3
# Si number density = 18.721644 Si / 1000 Ang^3
#
#
#
# Elastic Constant Matrix: (Units=GPa)
#
#
# Indices 1 2 3 4 5 6 
#
# 1 94.8668 37.6961 14.0966 0.0000 0.0000 0.0000
# 2 37.6961 100.5140 40.5284 0.0000 0.0000 0.0000
# 3 14.0966 40.5284 78.0082 0.0000 0.0000 0.0000
# 4 0.0000 0.0000 0.0000 32.6945 0.0000 0.0000
# 5 0.0000 0.0000 0.0000 0.0000 36.3293 0.0000
# 6 0.0000 0.0000 0.0000 0.0000 0.0000 2.3678
#
#
#
# Elastic Compliance Matrix: (Units=1/GPa)
#
#
# Indices 1 2 3 4 5 6 
#
# 1 0.012390 -0.004736 0.000222 0.000000 0.000000 0.000000
# 2 -0.004736 0.014396 -0.006623 0.000000 0.000000 0.000000
# 3 0.000222 -0.006623 0.016220 0.000000 0.000000 0.000000
# 4 0.000000 0.000000 0.000000 0.030586 0.000000 0.000000
# 5 0.000000 0.000000 0.000000 0.000000 0.027526 0.000000
# 6 0.000000 0.000000 0.000000 0.000000 0.000000 0.422338
#
#
# Mechanical properties :
#
#
# Convention : Reuss Voigt Hill
#
# Bulk Modulus (GPa) = 48.23824 50.89236 49.56530
# Shear Modulus (GPa) = 9.04746 26.34951 17.69848
#
# Velocity S-wave (km/s) = 2.20071 3.75565 3.07799
# Velocity P-wave (km/s) = 5.68150 6.78596 6.25814
#
# Compressibility (1/GPa) = 0.02073044
#
# Stress axis : x y z
#
# Youngs Moduli (GPa) = 80.70983 69.46564 61.65161
#
# Poissons Ratio (x) = 0.32899 -0.01366
# Poissons Ratio (y) = 0.38224 0.40834
# Poissons Ratio (z) = -0.01789 0.46009
#
# Static dielectric constant tensor:
#      x y z
#    x 3.444720 0.000000 0.000000 
#    y 0.000000 5.902620 0.000000 
#    z 0.000000 0.000000 3.493000 
# 
# 
# High freq. dielectric constant tensor:
#      x y z
#    x 1.727710 0.000000 0.000000 
#    y 0.000000 1.712560 0.000000 
#    z 0.000000 0.000000 1.742310 
# 
# From -- ./inp_files/2059.got.cif
#   From: 2010.03.12/outbox.cif.g09.slc.cpg/sg57_2_cif.got.tgz:2059.got - 2010.04.16 15:48:40.
