data_PCOD8232434
_publ_section_title
;
Structure prediction by ZEFSAII (Michael W. Deem and Ramdas Pophale) SiO2 
 PCOD8232434
Probable space group: P B C M
;
_chemical_formula_sum "Si O2"
_cell_formula_units_Z 56
_cell_length_a 13.712468
_cell_length_b 23.832949
_cell_length_c 9.035452
_cell_angle_alpha 90.000000
_cell_angle_beta 90.000000
_cell_angle_gamma 90.000000
_cell_volume 2952.862971
_symmetry_space_group_name_H-M "P B C M"
_symmetry_group_IT_number 57
_symmetry_cell_setting 'orthorhombic'
loop_
_space_group_symop_operation_xyz
x,y,z
-x,-y,1/2+z
x,1/2-y,-z
-x,1/2+y,1/2-z
-x,-y,-z
x,y,1/2-z
-x,1/2+y,z
x,1/2-y,1/2+z
loop_
_atom_site_type_symbol
_atom_site_label
_atom_site_fract_x
_atom_site_fract_y
_atom_site_fract_z
Si Si1 0.548594 0.914680 0.580235
Si Si2 0.225829 0.693230 0.577951
Si Si3 0.275349 0.031100 0.920984
Si Si4 0.672563 0.408277 0.579999
Si Si5 0.155913 0.378601 0.573977
Si Si6 0.662370 0.693909 0.417554
Si Si7 0.999480 0.692526 0.576362
O O1 0.566400 0.933384 0.750000
O O2 0.617217 0.951925 0.476647
O O3 0.437493 0.922768 0.530530
O O4 0.573652 0.849060 0.561691
O O5 0.262293 0.750000 0.500000
O O6 0.245490 0.700749 0.750000
O O7 0.286046 0.640497 0.521317
O O8 0.112660 0.682388 0.543108
O O9 0.266101 0.048648 0.750000
O O10 0.262949 0.964256 0.940989
O O11 0.189260 0.060528 0.014381
O O12 0.673892 0.388001 0.750000
O O13 0.143298 0.382233 0.750000
O O14 0.238124 0.334191 0.523383
O O15 0.055607 0.360065 0.497279
O O16 0.634143 0.750000 0.500000
O O17 0.678876 0.711214 0.250000
O O18 0.963440 0.750000 0.500000
O O19 0.976443 0.696135 0.750000
#
# Coordination Sequence:
#
# PCOD8232434 Si02
#       7
#     8   8   8   8   8   8   8
#     4   9  19  35  52  74 106 142 180 223 267 316
#     4  10  22  39  59  82 109 140 177 221 266 314
#     4  10  20  34  54  81 109 139 178 224 268 316
#     4  10  21  37  57  79 106 141 181 224 269 315
#     4  10  20  34  53  77 106 142 178 217 266 319
#     4   9  18  30  45  69 102 135 168 208 256 308
#     4  10  20  35  56  82 109 139 177 219 263 316
#
# _framework density 18.964645999999998
#
# number of rings (size 3 to 8) (size 9 to 14) (size 15 to 20)
#    0.000    2.286    0.000    3.429    0.000    8.000 
#    0.000    2.143    0.000    0.000    0.000    0.000 
#    0.000    0.000    0.000    0.000    0.000    0.000 
#
# Total GULP energy -694535.976968 kJ/mol
# GULP energy per Si atom -12402.428160 kJ/mol
# Density = 1.892148 g / cm^3
# Si number density = 18.964646 Si / 1000 Ang^3
#
#
#
# Elastic Constant Matrix: (Units=GPa)
#
#
# Indices 1 2 3 4 5 6 
#
# 1 50.1154 28.8722 34.4241 0.0000 0.0000 0.0000
# 2 28.8722 97.1921 46.6798 0.0000 0.0000 0.0000
# 3 34.4241 46.6798 92.8266 0.0000 0.0000 0.0000
# 4 0.0000 0.0000 0.0000 34.6148 0.0000 0.0000
# 5 0.0000 0.0000 0.0000 0.0000 31.8568 0.0000
# 6 0.0000 0.0000 0.0000 0.0000 0.0000 24.4211
#
#
#
# Elastic Compliance Matrix: (Units=1/GPa)
#
#
# Indices 1 2 3 4 5 6 
#
# 1 0.028140 -0.004413 -0.008216 0.000000 0.000000 0.000000
# 2 -0.004413 0.014257 -0.005533 0.000000 0.000000 0.000000
# 3 -0.008216 -0.005533 0.016602 0.000000 0.000000 0.000000
# 4 0.000000 0.000000 0.000000 0.028889 0.000000 0.000000
# 5 0.000000 0.000000 0.000000 0.000000 0.031390 0.000000
# 6 0.000000 0.000000 0.000000 0.000000 0.000000 0.040948
#
#
# Mechanical properties :
#
#
# Convention : Reuss Voigt Hill
#
# Bulk Modulus (GPa) = 44.10224 51.12069 47.61146
# Shear Modulus (GPa) = 24.49649 26.85575 25.67612
#
# Velocity S-wave (km/s) = 3.59791 3.76719 3.68352
# Velocity P-wave (km/s) = 6.36910 6.77765 6.57655
#
# Compressibility (1/GPa) = 0.02267459
#
# Stress axis : x y z
#
# Youngs Moduli (GPa) = 35.53633 70.13937 60.23335
#
# Poissons Ratio (x) = 0.30954 0.49489
# Poissons Ratio (y) = 0.15683 0.33327
# Poissons Ratio (z) = 0.29198 0.38808
#
# Static dielectric constant tensor:
#      x y z
#    x 3.354450 0.000000 0.000000 
#    y 0.000000 3.406980 0.000000 
#    z 0.000000 0.000000 3.500880 
# 
# 
# High freq. dielectric constant tensor:
#      x y z
#    x 1.723940 0.000000 0.000000 
#    y 0.000000 1.735310 0.000000 
#    z 0.000000 0.000000 1.743550 
# 
# From -- ./inp_files/5192.got.cif
#   From: 2010.03.12/outbox.cif.g09.slc.cpg/sg57_3_cif.got.tgz:5192.got - 2010.04.16 15:48:40.
