data_PCOD8232331
_publ_section_title
;
Structure prediction by ZEFSAII (Michael W. Deem and Ramdas Pophale) SiO2 
 PCOD8232331
Probable space group: P B C M
;
_chemical_formula_sum "Si O2"
_cell_formula_units_Z 64
_cell_length_a 21.335106
_cell_length_b 17.759794
_cell_length_c 9.077373
_cell_angle_alpha 90.000000
_cell_angle_beta 90.000000
_cell_angle_gamma 90.000000
_cell_volume 3439.480966
_symmetry_space_group_name_H-M "P B C M"
_symmetry_group_IT_number 57
_symmetry_cell_setting 'orthorhombic'
loop_
_space_group_symop_operation_xyz
x,y,z
-x,-y,1/2+z
x,1/2-y,-z
-x,1/2+y,1/2-z
-x,-y,-z
x,y,1/2-z
-x,1/2+y,z
x,1/2-y,1/2+z
loop_
_atom_site_type_symbol
_atom_site_label
_atom_site_fract_x
_atom_site_fract_y
_atom_site_fract_z
Si Si1 0.750913 0.098648 0.420471
Si Si2 0.498820 0.171258 0.576438
Si Si3 0.880127 0.172647 0.423194
Si Si4 0.372378 0.906135 0.421306
Si Si5 0.939392 0.467938 0.077812
Si Si6 0.273702 0.328286 0.580183
Si Si7 0.809526 0.962739 0.581881
Si Si8 0.605411 0.922593 0.923979
O O1 0.737060 0.090373 0.250000
O O2 0.806818 0.157068 0.452654
O O3 0.687940 0.128484 0.497126
O O4 0.769214 0.016855 0.479617
O O5 0.483066 0.250000 0.500000
O O6 0.487562 0.179009 0.750000
O O7 0.569400 0.146903 0.538810
O O8 0.453949 0.107351 0.512633
O O9 0.898917 0.250000 0.500000
O O10 0.895387 0.175053 0.250000
O O11 0.922332 0.109700 0.499460
O O12 0.357335 0.905057 0.250000
O O13 0.385078 0.991345 0.473562
O O14 0.952163 0.453509 0.250000
O O15 0.883590 0.528366 0.054051
O O16 0.000000 0.500000 0.000000
O O17 0.267078 0.250000 0.500000
O O18 0.280714 0.309094 0.750000
O O19 0.211138 0.377252 0.547888
O O20 0.334192 0.374698 0.526655
O O21 0.792109 0.984016 0.750000
O O22 0.592634 0.916656 0.750000
#
# Coordination Sequence:
#
# PCOD8232331 Si02
#       8
#     8   8   8   8   8   8   8   8
#     4  10  20  33  55  85 112 140 179 230 278 329
#     4  11  24  39  55  76 106 143 183 227 279 333
#     4  10  21  37  57  86 120 152 192 237 284 336
#     4  10  21  38  58  79 106 144 183 225 277 337
#     4  10  20  36  61  87 115 155 196 235 280 331
#     4  10  20  34  54  80 109 140 178 223 273 327
#     4   9  18  36  57  77 109 150 185 220 270 331
#     4  10  20  37  59  79 104 138 182 230 275 331
#
# _framework density 18.607458000000001
#
# number of rings (size 3 to 8) (size 9 to 14) (size 15 to 20)
#    0.000    2.000    1.250    2.250    0.000    6.000 
#    0.000    3.125    0.000    1.500    0.000    0.000 
#    0.000    0.000    0.000    0.000    0.000    0.000 
#
# Total GULP energy -793783.390640 kJ/mol
# GULP energy per Si atom -12402.865479 kJ/mol
# Density = 1.856511 g / cm^3
# Si number density = 18.607458 Si / 1000 Ang^3
#
#
#
# Elastic Constant Matrix: (Units=GPa)
#
#
# Indices 1 2 3 4 5 6 
#
# 1 106.2231 27.4028 56.8582 0.0000 0.0000 0.0000
# 2 27.4028 76.0057 41.4764 0.0000 0.0000 0.0000
# 3 56.8582 41.4764 85.7865 0.0000 0.0000 0.0000
# 4 0.0000 0.0000 0.0000 29.2946 0.0000 0.0000
# 5 0.0000 0.0000 0.0000 0.0000 34.6885 0.0000
# 6 0.0000 0.0000 0.0000 0.0000 0.0000 21.4381
#
#
#
# Elastic Compliance Matrix: (Units=1/GPa)
#
#
# Indices 1 2 3 4 5 6 
#
# 1 0.014590 0.000023 -0.009681 0.000000 0.000000 0.000000
# 2 0.000023 0.017872 -0.008656 0.000000 0.000000 0.000000
# 3 -0.009681 -0.008656 0.022259 0.000000 0.000000 0.000000
# 4 0.000000 0.000000 0.000000 0.034136 0.000000 0.000000
# 5 0.000000 0.000000 0.000000 0.000000 0.028828 0.000000
# 6 0.000000 0.000000 0.000000 0.000000 0.000000 0.046646
#
#
# Mechanical properties :
#
#
# Convention : Reuss Voigt Hill
#
# Bulk Modulus (GPa) = 55.27296 57.72110 56.49703
# Shear Modulus (GPa) = 24.15562 26.56943 25.36253
#
# Velocity S-wave (km/s) = 3.60692 3.78284 3.69593
# Velocity P-wave (km/s) = 6.86409 7.08291 6.97436
#
# Compressibility (1/GPa) = 0.01809203
#
# Stress axis : x y z
#
# Youngs Moduli (GPa) = 68.53812 55.95244 44.92656
#
# Poissons Ratio (x) = -0.00127 0.43495
# Poissons Ratio (y) = -0.00156 0.38889
# Poissons Ratio (z) = 0.66354 0.48433
#
# Static dielectric constant tensor:
#      x y z
#    x 3.485270 0.000000 0.000000 
#    y 0.000000 3.320290 0.000000 
#    z 0.000000 0.000000 3.472560 
# 
# 
# High freq. dielectric constant tensor:
#      x y z
#    x 1.722500 0.000000 0.000000 
#    y 0.000000 1.717900 0.000000 
#    z 0.000000 0.000000 1.727270 
# 
# From -- ./inp_files/8448.got.cif
#   From: 2010.03.12/outbox.cif.g09.slc.cpg/sg57_5_cif.got.tgz:8448.got - 2010.04.16 15:48:40.
