data_PCOD8232637
_publ_section_title
;
Structure prediction by ZEFSAII (Michael W. Deem and Ramdas Pophale) SiO2 
 PCOD8232637
Probable space group: P B C M
;
_chemical_formula_sum "Si O2"
_cell_formula_units_Z 64
_cell_length_a 17.391539
_cell_length_b 19.977219
_cell_length_c 9.071801
_cell_angle_alpha 90.000000
_cell_angle_beta 90.000000
_cell_angle_gamma 90.000000
_cell_volume 3151.857401
_symmetry_space_group_name_H-M "P B C M"
_symmetry_group_IT_number 57
_symmetry_cell_setting 'orthorhombic'
loop_
_space_group_symop_operation_xyz
x,y,z
-x,-y,1/2+z
x,1/2-y,-z
-x,1/2+y,1/2-z
-x,-y,-z
x,y,1/2-z
-x,1/2+y,z
x,1/2-y,1/2+z
loop_
_atom_site_type_symbol
_atom_site_label
_atom_site_fract_x
_atom_site_fract_y
_atom_site_fract_z
Si Si1 0.570873 0.964428 0.924306
Si Si2 0.385130 0.182237 0.077177
Si Si3 0.921504 0.884249 0.079313
Si Si4 0.719394 0.450712 0.423098
Si Si5 0.766908 0.316745 0.574834
Si Si6 0.209184 0.315739 0.921983
Si Si7 0.115858 0.998396 0.087851
Si Si8 0.082116 0.654599 0.586734
O O1 0.561500 0.968136 0.750000
O O2 0.572364 0.886062 0.974119
O O3 0.647221 0.004402 0.972919
O O4 0.500000 0.000000 0.000000
O O5 0.394931 0.193664 0.250000
O O6 0.296772 0.170185 0.032474
O O7 0.417696 0.250000 0.000000
O O8 0.901374 0.878744 0.250000
O O9 0.992599 0.833684 0.040773
O O10 0.845894 0.873213 0.980458
O O11 0.935594 0.961468 0.031908
O O12 0.716998 0.432404 0.250000
O O13 0.721166 0.380706 0.512593
O O14 0.794476 0.493915 0.460932
O O15 0.731140 0.250000 0.500000
O O16 0.757994 0.313873 0.750000
O O17 0.858021 0.317976 0.532704
O O18 0.200659 0.306850 0.750000
O O19 0.177476 0.250000 0.000000
O O20 0.110025 0.032126 0.250000
O O21 0.083113 0.924562 0.098418
O O22 0.100868 0.684968 0.750000
#
# Coordination Sequence:
#
# PCOD8232637 Si02
#       8
#     8   8   8   8   8   8   8   8
#     4  10  21  38  61  90 124 156 186 225 275 330
#     4   9  19  37  60  85 114 151 191 228 271 326
#     4  11  21  31  47  73 104 138 178 225 276 332
#     4   9  19  38  60  82 112 149 187 231 284 338
#     4  11  22  37  59  83 107 141 189 242 292 346
#     4  10  20  35  53  73 100 135 176 220 267 319
#     4   9  17  32  53  73  98 135 177 223 276 329
#     4   9  20  36  50  69 102 141 180 226 281 336
#
# _framework density 20.305485999999998
#
# number of rings (size 3 to 8) (size 9 to 14) (size 15 to 20)
#    0.000    2.250    0.000    3.750    0.000    7.000 
#    0.000    1.875    0.000    1.500    0.000    0.000 
#    0.000    0.000    0.000    0.000    0.000    0.000 
#
# Total GULP energy -793176.875131 kJ/mol
# GULP energy per Si atom -12393.388674 kJ/mol
# Density = 2.025927 g / cm^3
# Si number density = 20.305486 Si / 1000 Ang^3
#
#
#
# Elastic Constant Matrix: (Units=GPa)
#
#
# Indices 1 2 3 4 5 6 
#
# 1 66.6986 35.7834 28.9508 0.0000 0.0000 0.0000
# 2 35.7834 117.6840 48.5441 0.0000 0.0000 0.0000
# 3 28.9508 48.5441 81.1248 0.0000 0.0000 0.0000
# 4 0.0000 0.0000 0.0000 37.0018 0.0000 0.0000
# 5 0.0000 0.0000 0.0000 0.0000 26.2383 0.0000
# 6 0.0000 0.0000 0.0000 0.0000 0.0000 18.2294
#
#
#
# Elastic Compliance Matrix: (Units=1/GPa)
#
#
# Indices 1 2 3 4 5 6 
#
# 1 0.019039 -0.003965 -0.004422 0.000000 0.000000 0.000000
# 2 -0.003965 0.012108 -0.005830 0.000000 0.000000 0.000000
# 3 -0.004422 -0.005830 0.017393 0.000000 0.000000 0.000000
# 4 0.000000 0.000000 0.000000 0.027026 0.000000 0.000000
# 5 0.000000 0.000000 0.000000 0.000000 0.038112 0.000000
# 6 0.000000 0.000000 0.000000 0.000000 0.000000 0.054856
#
#
# Mechanical properties :
#
#
# Convention : Reuss Voigt Hill
#
# Bulk Modulus (GPa) = 49.73556 54.67379 52.20468
# Shear Modulus (GPa) = 24.54933 26.44252 25.49592
#
# Velocity S-wave (km/s) = 3.48084 3.61256 3.54731
# Velocity P-wave (km/s) = 6.37980 6.66220 6.52253
#
# Compressibility (1/GPa) = 0.02010634
#
# Stress axis : x y z
#
# Youngs Moduli (GPa) = 52.52252 82.59044 57.49308
#
# Poissons Ratio (x) = 0.32749 0.25422
# Poissons Ratio (y) = 0.20826 0.33520
# Poissons Ratio (z) = 0.23224 0.48152
#
# Static dielectric constant tensor:
#      x y z
#    x 3.670740 0.000000 0.000000 
#    y 0.000000 3.697710 0.000000 
#    z 0.000000 0.000000 3.683990 
# 
# 
# High freq. dielectric constant tensor:
#      x y z
#    x 1.773360 0.000000 0.000000 
#    y 0.000000 1.803330 0.000000 
#    z 0.000000 0.000000 1.784760 
# 
# From -- ./inp_files/7241.got.cif
#   From: 2010.03.12/outbox.cif.g09.slc.cpg/sg57_4_cif.got.tgz:7241.got - 2010.04.16 15:48:40.
