data_PCOD8232378
_publ_section_title
;
Structure prediction by ZEFSAII (Michael W. Deem and Ramdas Pophale) SiO2 
 PCOD8232378
Probable space group: P B C M
;
_chemical_formula_sum "Si O2"
_cell_formula_units_Z 48
_cell_length_a 19.163787
_cell_length_b 14.131672
_cell_length_c 9.178880
_cell_angle_alpha 90.000000
_cell_angle_beta 90.000000
_cell_angle_gamma 90.000000
_cell_volume 2485.790799
_symmetry_space_group_name_H-M "P B C M"
_symmetry_group_IT_number 57
_symmetry_cell_setting 'orthorhombic'
loop_
_space_group_symop_operation_xyz
x,y,z
-x,-y,1/2+z
x,1/2-y,-z
-x,1/2+y,1/2-z
-x,-y,-z
x,y,1/2-z
-x,1/2+y,z
x,1/2-y,1/2+z
loop_
_atom_site_type_symbol
_atom_site_label
_atom_site_fract_x
_atom_site_fract_y
_atom_site_fract_z
Si Si1 0.755448 0.008333 0.080752
Si Si2 0.485984 0.152058 0.579051
Si Si3 0.127372 0.650734 0.420351
Si Si4 0.173915 0.150539 0.079509
Si Si5 0.022982 0.153646 0.083327
Si Si6 0.403585 0.533841 0.417372
O O1 0.767789 0.984698 0.250000
O O2 0.810941 0.084467 0.021518
O O3 0.678102 0.046420 0.052259
O O4 0.765989 0.914011 0.987688
O O5 0.465813 0.250000 0.500000
O O6 0.493948 0.172155 0.750000
O O7 0.558700 0.110662 0.518611
O O8 0.426287 0.074009 0.545842
O O9 0.133777 0.750000 0.500000
O O10 0.137438 0.669546 0.250000
O O11 0.050807 0.600795 0.452248
O O12 0.188281 0.164418 0.250000
O O13 0.096929 0.101909 0.048969
O O14 0.178188 0.250000 0.000000
O O15 0.023233 0.183488 0.250000
O O16 0.021531 0.250000 0.000000
O O17 0.422541 0.556490 0.250000
#
# Coordination Sequence:
#
# PCOD8232378 Si02
#       6
#     8   8   8   8   8   8
#     4  10  21  36  53  77 110 142 171 210 261 312
#     4  10  20  36  60  84 106 136 173 212 256 307
#     4   9  18  33  52  73 101 137 176 219 265 311
#     4  10  20  34  52  74 102 137 179 223 265 311
#     4   8  15  29  48  70  96 130 174 221 264 305
#     4   9  20  38  56  79 111 141 173 213 254 304
#
# _framework density 19.309752
#
# number of rings (size 3 to 8) (size 9 to 14) (size 15 to 20)
#    0.000    2.667    0.000    1.000    0.000    4.667 
#    0.000    3.333    0.000    0.000    0.000    0.000 
#    0.000    0.000    0.000    0.000    0.000    0.000 
#
# Total GULP energy -594775.959586 kJ/mol
# GULP energy per Si atom -12391.165825 kJ/mol
# Density = 1.926580 g / cm^3
# Si number density = 19.309752 Si / 1000 Ang^3
#
#
#
# Elastic Constant Matrix: (Units=GPa)
#
#
# Indices 1 2 3 4 5 6 
#
# 1 65.1882 -0.3555 17.0928 0.0000 0.0000 0.0000
# 2 -0.3555 47.4130 19.5797 0.0000 0.0000 0.0000
# 3 17.0928 19.5797 57.4604 0.0000 0.0000 0.0000
# 4 0.0000 0.0000 0.0000 32.2923 0.0000 0.0000
# 5 0.0000 0.0000 0.0000 0.0000 24.0188 0.0000
# 6 0.0000 0.0000 0.0000 0.0000 0.0000 21.5889
#
#
#
# Elastic Compliance Matrix: (Units=1/GPa)
#
#
# Indices 1 2 3 4 5 6 
#
# 1 0.016902 0.002564 -0.005901 0.000000 0.000000 0.000000
# 2 0.002564 0.024934 -0.009259 0.000000 0.000000 0.000000
# 3 -0.005901 -0.009259 0.022314 0.000000 0.000000 0.000000
# 4 0.000000 0.000000 0.000000 0.030967 0.000000 0.000000
# 5 0.000000 0.000000 0.000000 0.000000 0.041634 0.000000
# 6 0.000000 0.000000 0.000000 0.000000 0.000000 0.046320
#
#
# Mechanical properties :
#
#
# Convention : Reuss Voigt Hill
#
# Bulk Modulus (GPa) = 25.66981 26.96620 26.31801
# Shear Modulus (GPa) = 22.59896 24.49630 23.54763
#
# Velocity S-wave (km/s) = 3.42473 3.56560 3.49588
# Velocity P-wave (km/s) = 5.38154 5.56298 5.47301
#
# Compressibility (1/GPa) = 0.03895627
#
# Stress axis : x y z
#
# Youngs Moduli (GPa) = 59.16621 40.10581 44.81542
#
# Poissons Ratio (x) = -0.10282 0.26447
# Poissons Ratio (y) = -0.15169 0.41494
# Poissons Ratio (z) = 0.34916 0.37134
#
# Static dielectric constant tensor:
#      x y z
#    x 3.840820 0.000000 0.000000 
#    y 0.000000 3.209690 0.000000 
#    z 0.000000 0.000000 3.461650 
# 
# 
# High freq. dielectric constant tensor:
#      x y z
#    x 1.760040 0.000000 0.000000 
#    y 0.000000 1.728840 0.000000 
#    z 0.000000 0.000000 1.753860 
# 
# From -- ./inp_files/6546.got.cif
#   From: 2010.03.12/outbox.cif.g09.slc.cpg/sg57_4_cif.got.tgz:6546.got - 2010.04.16 15:48:40.
