data_PCOD8232091
_publ_section_title
;
Structure prediction by ZEFSAII (Michael W. Deem and Ramdas Pophale) SiO2 
 PCOD8232091
Probable space group: P B C M
;
_chemical_formula_sum "Si O2"
_cell_formula_units_Z 48
_cell_length_a 10.987948
_cell_length_b 12.286638
_cell_length_c 17.420447
_cell_angle_alpha 90.000000
_cell_angle_beta 90.000000
_cell_angle_gamma 90.000000
_cell_volume 2351.846392
_symmetry_space_group_name_H-M "P B C M"
_symmetry_group_IT_number 57
_symmetry_cell_setting 'orthorhombic'
loop_
_space_group_symop_operation_xyz
x,y,z
-x,-y,1/2+z
x,1/2-y,-z
-x,1/2+y,1/2-z
-x,-y,-z
x,y,1/2-z
-x,1/2+y,z
x,1/2-y,1/2+z
loop_
_atom_site_type_symbol
_atom_site_label
_atom_site_fract_x
_atom_site_fract_y
_atom_site_fract_z
Si Si1 0.354993 0.869612 0.661501
Si Si2 0.002944 0.947981 0.417062
Si Si3 0.212366 0.700337 0.580915
Si Si4 0.732393 0.577185 0.919424
Si Si5 0.386883 0.277563 0.662741
Si Si6 0.759061 0.963510 0.596665
O O1 0.356537 0.905723 0.750000
O O2 0.240950 0.789617 0.646056
O O3 0.475031 0.802124 0.638359
O O4 0.348990 0.976687 0.608859
O O5 0.067506 0.828216 0.419241
O O6 0.868106 0.937612 0.381798
O O7 0.098584 0.030014 0.374200
O O8 0.000000 0.000000 0.500000
O O9 0.253234 0.750000 0.500000
O O10 0.289635 0.588804 0.595209
O O11 0.671270 0.688242 0.892304
O O12 0.744211 0.584746 0.010829
O O13 0.379669 0.236108 0.750000
O O14 0.314036 0.390966 0.656319
#
# Coordination Sequence:
#
# PCOD8232091 Si02
#       6
#     8   8   8   8   8   8
#     4  11  25  42  61  85 125 171 206 252 312 369
#     4   8  18  36  64  93 123 154 192 251 309 365
#     4  10  19  39  66  92 123 156 201 250 304 367
#     4  11  21  42  64  93 119 159 212 253 304 366
#     4  11  26  42  59  87 128 169 204 254 311 364
#     4   9  21  40  65  92 120 158 200 254 306 361
#
# _framework density 20.409495
#
# number of rings (size 3 to 8) (size 9 to 14) (size 15 to 20)
#    1.000    1.000    1.667    1.000    2.333    6.667 
#    0.000    5.000    0.000    0.000    0.000    0.000 
#    0.000    0.000    0.000    0.000    0.000    0.000 
#
# Total GULP energy -594639.182469 kJ/mol
# GULP energy per Si atom -12388.316301 kJ/mol
# Density = 2.036304 g / cm^3
# Si number density = 20.409495 Si / 1000 Ang^3
#
#
#
# Elastic Constant Matrix: (Units=GPa)
#
#
# Indices 1 2 3 4 5 6 
#
# 1 91.2658 25.4445 24.9894 0.0000 0.0000 0.0000
# 2 25.4445 100.7697 15.2979 0.0000 0.0000 0.0000
# 3 24.9894 15.2979 40.0602 0.0000 0.0000 0.0000
# 4 0.0000 0.0000 0.0000 25.0325 0.0000 0.0000
# 5 0.0000 0.0000 0.0000 0.0000 15.9418 0.0000
# 6 0.0000 0.0000 0.0000 0.0000 0.0000 39.0576
#
#
#
# Elastic Compliance Matrix: (Units=1/GPa)
#
#
# Indices 1 2 3 4 5 6 
#
# 1 0.013696 -0.002294 -0.007667 0.000000 0.000000 0.000000
# 2 -0.002294 0.010919 -0.002738 0.000000 0.000000 0.000000
# 3 -0.007667 -0.002738 0.030791 0.000000 0.000000 0.000000
# 4 0.000000 0.000000 0.000000 0.039948 0.000000 0.000000
# 5 0.000000 0.000000 0.000000 0.000000 0.062728 0.000000
# 6 0.000000 0.000000 0.000000 0.000000 0.000000 0.025603
#
#
# Mechanical properties :
#
#
# Convention : Reuss Voigt Hill
#
# Bulk Modulus (GPa) = 33.32710 40.39546 36.86128
# Shear Modulus (GPa) = 22.82196 27.09729 24.95963
#
# Velocity S-wave (km/s) = 3.34758 3.64769 3.50085
# Velocity P-wave (km/s) = 5.59521 6.12995 5.86868
#
# Compressibility (1/GPa) = 0.03000561
#
# Stress axis : x y z
#
# Youngs Moduli (GPa) = 73.01369 91.58650 32.47697
#
# Poissons Ratio (x) = 0.21013 0.24902
# Poissons Ratio (y) = 0.16751 0.08893
# Poissons Ratio (z) = 0.55983 0.25080
#
# Static dielectric constant tensor:
#      x y z
#    x 4.060140 0.000000 0.000000 
#    y 0.000000 3.661170 0.000000 
#    z 0.000000 0.000000 3.337010 
# 
# 
# High freq. dielectric constant tensor:
#      x y z
#    x 1.795050 0.000000 0.000000 
#    y 0.000000 1.804470 0.000000 
#    z 0.000000 0.000000 1.767000 
# 
# From -- ./inp_files/21802.got.cif
#   From: 2010.03.12/outbox.cif.g09.slc.cpg/sg57_11_cif.got.tgz:21802.got - 2010.04.16 15:48:40.
