data_PCOD8232267
_publ_section_title
;
Structure prediction by ZEFSAII (Michael W. Deem and Ramdas Pophale) SiO2 
 PCOD8232267
Probable space group: P B C M
;
_chemical_formula_sum "Si O2"
_cell_formula_units_Z 56
_cell_length_a 17.356319
_cell_length_b 19.313012
_cell_length_c 9.125303
_cell_angle_alpha 90.000000
_cell_angle_beta 90.000000
_cell_angle_gamma 90.000000
_cell_volume 3058.827090
_symmetry_space_group_name_H-M "P B C M"
_symmetry_group_IT_number 57
_symmetry_cell_setting 'orthorhombic'
loop_
_space_group_symop_operation_xyz
x,y,z
-x,-y,1/2+z
x,1/2-y,-z
-x,1/2+y,1/2-z
-x,-y,-z
x,y,1/2-z
-x,1/2+y,z
x,1/2-y,1/2+z
loop_
_atom_site_type_symbol
_atom_site_label
_atom_site_fract_x
_atom_site_fract_y
_atom_site_fract_z
Si Si1 0.715445 0.534105 0.087469
Si Si2 0.211100 0.913906 0.576692
Si Si3 0.440147 0.954423 0.089875
Si Si4 0.340854 0.825240 0.427245
Si Si5 0.074829 0.315240 0.580049
Si Si6 0.249793 0.183461 0.420233
Si Si7 0.963527 0.064411 0.079096
O O1 0.755893 0.532754 0.250000
O O2 0.631842 0.503855 0.103793
O O3 0.706314 0.613334 0.033648
O O4 0.763472 0.490975 0.969241
O O5 0.224040 0.902886 0.750000
O O6 0.259988 0.855658 0.488933
O O7 0.121554 0.910410 0.530479
O O8 0.476666 0.941220 0.250000
O O9 0.410196 0.879295 0.027675
O O10 0.500000 0.000000 0.000000
O O11 0.357281 0.750000 0.500000
O O12 0.335230 0.819372 0.250000
O O13 0.038503 0.250000 0.500000
O O14 0.070948 0.300698 0.750000
O O15 0.162069 0.328397 0.528117
O O16 0.022475 0.377529 0.530956
O O17 0.286915 0.250000 0.500000
O O18 0.256935 0.199004 0.250000
O O19 0.962584 0.048159 0.250000
O O20 0.000000 0.000000 0.000000
#
# Coordination Sequence:
#
# PCOD8232267 Si02
#       7
#     8   8   8   8   8   8   8
#     4   9  18  34  53  73  99 133 169 205 251 309
#     4  10  20  33  51  77 104 133 174 223 268 315
#     4   9  19  35  56  81 108 137 170 206 251 307
#     4  10  21  38  59  83 110 143 181 221 267 320
#     4   9  18  32  47  65  91 125 162 201 246 296
#     4   9  17  30  49  69  93 126 164 205 248 294
#     4  10  21  34  49  72 101 133 174 219 265 315
#
# _framework density 18.307670000000002
#
# number of rings (size 3 to 8) (size 9 to 14) (size 15 to 20)
#    0.000    2.571    0.000    2.571    0.000    6.857 
#    0.000    5.000    0.000    3.429    0.000    0.000 
#    0.000    0.000    0.000    0.000    0.000    0.000 
#
# Total GULP energy -693866.542896 kJ/mol
# GULP energy per Si atom -12390.473980 kJ/mol
# Density = 1.826600 g / cm^3
# Si number density = 18.307670 Si / 1000 Ang^3
#
#
#
# Elastic Constant Matrix: (Units=GPa)
#
#
# Indices 1 2 3 4 5 6 
#
# 1 40.6800 40.3407 26.9204 0.0000 0.0000 0.0000
# 2 40.3407 163.2062 54.4399 0.0000 0.0000 0.0000
# 3 26.9204 54.4399 54.9643 0.0000 0.0000 0.0000
# 4 0.0000 0.0000 0.0000 36.2950 0.0000 0.0000
# 5 0.0000 0.0000 0.0000 0.0000 25.2135 0.0000
# 6 0.0000 0.0000 0.0000 0.0000 0.0000 29.1704
#
#
#
# Elastic Compliance Matrix: (Units=1/GPa)
#
#
# Indices 1 2 3 4 5 6 
#
# 1 0.038785 -0.004854 -0.014188 0.000000 0.000000 0.000000
# 2 -0.004854 0.009758 -0.007287 0.000000 0.000000 0.000000
# 3 -0.014188 -0.007287 0.032361 0.000000 0.000000 0.000000
# 4 0.000000 0.000000 0.000000 0.027552 0.000000 0.000000
# 5 0.000000 0.000000 0.000000 0.000000 0.039661 0.000000
# 6 0.000000 0.000000 0.000000 0.000000 0.000000 0.034281
#
#
# Mechanical properties :
#
#
# Convention : Reuss Voigt Hill
#
# Bulk Modulus (GPa) = 35.40586 55.80583 45.60584
# Shear Modulus (GPa) = 20.45224 27.27909 23.86566
#
# Velocity S-wave (km/s) = 3.34599 3.86429 3.61444
# Velocity P-wave (km/s) = 5.85738 7.10343 6.51028
#
# Compressibility (1/GPa) = 0.02824391
#
# Stress axis : x y z
#
# Youngs Moduli (GPa) = 25.78322 102.48226 30.90175
#
# Poissons Ratio (x) = 0.49744 0.43845
# Poissons Ratio (y) = 0.12515 0.22519
# Poissons Ratio (z) = 0.36582 0.74682
#
# Static dielectric constant tensor:
#      x y z
#    x 1.666570 0.000000 0.000000 
#    y 0.000000 3.631600 0.000000 
#    z 0.000000 0.000000 3.495690 
# 
# 
# High freq. dielectric constant tensor:
#      x y z
#    x 1.691590 0.000000 0.000000 
#    y 0.000000 1.721000 0.000000 
#    z 0.000000 0.000000 1.708080 
# 
# From -- ./inp_files/7039.got.cif
#   From: 2010.03.12/outbox.cif.g09.slc.cpg/sg57_4_cif.got.tgz:7039.got - 2010.04.16 15:48:40.
