data_PCOD8232340
_publ_section_title
;
Structure prediction by ZEFSAII (Michael W. Deem and Ramdas Pophale) SiO2 
 PCOD8232340
Probable space group: P B C M
;
_chemical_formula_sum "Si O2"
_cell_formula_units_Z 56
_cell_length_a 12.126107
_cell_length_b 15.834736
_cell_length_c 15.902136
_cell_angle_alpha 90.000000
_cell_angle_beta 90.000000
_cell_angle_gamma 90.000000
_cell_volume 3053.428020
_symmetry_space_group_name_H-M "P B C M"
_symmetry_group_IT_number 57
_symmetry_cell_setting 'orthorhombic'
loop_
_space_group_symop_operation_xyz
x,y,z
-x,-y,1/2+z
x,1/2-y,-z
-x,1/2+y,1/2-z
-x,-y,-z
x,y,1/2-z
-x,1/2+y,z
x,1/2-y,1/2+z
loop_
_atom_site_type_symbol
_atom_site_label
_atom_site_fract_x
_atom_site_fract_y
_atom_site_fract_z
Si Si1 0.340304 0.162348 0.046676
Si Si2 0.144895 0.401218 0.652410
Si Si3 0.623361 0.005030 0.469239
Si Si4 0.558117 0.366262 0.845822
Si Si5 0.949630 0.166230 0.042076
Si Si6 0.197303 0.919941 0.414769
Si Si7 0.234358 0.742252 0.343386
O O1 0.242735 0.154869 0.114120
O O2 0.454207 0.154013 0.096344
O O3 0.331689 0.250000 0.000000
O O4 0.327180 0.089906 0.974282
O O5 0.131272 0.378142 0.750000
O O6 0.169892 0.500201 0.643228
O O7 0.032940 0.378994 0.604340
O O8 0.500000 0.000000 0.500000
O O9 0.620651 0.047711 0.376711
O O10 0.695111 0.064598 0.529150
O O11 0.520369 0.380988 0.750000
O O12 0.639478 0.286827 0.854630
O O13 0.839744 0.193664 0.090232
O O14 0.004172 0.250000 0.000000
O O15 0.910814 0.100161 0.970984
O O16 0.227787 0.842455 0.354787
O O17 0.192577 0.719542 0.250000
#
# Coordination Sequence:
#
# PCOD8232340 Si02
#       7
#     8   8   8   8   8   8   8
#     4  10  22  37  59  79 110 151 194 225 274 340
#     4  11  22  38  56  79 114 150 190 234 283 332
#     4   9  19  34  56  80 108 147 182 225 274 339
#     4  10  20  35  56  83 115 143 180 234 287 330
#     4  10  20  35  59  82 111 146 190 230 279 340
#     4  10  20  35  56  84 111 145 190 232 277 339
#     4  10  20  33  56  88 114 141 183 237 288 327
#
# _framework density 18.340043000000001
#
# number of rings (size 3 to 8) (size 9 to 14) (size 15 to 20)
#    0.000    2.000    1.429    2.143    4.000    0.000 
#    0.000    2.143    0.000    0.000    0.000    0.000 
#    0.000    0.000    0.000    0.000    0.000    0.000 
#
# Total GULP energy -694289.752323 kJ/mol
# GULP energy per Si atom -12398.031291 kJ/mol
# Density = 1.829830 g / cm^3
# Si number density = 18.340043 Si / 1000 Ang^3
#
#
#
# Elastic Constant Matrix: (Units=GPa)
#
#
# Indices 1 2 3 4 5 6 
#
# 1 75.9719 26.3072 32.2328 0.0000 0.0000 0.0000
# 2 26.3072 86.7555 48.5378 0.0000 0.0000 0.0000
# 3 32.2328 48.5378 101.5352 0.0000 0.0000 0.0000
# 4 0.0000 0.0000 0.0000 26.4014 0.0000 0.0000
# 5 0.0000 0.0000 0.0000 0.0000 25.0656 0.0000
# 6 0.0000 0.0000 0.0000 0.0000 0.0000 23.4086
#
#
#
# Elastic Compliance Matrix: (Units=1/GPa)
#
#
# Indices 1 2 3 4 5 6 
#
# 1 0.015657 -0.002685 -0.003687 0.000000 0.000000 0.000000
# 2 -0.002685 0.016195 -0.006890 0.000000 0.000000 0.000000
# 3 -0.003687 -0.006890 0.014313 0.000000 0.000000 0.000000
# 4 0.000000 0.000000 0.000000 0.037877 0.000000 0.000000
# 5 0.000000 0.000000 0.000000 0.000000 0.039895 0.000000
# 6 0.000000 0.000000 0.000000 0.000000 0.000000 0.042719
#
#
# Mechanical properties :
#
#
# Convention : Reuss Voigt Hill
#
# Bulk Modulus (GPa) = 50.91132 53.15757 52.03445
# Shear Modulus (GPa) = 25.03423 25.45411 25.24417
#
# Velocity S-wave (km/s) = 3.69860 3.72949 3.71408
# Velocity P-wave (km/s) = 6.78671 6.89876 6.84296
#
# Compressibility (1/GPa) = 0.01964200
#
# Stress axis : x y z
#
# Youngs Moduli (GPa) = 63.87041 61.74571 69.86793
#
# Poissons Ratio (x) = 0.16579 0.25759
# Poissons Ratio (y) = 0.17149 0.48137
# Poissons Ratio (z) = 0.23547 0.42541
#
# Static dielectric constant tensor:
#      x y z
#    x 3.325320 0.000000 0.000000 
#    y 0.000000 3.548910 0.000000 
#    z 0.000000 0.000000 3.437100 
# 
# 
# High freq. dielectric constant tensor:
#      x y z
#    x 1.712910 0.000000 0.000000 
#    y 0.000000 1.715330 0.000000 
#    z 0.000000 0.000000 1.707630 
# 
# From -- ./inp_files/17733.got.cif
#   From: 2010.03.12/outbox.cif.g09.slc.cpg/sg57_9_cif.got.tgz:17733.got - 2010.04.16 15:48:40.
