data_PCOD8232633
_publ_section_title
;
Structure prediction by ZEFSAII (Michael W. Deem and Ramdas Pophale) SiO2 
 PCOD8232633
Probable space group: P B C M
;
_chemical_formula_sum "Si O2"
_cell_formula_units_Z 56
_cell_length_a 19.328765
_cell_length_b 18.120985
_cell_length_c 9.426167
_cell_angle_alpha 90.000000
_cell_angle_beta 90.000000
_cell_angle_gamma 90.000000
_cell_volume 3301.574006
_symmetry_space_group_name_H-M "P B C M"
_symmetry_group_IT_number 57
_symmetry_cell_setting 'orthorhombic'
loop_
_space_group_symop_operation_xyz
x,y,z
-x,-y,1/2+z
x,1/2-y,-z
-x,1/2+y,1/2-z
-x,-y,-z
x,y,1/2-z
-x,1/2+y,z
x,1/2-y,1/2+z
loop_
_atom_site_type_symbol
_atom_site_label
_atom_site_fract_x
_atom_site_fract_y
_atom_site_fract_z
Si Si1 0.867986 0.813189 0.406369
Si Si2 0.350494 0.473229 0.083611
Si Si3 0.191377 0.032162 0.908592
Si Si4 0.453500 0.942494 0.416996
Si Si5 0.564362 0.673060 0.585476
Si Si6 0.977324 0.315341 0.409015
Si Si7 0.066633 0.974038 0.086736
O O1 0.833480 0.750000 0.500000
O O2 0.875109 0.780454 0.250000
O O3 0.816387 0.880527 0.410048
O O4 0.944755 0.835345 0.463095
O O5 0.366609 0.485608 0.250000
O O6 0.269942 0.480914 0.047990
O O7 0.381139 0.392090 0.039979
O O8 0.379698 0.542723 0.991645
O O9 0.174903 0.001532 0.750000
O O10 0.139012 0.998867 0.021880
O O11 0.449958 0.961114 0.250000
O O12 0.486604 0.860580 0.438920
O O13 0.500000 0.000000 0.500000
O O14 0.574344 0.750000 0.500000
O O15 0.575637 0.692906 0.750000
O O16 0.943827 0.250000 0.500000
O O17 0.980327 0.285965 0.250000
O O18 0.929170 0.386061 0.421798
O O19 0.059659 0.000981 0.250000
O O20 0.000000 0.000000 0.000000
#
# Coordination Sequence:
#
# PCOD8232633 Si02
#       7
#     8   8   8   8   8   8   8
#     4   9  17  30  45  65  95 128 162 200 247 299
#     4   9  19  34  51  72 103 139 172 205 251 302
#     4  10  20  35  51  71 102 137 169 209 258 306
#     4   9  17  31  51  74 101 131 168 206 243 286
#     4   9  18  31  49  77 106 135 166 203 245 289
#     4   9  18  32  49  70  94 121 157 204 256 305
#     4  11  21  34  52  75 100 128 170 219 262 307
#
# _framework density 16.961607000000001
#
# number of rings (size 3 to 8) (size 9 to 14) (size 15 to 20)
#    0.000    2.571    1.429    1.714    0.000    5.714 
#    0.000    0.000    0.000    0.857    0.000    0.000 
#    0.000    0.000    0.000    0.000    0.000    0.000 
#
# Total GULP energy -693783.406697 kJ/mol
# GULP energy per Si atom -12388.989405 kJ/mol
# Density = 1.692300 g / cm^3
# Si number density = 16.961607 Si / 1000 Ang^3
#
#
#
# Elastic Constant Matrix: (Units=GPa)
#
#
# Indices 1 2 3 4 5 6 
#
# 1 102.7554 35.1331 57.1616 0.0000 0.0000 0.0000
# 2 35.1331 51.3965 44.2956 0.0000 0.0000 0.0000
# 3 57.1616 44.2956 100.1894 0.0000 0.0000 0.0000
# 4 0.0000 0.0000 0.0000 33.5134 0.0000 0.0000
# 5 0.0000 0.0000 0.0000 0.0000 25.8439 0.0000
# 6 0.0000 0.0000 0.0000 0.0000 0.0000 18.2565
#
#
#
# Elastic Compliance Matrix: (Units=1/GPa)
#
#
# Indices 1 2 3 4 5 6 
#
# 1 0.014906 -0.004620 -0.006462 0.000000 0.000000 0.000000
# 2 -0.004620 0.032866 -0.011895 0.000000 0.000000 0.000000
# 3 -0.006462 -0.011895 0.018927 0.000000 0.000000 0.000000
# 4 0.000000 0.000000 0.000000 0.029839 0.000000 0.000000
# 5 0.000000 0.000000 0.000000 0.000000 0.038694 0.000000
# 6 0.000000 0.000000 0.000000 0.000000 0.000000 0.054775
#
#
# Mechanical properties :
#
#
# Convention : Reuss Voigt Hill
#
# Bulk Modulus (GPa) = 48.20349 58.61356 53.40852
# Shear Modulus (GPa) = 20.58665 23.37281 21.97973
#
# Velocity S-wave (km/s) = 3.48763 3.71615 3.60370
# Velocity P-wave (km/s) = 6.68573 7.28317 6.99084
#
# Compressibility (1/GPa) = 0.02074538
#
# Stress axis : x y z
#
# Youngs Moduli (GPa) = 67.08608 30.42632 52.83563
#
# Poissons Ratio (x) = 0.14058 0.34141
# Poissons Ratio (y) = 0.30997 0.62846
# Poissons Ratio (z) = 0.43349 0.36191
#
# Static dielectric constant tensor:
#      x y z
#    x 3.501500 0.000000 0.000000 
#    y 0.000000 3.269960 0.000000 
#    z 0.000000 0.000000 3.452250 
# 
# 
# High freq. dielectric constant tensor:
#      x y z
#    x 1.636280 0.000000 0.000000 
#    y 0.000000 1.637340 0.000000 
#    z 0.000000 0.000000 1.661840 
# 
# From -- ./inp_files/8269.got.cif
#   From: 2010.03.12/outbox.cif.g09.slc.cpg/sg57_5_cif.got.tgz:8269.got - 2010.04.16 15:48:40.
