data_PCOD8232899
_publ_section_title
;
Structure prediction by ZEFSAII (Michael W. Deem and Ramdas Pophale) SiO2 
 PCOD8232899
Probable space group: P B C M
;
_chemical_formula_sum "Si O2"
_cell_formula_units_Z 48
_cell_length_a 19.681512
_cell_length_b 5.095217
_cell_length_c 20.505587
_cell_angle_alpha 90.000000
_cell_angle_beta 90.000000
_cell_angle_gamma 90.000000
_cell_volume 2056.332551
_symmetry_space_group_name_H-M "P B C M"
_symmetry_group_IT_number 57
_symmetry_cell_setting 'orthorhombic'
loop_
_space_group_symop_operation_xyz
x,y,z
-x,-y,1/2+z
x,1/2-y,-z
-x,1/2+y,1/2-z
-x,-y,-z
x,y,1/2-z
-x,1/2+y,z
x,1/2-y,1/2+z
loop_
_atom_site_type_symbol
_atom_site_label
_atom_site_fract_x
_atom_site_fract_y
_atom_site_fract_z
Si Si1 0.545293 0.779056 0.888920
Si Si2 0.964167 0.811076 0.674280
Si Si3 0.274152 0.840574 0.675865
Si Si4 0.770427 0.750000 0.000000
Si Si5 0.190080 0.345116 0.860971
Si Si6 0.349115 0.559495 0.052885
Si Si7 0.541716 0.669003 0.750000
O O1 0.517915 0.073848 0.898494
O O2 0.604404 0.702794 0.939582
O O3 0.580126 0.741429 0.817185
O O4 0.982499 0.814888 0.750000
O O5 0.883950 0.792079 0.666296
O O6 0.002694 0.566502 0.640728
O O7 0.303275 0.826234 0.750000
O O8 0.216511 0.622605 0.665443
O O9 0.336047 0.800261 0.623545
O O10 0.241240 0.124876 0.664982
O O11 0.815678 0.849090 0.939736
O O12 0.723865 0.511126 0.976091
O O13 0.385330 0.750000 0.000000
O O14 0.475271 0.860128 0.750000
#
# Coordination Sequence:
#
# PCOD8232899 Si02
#       7
#     8   8   8   4   8   8   4
#     4  10  23  39  62  89 119 159 200 254 314 381
#     4  10  20  35  58  91 126 160 202 256 309 358
#     4  11  23  39  65  95 120 163 218 264 310 366
#     4  10  24  44  62  90 124 176 206 260 310 380
#     4  11  22  41  65  89 131 168 208 255 316 368
#     4  11  24  42  64  88 129 160 209 258 319 372
#     4   8  16  36  56  82 116 150 190 236 304 364
#
# _framework density 23.342528000000001
#
# number of rings (size 3 to 8) (size 9 to 14) (size 15 to 20)
#    0.000    1.667    1.667    2.500    3.500    2.000 
#    0.000    0.833    0.000    0.000    0.000    0.000 
#    0.000    0.000    0.000    0.000    0.000    0.000 
#
# Total GULP energy -595066.308572 kJ/mol
# GULP energy per Si atom -12397.214762 kJ/mol
# Density = 2.328940 g / cm^3
# Si number density = 23.342528 Si / 1000 Ang^3
#
#
#
# Elastic Constant Matrix: (Units=GPa)
#
#
# Indices 1 2 3 4 5 6 
#
# 1 42.7955 -4.2380 4.5983 0.0000 0.0000 0.0000
# 2 -4.2380 81.9775 19.7055 0.0000 0.0000 0.0000
# 3 4.5983 19.7055 117.7391 0.0000 0.0000 0.0000
# 4 0.0000 0.0000 0.0000 26.2591 0.0000 0.0000
# 5 0.0000 0.0000 0.0000 0.0000 24.2637 0.0000
# 6 0.0000 0.0000 0.0000 0.0000 0.0000 22.5906
#
#
#
# Elastic Compliance Matrix: (Units=1/GPa)
#
#
# Indices 1 2 3 4 5 6 
#
# 1 0.023642 0.001505 -0.001175 0.000000 0.000000 0.000000
# 2 0.001505 0.012806 -0.002202 0.000000 0.000000 0.000000
# 3 -0.001175 -0.002202 0.008908 0.000000 0.000000 0.000000
# 4 0.000000 0.000000 0.000000 0.038082 0.000000 0.000000
# 5 0.000000 0.000000 0.000000 0.000000 0.041214 0.000000
# 6 0.000000 0.000000 0.000000 0.000000 0.000000 0.044266
#
#
# Mechanical properties :
#
#
# Convention : Reuss Voigt Hill
#
# Bulk Modulus (GPa) = 24.03226 31.40485 27.71856
# Shear Modulus (GPa) = 26.80496 29.45245 28.12871
#
# Velocity S-wave (km/s) = 3.39238 3.55597 3.47514
# Velocity P-wave (km/s) = 5.06578 5.50845 5.29175
#
# Compressibility (1/GPa) = 0.04161073
#
# Stress axis : x y z
#
# Youngs Moduli (GPa) = 42.29715 78.09108 112.26132
#
# Poissons Ratio (x) = -0.11751 0.13193
# Poissons Ratio (y) = -0.06365 0.24720
# Poissons Ratio (z) = 0.04971 0.17195
#
# Static dielectric constant tensor:
#      x y z
#    x 3.680770 0.000000 0.000000 
#    y 0.000000 4.353100 0.000000 
#    z 0.000000 0.000000 4.664310 
# 
# 
# High freq. dielectric constant tensor:
#      x y z
#    x 1.886460 0.000000 0.000000 
#    y 0.000000 1.938250 0.000000 
#    z 0.000000 0.000000 1.931920 
# 
# From -- ./inp_files/25718.got.cif
#   From: 2010.03.12/outbox.cif.g09.slc.cpg/sg57_13_cif.got.tgz:25718.got - 2010.04.16 15:48:40.
