data_PCOD8232216
_publ_section_title
;
Structure prediction by ZEFSAII (Michael W. Deem and Ramdas Pophale) SiO2 
 PCOD8232216
Probable space group: P B C M
;
_chemical_formula_sum "Si O2"
_cell_formula_units_Z 48
_cell_length_a 23.275520
_cell_length_b 13.679502
_cell_length_c 8.870624
_cell_angle_alpha 90.000000
_cell_angle_beta 90.000000
_cell_angle_gamma 90.000000
_cell_volume 2824.384704
_symmetry_space_group_name_H-M "P B C M"
_symmetry_group_IT_number 57
_symmetry_cell_setting 'orthorhombic'
loop_
_space_group_symop_operation_xyz
x,y,z
-x,-y,1/2+z
x,1/2-y,-z
-x,1/2+y,1/2-z
-x,-y,-z
x,y,1/2-z
-x,1/2+y,z
x,1/2-y,1/2+z
loop_
_atom_site_type_symbol
_atom_site_label
_atom_site_fract_x
_atom_site_fract_y
_atom_site_fract_z
Si Si1 0.480358 0.850203 0.073374
Si Si2 0.816837 0.647781 0.925695
Si Si3 0.415284 0.044708 0.426557
Si Si4 0.911697 0.975093 0.573494
Si Si5 0.684138 0.647684 0.925668
Si Si6 0.975788 0.145317 0.426492
O O1 0.489470 0.835653 0.250000
O O2 0.433341 0.933475 0.038015
O O3 0.457686 0.750000 0.000000
O O4 0.540984 0.879127 0.001274
O O5 0.831269 0.654906 0.750000
O O6 0.750488 0.623244 0.956247
O O7 0.834613 0.750000 0.000000
O O8 0.852700 0.561370 0.000948
O O9 0.413889 0.065732 0.250000
O O10 0.352667 0.061436 0.498181
O O11 0.903148 0.990420 0.750000
O O12 0.961529 0.897436 0.536751
O O13 0.926663 0.078384 0.499038
O O14 0.670200 0.653888 0.750000
O O15 0.666565 0.750000 0.000000
O O16 0.971104 0.250000 0.500000
O O17 0.964471 0.152508 0.250000
#
# Coordination Sequence:
#
# PCOD8232216 Si02
#       6
#     8   8   8   8   8   8
#     4  10  20  33  50  72  98 128 160 196 239 286
#     4  10  20  33  50  73 100 130 163 200 243 290
#     4  10  20  33  50  72  98 128 161 198 240 286
#     4  10  20  33  51  74 100 131 164 201 244 289
#     4  10  20  33  50  72  99 130 162 199 241 286
#     4  10  20  33  50  73 101 131 164 201 243 291
#
# _framework density 16.994852999999999
#
# number of rings (size 3 to 8) (size 9 to 14) (size 15 to 20)
#    0.000    2.000    0.000    4.000    0.000    7.333 
#    0.000    0.000    0.000    1.000    0.000    2.333 
#    0.000    0.000    0.000    0.000    0.000    0.000 
#
# Total GULP energy -595449.219661 kJ/mol
# GULP energy per Si atom -12405.192076 kJ/mol
# Density = 1.695617 g / cm^3
# Si number density = 16.994853 Si / 1000 Ang^3
#
#
#
# Elastic Constant Matrix: (Units=GPa)
#
#
# Indices 1 2 3 4 5 6 
#
# 1 84.2298 57.4095 57.0388 0.0000 0.0000 0.0000
# 2 57.4095 129.3083 70.3772 0.0000 0.0000 0.0000
# 3 57.0388 70.3772 116.1905 0.0000 0.0000 0.0000
# 4 0.0000 0.0000 0.0000 35.0242 0.0000 0.0000
# 5 0.0000 0.0000 0.0000 0.0000 31.3394 0.0000
# 6 0.0000 0.0000 0.0000 0.0000 0.0000 28.2065
#
#
#
# Elastic Compliance Matrix: (Units=1/GPa)
#
#
# Indices 1 2 3 4 5 6 
#
# 1 0.019920 -0.005254 -0.006597 0.000000 0.000000 0.000000
# 2 -0.005254 0.012922 -0.005248 0.000000 0.000000 0.000000
# 3 -0.006597 -0.005248 0.015024 0.000000 0.000000 0.000000
# 4 0.000000 0.000000 0.000000 0.028552 0.000000 0.000000
# 5 0.000000 0.000000 0.000000 0.000000 0.031909 0.000000
# 6 0.000000 0.000000 0.000000 0.000000 0.000000 0.035453
#
#
# Mechanical properties :
#
#
# Convention : Reuss Voigt Hill
#
# Bulk Modulus (GPa) = 73.15697 77.70883 75.43290
# Shear Modulus (GPa) = 27.39229 28.57423 27.98326
#
# Velocity S-wave (km/s) = 4.01908 4.10487 4.06220
# Velocity P-wave (km/s) = 8.04222 8.26382 8.15378
#
# Compressibility (1/GPa) = 0.01366924
#
# Stress axis : x y z
#
# Youngs Moduli (GPa) = 50.19978 77.38600 66.56146
#
# Poissons Ratio (x) = 0.40657 0.43910
# Poissons Ratio (y) = 0.26374 0.34931
# Poissons Ratio (z) = 0.33116 0.40612
#
# Static dielectric constant tensor:
#      x y z
#    x 3.108930 0.000000 0.000000 
#    y 0.000000 3.115610 0.000000 
#    z 0.000000 0.000000 3.360480 
# 
# 
# High freq. dielectric constant tensor:
#      x y z
#    x 1.643340 0.000000 0.000000 
#    y 0.000000 1.647180 0.000000 
#    z 0.000000 0.000000 1.678660 
# 
# From -- ./inp_files/7870.got.cif
#   From: 2010.03.12/outbox.cif.g09.slc.cpg/sg57_4_cif.got.tgz:7870.got - 2010.04.16 15:48:40.
