data_PCOD8232992
_publ_section_title
;
Structure prediction by ZEFSAII (Michael W. Deem and Ramdas Pophale) SiO2 
 PCOD8232992
Probable space group: P B C M
;
_chemical_formula_sum "Si O2"
_cell_formula_units_Z 64
_cell_length_a 11.978309
_cell_length_b 31.717671
_cell_length_c 8.945795
_cell_angle_alpha 90.000000
_cell_angle_beta 90.000000
_cell_angle_gamma 90.000000
_cell_volume 3398.722792
_symmetry_space_group_name_H-M "P B C M"
_symmetry_group_IT_number 57
_symmetry_cell_setting 'orthorhombic'
loop_
_space_group_symop_operation_xyz
x,y,z
-x,-y,1/2+z
x,1/2-y,-z
-x,1/2+y,1/2-z
-x,-y,-z
x,y,1/2-z
-x,1/2+y,z
x,1/2-y,1/2+z
loop_
_atom_site_type_symbol
_atom_site_label
_atom_site_fract_x
_atom_site_fract_y
_atom_site_fract_z
Si Si1 0.642929 0.103491 0.577445
Si Si2 0.010897 0.206666 0.925801
Si Si3 0.757353 0.559274 0.580211
Si Si4 0.733240 0.707780 0.573860
Si Si5 0.016460 0.046082 0.427672
Si Si6 0.592669 0.868938 0.426857
Si Si7 0.606389 0.018478 0.418435
Si Si8 0.889795 0.377913 0.076093
O O1 0.622854 0.092271 0.750000
O O2 0.535660 0.129595 0.516430
O O3 0.653077 0.060181 0.491417
O O4 0.757080 0.129126 0.553368
O O5 0.994879 0.211923 0.750000
O O6 0.139061 0.199035 0.972036
O O7 0.945349 0.165300 0.984414
O O8 0.965585 0.250000 0.000000
O O9 0.793119 0.571567 0.750000
O O10 0.862357 0.563933 0.471530
O O11 0.658555 0.589405 0.520884
O O12 0.712103 0.512151 0.574714
O O13 0.687749 0.750000 0.500000
O O14 0.721542 0.711664 0.750000
O O15 0.655856 0.671226 0.504956
O O16 0.004901 0.041680 0.250000
O O17 0.927770 0.080585 0.485947
O O18 0.000000 0.000000 0.500000
O O19 0.596070 0.865676 0.250000
O O20 0.568933 0.027319 0.250000
O O21 0.500000 0.000000 0.500000
O O22 0.919857 0.385159 0.250000
#
# Coordination Sequence:
#
# PCOD8232992 Si02
#       8
#     8   8   8   8   8   8   8   8
#     4  10  20  36  56  79 107 143 188 227 269 327
#     4   9  18  34  57  84 110 143 183 230 284 339
#     4  10  20  36  57  79 106 140 181 225 271 322
#     4   9  17  31  53  76 104 136 171 214 267 325
#     4  12  25  39  56  80 112 148 188 233 283 338
#     4   9  17  33  55  78 104 138 174 214 265 320
#     4  11  21  34  54  78 108 144 182 225 270 320
#     4  10  21  38  60  83 112 149 191 237 285 340
#
# _framework density 18.830603
#
# number of rings (size 3 to 8) (size 9 to 14) (size 15 to 20)
#    0.000    2.000    1.250    3.000    0.000    6.000 
#    0.000    4.375    0.000    0.000    0.000    0.000 
#    0.000    0.000    0.000    0.000    0.000    0.000 
#
# Total GULP energy -793555.624486 kJ/mol
# GULP energy per Si atom -12399.306633 kJ/mol
# Density = 1.878774 g / cm^3
# Si number density = 18.830603 Si / 1000 Ang^3
#
#
#
# Elastic Constant Matrix: (Units=GPa)
#
#
# Indices 1 2 3 4 5 6 
#
# 1 118.2560 63.2253 35.3803 0.0000 0.0000 0.0000
# 2 63.2253 149.9013 38.4374 0.0000 0.0000 0.0000
# 3 35.3803 38.4374 65.1271 0.0000 0.0000 0.0000
# 4 0.0000 0.0000 0.0000 29.7303 0.0000 0.0000
# 5 0.0000 0.0000 0.0000 0.0000 22.7686 0.0000
# 6 0.0000 0.0000 0.0000 0.0000 0.0000 31.3009
#
#
#
# Elastic Compliance Matrix: (Units=1/GPa)
#
#
# Indices 1 2 3 4 5 6 
#
# 1 0.011773 -0.003919 -0.004083 0.000000 0.000000 0.000000
# 2 -0.003919 0.009165 -0.003280 0.000000 0.000000 0.000000
# 3 -0.004083 -0.003280 0.019509 0.000000 0.000000 0.000000
# 4 0.000000 0.000000 0.000000 0.033636 0.000000 0.000000
# 5 0.000000 0.000000 0.000000 0.000000 0.043920 0.000000
# 6 0.000000 0.000000 0.000000 0.000000 0.000000 0.031948
#
#
# Mechanical properties :
#
#
# Convention : Reuss Voigt Hill
#
# Bulk Modulus (GPa) = 55.91944 67.48560 61.70252
# Shear Modulus (GPa) = 28.01519 29.84274 28.92896
#
# Velocity S-wave (km/s) = 3.86132 3.98527 3.92379
# Velocity P-wave (km/s) = 7.04558 7.55596 7.30523
#
# Compressibility (1/GPa) = 0.01788287
#
# Stress axis : x y z
#
# Youngs Moduli (GPa) = 84.94132 109.11105 51.25944
#
# Poissons Ratio (x) = 0.42756 0.20929
# Poissons Ratio (y) = 0.33285 0.16815
# Poissons Ratio (z) = 0.34680 0.35792
#
# Static dielectric constant tensor:
#      x y z
#    x 3.597920 0.000000 0.000000 
#    y 0.000000 3.472350 0.000000 
#    z 0.000000 0.000000 3.310080 
# 
# 
# High freq. dielectric constant tensor:
#      x y z
#    x 1.736670 0.000000 0.000000 
#    y 0.000000 1.729600 0.000000 
#    z 0.000000 0.000000 1.711080 
# 
# From -- ./inp_files/3810.got.cif
#   From: 2010.03.12/outbox.cif.g09.slc.cpg/sg57_2_cif.got.tgz:3810.got - 2010.04.16 15:48:40.
