data_PCOD8232058
_publ_section_title
;
Structure prediction by ZEFSAII (Michael W. Deem and Ramdas Pophale) SiO2 
 PCOD8232058
Probable space group: P B C M
;
_chemical_formula_sum "Si O2"
_cell_formula_units_Z 56
_cell_length_a 15.882419
_cell_length_b 11.992606
_cell_length_c 14.122174
_cell_angle_alpha 90.000000
_cell_angle_beta 90.000000
_cell_angle_gamma 90.000000
_cell_volume 2689.872984
_symmetry_space_group_name_H-M "P B C M"
_symmetry_group_IT_number 57
_symmetry_cell_setting 'orthorhombic'
loop_
_space_group_symop_operation_xyz
x,y,z
-x,-y,1/2+z
x,1/2-y,-z
-x,1/2+y,1/2-z
-x,-y,-z
x,y,1/2-z
-x,1/2+y,z
x,1/2-y,1/2+z
loop_
_atom_site_type_symbol
_atom_site_label
_atom_site_fract_x
_atom_site_fract_y
_atom_site_fract_z
Si Si1 0.834652 0.744129 0.360640
Si Si2 0.915248 0.981974 0.860966
Si Si3 0.619695 0.019850 0.531521
Si Si4 0.107603 0.480497 0.139276
Si Si5 0.462634 0.419664 0.359460
Si Si6 0.198807 0.618603 0.991005
Si Si7 0.353821 0.298292 0.642662
O O1 0.849885 0.740850 0.250000
O O2 0.878414 0.633681 0.402941
O O3 0.877584 0.855757 0.401150
O O4 0.736880 0.748921 0.388421
O O5 0.899603 0.995755 0.750000
O O6 0.867477 0.083781 0.910442
O O7 0.013246 0.984648 0.886492
O O8 0.589316 0.010298 0.422013
O O9 0.620240 0.895306 0.572425
O O10 0.555715 0.091791 0.595807
O O11 0.709016 0.078599 0.539062
O O12 0.126894 0.487226 0.250000
O O13 0.172556 0.564766 0.090740
O O14 0.465362 0.461032 0.250000
O O15 0.421578 0.298642 0.365842
O O16 0.198055 0.750000 0.000000
O O17 0.349045 0.344668 0.750000
#
# Coordination Sequence:
#
# PCOD8232058 Si02
#       7
#     8   8   8   8   8   8   8
#     4   9  18  36  66  97 122 161 218 266 320 383
#     4  10  22  42  66  93 128 169 216 271 322 377
#     4  11  23  41  63  89 128 169 211 264 326 392
#     4  10  23  42  65  94 129 170 217 273 327 379
#     4  10  23  40  64  94 123 160 213 273 328 384
#     4  12  27  42  61  94 133 175 218 258 320 398
#     4  10  19  37  65  94 124 159 210 269 325 388
#
# _framework density 20.818828
#
# number of rings (size 3 to 8) (size 9 to 14) (size 15 to 20)
#    0.000    1.714    1.429    2.143    2.000    5.714 
#    0.000    0.000    0.000    0.000    0.000    0.000 
#    0.000    0.000    0.000    0.000    0.000    0.000 
#
# Total GULP energy -694511.717372 kJ/mol
# GULP energy per Si atom -12401.994953 kJ/mol
# Density = 2.077144 g / cm^3
# Si number density = 20.818828 Si / 1000 Ang^3
#
#
#
# Elastic Constant Matrix: (Units=GPa)
#
#
# Indices 1 2 3 4 5 6 
#
# 1 124.7453 48.5191 44.6735 0.0000 0.0000 0.0000
# 2 48.5191 114.2967 38.1640 0.0000 0.0000 0.0000
# 3 44.6735 38.1640 108.3478 0.0000 0.0000 0.0000
# 4 0.0000 0.0000 0.0000 25.6342 0.0000 0.0000
# 5 0.0000 0.0000 0.0000 0.0000 13.0356 0.0000
# 6 0.0000 0.0000 0.0000 0.0000 0.0000 37.6610
#
#
#
# Elastic Compliance Matrix: (Units=1/GPa)
#
#
# Indices 1 2 3 4 5 6 
#
# 1 0.010453 -0.003398 -0.003113 0.000000 0.000000 0.000000
# 2 -0.003398 0.011020 -0.002481 0.000000 0.000000 0.000000
# 3 -0.003113 -0.002481 0.011387 0.000000 0.000000 0.000000
# 4 0.000000 0.000000 0.000000 0.039010 0.000000 0.000000
# 5 0.000000 0.000000 0.000000 0.000000 0.076713 0.000000
# 6 0.000000 0.000000 0.000000 0.000000 0.000000 0.026553
#
#
# Mechanical properties :
#
#
# Convention : Reuss Voigt Hill
#
# Bulk Modulus (GPa) = 67.21973 67.78924 67.50448
# Shear Modulus (GPa) = 25.24271 29.66838 27.45555
#
# Velocity S-wave (km/s) = 3.48587 3.77911 3.63545
# Velocity P-wave (km/s) = 6.96848 7.18849 7.07934
#
# Compressibility (1/GPa) = 0.01487658
#
# Stress axis : x y z
#
# Youngs Moduli (GPa) = 95.66918 90.74582 87.82074
#
# Poissons Ratio (x) = 0.30833 0.27339
# Poissons Ratio (y) = 0.32506 0.21785
# Poissons Ratio (z) = 0.29782 0.22511
#
# Static dielectric constant tensor:
#      x y z
#    x 3.888090 0.000000 0.000000 
#    y 0.000000 3.757420 0.000000 
#    z 0.000000 0.000000 3.957900 
# 
# 
# High freq. dielectric constant tensor:
#      x y z
#    x 1.825140 0.000000 0.000000 
#    y 0.000000 1.804190 0.000000 
#    z 0.000000 0.000000 1.830130 
# 
# From -- ./inp_files/18545.got.cif
#   From: 2010.03.12/outbox.cif.g09.slc.cpg/sg57_10_cif.got.tgz:18545.got - 2010.04.16 15:48:40.
