data_PCOD8232724
_publ_section_title
;
Structure prediction by ZEFSAII (Michael W. Deem and Ramdas Pophale) SiO2 
 PCOD8232724
Probable space group: P B C M
;
_chemical_formula_sum "Si O2"
_cell_formula_units_Z 56
_cell_length_a 21.437114
_cell_length_b 14.390364
_cell_length_c 9.440341
_cell_angle_alpha 90.000000
_cell_angle_beta 90.000000
_cell_angle_gamma 90.000000
_cell_volume 2912.230721
_symmetry_space_group_name_H-M "P B C M"
_symmetry_group_IT_number 57
_symmetry_cell_setting 'orthorhombic'
loop_
_space_group_symop_operation_xyz
x,y,z
-x,-y,1/2+z
x,1/2-y,-z
-x,1/2+y,1/2-z
-x,-y,-z
x,y,1/2-z
-x,1/2+y,z
x,1/2-y,1/2+z
loop_
_atom_site_type_symbol
_atom_site_label
_atom_site_fract_x
_atom_site_fract_y
_atom_site_fract_z
Si Si1 0.779005 0.468452 0.414005
Si Si2 0.980322 0.847285 0.917932
Si Si3 0.377665 0.172786 0.097146
Si Si4 0.666394 0.155613 0.582823
Si Si5 0.767802 0.830243 0.906144
Si Si6 0.919852 0.039808 0.587762
Si Si7 0.562778 0.012895 0.914612
O O1 0.761662 0.483815 0.250000
O O2 0.726486 0.400717 0.477710
O O3 0.776471 0.570796 0.484196
O O4 0.848365 0.428966 0.435154
O O5 0.988823 0.826353 0.750000
O O6 0.927955 0.928235 0.942743
O O7 0.964521 0.750000 0.000000
O O8 0.042980 0.893590 0.981091
O O9 0.409483 0.184464 0.250000
O O10 0.304777 0.191407 0.108902
O O11 0.390873 0.070048 0.040362
O O12 0.410317 0.250000 0.000000
O O13 0.664802 0.250000 0.500000
O O14 0.673451 0.173036 0.750000
O O15 0.601237 0.105079 0.546574
O O16 0.799712 0.828703 0.750000
O O17 0.800288 0.750000 0.000000
O O18 0.940923 0.059310 0.750000
O O19 0.545618 0.011815 0.750000
O O20 0.500000 0.000000 0.000000
#
# Coordination Sequence:
#
# PCOD8232724 Si02
#       7
#     8   8   8   8   8   8   8
#     4   9  17  34  58  79 107 144 179 218 270 326
#     4  10  20  35  55  79 111 148 185 227 274 323
#     4   9  17  31  51  74  99 129 164 202 252 309
#     4  10  21  39  59  79 107 143 180 222 269 318
#     4   9  16  29  50  75 102 133 166 205 256 315
#     4   9  19  35  56  82 108 143 188 229 271 322
#     4  10  21  37  56  77 104 139 176 216 265 317
#
# _framework density 19.229244999999999
#
# number of rings (size 3 to 8) (size 9 to 14) (size 15 to 20)
#    0.000    2.571    1.429    0.429    0.000    3.429 
#    0.000    6.429    0.000    0.000    0.000    0.000 
#    0.000    0.000    0.000    0.000    0.000    0.000 
#
# Total GULP energy -693928.696212 kJ/mol
# GULP energy per Si atom -12391.583861 kJ/mol
# Density = 1.918548 g / cm^3
# Si number density = 19.229245 Si / 1000 Ang^3
#
#
#
# Elastic Constant Matrix: (Units=GPa)
#
#
# Indices 1 2 3 4 5 6 
#
# 1 83.5151 31.0158 33.2330 0.0000 0.0000 0.0000
# 2 31.0158 125.9239 50.1738 0.0000 0.0000 0.0000
# 3 33.2330 50.1738 67.4634 0.0000 0.0000 0.0000
# 4 0.0000 0.0000 0.0000 38.0444 0.0000 0.0000
# 5 0.0000 0.0000 0.0000 0.0000 77.2952 0.0000
# 6 0.0000 0.0000 0.0000 0.0000 0.0000 12.4351
#
#
#
# Elastic Compliance Matrix: (Units=1/GPa)
#
#
# Indices 1 2 3 4 5 6 
#
# 1 0.014993 -0.001066 -0.006593 0.000000 0.000000 0.000000
# 2 -0.001066 0.011361 -0.007925 0.000000 0.000000 0.000000
# 3 -0.006593 -0.007925 0.023964 0.000000 0.000000 0.000000
# 4 0.000000 0.000000 0.000000 0.026285 0.000000 0.000000
# 5 0.000000 0.000000 0.000000 0.000000 0.012937 0.000000
# 6 0.000000 0.000000 0.000000 0.000000 0.000000 0.080417
#
#
# Mechanical properties :
#
#
# Convention : Reuss Voigt Hill
#
# Bulk Modulus (GPa) = 52.21436 56.19417 54.20427
# Shear Modulus (GPa) = 24.09523 36.38692 30.24107
#
# Velocity S-wave (km/s) = 3.54369 4.35474 3.96998
# Velocity P-wave (km/s) = 6.62995 7.38727 7.01883
#
# Compressibility (1/GPa) = 0.01915182
#
# Stress axis : x y z
#
# Youngs Moduli (GPa) = 66.69638 88.01761 41.72878
#
# Poissons Ratio (x) = 0.09383 0.27512
# Poissons Ratio (y) = 0.07110 0.33068
# Poissons Ratio (z) = 0.43973 0.69750
#
# Static dielectric constant tensor:
#      x y z
#    x 3.389910 0.000000 0.000000 
#    y 0.000000 3.716190 0.000000 
#    z 0.000000 0.000000 3.655490 
# 
# 
# High freq. dielectric constant tensor:
#      x y z
#    x 1.736970 0.000000 0.000000 
#    y 0.000000 1.753940 0.000000 
#    z 0.000000 0.000000 1.727180 
# 
# From -- ./inp_files/8173.got.cif
#   From: 2010.03.12/outbox.cif.g09.slc.cpg/sg57_5_cif.got.tgz:8173.got - 2010.04.16 15:48:40.
