data_PCOD8232586
_publ_section_title
;
Structure prediction by ZEFSAII (Michael W. Deem and Ramdas Pophale) SiO2 
 PCOD8232586
Probable space group: P B C M
;
_chemical_formula_sum "Si O2"
_cell_formula_units_Z 64
_cell_length_a 20.966218
_cell_length_b 18.474310
_cell_length_c 8.746976
_cell_angle_alpha 90.000000
_cell_angle_beta 90.000000
_cell_angle_gamma 90.000000
_cell_volume 3388.022290
_symmetry_space_group_name_H-M "P B C M"
_symmetry_group_IT_number 57
_symmetry_cell_setting 'orthorhombic'
loop_
_space_group_symop_operation_xyz
x,y,z
-x,-y,1/2+z
x,1/2-y,-z
-x,1/2+y,1/2-z
-x,-y,-z
x,y,1/2-z
-x,1/2+y,z
x,1/2-y,1/2+z
loop_
_atom_site_type_symbol
_atom_site_label
_atom_site_fract_x
_atom_site_fract_y
_atom_site_fract_z
Si Si1 0.125522 0.824446 0.570229
Si Si2 0.400291 0.175051 0.926273
Si Si3 0.498664 0.578710 0.430806
Si Si4 0.065312 0.526956 0.430260
Si Si5 0.752855 0.112729 0.572400
Si Si6 0.749499 0.674587 0.573938
Si Si7 0.615590 0.170614 0.931030
Si Si8 0.813411 0.962763 0.571791
O O1 0.098591 0.750000 0.500000
O O2 0.123341 0.817493 0.750000
O O3 0.081582 0.891349 0.513237
O O4 0.198465 0.836884 0.520108
O O5 0.422049 0.173357 0.750000
O O6 0.325502 0.163272 0.943800
O O7 0.422593 0.250000 0.000000
O O8 0.433900 0.112778 0.022695
O O9 0.500000 0.500000 0.500000
O O10 0.491552 0.575208 0.250000
O O11 0.441084 0.624016 0.500371
O O12 0.060104 0.524298 0.250000
O O13 0.120597 0.472993 0.483222
O O14 0.000000 0.500000 0.500000
O O15 0.764080 0.129217 0.750000
O O16 0.681547 0.132135 0.521135
O O17 0.764932 0.028372 0.534168
O O18 0.771314 0.750000 0.500000
O O19 0.770654 0.673267 0.750000
O O20 0.783045 0.611407 0.481999
O O21 0.607670 0.175044 0.750000
O O22 0.613300 0.250000 0.000000
O O23 0.828780 0.958672 0.750000
#
# Coordination Sequence:
#
# PCOD8232586 Si02
#       8
#     8   8   8   8   8   8   8   8
#     4  10  20  34  56  85 117 151 189 233 280 333
#     4  10  21  39  61  85 111 147 189 235 289 345
#     4  12  26  42  59  81 110 147 189 239 290 346
#     4  10  21  38  59  85 116 154 196 238 284 337
#     4   9  20  36  57  85 116 151 188 230 281 336
#     4  10  21  37  59  87 116 149 190 238 289 343
#     4  11  23  40  59  84 115 151 190 233 285 342
#     4  10  20  36  59  87 118 153 190 234 285 338
#
# _framework density 18.890076000000001
#
# number of rings (size 3 to 8) (size 9 to 14) (size 15 to 20)
#    0.000    1.750    0.000    4.125    1.750    5.500 
#    0.000    0.625    0.000    1.500    0.000    0.000 
#    0.000    0.000    0.000    0.000    0.000    0.000 
#
# Total GULP energy -793863.817401 kJ/mol
# GULP energy per Si atom -12404.122147 kJ/mol
# Density = 1.884708 g / cm^3
# Si number density = 18.890076 Si / 1000 Ang^3
#
#
#
# Elastic Constant Matrix: (Units=GPa)
#
#
# Indices 1 2 3 4 5 6 
#
# 1 79.0944 55.9712 38.7218 0.0000 0.0000 0.0000
# 2 55.9712 143.9625 46.3404 0.0000 0.0000 0.0000
# 3 38.7218 46.3404 89.2145 0.0000 0.0000 0.0000
# 4 0.0000 0.0000 0.0000 38.4586 0.0000 0.0000
# 5 0.0000 0.0000 0.0000 0.0000 33.2073 0.0000
# 6 0.0000 0.0000 0.0000 0.0000 0.0000 20.7549
#
#
#
# Elastic Compliance Matrix: (Units=1/GPa)
#
#
# Indices 1 2 3 4 5 6 
#
# 1 0.019394 -0.005800 -0.005405 0.000000 0.000000 0.000000
# 2 -0.005800 0.010076 -0.002716 0.000000 0.000000 0.000000
# 3 -0.005405 -0.002716 0.014965 0.000000 0.000000 0.000000
# 4 0.000000 0.000000 0.000000 0.026002 0.000000 0.000000
# 5 0.000000 0.000000 0.000000 0.000000 0.030114 0.000000
# 6 0.000000 0.000000 0.000000 0.000000 0.000000 0.048181
#
#
# Mechanical properties :
#
#
# Convention : Reuss Voigt Hill
#
# Bulk Modulus (GPa) = 60.26699 66.03760 63.15230
# Shear Modulus (GPa) = 27.45669 29.90001 28.67835
#
# Velocity S-wave (km/s) = 3.81661 3.98281 3.90060
# Velocity P-wave (km/s) = 7.16906 7.49568 7.33418
#
# Compressibility (1/GPa) = 0.01659283
#
# Stress axis : x y z
#
# Youngs Moduli (GPa) = 51.56324 99.24916 66.82050
#
# Poissons Ratio (x) = 0.57568 0.36114
# Poissons Ratio (y) = 0.29909 0.18149
# Poissons Ratio (z) = 0.27868 0.26956
#
# Static dielectric constant tensor:
#      x y z
#    x 3.478760 0.000000 0.000000 
#    y 0.000000 3.519470 0.000000 
#    z 0.000000 0.000000 3.626700 
# 
# 
# High freq. dielectric constant tensor:
#      x y z
#    x 1.726540 0.000000 0.000000 
#    y 0.000000 1.745340 0.000000 
#    z 0.000000 0.000000 1.749530 
# 
# From -- ./inp_files/8567.got.cif
#   From: 2010.03.12/outbox.cif.g09.slc.cpg/sg57_5_cif.got.tgz:8567.got - 2010.04.16 15:48:40.
