data_PCOD8232128
_publ_section_title
;
Structure prediction by ZEFSAII (Michael W. Deem and Ramdas Pophale) SiO2 
 PCOD8232128
Probable space group: P B C M
;
_chemical_formula_sum "Si O2"
_cell_formula_units_Z 56
_cell_length_a 20.488187
_cell_length_b 16.851754
_cell_length_c 8.979555
_cell_angle_alpha 90.000000
_cell_angle_beta 90.000000
_cell_angle_gamma 90.000000
_cell_volume 3100.298106
_symmetry_space_group_name_H-M "P B C M"
_symmetry_group_IT_number 57
_symmetry_cell_setting 'orthorhombic'
loop_
_space_group_symop_operation_xyz
x,y,z
-x,-y,1/2+z
x,1/2-y,-z
-x,1/2+y,1/2-z
-x,-y,-z
x,y,1/2-z
-x,1/2+y,z
x,1/2-y,1/2+z
loop_
_atom_site_type_symbol
_atom_site_label
_atom_site_fract_x
_atom_site_fract_y
_atom_site_fract_z
Si Si1 0.349161 0.170818 0.573794
Si Si2 0.928329 0.669541 0.574604
Si Si3 0.844979 0.513730 0.919640
Si Si4 0.528338 0.613450 0.085260
Si Si5 0.713270 0.522190 0.074674
Si Si6 0.029777 0.924654 0.578234
Si Si7 0.413084 0.560948 0.586241
O O1 0.320189 0.250000 0.500000
O O2 0.345253 0.176077 0.750000
O O3 0.424441 0.161554 0.524204
O O4 0.303582 0.100496 0.517178
O O5 0.900610 0.750000 0.500000
O O6 0.935266 0.681407 0.750000
O O7 0.880373 0.596382 0.535147
O O8 0.000688 0.652377 0.505746
O O9 0.820091 0.520976 0.750000
O O10 0.892187 0.436783 0.935445
O O11 0.785411 0.495339 0.029681
O O12 0.529946 0.651977 0.250000
O O13 0.552203 0.523781 0.094250
O O14 0.453784 0.617242 0.024945
O O15 0.708407 0.540720 0.250000
O O16 0.661656 0.452412 0.032190
O O17 0.008160 0.921612 0.750000
O O18 0.000000 0.000000 0.500000
O O19 0.413874 0.600262 0.750000
#
# Coordination Sequence:
#
# PCOD8232128 Si02
#       7
#     8   8   8   8   8   8   8
#     4  11  21  33  47  63  90 124 157 193 232 277
#     4  10  20  33  50  73  99 128 163 202 243 288
#     4   9  19  33  48  69  98 131 164 197 239 289
#     4   9  16  27  44  65  86 111 147 187 227 267
#     4  10  20  32  47  68  94 124 158 192 228 274
#     4   9  17  31  50  71  96 125 159 200 242 286
#     4   8  15  27  42  63  88 113 144 183 225 265
#
# _framework density 18.062778000000002
#
# number of rings (size 3 to 8) (size 9 to 14) (size 15 to 20)
#    0.000    2.571    0.000    4.714    0.000    8.000 
#    0.000    1.429    0.000    0.000    0.000    1.000 
#    0.000    2.286    0.000    0.000    0.000    0.000 
#
# Total GULP energy -694076.498951 kJ/mol
# GULP energy per Si atom -12394.223196 kJ/mol
# Density = 1.802167 g / cm^3
# Si number density = 18.062778 Si / 1000 Ang^3
#
#
#
# Elastic Constant Matrix: (Units=GPa)
#
#
# Indices 1 2 3 4 5 6 
#
# 1 101.6370 8.9928 42.3391 0.0000 0.0000 0.0000
# 2 8.9928 8.5120 4.5660 0.0000 0.0000 0.0000
# 3 42.3391 4.5660 109.5066 0.0000 0.0000 0.0000
# 4 0.0000 0.0000 0.0000 24.2926 0.0000 0.0000
# 5 0.0000 0.0000 0.0000 0.0000 32.6291 0.0000
# 6 0.0000 0.0000 0.0000 0.0000 0.0000 11.2959
#
#
#
# Elastic Compliance Matrix: (Units=1/GPa)
#
#
# Indices 1 2 3 4 5 6 
#
# 1 0.012660 -0.010995 -0.004436 0.000000 0.000000 0.000000
# 2 -0.010995 0.129719 -0.001158 0.000000 0.000000 0.000000
# 3 -0.004436 -0.001158 0.010895 0.000000 0.000000 0.000000
# 4 0.000000 0.000000 0.000000 0.041165 0.000000 0.000000
# 5 0.000000 0.000000 0.000000 0.000000 0.030647 0.000000
# 6 0.000000 0.000000 0.000000 0.000000 0.000000 0.088527
#
#
# Mechanical properties :
#
#
# Convention : Reuss Voigt Hill
#
# Bulk Modulus (GPa) = 8.32667 36.82793 22.57730
# Shear Modulus (GPa) = 12.92576 24.56070 18.74323
#
# Velocity S-wave (km/s) = 2.67798 3.69147 3.22479
# Velocity P-wave (km/s) = 3.76589 6.21308 5.13733
#
# Compressibility (1/GPa) = 0.12009598
#
# Stress axis : x y z
#
# Youngs Moduli (GPa) = 78.99000 7.70897 91.78217
#
# Poissons Ratio (x) = 0.08476 0.40717
# Poissons Ratio (y) = 0.86852 0.10624
# Poissons Ratio (z) = 0.35042 0.00892
#
# Static dielectric constant tensor:
#      x y z
#    x 3.501620 0.000000 0.000000 
#    y 0.000000 3.121290 0.000000 
#    z 0.000000 0.000000 3.551000 
# 
# 
# High freq. dielectric constant tensor:
#      x y z
#    x 1.690200 0.000000 0.000000 
#    y 0.000000 1.653140 0.000000 
#    z 0.000000 0.000000 1.714520 
# 
# From -- ./inp_files/8649.got.cif
#   From: 2010.03.12/outbox.cif.g09.slc.cpg/sg57_5_cif.got.tgz:8649.got - 2010.04.16 15:48:40.
