data_PCOD8232941
_publ_section_title
;
Structure prediction by ZEFSAII (Michael W. Deem and Ramdas Pophale) SiO2 
 PCOD8232941
Probable space group: P B C M
;
_chemical_formula_sum "Si O2"
_cell_formula_units_Z 64
_cell_length_a 9.403791
_cell_length_b 14.523207
_cell_length_c 24.134556
_cell_angle_alpha 90.000000
_cell_angle_beta 90.000000
_cell_angle_gamma 90.000000
_cell_volume 3296.133623
_symmetry_space_group_name_H-M "P B C M"
_symmetry_group_IT_number 57
_symmetry_cell_setting 'orthorhombic'
loop_
_space_group_symop_operation_xyz
x,y,z
-x,-y,1/2+z
x,1/2-y,-z
-x,1/2+y,1/2-z
-x,-y,-z
x,y,1/2-z
-x,1/2+y,z
x,1/2-y,1/2+z
loop_
_atom_site_type_symbol
_atom_site_label
_atom_site_fract_x
_atom_site_fract_y
_atom_site_fract_z
Si Si1 0.168839 0.838984 0.686501
Si Si2 0.842739 0.842134 0.686956
Si Si3 0.325705 0.482112 0.617190
Si Si4 0.988244 0.149082 0.974870
Si Si5 0.827618 0.872949 0.311712
Si Si6 0.877350 0.358895 0.146967
Si Si7 0.653047 0.015108 0.378551
Si Si8 0.774708 0.994940 0.006162
O O1 0.209819 0.860074 0.750000
O O2 0.188757 0.731013 0.675314
O O3 0.272182 0.894750 0.646278
O O4 0.006314 0.868102 0.674694
O O5 0.802462 0.869265 0.750000
O O6 0.744692 0.891389 0.642334
O O7 0.816641 0.734921 0.676881
O O8 0.250684 0.569940 0.644041
O O9 0.487951 0.483927 0.636356
O O10 0.309334 0.481487 0.550998
O O11 0.944356 0.164843 0.912044
O O12 0.138823 0.097850 0.980043
O O13 0.998652 0.250000 0.000000
O O14 0.873824 0.085217 0.005751
O O15 0.778058 0.899272 0.250000
O O16 0.993370 0.902422 0.317482
O O17 0.725955 0.924220 0.354314
O O18 0.663331 0.013189 0.444961
#
# Coordination Sequence:
#
# PCOD8232941 Si02
#       8
#     8   8   8   8   8   8   8   8
#     4  10  22  39  64  90 117 155 202 250 300 351
#     4   9  21  40  62  88 116 152 199 254 299 347
#     4  11  25  38  59  86 124 161 196 238 298 359
#     4  10  20  35  62  93 111 145 193 252 297 341
#     4  10  21  39  62  86 115 151 200 250 298 347
#     4  10  20  39  61  89 116 148 197 251 301 344
#     4  12  23  40  57  85 124 165 193 238 296 360
#     4  10  23  38  57  88 121 153 198 241 292 356
#
# _framework density 19.416689000000002
#
# number of rings (size 3 to 8) (size 9 to 14) (size 15 to 20)
#    0.000    1.750    1.250    3.375    7.000    4.000 
#    0.000    1.250    0.000    4.500    0.000    0.000 
#    0.000    0.000    0.000    0.000    0.000    0.000 
#
# Total GULP energy -793734.816619 kJ/mol
# GULP energy per Si atom -12402.106510 kJ/mol
# Density = 1.937250 g / cm^3
# Si number density = 19.416689 Si / 1000 Ang^3
#
#
#
# Elastic Constant Matrix: (Units=GPa)
#
#
# Indices 1 2 3 4 5 6 
#
# 1 122.4183 50.5099 47.3121 0.0000 0.0000 0.0000
# 2 50.5099 87.0642 40.6433 0.0000 0.0000 0.0000
# 3 47.3121 40.6433 95.4910 0.0000 0.0000 0.0000
# 4 0.0000 0.0000 0.0000 25.4143 0.0000 0.0000
# 5 0.0000 0.0000 0.0000 0.0000 1.7594 0.0000
# 6 0.0000 0.0000 0.0000 0.0000 0.0000 416.1518
#
#
#
# Elastic Compliance Matrix: (Units=1/GPa)
#
#
# Indices 1 2 3 4 5 6 
#
# 1 0.011661 -0.005077 -0.003617 0.000000 0.000000 0.000000
# 2 -0.005077 0.016544 -0.004526 0.000000 0.000000 0.000000
# 3 -0.003617 -0.004526 0.014191 0.000000 0.000000 0.000000
# 4 0.000000 0.000000 0.000000 0.039348 0.000000 0.000000
# 5 0.000000 0.000000 0.000000 0.000000 0.568372 0.000000
# 6 0.000000 0.000000 0.000000 0.000000 0.000000 0.002403
#
#
# Mechanical properties :
#
#
# Convention : Reuss Voigt Hill
#
# Bulk Modulus (GPa) = 62.67159 64.65602 63.66381
# Shear Modulus (GPa) = 7.30697 99.76564 53.53631
#
# Velocity S-wave (km/s) = 1.94201 7.17586 5.25663
# Velocity P-wave (km/s) = 6.11358 10.10093 8.34879
#
# Compressibility (1/GPa) = 0.01595619
#
# Stress axis : x y z
#
# Youngs Moduli (GPa) = 85.75403 60.44504 70.46889
#
# Poissons Ratio (x) = 0.30687 0.25488
# Poissons Ratio (y) = 0.43536 0.31895
# Poissons Ratio (z) = 0.31016 0.27358
#
# Static dielectric constant tensor:
#      x y z
#    x 3.324060 0.000000 0.000000 
#    y 0.000000 3.517310 0.000000 
#    z 0.000000 0.000000 3.776490 
# 
# 
# High freq. dielectric constant tensor:
#      x y z
#    x 1.735230 0.000000 0.000000 
#    y 0.000000 1.763340 0.000000 
#    z 0.000000 0.000000 1.772060 
# 
# From -- ./inp_files/26880.got.cif
#   From: 2010.03.12/outbox.cif.g09.slc.cpg/sg57_14_cif.got.tgz:26880.got - 2010.04.16 15:48:40.
