data_PCOD8232849
_publ_section_title
;
Structure prediction by ZEFSAII (Michael W. Deem and Ramdas Pophale) SiO2 
 PCOD8232849
Probable space group: P B C M
;
_chemical_formula_sum "Si O2"
_cell_formula_units_Z 64
_cell_length_a 23.298020
_cell_length_b 15.431062
_cell_length_c 9.246830
_cell_angle_alpha 90.000000
_cell_angle_beta 90.000000
_cell_angle_gamma 90.000000
_cell_volume 3324.357361
_symmetry_space_group_name_H-M "P B C M"
_symmetry_group_IT_number 57
_symmetry_cell_setting 'orthorhombic'
loop_
_space_group_symop_operation_xyz
x,y,z
-x,-y,1/2+z
x,1/2-y,-z
-x,1/2+y,1/2-z
-x,-y,-z
x,y,1/2-z
-x,1/2+y,z
x,1/2-y,1/2+z
loop_
_atom_site_type_symbol
_atom_site_label
_atom_site_fract_x
_atom_site_fract_y
_atom_site_fract_z
Si Si1 0.059901 0.164617 0.917728
Si Si2 0.676884 0.667162 0.583122
Si Si3 0.073145 0.836793 0.419702
Si Si4 0.126658 0.994714 0.915831
Si Si5 0.738931 0.006457 0.084077
Si Si6 0.566121 0.415103 0.082579
Si Si7 0.560486 0.589083 0.583401
Si Si8 0.315989 0.663823 0.920308
O O1 0.070511 0.182210 0.750000
O O2 0.095495 0.081655 0.971600
O O3 0.993519 0.146009 0.952317
O O4 0.081854 0.250000 0.000000
O O5 0.701824 0.750000 0.500000
O O6 0.690738 0.681726 0.750000
O O7 0.707613 0.580169 0.528029
O O8 0.608362 0.661503 0.551989
O O9 0.094127 0.750000 0.500000
O O10 0.085672 0.826904 0.250000
O O11 0.108966 0.916274 0.481802
O O12 0.108793 0.974370 0.750000
O O13 0.193905 0.009890 0.929861
O O14 0.721322 0.027260 0.250000
O O15 0.720591 0.084416 0.980966
O O16 0.568184 0.438801 0.250000
O O17 0.503240 0.376922 0.038849
O O18 0.616259 0.347609 0.043973
O O19 0.578354 0.503530 0.000780
O O20 0.561578 0.562023 0.750000
O O21 0.304427 0.672273 0.750000
O O22 0.294398 0.750000 0.000000
#
# Coordination Sequence:
#
# PCOD8232849 Si02
#       8
#     8   8   8   8   8   8   8   8
#     4   9  19  35  56  85 118 150 182 222 270 323
#     4  10  21  36  56  80 108 143 181 222 271 325
#     4  10  20  35  57  85 117 149 183 222 271 326
#     4  10  21  37  58  82 111 146 187 231 274 322
#     4  10  22  41  59  78 108 147 188 231 277 322
#     4   9  18  32  53  81 108 137 175 221 272 327
#     4   9  17  32  54  79 109 141 174 217 272 329
#     4  11  23  38  58  82 109 142 184 230 278 333
#
# _framework density 19.251840000000001
#
# number of rings (size 3 to 8) (size 9 to 14) (size 15 to 20)
#    0.000    2.250    1.250    1.125    0.000    4.500 
#    0.000    0.000    0.000    0.000    0.000    0.000 
#    0.000    0.000    0.000    0.000    0.000    0.000 
#
# Total GULP energy -793644.306980 kJ/mol
# GULP energy per Si atom -12400.692297 kJ/mol
# Density = 1.920802 g / cm^3
# Si number density = 19.251840 Si / 1000 Ang^3
#
#
#
# Elastic Constant Matrix: (Units=GPa)
#
#
# Indices 1 2 3 4 5 6 
#
# 1 62.9013 33.7959 24.2873 0.0000 0.0000 0.0000
# 2 33.7959 119.6059 44.7804 0.0000 0.0000 0.0000
# 3 24.2873 44.7804 60.0884 0.0000 0.0000 0.0000
# 4 0.0000 0.0000 0.0000 38.5021 0.0000 0.0000
# 5 0.0000 0.0000 0.0000 0.0000 21.2944 0.0000
# 6 0.0000 0.0000 0.0000 0.0000 0.0000 9.5372
#
#
#
# Elastic Compliance Matrix: (Units=1/GPa)
#
#
# Indices 1 2 3 4 5 6 
#
# 1 0.019909 -0.003624 -0.005347 0.000000 0.000000 0.000000
# 2 -0.003624 0.012256 -0.007669 0.000000 0.000000 0.000000
# 3 -0.005347 -0.007669 0.024518 0.000000 0.000000 0.000000
# 4 0.000000 0.000000 0.000000 0.025973 0.000000 0.000000
# 5 0.000000 0.000000 0.000000 0.000000 0.046961 0.000000
# 6 0.000000 0.000000 0.000000 0.000000 0.000000 0.104852
#
#
# Mechanical properties :
#
#
# Convention : Reuss Voigt Hill
#
# Bulk Modulus (GPa) = 42.72587 49.81365 46.26976
# Shear Modulus (GPa) = 18.14555 23.18221 20.66388
#
# Velocity S-wave (km/s) = 3.07341 3.47386 3.27975
# Velocity P-wave (km/s) = 5.90218 6.48237 6.19907
#
# Compressibility (1/GPa) = 0.02340502
#
# Stress axis : x y z
#
# Youngs Moduli (GPa) = 50.22760 81.59264 40.78563
#
# Poissons Ratio (x) = 0.29568 0.21806
# Poissons Ratio (y) = 0.18202 0.31278
# Poissons Ratio (z) = 0.26855 0.62573
#
# Static dielectric constant tensor:
#      x y z
#    x 3.616330 0.000000 0.000000 
#    y 0.000000 3.414910 0.000000 
#    z 0.000000 0.000000 3.366190 
# 
# 
# High freq. dielectric constant tensor:
#      x y z
#    x 1.751050 0.000000 0.000000 
#    y 0.000000 1.743450 0.000000 
#    z 0.000000 0.000000 1.746300 
# 
# From -- ./inp_files/9406.got.cif
#   From: 2010.03.12/outbox.cif.g09.slc.cpg/sg57_5_cif.got.tgz:9406.got - 2010.04.16 15:48:40.
