data_PCOD8232370
_publ_section_title
;
Structure prediction by ZEFSAII (Michael W. Deem and Ramdas Pophale) SiO2 
 PCOD8232370
Probable space group: P B C M
;
_chemical_formula_sum "Si O2"
_cell_formula_units_Z 56
_cell_length_a 19.135668
_cell_length_b 18.183442
_cell_length_c 8.748534
_cell_angle_alpha 90.000000
_cell_angle_beta 90.000000
_cell_angle_gamma 90.000000
_cell_volume 3044.072607
_symmetry_space_group_name_H-M "P B C M"
_symmetry_group_IT_number 57
_symmetry_cell_setting 'orthorhombic'
loop_
_space_group_symop_operation_xyz
x,y,z
-x,-y,1/2+z
x,1/2-y,-z
-x,1/2+y,1/2-z
-x,-y,-z
x,y,1/2-z
-x,1/2+y,z
x,1/2-y,1/2+z
loop_
_atom_site_type_symbol
_atom_site_label
_atom_site_fract_x
_atom_site_fract_y
_atom_site_fract_z
Si Si1 0.724769 0.894718 0.424915
Si Si2 0.702008 0.171274 0.069163
Si Si3 0.135394 0.327283 0.432869
Si Si4 0.802102 0.043167 0.425392
Si Si5 0.434530 0.589567 0.430647
Si Si6 0.575437 0.921641 0.068311
Si Si7 0.070325 0.469098 0.569721
O O1 0.720556 0.871857 0.250000
O O2 0.786045 0.844383 0.497857
O O3 0.647055 0.883487 0.495739
O O4 0.743838 0.980278 0.442129
O O5 0.697848 0.176428 0.250000
O O6 0.766045 0.118622 0.020591
O O7 0.628510 0.139705 0.005304
O O8 0.718014 0.250000 0.000000
O O9 0.109878 0.250000 0.500000
O O10 0.132902 0.327269 0.250000
O O11 0.083890 0.390083 0.493035
O O12 0.828131 0.047277 0.250000
O O13 0.868044 0.026669 0.532465
O O14 0.438001 0.594048 0.250000
O O15 0.422993 0.506244 0.486813
O O16 0.508022 0.619402 0.498545
O O17 0.572582 0.917179 0.250000
O O18 0.063366 0.459276 0.750000
O O19 0.000000 0.500000 0.500000
#
# Coordination Sequence:
#
# PCOD8232370 Si02
#       7
#     8   8   8   8   8   8   8
#     4   8  14  28  52  75  98 134 176 216 264 320
#     4  10  20  34  52  72 103 143 182 225 276 327
#     4  10  20  36  58  84 115 149 182 220 270 324
#     4   9  17  34  56  77 103 138 177 219 268 321
#     4   9  17  29  45  68  98 133 174 222 274 322
#     4   9  15  27  48  71  95 129 174 222 271 321
#     4  11  22  38  61  89 116 144 180 221 264 317
#
# _framework density 18.396405999999999
#
# number of rings (size 3 to 8) (size 9 to 14) (size 15 to 20)
#    0.000    2.571    1.429    2.571    0.000    1.143 
#    0.000    5.000    0.000    5.143    0.000    0.000 
#    0.000    0.000    0.000    0.000    0.000    0.000 
#
# Total GULP energy -694131.320074 kJ/mol
# GULP energy per Si atom -12395.202144 kJ/mol
# Density = 1.835454 g / cm^3
# Si number density = 18.396406 Si / 1000 Ang^3
#
#
#
# Elastic Constant Matrix: (Units=GPa)
#
#
# Indices 1 2 3 4 5 6 
#
# 1 132.5086 58.2085 39.2265 0.0000 0.0000 0.0000
# 2 58.2085 113.7082 33.6414 0.0000 0.0000 0.0000
# 3 39.2265 33.6414 60.0227 0.0000 0.0000 0.0000
# 4 0.0000 0.0000 0.0000 26.2133 0.0000 0.0000
# 5 0.0000 0.0000 0.0000 0.0000 29.2969 0.0000
# 6 0.0000 0.0000 0.0000 0.0000 0.0000 20.9858
#
#
#
# Elastic Compliance Matrix: (Units=1/GPa)
#
#
# Indices 1 2 3 4 5 6 
#
# 1 0.010748 -0.004105 -0.004724 0.000000 0.000000 0.000000
# 2 -0.004105 0.012110 -0.004105 0.000000 0.000000 0.000000
# 3 -0.004724 -0.004105 0.022048 0.000000 0.000000 0.000000
# 4 0.000000 0.000000 0.000000 0.038149 0.000000 0.000000
# 5 0.000000 0.000000 0.000000 0.000000 0.034133 0.000000
# 6 0.000000 0.000000 0.000000 0.000000 0.000000 0.047651
#
#
# Mechanical properties :
#
#
# Convention : Reuss Voigt Hill
#
# Bulk Modulus (GPa) = 52.52121 63.15469 57.83795
# Shear Modulus (GPa) = 25.37396 26.97676 26.17536
#
# Velocity S-wave (km/s) = 3.71791 3.83353 3.77616
# Velocity P-wave (km/s) = 6.85873 7.34841 7.10778
#
# Compressibility (1/GPa) = 0.01903993
#
# Stress axis : x y z
#
# Youngs Moduli (GPa) = 93.04006 82.57576 45.35523
#
# Poissons Ratio (x) = 0.33893 0.21424
# Poissons Ratio (y) = 0.38189 0.18618
# Poissons Ratio (z) = 0.43949 0.33898
#
# Static dielectric constant tensor:
#      x y z
#    x 3.628470 0.000000 0.000000 
#    y 0.000000 3.398090 0.000000 
#    z 0.000000 0.000000 3.167630 
# 
# 
# High freq. dielectric constant tensor:
#      x y z
#    x 1.720310 0.000000 0.000000 
#    y 0.000000 1.690900 0.000000 
#    z 0.000000 0.000000 1.693060 
# 
# From -- ./inp_files/8276.got.cif
#   From: 2010.03.12/outbox.cif.g09.slc.cpg/sg57_5_cif.got.tgz:8276.got - 2010.04.16 15:48:40.
