data_PCOD8232981
_publ_section_title
;
Structure prediction by ZEFSAII (Michael W. Deem and Ramdas Pophale) SiO2 
 PCOD8232981
Probable space group: P B C M
;
_chemical_formula_sum "Si O2"
_cell_formula_units_Z 48
_cell_length_a 15.369018
_cell_length_b 19.655041
_cell_length_c 8.737930
_cell_angle_alpha 90.000000
_cell_angle_beta 90.000000
_cell_angle_gamma 90.000000
_cell_volume 2639.542351
_symmetry_space_group_name_H-M "P B C M"
_symmetry_group_IT_number 57
_symmetry_cell_setting 'orthorhombic'
loop_
_space_group_symop_operation_xyz
x,y,z
-x,-y,1/2+z
x,1/2-y,-z
-x,1/2+y,1/2-z
-x,-y,-z
x,y,1/2-z
-x,1/2+y,z
x,1/2-y,1/2+z
loop_
_atom_site_type_symbol
_atom_site_label
_atom_site_fract_x
_atom_site_fract_y
_atom_site_fract_z
Si Si1 0.580095 0.082744 0.081357
Si Si2 0.766110 0.924393 0.929035
Si Si3 0.411492 0.421270 0.081069
Si Si4 0.099217 0.177733 0.568990
Si Si5 0.230341 0.570143 0.069338
Si Si6 0.084581 0.821692 0.569270
O O1 0.564295 0.112943 0.250000
O O2 0.676422 0.103436 0.021727
O O3 0.577241 0.001607 0.086862
O O4 0.502607 0.111703 0.975689
O O5 0.782341 0.914218 0.750000
O O6 0.667489 0.902212 0.968664
O O7 0.830342 0.877836 0.025307
O O8 0.785964 0.001774 0.974921
O O9 0.391364 0.392357 0.250000
O O10 0.127687 0.250000 0.500000
O O11 0.091691 0.184372 0.750000
O O12 0.006500 0.154451 0.501858
O O13 0.231354 0.552423 0.250000
O O14 0.155865 0.622687 0.024049
O O15 0.114883 0.750000 0.500000
O O16 0.074084 0.814162 0.750000
#
# Coordination Sequence:
#
# PCOD8232981 Si02
#       6
#     8   8   8   8   8   8
#     4   8  14  26  44  68  98 132 169 206 247 296
#     4  11  21  33  52  78 105 134 170 212 257 302
#     4   9  16  27  44  69 101 134 167 205 250 300
#     4  11  22  38  57  76 101 133 170 209 252 305
#     4   9  19  34  52  76 106 137 170 212 256 299
#     4  10  20  36  56  77 102 134 172 210 253 304
#
# _framework density 18.184968999999999
#
# number of rings (size 3 to 8) (size 9 to 14) (size 15 to 20)
#    0.000    2.333    0.000    6.000    0.000    6.000 
#    0.000    0.000    0.000    1.000    0.000    4.667 
#    0.000    0.000    0.000    0.000    0.000    0.000 
#
# Total GULP energy -595089.893457 kJ/mol
# GULP energy per Si atom -12397.706114 kJ/mol
# Density = 1.814358 g / cm^3
# Si number density = 18.184969 Si / 1000 Ang^3
#
#
#
# Elastic Constant Matrix: (Units=GPa)
#
#
# Indices 1 2 3 4 5 6 
#
# 1 134.5643 58.5306 44.6157 0.0000 0.0000 0.0000
# 2 58.5306 51.2416 30.0626 0.0000 0.0000 0.0000
# 3 44.6157 30.0626 101.5337 0.0000 0.0000 0.0000
# 4 0.0000 0.0000 0.0000 23.6301 0.0000 0.0000
# 5 0.0000 0.0000 0.0000 0.0000 25.3602 0.0000
# 6 0.0000 0.0000 0.0000 0.0000 0.0000 -5.1593
#
#
#
# Elastic Compliance Matrix: (Units=1/GPa)
#
#
# Indices 1 2 3 4 5 6 
#
# 1 0.015049 -0.016108 -0.001843 0.000000 0.000000 0.000000
# 2 -0.016108 0.040860 -0.005020 0.000000 0.000000 0.000000
# 3 -0.001843 -0.005020 0.012145 0.000000 0.000000 0.000000
# 4 0.000000 0.000000 0.000000 0.042319 0.000000 0.000000
# 5 0.000000 0.000000 0.000000 0.000000 0.039432 0.000000
# 6 0.000000 0.000000 0.000000 0.000000 0.000000 -0.193824
#
#
# Mechanical properties :
#
#
# Convention : Reuss Voigt Hill
#
# Bulk Modulus (GPa) = 45.22547 61.52859 53.37703
# Shear Modulus (GPa) = 537.96060 19.04157 278.50108
#
# Velocity S-wave (km/s) = 17.21828 3.23941 12.38877
# Velocity P-wave (km/s) = 20.49917 6.92098 15.29896
#
# Compressibility (1/GPa) = 0.02211143
#
# Stress axis : x y z
#
# Youngs Moduli (GPa) = 66.44902 24.47377 82.33661
#
# Poissons Ratio (x) = 0.39423 0.15178
# Poissons Ratio (y) = 1.07038 0.41331
# Poissons Ratio (z) = 0.12249 0.12285
#
# Static dielectric constant tensor:
#      x y z
#    x 3.677610 0.000000 0.000000 
#    y 0.000000 2.960680 0.000000 
#    z 0.000000 0.000000 3.508340 
# 
# 
# High freq. dielectric constant tensor:
#      x y z
#    x 1.721620 0.000000 0.000000 
#    y 0.000000 1.657100 0.000000 
#    z 0.000000 0.000000 1.715590 
# 
# From -- ./inp_files/4583.got.cif
#   From: 2010.03.12/outbox.cif.g09.slc.cpg/sg57_3_cif.got.tgz:4583.got - 2010.04.16 15:48:40.
