data_PCOD8232612
_publ_section_title
;
Structure prediction by ZEFSAII (Michael W. Deem and Ramdas Pophale) SiO2 
 PCOD8232612
Probable space group: P B C M
;
_chemical_formula_sum "Si O2"
_cell_formula_units_Z 48
_cell_length_a 18.512737
_cell_length_b 8.939166
_cell_length_c 14.660820
_cell_angle_alpha 90.000000
_cell_angle_beta 90.000000
_cell_angle_gamma 90.000000
_cell_volume 2426.196072
_symmetry_space_group_name_H-M "P B C M"
_symmetry_group_IT_number 57
_symmetry_cell_setting 'orthorhombic'
loop_
_space_group_symop_operation_xyz
x,y,z
-x,-y,1/2+z
x,1/2-y,-z
-x,1/2+y,1/2-z
-x,-y,-z
x,y,1/2-z
-x,1/2+y,z
x,1/2-y,1/2+z
loop_
_atom_site_type_symbol
_atom_site_label
_atom_site_fract_x
_atom_site_fract_y
_atom_site_fract_z
Si Si1 0.946861 0.601929 0.853801
Si Si2 0.157484 0.920136 0.981365
Si Si3 0.394379 0.720648 0.250000
Si Si4 0.682616 0.378833 0.929585
Si Si5 0.488793 0.439646 0.250000
Si Si6 0.559453 0.902634 0.448753
Si Si7 0.906231 0.560914 0.146173
O O1 0.923146 0.572662 0.750000
O O2 0.900560 0.493398 0.915864
O O3 0.935410 0.774911 0.880390
O O4 0.030426 0.560328 0.867289
O O5 0.234344 0.929332 0.930933
O O6 0.135535 0.750000 0.000000
O O7 0.157932 0.011207 0.077677
O O8 0.342175 0.687944 0.333671
O O9 0.467449 0.616015 0.250000
O O10 0.425619 0.891863 0.250000
O O11 0.637062 0.522174 0.957603
O O12 0.666510 0.250000 0.000000
O O13 0.456830 0.369706 0.157305
O O14 0.564871 0.750000 0.500000
O O15 0.500000 0.000000 0.500000
O O16 0.876786 0.558223 0.250000
#
# Coordination Sequence:
#
# PCOD8232612 Si02
#       7
#     8   8   4   8   4   8   8
#     4  10  21  37  63  90 119 158 205 258 313 361
#     4  11  23  38  58  84 122 163 204 245 311 366
#     4  10  20  38  62  86 124 146 200 246 296 360
#     4  10  23  40  57  87 117 161 200 242 299 362
#     4  10  20  34  58  90 110 148 188 240 294 350
#     4  11  21  36  61  85 118 152 193 249 297 354
#     4  10  21  39  61  90 119 155 206 264 304 365
#
# _framework density 19.784054999999999
#
# number of rings (size 3 to 8) (size 9 to 14) (size 15 to 20)
#    0.000    1.667    0.000    5.500    1.167    3.333 
#    4.500    0.000    0.000    0.000    0.000    0.000 
#    0.000    0.000    0.000    0.000    0.000    0.000 
#
# Total GULP energy -595062.903510 kJ/mol
# GULP energy per Si atom -12397.143823 kJ/mol
# Density = 1.973903 g / cm^3
# Si number density = 19.784055 Si / 1000 Ang^3
#
#
#
# Elastic Constant Matrix: (Units=GPa)
#
#
# Indices 1 2 3 4 5 6 
#
# 1 79.6479 22.2292 39.9156 0.0000 0.0000 0.0000
# 2 22.2292 67.9688 18.0095 0.0000 0.0000 0.0000
# 3 39.9156 18.0095 98.1637 0.0000 0.0000 0.0000
# 4 0.0000 0.0000 0.0000 19.1955 0.0000 0.0000
# 5 0.0000 0.0000 0.0000 0.0000 35.6605 0.0000
# 6 0.0000 0.0000 0.0000 0.0000 0.0000 34.7403
#
#
#
# Elastic Compliance Matrix: (Units=1/GPa)
#
#
# Indices 1 2 3 4 5 6 
#
# 1 0.016672 -0.003843 -0.006074 0.000000 0.000000 0.000000
# 2 -0.003843 0.016350 -0.001437 0.000000 0.000000 0.000000
# 3 -0.006074 -0.001437 0.012921 0.000000 0.000000 0.000000
# 4 0.000000 0.000000 0.000000 0.052096 0.000000 0.000000
# 5 0.000000 0.000000 0.000000 0.000000 0.028042 0.000000
# 6 0.000000 0.000000 0.000000 0.000000 0.000000 0.028785
#
#
# Mechanical properties :
#
#
# Convention : Reuss Voigt Hill
#
# Bulk Modulus (GPa) = 43.03974 45.12100 44.08037
# Shear Modulus (GPa) = 26.98053 28.96099 27.97076
#
# Velocity S-wave (km/s) = 3.69691 3.83019 3.76414
# Velocity P-wave (km/s) = 6.32652 6.51281 6.42034
#
# Compressibility (1/GPa) = 0.02323434
#
# Stress axis : x y z
#
# Youngs Moduli (GPa) = 59.98123 61.16108 77.39597
#
# Poissons Ratio (x) = 0.23505 0.47011
# Poissons Ratio (y) = 0.23051 0.11122
# Poissons Ratio (z) = 0.36433 0.08789
#
# Static dielectric constant tensor:
#      x y z
#    x 4.253430 0.000000 0.000000 
#    y 0.000000 3.483610 0.000000 
#    z 0.000000 0.000000 3.948450 
# 
# 
# High freq. dielectric constant tensor:
#      x y z
#    x 1.750760 0.000000 0.000000 
#    y 0.000000 1.779730 0.000000 
#    z 0.000000 0.000000 1.794620 
# 
# From -- ./inp_files/18982.got.cif
#   From: 2010.03.12/outbox.cif.g09.slc.cpg/sg57_10_cif.got.tgz:18982.got - 2010.04.16 15:48:40.
