data_PCOD8232361
_publ_section_title
;
Structure prediction by ZEFSAII (Michael W. Deem and Ramdas Pophale) SiO2 
 PCOD8232361
Probable space group: P B C M
;
_chemical_formula_sum "Si O2"
_cell_formula_units_Z 64
_cell_length_a 15.566385
_cell_length_b 25.274986
_cell_length_c 8.700395
_cell_angle_alpha 90.000000
_cell_angle_beta 90.000000
_cell_angle_gamma 90.000000
_cell_volume 3423.084826
_symmetry_space_group_name_H-M "P B C M"
_symmetry_group_IT_number 57
_symmetry_cell_setting 'orthorhombic'
loop_
_space_group_symop_operation_xyz
x,y,z
-x,-y,1/2+z
x,1/2-y,-z
-x,1/2+y,1/2-z
-x,-y,-z
x,y,1/2-z
-x,1/2+y,z
x,1/2-y,1/2+z
loop_
_atom_site_type_symbol
_atom_site_label
_atom_site_fract_x
_atom_site_fract_y
_atom_site_fract_z
Si Si1 0.805179 0.543121 0.073853
Si Si2 0.375998 0.694570 0.929361
Si Si3 0.869178 0.056871 0.426302
Si Si4 0.012072 0.801878 0.927026
Si Si5 0.797269 0.171720 0.421554
Si Si6 0.963347 0.592784 0.927356
Si Si7 0.452515 0.582759 0.568509
Si Si8 0.387915 0.469689 0.570016
O O1 0.824134 0.557312 0.250000
O O2 0.706039 0.552843 0.032108
O O3 0.823251 0.481821 0.043901
O O4 0.865620 0.577597 0.964595
O O5 0.393671 0.697827 0.750000
O O6 0.418699 0.639866 0.997802
O O7 0.412884 0.750000 0.000000
O O8 0.273640 0.692040 0.959206
O O9 0.863380 0.037440 0.250000
O O10 0.819664 0.111041 0.452595
O O11 0.970045 0.059985 0.468028
O O12 0.985113 0.811222 0.750000
O O13 0.114781 0.796345 0.941809
O O14 0.969955 0.750000 0.000000
O O15 0.973441 0.846222 0.035316
O O16 0.759785 0.179400 0.250000
O O17 0.983375 0.581699 0.750000
O O18 0.448609 0.587130 0.750000
O O19 0.397412 0.531118 0.512175
O O20 0.549410 0.571439 0.514747
O O21 0.408683 0.468221 0.750000
#
# Coordination Sequence:
#
# PCOD8232361 Si02
#       8
#     8   8   8   8   8   8   8   8
#     4  11  21  34  52  76 106 136 169 210 257 309
#     4  11  22  34  51  76 108 143 176 211 254 307
#     4  10  20  34  51  74 105 141 177 212 253 302
#     4  10  20  35  53  74 100 133 174 217 261 305
#     4   9  19  33  50  74 104 137 174 212 249 296
#     4  11  22  35  51  73 102 138 176 214 258 303
#     4   9  19  36  55  78 106 134 168 210 257 310
#     4   9  19  35  57  81 103 132 168 211 262 311
#
# _framework density 18.696586
#
# number of rings (size 3 to 8) (size 9 to 14) (size 15 to 20)
#    0.000    2.000    0.000    4.875    0.000    7.000 
#    0.000    2.500    0.000    0.750    0.000    1.750 
#    0.000    0.000    0.000    0.000    0.000    0.000 
#
# Total GULP energy -793338.307689 kJ/mol
# GULP energy per Si atom -12395.911058 kJ/mol
# Density = 1.865403 g / cm^3
# Si number density = 18.696586 Si / 1000 Ang^3
#
#
#
# Elastic Constant Matrix: (Units=GPa)
#
#
# Indices 1 2 3 4 5 6 
#
# 1 59.7098 22.0568 22.5113 0.0000 0.0000 0.0000
# 2 22.0568 78.6874 25.9802 0.0000 0.0000 0.0000
# 3 22.5113 25.9802 46.9199 0.0000 0.0000 0.0000
# 4 0.0000 0.0000 0.0000 30.6545 0.0000 0.0000
# 5 0.0000 0.0000 0.0000 0.0000 27.6322 0.0000
# 6 0.0000 0.0000 0.0000 0.0000 0.0000 10.4897
#
#
#
# Elastic Compliance Matrix: (Units=1/GPa)
#
#
# Indices 1 2 3 4 5 6 
#
# 1 0.021062 -0.003142 -0.008366 0.000000 0.000000 0.000000
# 2 -0.003142 0.016020 -0.007363 0.000000 0.000000 0.000000
# 3 -0.008366 -0.007363 0.029404 0.000000 0.000000 0.000000
# 4 0.000000 0.000000 0.000000 0.032622 0.000000 0.000000
# 5 0.000000 0.000000 0.000000 0.000000 0.036190 0.000000
# 6 0.000000 0.000000 0.000000 0.000000 0.000000 0.095331
#
#
# Mechanical properties :
#
#
# Convention : Reuss Voigt Hill
#
# Bulk Modulus (GPa) = 34.78885 36.26818 35.52851
# Shear Modulus (GPa) = 17.98872 21.40653 19.69762
#
# Velocity S-wave (km/s) = 3.10520 3.38737 3.24935
# Velocity P-wave (km/s) = 5.61283 5.89402 5.75514
#
# Compressibility (1/GPa) = 0.02874485
#
# Stress axis : x y z
#
# Youngs Moduli (GPa) = 47.47845 62.42059 34.00935
#
# Poissons Ratio (x) = 0.19612 0.28451
# Poissons Ratio (y) = 0.14917 0.25042
# Poissons Ratio (z) = 0.39718 0.45962
#
# Static dielectric constant tensor:
#      x y z
#    x 3.259560 0.000000 0.000000 
#    y 0.000000 3.574940 0.000000 
#    z 0.000000 0.000000 3.407580 
# 
# 
# High freq. dielectric constant tensor:
#      x y z
#    x 1.700830 0.000000 0.000000 
#    y 0.000000 1.727020 0.000000 
#    z 0.000000 0.000000 1.727800 
# 
# From -- ./inp_files/5690.got.cif
#   From: 2010.03.12/outbox.cif.g09.slc.cpg/sg57_3_cif.got.tgz:5690.got - 2010.04.16 15:48:40.
