data_PCOD8232662
_publ_section_title
;
Structure prediction by ZEFSAII (Michael W. Deem and Ramdas Pophale) SiO2 
 PCOD8232662
Probable space group: P B C M
;
_chemical_formula_sum "Si O2"
_cell_formula_units_Z 56
_cell_length_a 17.735458
_cell_length_b 19.081854
_cell_length_c 8.815208
_cell_angle_alpha 90.000000
_cell_angle_beta 90.000000
_cell_angle_gamma 90.000000
_cell_volume 2983.290471
_symmetry_space_group_name_H-M "P B C M"
_symmetry_group_IT_number 57
_symmetry_cell_setting 'orthorhombic'
loop_
_space_group_symop_operation_xyz
x,y,z
-x,-y,1/2+z
x,1/2-y,-z
-x,1/2+y,1/2-z
-x,-y,-z
x,y,1/2-z
-x,1/2+y,z
x,1/2-y,1/2+z
loop_
_atom_site_type_symbol
_atom_site_label
_atom_site_fract_x
_atom_site_fract_y
_atom_site_fract_z
Si Si1 0.499350 0.174218 0.930540
Si Si2 0.628616 0.431348 0.071293
Si Si3 0.917156 0.676312 0.429658
Si Si4 0.912118 0.177454 0.428637
Si Si5 0.365594 0.090696 0.429937
Si Si6 0.782791 0.076965 0.423842
Si Si7 0.209061 0.414160 0.425396
O O1 0.497554 0.180194 0.750000
O O2 0.562615 0.119313 0.988019
O O3 0.517187 0.250000 0.000000
O O4 0.420061 0.145862 0.990092
O O5 0.631902 0.431461 0.250000
O O6 0.615077 0.511345 0.014068
O O7 0.707530 0.401047 0.012127
O O8 0.892347 0.750000 0.500000
O O9 0.906513 0.678701 0.250000
O O10 0.865394 0.617534 0.502203
O O11 0.002851 0.657952 0.477895
O O12 0.885781 0.250000 0.500000
O O13 0.907979 0.185161 0.250000
O O14 0.854601 0.118711 0.489449
O O15 0.372453 0.098102 0.250000
O O16 0.281991 0.111960 0.482610
O O17 0.768374 0.096369 0.250000
O O18 0.801467 0.996322 0.446203
O O19 0.217681 0.392510 0.250000
#
# Coordination Sequence:
#
# PCOD8232662 Si02
#       7
#     8   8   8   8   8   8   8
#     4  11  23  38  55  80 111 141 175 216 261 309
#     4   9  20  37  57  80 107 139 176 216 260 312
#     4  10  20  35  54  76 105 140 178 219 263 313
#     4   9  19  35  53  76 106 141 179 218 262 311
#     4  10  20  37  59  81 105 137 176 217 263 313
#     4   9  19  35  55  79 108 140 175 216 262 312
#     4  10  20  35  55  80 108 138 174 216 263 314
#
# _framework density 18.77122
#
# number of rings (size 3 to 8) (size 9 to 14) (size 15 to 20)
#    0.000    2.286    0.000    2.143    0.000    5.143 
#    0.000    5.714    0.000    0.000    0.000    0.000 
#    0.000    0.000    0.000    0.000    0.000    0.000 
#
# Total GULP energy -694521.290705 kJ/mol
# GULP energy per Si atom -12402.165905 kJ/mol
# Density = 1.872850 g / cm^3
# Si number density = 18.771220 Si / 1000 Ang^3
#
#
#
# Elastic Constant Matrix: (Units=GPa)
#
#
# Indices 1 2 3 4 5 6 
#
# 1 97.8355 46.1516 24.4196 0.0000 0.0000 0.0000
# 2 46.1516 65.3644 27.7042 0.0000 0.0000 0.0000
# 3 24.4196 27.7042 50.5157 0.0000 0.0000 0.0000
# 4 0.0000 0.0000 0.0000 30.3664 0.0000 0.0000
# 5 0.0000 0.0000 0.0000 0.0000 33.2425 0.0000
# 6 0.0000 0.0000 0.0000 0.0000 0.0000 -20.7742
#
#
#
# Elastic Compliance Matrix: (Units=1/GPa)
#
#
# Indices 1 2 3 4 5 6 
#
# 1 0.015470 -0.010101 -0.001939 0.000000 0.000000 0.000000
# 2 -0.010101 0.026528 -0.009665 0.000000 0.000000 0.000000
# 3 -0.001939 -0.009665 0.026034 0.000000 0.000000 0.000000
# 4 0.000000 0.000000 0.000000 0.032931 0.000000 0.000000
# 5 0.000000 0.000000 0.000000 0.000000 0.030082 0.000000
# 6 0.000000 0.000000 0.000000 0.000000 0.000000 -0.048137
#
#
# Mechanical properties :
#
#
# Convention : Reuss Voigt Hill
#
# Bulk Modulus (GPa) = 40.61584 45.58515 43.10050
# Shear Modulus (GPa) = 37.16757 16.26294 26.71526
#
# Velocity S-wave (km/s) = 4.45458 2.94662 3.77663
# Velocity P-wave (km/s) = 6.93844 5.99284 6.48290
#
# Compressibility (1/GPa) = 0.02462093
#
# Stress axis : x y z
#
# Youngs Moduli (GPa) = 64.64055 37.69643 38.41169
#
# Poissons Ratio (x) = 0.38078 0.07446
# Poissons Ratio (y) = 0.65296 0.37127
# Poissons Ratio (z) = 0.12531 0.36435
#
# Static dielectric constant tensor:
#      x y z
#    x 3.637910 0.000000 0.000000 
#    y 0.000000 3.576060 0.000000 
#    z 0.000000 0.000000 3.442070 
# 
# 
# High freq. dielectric constant tensor:
#      x y z
#    x 1.738330 0.000000 0.000000 
#    y 0.000000 1.725170 0.000000 
#    z 0.000000 0.000000 1.732080 
# 
# From -- ./inp_files/5155.got.cif
#   From: 2010.03.12/outbox.cif.g09.slc.cpg/sg57_3_cif.got.tgz:5155.got - 2010.04.16 15:48:40.
