data_PCOD8232177
_publ_section_title
;
Structure prediction by ZEFSAII (Michael W. Deem and Ramdas Pophale) SiO2 
 PCOD8232177
Probable space group: P B C M
;
_chemical_formula_sum "Si O2"
_cell_formula_units_Z 56
_cell_length_a 13.541079
_cell_length_b 28.233685
_cell_length_c 9.331387
_cell_angle_alpha 90.000000
_cell_angle_beta 90.000000
_cell_angle_gamma 90.000000
_cell_volume 3567.525106
_symmetry_space_group_name_H-M "P B C M"
_symmetry_group_IT_number 57
_symmetry_cell_setting 'orthorhombic'
loop_
_space_group_symop_operation_xyz
x,y,z
-x,-y,1/2+z
x,1/2-y,-z
-x,1/2+y,1/2-z
-x,-y,-z
x,y,1/2-z
-x,1/2+y,z
x,1/2-y,1/2+z
loop_
_atom_site_type_symbol
_atom_site_label
_atom_site_fract_x
_atom_site_fract_y
_atom_site_fract_z
Si Si1 0.489417 0.795775 0.917874
Si Si2 0.738752 0.203683 0.417136
Si Si3 0.608691 0.451547 0.912721
Si Si4 0.291855 0.470455 0.584508
Si Si5 0.429430 0.108109 0.417594
Si Si6 0.093947 0.979542 0.079787
Si Si7 0.810166 0.397261 0.913060
O O1 0.503048 0.786937 0.750000
O O2 0.375390 0.806521 0.956712
O O3 0.558244 0.838760 0.977568
O O4 0.528693 0.750000 0.000000
O O5 0.778470 0.250000 0.500000
O O6 0.749179 0.214264 0.250000
O O7 0.805773 0.158075 0.459606
O O8 0.589812 0.467432 0.750000
O O9 0.514059 0.425850 0.982090
O O10 0.699313 0.415576 0.922982
O O11 0.628438 0.498402 0.002438
O O12 0.306060 0.482441 0.750000
O O13 0.321136 0.415265 0.552476
O O14 0.180456 0.483017 0.539049
O O15 0.452410 0.111871 0.250000
O O16 0.076018 0.976038 0.250000
O O17 0.119427 0.927246 0.019263
O O18 0.000000 0.000000 0.000000
O O19 0.850186 0.402457 0.750000
#
# Coordination Sequence:
#
# PCOD8232177 Si02
#       7
#     8   8   8   8   8   8   8
#     4   9  16  27  41  59  85 120 155 181 207 243
#     4   9  16  26  41  62  89 121 153 180 207 247
#     4   9  15  25  41  60  86 119 147 169 202 249
#     4   9  18  29  42  63  86 109 142 180 214 256
#     4   9  15  26  43  60  85 119 148 173 207 250
#     4  10  20  33  48  66  87 111 144 186 231 275
#     4   9  16  28  45  65  89 119 150 177 213 261
#
# _framework density 15.697156
#
# number of rings (size 3 to 8) (size 9 to 14) (size 15 to 20)
#    0.000    2.857    1.429    0.857    0.000    1.143 
#    0.000    1.429    0.000    0.000    0.000    1.000 
#    0.000    2.286    0.000    0.000    0.000    0.000 
#
# Total GULP energy -693980.706756 kJ/mol
# GULP energy per Si atom -12392.512621 kJ/mol
# Density = 1.566143 g / cm^3
# Si number density = 15.697156 Si / 1000 Ang^3
#
#
#
# Elastic Constant Matrix: (Units=GPa)
#
#
# Indices 1 2 3 4 5 6 
#
# 1 64.1265 58.7541 31.2076 0.0000 0.0000 0.0000
# 2 58.7541 138.5141 50.9030 0.0000 0.0000 0.0000
# 3 31.2076 50.9030 48.6819 0.0000 0.0000 0.0000
# 4 0.0000 0.0000 0.0000 26.7404 0.0000 0.0000
# 5 0.0000 0.0000 0.0000 0.0000 14.6008 0.0000
# 6 0.0000 0.0000 0.0000 0.0000 0.0000 19.9846
#
#
#
# Elastic Compliance Matrix: (Units=1/GPa)
#
#
# Indices 1 2 3 4 5 6 
#
# 1 0.027686 -0.008480 -0.008881 0.000000 0.000000 0.000000
# 2 -0.008480 0.014322 -0.009540 0.000000 0.000000 0.000000
# 3 -0.008881 -0.009540 0.036210 0.000000 0.000000 0.000000
# 4 0.000000 0.000000 0.000000 0.037397 0.000000 0.000000
# 5 0.000000 0.000000 0.000000 0.000000 0.068490 0.000000
# 6 0.000000 0.000000 0.000000 0.000000 0.000000 0.050039
#
#
# Mechanical properties :
#
#
# Convention : Reuss Voigt Hill
#
# Bulk Modulus (GPa) = 40.95644 59.22800 50.09222
# Shear Modulus (GPa) = 16.88720 19.62900 18.25810
#
# Velocity S-wave (km/s) = 3.28352 3.54005 3.41419
# Velocity P-wave (km/s) = 6.36581 7.38396 6.89371
#
# Compressibility (1/GPa) = 0.02441619
#
# Stress axis : x y z
#
# Youngs Moduli (GPa) = 36.11979 69.82221 27.61687
#
# Poissons Ratio (x) = 0.59207 0.24528
# Poissons Ratio (y) = 0.30628 0.26345
# Poissons Ratio (z) = 0.32079 0.66608
#
# Static dielectric constant tensor:
#      x y z
#    x 2.746660 0.000000 0.000000 
#    y 0.000000 3.191270 0.000000 
#    z 0.000000 0.000000 2.957260 
# 
# 
# High freq. dielectric constant tensor:
#      x y z
#    x 1.563110 0.000000 0.000000 
#    y 0.000000 1.604100 0.000000 
#    z 0.000000 0.000000 1.591630 
# 
# From -- ./inp_files/5879.got.cif
#   From: 2010.03.12/outbox.cif.g09.slc.cpg/sg57_3_cif.got.tgz:5879.got - 2010.04.16 15:48:40.
