data_PCOD8232083
_publ_section_title
;
Structure prediction by ZEFSAII (Michael W. Deem and Ramdas Pophale) SiO2 
 PCOD8232083
Probable space group: P B C M
;
_chemical_formula_sum "Si O2"
_cell_formula_units_Z 56
_cell_length_a 9.674330
_cell_length_b 20.770685
_cell_length_c 13.206599
_cell_angle_alpha 90.000000
_cell_angle_beta 90.000000
_cell_angle_gamma 90.000000
_cell_volume 2653.766505
_symmetry_space_group_name_H-M "P B C M"
_symmetry_group_IT_number 57
_symmetry_cell_setting 'orthorhombic'
loop_
_space_group_symop_operation_xyz
x,y,z
-x,-y,1/2+z
x,1/2-y,-z
-x,1/2+y,1/2-z
-x,-y,-z
x,y,1/2-z
-x,1/2+y,z
x,1/2-y,1/2+z
loop_
_atom_site_type_symbol
_atom_site_label
_atom_site_fract_x
_atom_site_fract_y
_atom_site_fract_z
Si Si1 0.839904 0.912941 0.364550
Si Si2 0.705775 0.352219 0.052576
Si Si3 0.878708 0.036090 0.634353
Si Si4 0.912240 0.814388 0.537455
Si Si5 0.790753 0.216259 0.368166
Si Si6 0.445126 0.431198 0.464816
Si Si7 0.731974 0.593284 0.362346
O O1 0.837567 0.885107 0.250000
O O2 0.901030 0.859777 0.439696
O O3 0.686340 0.938403 0.390265
O O4 0.953995 0.970367 0.371624
O O5 0.826705 0.404677 0.065880
O O6 0.739409 0.290075 0.121955
O O7 0.563010 0.387106 0.086673
O O8 0.692050 0.330909 0.934094
O O9 0.831203 0.048533 0.750000
O O10 0.814017 0.969276 0.595171
O O11 0.835289 0.750000 0.500000
O O12 0.833903 0.845820 0.632633
O O13 0.062853 0.794173 0.576744
O O14 0.792115 0.196586 0.250000
O O15 0.500000 0.500000 0.500000
O O16 0.398207 0.394037 0.566172
O O17 0.677041 0.583069 0.250000
#
# Coordination Sequence:
#
# PCOD8232083 Si02
#       7
#     8   8   8   8   8   8   8
#     4  10  23  41  66 100 134 175 221 269 335 405
#     4  11  22  42  67  99 133 177 222 275 335 402
#     4  10  19  38  69 101 132 169 217 272 332 400
#     4  11  21  41  65  96 128 168 215 284 336 390
#     4  11  23  41  68  98 128 172 226 277 330 397
#     4  11  24  42  66  95 138 178 216 276 335 406
#     4  10  23  40  65  97 132 174 219 273 340 402
#
# _framework density 21.102083
#
# number of rings (size 3 to 8) (size 9 to 14) (size 15 to 20)
#    0.000    1.429    4.286    0.857    0.000    8.000 
#   10.286    1.429    0.000    0.000    0.000    0.000 
#    0.000    0.000    0.000    0.000    0.000    0.000 
#
# Total GULP energy -693898.908708 kJ/mol
# GULP energy per Si atom -12391.051941 kJ/mol
# Density = 2.105405 g / cm^3
# Si number density = 21.102083 Si / 1000 Ang^3
#
#
#
# Elastic Constant Matrix: (Units=GPa)
#
#
# Indices 1 2 3 4 5 6 
#
# 1 124.6948 34.4056 20.7894 0.0000 0.0000 0.0000
# 2 34.4056 93.2711 5.4688 0.0000 0.0000 0.0000
# 3 20.7894 5.4688 101.3214 0.0000 0.0000 0.0000
# 4 0.0000 0.0000 0.0000 24.1183 0.0000 0.0000
# 5 0.0000 0.0000 0.0000 0.0000 24.0425 0.0000
# 6 0.0000 0.0000 0.0000 0.0000 0.0000 34.5783
#
#
#
# Elastic Compliance Matrix: (Units=1/GPa)
#
#
# Indices 1 2 3 4 5 6 
#
# 1 0.009215 -0.003299 -0.001713 0.000000 0.000000 0.000000
# 2 -0.003299 0.011936 0.000033 0.000000 0.000000 0.000000
# 3 -0.001713 0.000033 0.010219 0.000000 0.000000 0.000000
# 4 0.000000 0.000000 0.000000 0.041462 0.000000 0.000000
# 5 0.000000 0.000000 0.000000 0.000000 0.041593 0.000000
# 6 0.000000 0.000000 0.000000 0.000000 0.000000 0.028920
#
#
# Mechanical properties :
#
#
# Convention : Reuss Voigt Hill
#
# Bulk Modulus (GPa) = 46.70085 48.95722 47.82903
# Shear Modulus (GPa) = 31.16392 33.78940 32.47666
#
# Velocity S-wave (km/s) = 3.84711 4.00588 3.92730
# Velocity P-wave (km/s) = 6.47399 6.68182 6.57873
#
# Compressibility (1/GPa) = 0.02141288
#
# Stress axis : x y z
#
# Youngs Moduli (GPa) = 108.51435 83.77724 97.85454
#
# Poissons Ratio (x) = 0.27637 0.16760
# Poissons Ratio (y) = 0.35798 -0.00319
# Poissons Ratio (z) = 0.18586 -0.00273
#
# Static dielectric constant tensor:
#      x y z
#    x 3.933460 0.000000 0.000000 
#    y 0.000000 3.812610 0.000000 
#    z 0.000000 0.000000 3.916250 
# 
# 
# High freq. dielectric constant tensor:
#      x y z
#    x 1.821990 0.000000 0.000000 
#    y 0.000000 1.820140 0.000000 
#    z 0.000000 0.000000 1.830350 
# 
# From -- ./inp_files/16727.got.cif
#   From: 2010.03.12/outbox.cif.g09.slc.cpg/sg57_9_cif.got.tgz:16727.got - 2010.04.16 15:48:40.
