data_PCOD8232544
_publ_section_title
;
Structure prediction by ZEFSAII (Michael W. Deem and Ramdas Pophale) SiO2 
 PCOD8232544
Probable space group: P B C M
;
_chemical_formula_sum "Si O2"
_cell_formula_units_Z 48
_cell_length_a 31.082367
_cell_length_b 9.395900
_cell_length_c 8.609760
_cell_angle_alpha 90.000000
_cell_angle_beta 90.000000
_cell_angle_gamma 90.000000
_cell_volume 2514.452961
_symmetry_space_group_name_H-M "P B C M"
_symmetry_group_IT_number 57
_symmetry_cell_setting 'orthorhombic'
loop_
_space_group_symop_operation_xyz
x,y,z
-x,-y,1/2+z
x,1/2-y,-z
-x,1/2+y,1/2-z
-x,-y,-z
x,y,1/2-z
-x,1/2+y,z
x,1/2-y,1/2+z
loop_
_atom_site_type_symbol
_atom_site_label
_atom_site_fract_x
_atom_site_fract_y
_atom_site_fract_z
Si Si1 0.538759 0.908371 0.065836
Si Si2 0.037973 0.406614 0.933961
Si Si3 0.380515 0.591961 0.067608
Si Si4 0.705327 0.095717 0.929297
Si Si5 0.200072 0.593241 0.568712
Si Si6 0.873143 0.904207 0.067322
O O1 0.535242 0.901224 0.250000
O O2 0.582310 0.986132 0.009754
O O3 0.537471 0.750000 0.000000
O O4 0.500000 0.000000 0.000000
O O5 0.036111 0.404525 0.750000
O O6 0.032206 0.250000 0.000000
O O7 0.083779 0.469582 0.990029
O O8 0.000000 0.500000 0.000000
O O9 0.381385 0.606886 0.250000
O O10 0.387117 0.750000 0.000000
O O11 0.334997 0.520259 0.014326
O O12 0.693319 0.107803 0.750000
O O13 0.752173 0.022759 0.952919
O O14 0.709785 0.250000 0.000000
O O15 0.198713 0.750000 0.500000
O O16 0.187388 0.596378 0.750000
O O17 0.167078 0.501890 0.470376
O O18 0.880428 0.893245 0.250000
O O19 0.863077 0.750000 0.000000
#
# Coordination Sequence:
#
# PCOD8232544 Si02
#       6
#     8   8   8   8   8   8
#     4  11  24  40  59  83 111 145 183 227 274 326
#     4  11  22  39  60  84 112 144 182 226 274 328
#     4  10  20  34  55  82 110 142 181 222 270 323
#     4   9  17  30  52  79 109 143 180 222 270 320
#     4  10  20  35  55  83 113 145 186 231 274 321
#     4  11  22  38  58  81 110 147 184 224 275 330
#
# _framework density 19.089638000000001
#
# number of rings (size 3 to 8) (size 9 to 14) (size 15 to 20)
#    0.000    1.667    0.000    7.500    0.000    6.667 
#    0.000    4.167    0.000    2.000    0.000    0.000 
#    0.000    0.000    0.000    0.000    0.000    0.000 
#
# Total GULP energy -595060.999034 kJ/mol
# GULP energy per Si atom -12397.104147 kJ/mol
# Density = 1.904619 g / cm^3
# Si number density = 19.089638 Si / 1000 Ang^3
#
#
#
# Elastic Constant Matrix: (Units=GPa)
#
#
# Indices 1 2 3 4 5 6 
#
# 1 172.4441 71.3171 56.8768 0.0000 0.0000 0.0000
# 2 71.3171 82.4105 36.6149 0.0000 0.0000 0.0000
# 3 56.8768 36.6149 128.5833 0.0000 0.0000 0.0000
# 4 0.0000 0.0000 0.0000 31.0645 0.0000 0.0000
# 5 0.0000 0.0000 0.0000 0.0000 34.8123 0.0000
# 6 0.0000 0.0000 0.0000 0.0000 0.0000 -33.2358
#
#
#
# Elastic Compliance Matrix: (Units=1/GPa)
#
#
# Indices 1 2 3 4 5 6 
#
# 1 0.009517 -0.007287 -0.002134 0.000000 0.000000 0.000000
# 2 -0.007287 0.019472 -0.002321 0.000000 0.000000 0.000000
# 3 -0.002134 -0.002321 0.009382 0.000000 0.000000 0.000000
# 4 0.000000 0.000000 0.000000 0.032191 0.000000 0.000000
# 5 0.000000 0.000000 0.000000 0.000000 0.028725 0.000000
# 6 0.000000 0.000000 0.000000 0.000000 0.000000 -0.030088
#
#
# Mechanical properties :
#
#
# Convention : Reuss Voigt Hill
#
# Bulk Modulus (GPa) = 67.18283 79.22839 73.20561
# Shear Modulus (GPa) = 51.20439 21.10346 36.15393
#
# Velocity S-wave (km/s) = 5.18472 3.32850 4.35662
# Velocity P-wave (km/s) = 8.43277 7.50769 7.98364
#
# Compressibility (1/GPa) = 0.01488476
#
# Stress axis : x y z
#
# Youngs Moduli (GPa) = 105.07710 51.35527 106.58435
#
# Poissons Ratio (x) = 0.37425 0.22750
# Poissons Ratio (y) = 0.76574 0.24742
# Poissons Ratio (z) = 0.22428 0.11921
#
# Static dielectric constant tensor:
#      x y z
#    x 4.262310 0.000000 0.000000 
#    y 0.000000 3.264760 0.000000 
#    z 0.000000 0.000000 3.704310 
# 
# 
# High freq. dielectric constant tensor:
#      x y z
#    x 1.768080 0.000000 0.000000 
#    y 0.000000 1.711920 0.000000 
#    z 0.000000 0.000000 1.764550 
# 
# From -- ./inp_files/10053.got.cif
#   From: 2010.03.12/outbox.cif.g09.slc.cpg/sg57_6_cif.got.tgz:10053.got - 2010.04.16 15:48:40.
