data_PCOD8232806
_publ_section_title
;
Structure prediction by ZEFSAII (Michael W. Deem and Ramdas Pophale) SiO2 
 PCOD8232806
Probable space group: P B C M
;
_chemical_formula_sum "Si O2"
_cell_formula_units_Z 64
_cell_length_a 20.490620
_cell_length_b 18.687545
_cell_length_c 8.904939
_cell_angle_alpha 90.000000
_cell_angle_beta 90.000000
_cell_angle_gamma 90.000000
_cell_volume 3409.873750
_symmetry_space_group_name_H-M "P B C M"
_symmetry_group_IT_number 57
_symmetry_cell_setting 'orthorhombic'
loop_
_space_group_symop_operation_xyz
x,y,z
-x,-y,1/2+z
x,1/2-y,-z
-x,1/2+y,1/2-z
-x,-y,-z
x,y,1/2-z
-x,1/2+y,z
x,1/2-y,1/2+z
loop_
_atom_site_type_symbol
_atom_site_label
_atom_site_fract_x
_atom_site_fract_y
_atom_site_fract_z
Si Si1 0.618911 0.674232 0.926667
Si Si2 0.882875 0.825633 0.574089
Si Si3 0.245466 0.821575 0.923813
Si Si4 0.744505 0.606046 0.074765
Si Si5 0.197827 0.973021 0.575334
Si Si6 0.940488 0.959760 0.425020
Si Si7 0.602735 0.177660 0.074318
Si Si8 0.503602 0.076587 0.573119
O O1 0.625757 0.685001 0.750000
O O2 0.560844 0.620758 0.969750
O O3 0.602806 0.750000 0.000000
O O4 0.686062 0.642897 0.987619
O O5 0.898053 0.750000 0.500000
O O6 0.896894 0.821678 0.750000
O O7 0.808551 0.847354 0.539737
O O8 0.932024 0.882765 0.501781
O O9 0.232406 0.811329 0.750000
O O10 0.208459 0.892161 0.983607
O O11 0.321301 0.831622 0.960828
O O12 0.217116 0.750000 0.000000
O O13 0.728172 0.603665 0.250000
O O14 0.754624 0.525472 0.016247
O O15 0.217125 0.979843 0.750000
O O16 0.122959 0.991962 0.546213
O O17 0.954082 0.948257 0.250000
O O18 0.000000 0.000000 0.500000
O O19 0.587168 0.179415 0.250000
O O20 0.575544 0.250000 0.000000
O O21 0.567478 0.111915 0.996664
O O22 0.512336 0.069659 0.750000
O O23 0.500000 0.000000 0.500000
#
# Coordination Sequence:
#
# PCOD8232806 Si02
#       8
#     8   8   8   8   8   8   8   8
#     4  11  24  40  58  80 110 146 183 226 277 332
#     4  10  20  35  56  84 116 147 187 231 277 331
#     4   9  19  35  56  82 110 141 180 227 278 331
#     4  10  21  35  56  86 115 146 183 228 278 333
#     4   9  19  36  57  81 113 150 185 228 280 330
#     4  10  20  36  58  82 113 153 192 231 277 327
#     4  10  20  36  58  81 107 140 181 227 278 334
#     4  11  25  41  57  79 108 144 185 232 281 333
#
# _framework density 18.769023000000001
#
# number of rings (size 3 to 8) (size 9 to 14) (size 15 to 20)
#    0.000    2.000    0.000    3.000    1.750    7.000 
#    0.000    0.625    0.000    1.500    0.000    0.000 
#    0.000    0.000    0.000    0.000    0.000    0.000 
#
# Total GULP energy -793880.117674 kJ/mol
# GULP energy per Si atom -12404.376839 kJ/mol
# Density = 1.872630 g / cm^3
# Si number density = 18.769023 Si / 1000 Ang^3
#
#
#
# Elastic Constant Matrix: (Units=GPa)
#
#
# Indices 1 2 3 4 5 6 
#
# 1 69.2780 66.5377 55.5754 0.0000 0.0000 0.0000
# 2 66.5377 193.6885 76.9489 0.0000 0.0000 0.0000
# 3 55.5754 76.9489 98.9341 0.0000 0.0000 0.0000
# 4 0.0000 0.0000 0.0000 40.3618 0.0000 0.0000
# 5 0.0000 0.0000 0.0000 0.0000 28.7972 0.0000
# 6 0.0000 0.0000 0.0000 0.0000 0.0000 28.5987
#
#
#
# Elastic Compliance Matrix: (Units=1/GPa)
#
#
# Indices 1 2 3 4 5 6 
#
# 1 0.029413 -0.005123 -0.012538 0.000000 0.000000 0.000000
# 2 -0.005123 0.008364 -0.003627 0.000000 0.000000 0.000000
# 3 -0.012538 -0.003627 0.019972 0.000000 0.000000 0.000000
# 4 0.000000 0.000000 0.000000 0.024776 0.000000 0.000000
# 5 0.000000 0.000000 0.000000 0.000000 0.034726 0.000000
# 6 0.000000 0.000000 0.000000 0.000000 0.000000 0.034967
#
#
# Mechanical properties :
#
#
# Convention : Reuss Voigt Hill
#
# Bulk Modulus (GPa) = 65.90977 84.44719 75.17848
# Shear Modulus (GPa) = 25.01852 30.40743 27.71298
#
# Velocity S-wave (km/s) = 3.65495 4.02940 3.84673
# Velocity P-wave (km/s) = 7.28038 8.16937 7.73765
#
# Compressibility (1/GPa) = 0.01517226
#
# Stress axis : x y z
#
# Youngs Moduli (GPa) = 33.99841 119.55980 50.06977
#
# Poissons Ratio (x) = 0.61253 0.62777
# Poissons Ratio (y) = 0.17418 0.18162
# Poissons Ratio (z) = 0.42627 0.43370
#
# Static dielectric constant tensor:
#      x y z
#    x 3.332700 0.000000 0.000000 
#    y 0.000000 3.702630 0.000000 
#    z 0.000000 0.000000 3.481240 
# 
# 
# High freq. dielectric constant tensor:
#      x y z
#    x 1.718100 0.000000 0.000000 
#    y 0.000000 1.742330 0.000000 
#    z 0.000000 0.000000 1.740400 
# 
# From -- ./inp_files/8378.got.cif
#   From: 2010.03.12/outbox.cif.g09.slc.cpg/sg57_5_cif.got.tgz:8378.got - 2010.04.16 15:48:40.
