data_PCOD8232242
_publ_section_title
;
Structure prediction by ZEFSAII (Michael W. Deem and Ramdas Pophale) SiO2 
 PCOD8232242
Probable space group: P B C M
;
_chemical_formula_sum "Si O2"
_cell_formula_units_Z 64
_cell_length_a 19.514988
_cell_length_b 20.133238
_cell_length_c 9.224565
_cell_angle_alpha 90.000000
_cell_angle_beta 90.000000
_cell_angle_gamma 90.000000
_cell_volume 3624.330647
_symmetry_space_group_name_H-M "P B C M"
_symmetry_group_IT_number 57
_symmetry_cell_setting 'orthorhombic'
loop_
_space_group_symop_operation_xyz
x,y,z
-x,-y,1/2+z
x,1/2-y,-z
-x,1/2+y,1/2-z
-x,-y,-z
x,y,1/2-z
-x,1/2+y,z
x,1/2-y,1/2+z
loop_
_atom_site_type_symbol
_atom_site_label
_atom_site_fract_x
_atom_site_fract_y
_atom_site_fract_z
Si Si1 0.317041 0.567848 0.578577
Si Si2 0.425075 0.315784 0.080426
Si Si3 0.084477 0.183638 0.420212
Si Si4 0.829261 0.578259 0.914443
Si Si5 0.072650 0.815224 0.581357
Si Si6 0.581797 0.315401 0.081341
Si Si7 0.178527 0.926742 0.918337
Si Si8 0.671969 0.566052 0.582269
O O1 0.309756 0.560273 0.750000
O O2 0.372690 0.622488 0.533443
O O3 0.244621 0.590507 0.513327
O O4 0.342785 0.498672 0.512745
O O5 0.415373 0.303573 0.250000
O O6 0.503479 0.331709 0.038963
O O7 0.379290 0.377190 0.027089
O O8 0.398946 0.250000 0.000000
O O9 0.110367 0.250000 0.500000
O O10 0.095380 0.193209 0.250000
O O11 0.128307 0.121564 0.473157
O O12 0.005634 0.169153 0.460712
O O13 0.850042 0.596861 0.750000
O O14 0.846670 0.501552 0.947308
O O15 0.749097 0.591781 0.940282
O O16 0.099829 0.750000 0.500000
O O17 0.080288 0.800572 0.750000
O O18 0.117650 0.878095 0.533248
O O19 0.589260 0.300571 0.250000
O O20 0.608407 0.250000 0.000000
O O21 0.198530 0.918054 0.750000
O O22 0.659256 0.547609 0.750000
#
# Coordination Sequence:
#
# PCOD8232242 Si02
#       8
#     8   8   8   8   8   8   8   8
#     4  10  20  33  50  75 103 129 164 207 245 288
#     4   9  18  34  53  73  99 131 167 205 246 292
#     4  10  20  34  52  74 100 130 164 202 244 291
#     4   9  18  33  51  72  99 130 163 201 245 292
#     4   9  19  35  53  74 100 130 165 203 243 290
#     4   9  19  34  51  73 101 131 165 206 247 290
#     4   9  19  36  54  72  99 133 165 200 246 296
#     4   9  19  35  53  73 100 133 165 200 246 296
#
# _framework density 17.658432999999999
#
# number of rings (size 3 to 8) (size 9 to 14) (size 15 to 20)
#    0.000    2.750    0.000    1.500    0.000    6.500 
#    0.000    3.750    0.000    0.000    0.000    0.000 
#    0.000    0.000    0.000    0.000    0.000    0.000 
#
# Total GULP energy -793765.738882 kJ/mol
# GULP energy per Si atom -12402.589670 kJ/mol
# Density = 1.761824 g / cm^3
# Si number density = 17.658433 Si / 1000 Ang^3
#
#
#
# Elastic Constant Matrix: (Units=GPa)
#
#
# Indices 1 2 3 4 5 6 
#
# 1 89.3828 87.6612 48.6594 0.0000 0.0000 0.0000
# 2 87.6612 144.4095 65.4161 0.0000 0.0000 0.0000
# 3 48.6594 65.4161 68.0312 0.0000 0.0000 0.0000
# 4 0.0000 0.0000 0.0000 35.5035 0.0000 0.0000
# 5 0.0000 0.0000 0.0000 0.0000 25.0326 0.0000
# 6 0.0000 0.0000 0.0000 0.0000 0.0000 35.9594
#
#
#
# Elastic Compliance Matrix: (Units=1/GPa)
#
#
# Indices 1 2 3 4 5 6 
#
# 1 0.029340 -0.014712 -0.006838 0.000000 0.000000 0.000000
# 2 -0.014712 0.019646 -0.008368 0.000000 0.000000 0.000000
# 3 -0.006838 -0.008368 0.027637 0.000000 0.000000 0.000000
# 4 0.000000 0.000000 0.000000 0.028166 0.000000 0.000000
# 5 0.000000 0.000000 0.000000 0.000000 0.039948 0.000000
# 6 0.000000 0.000000 0.000000 0.000000 0.000000 0.027809
#
#
# Mechanical properties :
#
#
# Convention : Reuss Voigt Hill
#
# Bulk Modulus (GPa) = 59.57705 78.36633 68.97169
# Shear Modulus (GPa) = 21.01033 25.97155 23.49094
#
# Velocity S-wave (km/s) = 3.45312 3.83923 3.65128
# Velocity P-wave (km/s) = 7.05057 8.00801 7.54449
#
# Compressibility (1/GPa) = 0.01678499
#
# Stress axis : x y z
#
# Youngs Moduli (GPa) = 34.08370 50.90039 36.18383
#
# Poissons Ratio (x) = 0.74886 0.24744
# Poissons Ratio (y) = 0.50145 0.30279
# Poissons Ratio (z) = 0.23308 0.42593
#
# Static dielectric constant tensor:
#      x y z
#    x 3.305930 0.000000 0.000000 
#    y 0.000000 3.342940 0.000000 
#    z 0.000000 0.000000 3.228930 
# 
# 
# High freq. dielectric constant tensor:
#      x y z
#    x 1.679950 0.000000 0.000000 
#    y 0.000000 1.686670 0.000000 
#    z 0.000000 0.000000 1.682580 
# 
# From -- ./inp_files/7163.got.cif
#   From: 2010.03.12/outbox.cif.g09.slc.cpg/sg57_4_cif.got.tgz:7163.got - 2010.04.16 15:48:40.
