data_PCOD8232854
_publ_section_title
;
Structure prediction by ZEFSAII (Michael W. Deem and Ramdas Pophale) SiO2 
 PCOD8232854
Probable space group: P B C M
;
_chemical_formula_sum "Si O2"
_cell_formula_units_Z 64
_cell_length_a 23.871832
_cell_length_b 15.491207
_cell_length_c 8.888560
_cell_angle_alpha 90.000000
_cell_angle_beta 90.000000
_cell_angle_gamma 90.000000
_cell_volume 3287.020518
_symmetry_space_group_name_H-M "P B C M"
_symmetry_group_IT_number 57
_symmetry_cell_setting 'orthorhombic'
loop_
_space_group_symop_operation_xyz
x,y,z
-x,-y,1/2+z
x,1/2-y,-z
-x,1/2+y,1/2-z
-x,-y,-z
x,y,1/2-z
-x,1/2+y,z
x,1/2-y,1/2+z
loop_
_atom_site_type_symbol
_atom_site_label
_atom_site_fract_x
_atom_site_fract_y
_atom_site_fract_z
Si Si1 0.385316 0.161993 0.929337
Si Si2 0.686187 0.000219 0.428268
Si Si3 0.813868 0.995155 0.428224
Si Si4 0.000487 0.092683 0.426689
Si Si5 0.882637 0.337872 0.573100
Si Si6 0.119992 0.339334 0.927726
Si Si7 0.382818 0.838479 0.574880
Si Si8 0.495430 0.093095 0.426829
O O1 0.388001 0.168613 0.750000
O O2 0.344509 0.085998 0.985879
O O3 0.361168 0.250000 0.000000
O O4 0.447175 0.147030 0.992999
O O5 0.682604 0.002757 0.250000
O O6 0.654108 0.083550 0.494561
O O7 0.749989 0.000730 0.483411
O O8 0.819171 0.981401 0.250000
O O9 0.841479 0.915001 0.510773
O O10 0.844257 0.082736 0.480587
O O11 0.998313 0.077551 0.250000
O O12 0.055760 0.144151 0.476444
O O13 0.946296 0.145741 0.481647
O O14 0.000000 0.000000 0.500000
O O15 0.859888 0.250000 0.500000
O O16 0.878971 0.326754 0.750000
O O17 0.126734 0.333847 0.750000
O O18 0.140344 0.250000 0.000000
O O19 0.363113 0.750000 0.500000
O O20 0.370681 0.830386 0.750000
O O21 0.447701 0.855561 0.541602
O O22 0.483456 0.083393 0.250000
O O23 0.500000 0.000000 0.500000
#
# Coordination Sequence:
#
# PCOD8232854 Si02
#       8
#     8   8   8   8   8   8   8   8
#     4  11  22  39  60  86 118 152 193 239 290 349
#     4   9  20  40  61  81 113 155 194 239 291 338
#     4  10  21  40  63  83 112 154 198 243 290 339
#     4  10  20  35  57  86 116 150 187 231 286 343
#     4  10  21  36  57  86 116 150 190 231 284 342
#     4  11  23  38  59  87 119 152 190 237 290 347
#     4  10  21  38  58  85 117 151 188 230 283 342
#     4  11  21  36  60  88 119 154 190 233 290 348
#
# _framework density 19.470521000000002
#
# number of rings (size 3 to 8) (size 9 to 14) (size 15 to 20)
#    0.000    1.750    2.500    1.875    0.000    4.500 
#    0.000    3.125    0.000    0.000    0.000    0.000 
#    0.000    0.000    0.000    0.000    0.000    0.000 
#
# Total GULP energy -793816.092144 kJ/mol
# GULP energy per Si atom -12403.376440 kJ/mol
# Density = 1.942620 g / cm^3
# Si number density = 19.470521 Si / 1000 Ang^3
#
#
#
# Elastic Constant Matrix: (Units=GPa)
#
#
# Indices 1 2 3 4 5 6 
#
# 1 141.7224 79.2716 39.6108 0.0000 0.0000 0.0000
# 2 79.2716 195.9298 50.4565 0.0000 0.0000 0.0000
# 3 39.6108 50.4565 51.8997 0.0000 0.0000 0.0000
# 4 0.0000 0.0000 0.0000 40.3048 0.0000 0.0000
# 5 0.0000 0.0000 0.0000 0.0000 22.3578 0.0000
# 6 0.0000 0.0000 0.0000 0.0000 0.0000 -0.1408
#
#
#
# Elastic Compliance Matrix: (Units=1/GPa)
#
#
# Indices 1 2 3 4 5 6 
#
# 1 0.009982 -0.002770 -0.004925 0.000000 0.000000 0.000000
# 2 -0.002770 0.007577 -0.005252 0.000000 0.000000 0.000000
# 3 -0.004925 -0.005252 0.028133 0.000000 0.000000 0.000000
# 4 0.000000 0.000000 0.000000 0.024811 0.000000 0.000000
# 5 0.000000 0.000000 0.000000 0.000000 0.044727 0.000000
# 6 0.000000 0.000000 0.000000 0.000000 0.000000 -7.100663
#
#
# Mechanical properties :
#
#
# Convention : Reuss Voigt Hill
#
# Bulk Modulus (GPa) = 50.51277 80.91441 65.71359
# Shear Modulus (GPa) = -0.71912 27.18523 13.23305
#
# Velocity S-wave (km/s) = -0.60839 3.74066 2.60983
# Velocity P-wave (km/s) = 5.05035 7.76559 6.55020
#
# Compressibility (1/GPa) = 0.01979697
#
# Stress axis : x y z
#
# Youngs Moduli (GPa) = 100.17802 131.97324 35.54523
#
# Poissons Ratio (x) = 0.36561 0.17507
# Poissons Ratio (y) = 0.27753 0.18669
# Poissons Ratio (z) = 0.49341 0.69315
#
# Static dielectric constant tensor:
#      x y z
#    x 4.065090 0.000000 0.000000 
#    y 0.000000 3.661410 0.000000 
#    z 0.000000 0.000000 3.487500 
# 
# 
# High freq. dielectric constant tensor:
#      x y z
#    x 1.758740 0.000000 0.000000 
#    y 0.000000 1.774760 0.000000 
#    z 0.000000 0.000000 1.743320 
# 
# From -- ./inp_files/9485.got.cif
#   From: 2010.03.12/outbox.cif.g09.slc.cpg/sg57_5_cif.got.tgz:9485.got - 2010.04.16 15:48:40.
