data_PCOD8232415
_publ_section_title
;
Structure prediction by ZEFSAII (Michael W. Deem and Ramdas Pophale) SiO2 
 PCOD8232415
Probable space group: P B C M
;
_chemical_formula_sum "Si O2"
_cell_formula_units_Z 52
_cell_length_a 13.603078
_cell_length_b 10.195991
_cell_length_c 20.348883
_cell_angle_alpha 90.000000
_cell_angle_beta 90.000000
_cell_angle_gamma 90.000000
_cell_volume 2822.326194
_symmetry_space_group_name_H-M "P B C M"
_symmetry_group_IT_number 57
_symmetry_cell_setting 'orthorhombic'
loop_
_space_group_symop_operation_xyz
x,y,z
-x,-y,1/2+z
x,1/2-y,-z
-x,1/2+y,1/2-z
-x,-y,-z
x,y,1/2-z
-x,1/2+y,z
x,1/2-y,1/2+z
loop_
_atom_site_type_symbol
_atom_site_label
_atom_site_fract_x
_atom_site_fract_y
_atom_site_fract_z
Si Si1 0.440217 0.905402 0.674752
Si Si2 0.733229 0.687913 0.568546
Si Si3 0.633993 0.250000 0.000000
Si Si4 0.750264 0.093888 0.395684
Si Si5 0.509142 0.656250 0.599141
Si Si6 0.058211 0.564935 0.325791
Si Si7 0.891830 0.732152 0.826299
O O1 0.469959 0.922858 0.750000
O O2 0.323451 0.928875 0.665757
O O3 0.467985 0.761301 0.650669
O O4 0.496632 0.013546 0.631585
O O5 0.766513 0.750000 0.500000
O O6 0.761441 0.536634 0.561648
O O7 0.617610 0.704776 0.580363
O O8 0.794248 0.748612 0.629693
O O9 0.705389 0.300088 0.943896
O O10 0.560505 0.145259 0.965569
O O11 0.855473 0.134876 0.367302
O O12 0.081744 0.590124 0.250000
O O13 0.052998 0.407843 0.340188
O O14 0.959762 0.643361 0.345196
O O15 0.860047 0.738742 0.750000
#
# Coordination Sequence:
#
# PCOD8232415 Si02
#       7
#     8   8   4   8   8   8   8
#     4  10  20  34  52  81 107 137 181 225 266 318
#     4  10  20  35  54  80 107 143 180 219 265 321
#     4  10  20  36  52  80 106 144 188 214 262 320
#     4   9  20  34  55  75 105 145 175 214 267 323
#     4  10  21  33  57  74 109 147 177 220 269 317
#     4   9  17  36  58  79 103 137 175 218 270 320
#     4   9  19  36  58  80 107 139 178 219 271 324
#
# _framework density 18.424517999999999
#
# number of rings (size 3 to 8) (size 9 to 14) (size 15 to 20)
#    0.000    2.462    0.769    0.923    2.154    6.154 
#    4.154    1.538    0.000    3.692    0.000    0.000 
#    0.000    0.000    0.000    0.000    0.000    0.000 
#
# Total GULP energy -644522.030194 kJ/mol
# GULP energy per Si atom -12394.654427 kJ/mol
# Density = 1.838258 g / cm^3
# Si number density = 18.424518 Si / 1000 Ang^3
#
#
#
# Elastic Constant Matrix: (Units=GPa)
#
#
# Indices 1 2 3 4 5 6 
#
# 1 63.9671 8.0192 22.4297 0.0000 0.0000 0.0000
# 2 8.0192 38.6917 4.9338 0.0000 0.0000 0.0000
# 3 22.4297 4.9338 72.1799 0.0000 0.0000 0.0000
# 4 0.0000 0.0000 0.0000 22.1673 0.0000 0.0000
# 5 0.0000 0.0000 0.0000 0.0000 26.5140 0.0000
# 6 0.0000 0.0000 0.0000 0.0000 0.0000 25.6023
#
#
#
# Elastic Compliance Matrix: (Units=1/GPa)
#
#
# Indices 1 2 3 4 5 6 
#
# 1 0.017889 -0.003025 -0.005352 0.000000 0.000000 0.000000
# 2 -0.003025 0.026584 -0.000877 0.000000 0.000000 0.000000
# 3 -0.005352 -0.000877 0.015577 0.000000 0.000000 0.000000
# 4 0.000000 0.000000 0.000000 0.045112 0.000000 0.000000
# 5 0.000000 0.000000 0.000000 0.000000 0.037716 0.000000
# 6 0.000000 0.000000 0.000000 0.000000 0.000000 0.039059
#
#
# Mechanical properties :
#
#
# Convention : Reuss Voigt Hill
#
# Bulk Modulus (GPa) = 24.07219 27.28934 25.68077
# Shear Modulus (GPa) = 23.33254 24.15379 23.74317
#
# Velocity S-wave (km/s) = 3.56249 3.62465 3.59370
# Velocity P-wave (km/s) = 5.47864 5.68867 5.58464
#
# Compressibility (1/GPa) = 0.04154171
#
# Stress axis : x y z
#
# Youngs Moduli (GPa) = 55.90032 37.61641 64.19561
#
# Poissons Ratio (x) = 0.11380 0.34359
# Poissons Ratio (y) = 0.16911 0.05630
# Poissons Ratio (z) = 0.29919 0.03299
#
# Static dielectric constant tensor:
#      x y z
#    x 3.421040 0.000000 0.000000 
#    y 0.000000 3.342900 0.000000 
#    z 0.000000 0.000000 3.412210 
# 
# 
# High freq. dielectric constant tensor:
#      x y z
#    x 1.706780 0.000000 0.000000 
#    y 0.000000 1.708460 0.000000 
#    z 0.000000 0.000000 1.716520 
# 
# From -- ./inp_files/22576.got.cif
#   From: 2010.03.12/outbox.cif.g09.slc.cpg/sg57_12_cif.got.tgz:22576.got - 2010.04.16 15:48:40.
