data_PCOD8232819
_publ_section_title
;
Structure prediction by ZEFSAII (Michael W. Deem and Ramdas Pophale) SiO2 
 PCOD8232819
Probable space group: P B C M
;
_chemical_formula_sum "Si O2"
_cell_formula_units_Z 56
_cell_length_a 7.003118
_cell_length_b 27.156682
_cell_length_c 14.306105
_cell_angle_alpha 90.000000
_cell_angle_beta 90.000000
_cell_angle_gamma 90.000000
_cell_volume 2720.755772
_symmetry_space_group_name_H-M "P B C M"
_symmetry_group_IT_number 57
_symmetry_cell_setting 'orthorhombic'
loop_
_space_group_symop_operation_xyz
x,y,z
-x,-y,1/2+z
x,1/2-y,-z
-x,1/2+y,1/2-z
-x,-y,-z
x,y,1/2-z
-x,1/2+y,z
x,1/2-y,1/2+z
loop_
_atom_site_type_symbol
_atom_site_label
_atom_site_fract_x
_atom_site_fract_y
_atom_site_fract_z
Si Si1 0.266909 0.140815 0.001843
Si Si2 0.935708 0.473698 0.640712
Si Si3 0.672009 0.192208 0.001348
Si Si4 0.943772 0.362413 0.861640
Si Si5 0.774344 0.048652 0.854905
Si Si6 0.955102 0.348107 0.357294
Si Si7 0.388508 0.461460 0.439211
O O1 0.466663 0.167632 0.005372
O O2 0.151181 0.152366 0.097500
O O3 0.287406 0.081773 0.996519
O O4 0.152166 0.161975 0.912055
O O5 0.970853 0.467500 0.750000
O O6 0.901357 0.418481 0.602042
O O7 0.752963 0.508281 0.626783
O O8 0.121553 0.501633 0.592691
O O9 0.786584 0.173080 0.092310
O O10 0.643890 0.250000 0.000000
O O11 0.780253 0.180142 0.905186
O O12 0.940461 0.355958 0.750000
O O13 0.765196 0.030691 0.750000
O O14 0.916475 0.094117 0.865884
O O15 0.561090 0.064017 0.882161
O O16 0.975035 0.330595 0.250000
O O17 0.500000 0.500000 0.500000
#
# Coordination Sequence:
#
# PCOD8232819 Si02
#       7
#     8   8   8   8   8   8   8
#     4  11  23  39  64  95 128 167 210 263 317 372
#     4  10  21  37  58  88 127 169 208 249 301 371
#     4  11  25  46  67  93 124 161 212 273 330 379
#     4  10  24  45  67  92 129 172 214 258 311 379
#     4  10  20  35  56  86 127 168 205 247 298 369
#     4  10  22  41  66  95 127 163 206 259 320 381
#     4  12  22  31  55  89 128 167 207 248 303 368
#
# _framework density 20.582516999999999
#
# number of rings (size 3 to 8) (size 9 to 14) (size 15 to 20)
#    0.000    1.429    2.857    2.143    2.000    5.714 
#    0.000    3.571    0.000    0.000    0.000    0.000 
#    0.000    0.000    0.000    0.000    0.000    0.000 
#
# Total GULP energy -694102.803883 kJ/mol
# GULP energy per Si atom -12394.692926 kJ/mol
# Density = 2.053567 g / cm^3
# Si number density = 20.582517 Si / 1000 Ang^3
#
#
#
# Elastic Constant Matrix: (Units=GPa)
#
#
# Indices 1 2 3 4 5 6 
#
# 1 164.4670 32.2221 72.5715 0.0000 0.0000 0.0000
# 2 32.2221 87.1821 37.0004 0.0000 0.0000 0.0000
# 3 72.5715 37.0004 128.5103 0.0000 0.0000 0.0000
# 4 0.0000 0.0000 0.0000 18.5466 0.0000 0.0000
# 5 0.0000 0.0000 0.0000 0.0000 17.8256 0.0000
# 6 0.0000 0.0000 0.0000 0.0000 0.0000 37.4728
#
#
#
# Elastic Compliance Matrix: (Units=1/GPa)
#
#
# Indices 1 2 3 4 5 6 
#
# 1 0.008210 -0.001215 -0.004286 0.000000 0.000000 0.000000
# 2 -0.001215 0.013247 -0.003128 0.000000 0.000000 0.000000
# 3 -0.004286 -0.003128 0.011103 0.000000 0.000000 0.000000
# 4 0.000000 0.000000 0.000000 0.053918 0.000000 0.000000
# 5 0.000000 0.000000 0.000000 0.000000 0.056099 0.000000
# 6 0.000000 0.000000 0.000000 0.000000 0.000000 0.026686
#
#
# Mechanical properties :
#
#
# Convention : Reuss Voigt Hill
#
# Bulk Modulus (GPa) = 65.35677 73.74971 69.55324
# Shear Modulus (GPa) = 26.09320 30.66002 28.37661
#
# Velocity S-wave (km/s) = 3.56439 3.86374 3.71708
# Velocity P-wave (km/s) = 6.98300 7.47085 7.23104
#
# Compressibility (1/GPa) = 0.01530063
#
# Stress axis : x y z
#
# Youngs Moduli (GPa) = 121.80819 75.48995 90.06977
#
# Poissons Ratio (x) = 0.09173 0.38606
# Poissons Ratio (y) = 0.14802 0.28172
# Poissons Ratio (z) = 0.52210 0.23612
#
# Static dielectric constant tensor:
#      x y z
#    x 3.096820 0.000000 0.000000 
#    y 0.000000 3.652090 0.000000 
#    z 0.000000 0.000000 3.824330 
# 
# 
# High freq. dielectric constant tensor:
#      x y z
#    x 1.819240 0.000000 0.000000 
#    y 0.000000 1.791790 0.000000 
#    z 0.000000 0.000000 1.803840 
# 
# From -- ./inp_files/15252.got.cif
#   From: 2010.03.12/outbox.cif.g09.slc.cpg/sg57_8_cif.got.tgz:15252.got - 2010.04.16 15:48:40.
