data_PCOD8232451
_publ_section_title
;
Structure prediction by ZEFSAII (Michael W. Deem and Ramdas Pophale) SiO2 
 PCOD8232451
Probable space group: P B C M
;
_chemical_formula_sum "Si O2"
_cell_formula_units_Z 64
_cell_length_a 12.212212
_cell_length_b 29.076337
_cell_length_c 9.329251
_cell_angle_alpha 90.000000
_cell_angle_beta 90.000000
_cell_angle_gamma 90.000000
_cell_volume 3312.690074
_symmetry_space_group_name_H-M "P B C M"
_symmetry_group_IT_number 57
_symmetry_cell_setting 'orthorhombic'
loop_
_space_group_symop_operation_xyz
x,y,z
-x,-y,1/2+z
x,1/2-y,-z
-x,1/2+y,1/2-z
-x,-y,-z
x,y,1/2-z
-x,1/2+y,z
x,1/2-y,1/2+z
loop_
_atom_site_type_symbol
_atom_site_label
_atom_site_fract_x
_atom_site_fract_y
_atom_site_fract_z
Si Si1 0.514595 0.560446 0.910147
Si Si2 0.328432 0.008154 0.418228
Si Si3 0.941957 0.703313 0.082904
Si Si4 0.491347 0.164230 0.911086
Si Si5 0.093842 0.972125 0.080730
Si Si6 0.688439 0.704906 0.085400
Si Si7 0.091808 0.635414 0.917118
Si Si8 0.718540 0.294987 0.416679
O O1 0.545532 0.544770 0.750000
O O2 0.411070 0.531910 0.967951
O O3 0.470633 0.611895 0.912687
O O4 0.624867 0.553924 0.004991
O O5 0.328380 0.016598 0.250000
O O6 0.207357 0.995036 0.470348
O O7 0.973344 0.709201 0.250000
O O8 0.814364 0.692147 0.063461
O O9 0.974983 0.750000 0.000000
O O10 0.000303 0.659552 0.014059
O O11 0.456713 0.179059 0.750000
O O12 0.594519 0.194084 0.965232
O O13 0.388644 0.166130 0.018173
O O14 0.076409 0.977548 0.250000
O O15 0.096457 0.918160 0.038655
O O16 0.000000 0.000000 0.000000
O O17 0.658950 0.712275 0.250000
O O18 0.654875 0.750000 0.000000
O O19 0.060655 0.640666 0.750000
O O20 0.206576 0.660647 0.950828
O O21 0.761852 0.250000 0.500000
O O22 0.723671 0.283107 0.250000
#
# Coordination Sequence:
#
# PCOD8232451 Si02
#       8
#     8   8   8   8   8   8   8   8
#     4   9  18  33  55  80 104 136 177 219 262 312
#     4   9  18  35  56  77 105 139 175 217 268 320
#     4  10  21  37  57  81 109 142 182 228 275 325
#     4  10  20  34  53  78 109 142 176 215 261 315
#     4  10  22  39  58  80 109 146 184 227 280 334
#     4  10  21  36  53  74 103 138 174 213 258 308
#     4  10  21  38  59  81 108 144 185 227 275 332
#     4  10  21  36  55  81 112 145 180 220 268 323
#
# _framework density 19.319647
#
# number of rings (size 3 to 8) (size 9 to 14) (size 15 to 20)
#    0.000    2.250    0.000    2.250    0.000   10.000 
#    0.000    5.000    0.000    4.500    0.000    0.000 
#    0.000    0.000    0.000    0.000    0.000    0.000 
#
# Total GULP energy -793537.956443 kJ/mol
# GULP energy per Si atom -12399.030569 kJ/mol
# Density = 1.927568 g / cm^3
# Si number density = 19.319647 Si / 1000 Ang^3
#
#
#
# Elastic Constant Matrix: (Units=GPa)
#
#
# Indices 1 2 3 4 5 6 
#
# 1 119.2243 52.5820 59.1432 0.0000 0.0000 0.0000
# 2 52.5820 97.8655 41.6552 0.0000 0.0000 0.0000
# 3 59.1432 41.6552 80.1012 0.0000 0.0000 0.0000
# 4 0.0000 0.0000 0.0000 33.0471 0.0000 0.0000
# 5 0.0000 0.0000 0.0000 0.0000 30.9429 0.0000
# 6 0.0000 0.0000 0.0000 0.0000 0.0000 31.9978
#
#
#
# Elastic Compliance Matrix: (Units=1/GPa)
#
#
# Indices 1 2 3 4 5 6 
#
# 1 0.014429 -0.004133 -0.008505 0.000000 0.000000 0.000000
# 2 -0.004133 0.014306 -0.004388 0.000000 0.000000 0.000000
# 3 -0.008505 -0.004388 0.021046 0.000000 0.000000 0.000000
# 4 0.000000 0.000000 0.000000 0.030260 0.000000 0.000000
# 5 0.000000 0.000000 0.000000 0.000000 0.032318 0.000000
# 6 0.000000 0.000000 0.000000 0.000000 0.000000 0.031252
#
#
# Mechanical properties :
#
#
# Convention : Reuss Voigt Hill
#
# Bulk Modulus (GPa) = 63.57369 67.10576 65.33973
# Shear Modulus (GPa) = 27.33649 28.78493 28.06071
#
# Velocity S-wave (km/s) = 3.76567 3.86415 3.81523
# Velocity P-wave (km/s) = 7.20311 7.39721 7.30080
#
# Compressibility (1/GPa) = 0.01572978
#
# Stress axis : x y z
#
# Youngs Moduli (GPa) = 69.30442 69.89877 47.51541
#
# Poissons Ratio (x) = 0.28887 0.40410
# Poissons Ratio (y) = 0.28641 0.20852
# Poissons Ratio (z) = 0.58941 0.30674
#
# Static dielectric constant tensor:
#      x y z
#    x 3.581220 0.000000 0.000000 
#    y 0.000000 3.491360 0.000000 
#    z 0.000000 0.000000 3.559390 
# 
# 
# High freq. dielectric constant tensor:
#      x y z
#    x 1.756940 0.000000 0.000000 
#    y 0.000000 1.749420 0.000000 
#    z 0.000000 0.000000 1.747190 
# 
# From -- ./inp_files/3883.got.cif
#   From: 2010.03.12/outbox.cif.g09.slc.cpg/sg57_2_cif.got.tgz:3883.got - 2010.04.16 15:48:40.
