data_PCOD8232273
_publ_section_title
;
Structure prediction by ZEFSAII (Michael W. Deem and Ramdas Pophale) SiO2 
 PCOD8232273
Probable space group: P B C M
;
_chemical_formula_sum "Si O2"
_cell_formula_units_Z 64
_cell_length_a 22.796107
_cell_length_b 17.138859
_cell_length_c 8.755211
_cell_angle_alpha 90.000000
_cell_angle_beta 90.000000
_cell_angle_gamma 90.000000
_cell_volume 3420.654491
_symmetry_space_group_name_H-M "P B C M"
_symmetry_group_IT_number 57
_symmetry_cell_setting 'orthorhombic'
loop_
_space_group_symop_operation_xyz
x,y,z
-x,-y,1/2+z
x,1/2-y,-z
-x,1/2+y,1/2-z
-x,-y,-z
x,y,1/2-z
-x,1/2+y,z
x,1/2-y,1/2+z
loop_
_atom_site_type_symbol
_atom_site_label
_atom_site_fract_x
_atom_site_fract_y
_atom_site_fract_z
Si Si1 0.064031 0.088292 0.572644
Si Si2 0.044241 0.832848 0.930673
Si Si3 0.436575 0.331237 0.929479
Si Si4 0.639334 0.981996 0.925287
Si Si5 0.181230 0.329492 0.075704
Si Si6 0.471059 0.925894 0.074312
Si Si7 0.130180 0.556831 0.931094
Si Si8 0.762115 0.513443 0.569954
O O1 0.046136 0.079169 0.750000
O O2 0.111910 0.156830 0.551927
O O3 0.091506 0.008366 0.514330
O O4 0.007559 0.107040 0.471562
O O5 0.052143 0.827381 0.750000
O O6 0.026699 0.750000 0.000000
O O7 0.104640 0.860772 0.010229
O O8 0.439801 0.322192 0.750000
O O9 0.393316 0.402100 0.977631
O O10 0.413548 0.250000 0.000000
O O11 0.502804 0.349397 0.990625
O O12 0.659352 0.972811 0.750000
O O13 0.598646 0.059388 0.943780
O O14 0.694358 0.998865 0.032525
O O15 0.198201 0.321256 0.250000
O O16 0.218004 0.401725 0.007066
O O17 0.202038 0.250000 0.000000
O O18 0.489263 0.920632 0.250000
O O19 0.500000 0.000000 0.000000
O O20 0.125194 0.549468 0.750000
O O21 0.197964 0.550666 0.983663
O O22 0.773497 0.505630 0.750000
#
# Coordination Sequence:
#
# PCOD8232273 Si02
#       8
#     8   8   8   8   8   8   8   8
#     4  10  20  36  55  79 108 138 175 217 264 320
#     4  12  24  38  56  81 109 137 172 216 268 324
#     4  10  20  33  51  78 112 145 177 213 260 310
#     4   9  19  34  52  76 103 136 177 218 258 308
#     4   9  19  32  47  69 100 135 171 210 254 305
#     4   9  17  31  51  75 104 136 173 213 255 301
#     4  11  22  38  58  79 105 140 178 220 268 317
#     4  10  21  36  53  75 102 137 179 221 262 309
#
# _framework density 18.709869999999999
#
# number of rings (size 3 to 8) (size 9 to 14) (size 15 to 20)
#    0.000    2.000    0.000    6.000    0.000    7.500 
#    0.000    2.500    0.000    0.750    0.000    1.750 
#    0.000    0.000    0.000    0.000    0.000    0.000 
#
# Total GULP energy -793518.583731 kJ/mol
# GULP energy per Si atom -12398.727871 kJ/mol
# Density = 1.866729 g / cm^3
# Si number density = 18.709870 Si / 1000 Ang^3
#
#
#
# Elastic Constant Matrix: (Units=GPa)
#
#
# Indices 1 2 3 4 5 6 
#
# 1 95.3623 21.6607 36.1484 0.0000 0.0000 0.0000
# 2 21.6607 35.9542 16.3354 0.0000 0.0000 0.0000
# 3 36.1484 16.3354 88.7591 0.0000 0.0000 0.0000
# 4 0.0000 0.0000 0.0000 31.3651 0.0000 0.0000
# 5 0.0000 0.0000 0.0000 0.0000 32.3084 0.0000
# 6 0.0000 0.0000 0.0000 0.0000 0.0000 17.9016
#
#
#
# Elastic Compliance Matrix: (Units=1/GPa)
#
#
# Indices 1 2 3 4 5 6 
#
# 1 0.013549 -0.006172 -0.004382 0.000000 0.000000 0.000000
# 2 -0.006172 0.033162 -0.003590 0.000000 0.000000 0.000000
# 3 -0.004382 -0.003590 0.013712 0.000000 0.000000 0.000000
# 4 0.000000 0.000000 0.000000 0.031883 0.000000 0.000000
# 5 0.000000 0.000000 0.000000 0.000000 0.030952 0.000000
# 6 0.000000 0.000000 0.000000 0.000000 0.000000 0.055861
#
#
# Mechanical properties :
#
#
# Convention : Reuss Voigt Hill
#
# Bulk Modulus (GPa) = 31.11783 40.92940 36.02361
# Shear Modulus (GPa) = 22.92334 26.04376 24.48355
#
# Velocity S-wave (km/s) = 3.50408 3.73497 3.62137
# Velocity P-wave (km/s) = 5.74799 6.36579 6.06476
#
# Compressibility (1/GPa) = 0.03213592
#
# Stress axis : x y z
#
# Youngs Moduli (GPa) = 73.80422 30.15471 72.92951
#
# Poissons Ratio (x) = 0.18611 0.31960
# Poissons Ratio (y) = 0.45550 0.26180
# Poissons Ratio (z) = 0.32343 0.10825
#
# Static dielectric constant tensor:
#      x y z
#    x 3.528540 0.000000 0.000000 
#    y 0.000000 3.550640 0.000000 
#    z 0.000000 0.000000 3.589070 
# 
# 
# High freq. dielectric constant tensor:
#      x y z
#    x 1.715560 0.000000 0.000000 
#    y 0.000000 1.706480 0.000000 
#    z 0.000000 0.000000 1.738160 
# 
# From -- ./inp_files/9554.got.cif
#   From: 2010.03.12/outbox.cif.g09.slc.cpg/sg57_5_cif.got.tgz:9554.got - 2010.04.16 15:48:40.
