data_PCOD8232598
_publ_section_title
;
Structure prediction by ZEFSAII (Michael W. Deem and Ramdas Pophale) SiO2 
 PCOD8232598
Probable space group: P B C M
;
_chemical_formula_sum "Si O2"
_cell_formula_units_Z 48
_cell_length_a 15.360475
_cell_length_b 17.752616
_cell_length_c 8.541612
_cell_angle_alpha 90.000000
_cell_angle_beta 90.000000
_cell_angle_gamma 90.000000
_cell_volume 2329.200340
_symmetry_space_group_name_H-M "P B C M"
_symmetry_group_IT_number 57
_symmetry_cell_setting 'orthorhombic'
loop_
_space_group_symop_operation_xyz
x,y,z
-x,-y,1/2+z
x,1/2-y,-z
-x,1/2+y,1/2-z
-x,-y,-z
x,y,1/2-z
-x,1/2+y,z
x,1/2-y,1/2+z
loop_
_atom_site_type_symbol
_atom_site_label
_atom_site_fract_x
_atom_site_fract_y
_atom_site_fract_z
Si Si1 0.804025 0.833692 0.933714
Si Si2 0.022254 0.167799 0.930775
Si Si3 0.362378 0.425394 0.933541
Si Si4 0.169919 0.666205 0.933157
Si Si5 0.330576 0.914147 0.932744
Si Si6 0.513523 0.329261 0.066105
O O1 0.801490 0.828843 0.750000
O O2 0.725186 0.885044 0.995076
O O3 0.793972 0.750000 0.000000
O O4 0.895579 0.873028 0.986205
O O5 0.045416 0.173178 0.750000
O O6 0.927273 0.130844 0.958636
O O7 0.015744 0.250000 0.000000
O O8 0.378104 0.411821 0.750000
O O9 0.356069 0.513508 0.966321
O O10 0.443264 0.393223 0.029608
O O11 0.193760 0.668413 0.750000
O O12 0.177654 0.750000 0.000000
O O13 0.233145 0.610838 0.025831
O O14 0.337477 0.932673 0.750000
O O15 0.395932 0.847347 0.979669
O O16 0.529740 0.324064 0.250000
O O17 0.478409 0.250000 0.000000
#
# Coordination Sequence:
#
# PCOD8232598 Si02
#       6
#     8   8   8   8   8   8
#     4  10  20  34  57  85 116 151 191 238 286 337
#     4   9  17  30  53  82 114 149 190 238 287 336
#     4  11  24  42  61  86 119 155 193 237 288 344
#     4  10  20  36  58  86 117 152 194 242 289 340
#     4  12  25  41  61  86 117 155 193 236 289 346
#     4  12  25  43  66  91 118 150 190 237 284 339
#
# _framework density 20.60793
#
# number of rings (size 3 to 8) (size 9 to 14) (size 15 to 20)
#    0.000    1.333    0.000    7.500    0.000    6.000 
#    0.000    0.833    0.000    0.000    0.000    0.000 
#    0.000    0.000    0.000    0.000    0.000    0.000 
#
# Total GULP energy -595269.662236 kJ/mol
# GULP energy per Si atom -12401.451297 kJ/mol
# Density = 2.056103 g / cm^3
# Si number density = 20.607930 Si / 1000 Ang^3
#
#
#
# Elastic Constant Matrix: (Units=GPa)
#
#
# Indices 1 2 3 4 5 6 
#
# 1 117.8376 16.5169 39.2518 0.0000 0.0000 0.0000
# 2 16.5169 61.3698 11.2016 0.0000 0.0000 0.0000
# 3 39.2518 11.2016 92.5410 0.0000 0.0000 0.0000
# 4 0.0000 0.0000 0.0000 29.5852 0.0000 0.0000
# 5 0.0000 0.0000 0.0000 0.0000 38.3687 0.0000
# 6 0.0000 0.0000 0.0000 0.0000 0.0000 12.3258
#
#
#
# Elastic Compliance Matrix: (Units=1/GPa)
#
#
# Indices 1 2 3 4 5 6 
#
# 1 0.010113 -0.001983 -0.004050 0.000000 0.000000 0.000000
# 2 -0.001983 0.017052 -0.001223 0.000000 0.000000 0.000000
# 3 -0.004050 -0.001223 0.012672 0.000000 0.000000 0.000000
# 4 0.000000 0.000000 0.000000 0.033801 0.000000 0.000000
# 5 0.000000 0.000000 0.000000 0.000000 0.026063 0.000000
# 6 0.000000 0.000000 0.000000 0.000000 0.000000 0.081131
#
#
# Mechanical properties :
#
#
# Convention : Reuss Voigt Hill
#
# Bulk Modulus (GPa) = 39.48536 45.07652 42.28094
# Shear Modulus (GPa) = 24.53591 29.70781 27.12186
#
# Velocity S-wave (km/s) = 3.45426 3.80092 3.63173
# Velocity P-wave (km/s) = 5.92546 6.41744 6.17635
#
# Compressibility (1/GPa) = 0.02532584
#
# Stress axis : x y z
#
# Youngs Moduli (GPa) = 98.88209 58.64584 78.91608
#
# Poissons Ratio (x) = 0.11627 0.31957
# Poissons Ratio (y) = 0.19605 0.09652
# Poissons Ratio (z) = 0.40042 0.07173
#
# Static dielectric constant tensor:
#      x y z
#    x 4.428810 0.000000 0.000000 
#    y 0.000000 3.738500 0.000000 
#    z 0.000000 0.000000 3.040520 
# 
# 
# High freq. dielectric constant tensor:
#      x y z
#    x 1.830420 0.000000 0.000000 
#    y 0.000000 1.777060 0.000000 
#    z 0.000000 0.000000 1.820390 
# 
# From -- ./inp_files/4657.got.cif
#   From: 2010.03.12/outbox.cif.g09.slc.cpg/sg57_3_cif.got.tgz:4657.got - 2010.04.16 15:48:40.
