data_PCOD8232165
_publ_section_title
;
Structure prediction by ZEFSAII (Michael W. Deem and Ramdas Pophale) SiO2 
 PCOD8232165
Probable space group: P B C M
;
_chemical_formula_sum "Si O2"
_cell_formula_units_Z 64
_cell_length_a 15.381577
_cell_length_b 23.839065
_cell_length_c 8.935046
_cell_angle_alpha 90.000000
_cell_angle_beta 90.000000
_cell_angle_gamma 90.000000
_cell_volume 3276.324236
_symmetry_space_group_name_H-M "P B C M"
_symmetry_group_IT_number 57
_symmetry_cell_setting 'orthorhombic'
loop_
_space_group_symop_operation_xyz
x,y,z
-x,-y,1/2+z
x,1/2-y,-z
-x,1/2+y,1/2-z
-x,-y,-z
x,y,1/2-z
-x,1/2+y,z
x,1/2-y,1/2+z
loop_
_atom_site_type_symbol
_atom_site_label
_atom_site_fract_x
_atom_site_fract_y
_atom_site_fract_z
Si Si1 0.709707 0.310081 0.426976
Si Si2 0.464498 0.874652 0.075671
Si Si3 0.633229 0.892046 0.926153
Si Si4 0.129481 0.633770 0.423846
Si Si5 0.033961 0.190261 0.927634
Si Si6 0.190769 0.517297 0.079019
Si Si7 0.365768 0.518773 0.574187
Si Si8 0.813371 0.608380 0.925716
O O1 0.721206 0.250000 0.500000
O O2 0.728710 0.308180 0.250000
O O3 0.612220 0.331206 0.460028
O O4 0.777476 0.350726 0.507926
O O5 0.486867 0.875554 0.250000
O O6 0.436948 0.936726 0.016381
O O7 0.552043 0.855909 0.988307
O O8 0.639892 0.884920 0.750000
O O9 0.613330 0.955833 0.978312
O O10 0.724375 0.872141 0.995339
O O11 0.124627 0.651577 0.250000
O O12 0.117749 0.565879 0.441375
O O13 0.056417 0.665839 0.515340
O O14 0.029678 0.196178 0.750000
O O15 0.110344 0.148907 0.981178
O O16 0.053043 0.250000 0.000000
O O17 0.221382 0.513884 0.250000
O O18 0.158896 0.455317 0.027932
O O19 0.272518 0.537399 0.984567
O O20 0.359671 0.523601 0.750000
O O21 0.798815 0.614002 0.750000
#
# Coordination Sequence:
#
# PCOD8232165 Si02
#       8
#     8   8   8   8   8   8   8   8
#     4  11  23  39  58  80 112 153 195 239 285 337
#     4  10  20  34  53  77 111 152 190 229 277 333
#     4  10  20  32  54  85 115 146 185 233 280 332
#     4  11  22  37  60  89 119 148 184 231 283 343
#     4  11  24  42  64  86 111 147 192 239 285 338
#     4   9  18  33  56  86 118 151 185 225 279 342
#     4   9  17  31  50  79 115 150 186 225 274 330
#     4   9  20  40  61  83 115 152 189 233 288 342
#
# _framework density 19.534087
#
# number of rings (size 3 to 8) (size 9 to 14) (size 15 to 20)
#    0.000    2.000    1.250    2.250    0.000    4.000 
#    0.000    0.625    0.000    0.000    0.000    0.000 
#    0.000    0.000    0.000    0.000    0.000    0.000 
#
# Total GULP energy -793465.474988 kJ/mol
# GULP energy per Si atom -12397.898047 kJ/mol
# Density = 1.948963 g / cm^3
# Si number density = 19.534087 Si / 1000 Ang^3
#
#
#
# Elastic Constant Matrix: (Units=GPa)
#
#
# Indices 1 2 3 4 5 6 
#
# 1 85.6702 59.0066 35.4014 0.0000 0.0000 0.0000
# 2 59.0066 94.6368 31.2339 0.0000 0.0000 0.0000
# 3 35.4014 31.2339 46.3150 0.0000 0.0000 0.0000
# 4 0.0000 0.0000 0.0000 20.3900 0.0000 0.0000
# 5 0.0000 0.0000 0.0000 0.0000 30.5341 0.0000
# 6 0.0000 0.0000 0.0000 0.0000 0.0000 23.6256
#
#
#
# Elastic Compliance Matrix: (Units=1/GPa)
#
#
# Indices 1 2 3 4 5 6 
#
# 1 0.023904 -0.011415 -0.010573 0.000000 0.000000 0.000000
# 2 -0.011415 0.019043 -0.004117 0.000000 0.000000 0.000000
# 3 -0.010573 -0.004117 0.032450 0.000000 0.000000 0.000000
# 4 0.000000 0.000000 0.000000 0.049044 0.000000 0.000000
# 5 0.000000 0.000000 0.000000 0.000000 0.032750 0.000000
# 6 0.000000 0.000000 0.000000 0.000000 0.000000 0.042327
#
#
# Mechanical properties :
#
#
# Convention : Reuss Voigt Hill
#
# Bulk Modulus (GPa) = 43.12958 53.10066 48.11512
# Shear Modulus (GPa) = 19.27112 21.64196 20.45654
#
# Velocity S-wave (km/s) = 3.14433 3.33214 3.23959
# Velocity P-wave (km/s) = 5.94218 6.48435 6.21917
#
# Compressibility (1/GPa) = 0.02318595
#
# Stress axis : x y z
#
# Youngs Moduli (GPa) = 41.83424 52.51403 30.81697
#
# Poissons Ratio (x) = 0.59942 0.32584
# Poissons Ratio (y) = 0.47752 0.12687
# Poissons Ratio (z) = 0.44233 0.21620
#
# Static dielectric constant tensor:
#      x y z
#    x 3.534610 0.000000 0.000000 
#    y 0.000000 3.681770 0.000000 
#    z 0.000000 0.000000 3.519400 
# 
# 
# High freq. dielectric constant tensor:
#      x y z
#    x 1.755850 0.000000 0.000000 
#    y 0.000000 1.755100 0.000000 
#    z 0.000000 0.000000 1.762780 
# 
# From -- ./inp_files/5760.got.cif
#   From: 2010.03.12/outbox.cif.g09.slc.cpg/sg57_3_cif.got.tgz:5760.got - 2010.04.16 15:48:40.
