data_PCOD8232942
_publ_section_title
;
Structure prediction by ZEFSAII (Michael W. Deem and Ramdas Pophale) SiO2 
 PCOD8232942
Probable space group: P B C M
;
_chemical_formula_sum "Si O2"
_cell_formula_units_Z 64
_cell_length_a 12.448583
_cell_length_b 13.996349
_cell_length_c 18.177598
_cell_angle_alpha 90.000000
_cell_angle_beta 90.000000
_cell_angle_gamma 90.000000
_cell_volume 3167.168556
_symmetry_space_group_name_H-M "P B C M"
_symmetry_group_IT_number 57
_symmetry_cell_setting 'orthorhombic'
loop_
_space_group_symop_operation_xyz
x,y,z
-x,-y,1/2+z
x,1/2-y,-z
-x,1/2+y,1/2-z
-x,-y,-z
x,y,1/2-z
-x,1/2+y,z
x,1/2-y,1/2+z
loop_
_atom_site_type_symbol
_atom_site_label
_atom_site_fract_x
_atom_site_fract_y
_atom_site_fract_z
Si Si1 0.039251 0.586397 0.836998
Si Si2 0.046525 0.808346 0.832574
Si Si3 0.207022 0.982167 0.451050
Si Si4 0.558448 0.520517 0.423052
Si Si5 0.832106 0.025321 0.110830
Si Si6 0.861848 0.817298 0.937151
Si Si7 0.637020 0.730758 0.085259
Si Si8 0.617101 0.577448 0.663742
O O1 0.043939 0.562797 0.750000
O O2 0.060125 0.697981 0.853256
O O3 0.136542 0.537603 0.879492
O O4 0.926489 0.550919 0.870837
O O5 0.005599 0.816645 0.750000
O O6 0.953833 0.853524 0.882757
O O7 0.151181 0.875901 0.843129
O O8 0.329741 0.962358 0.428707
O O9 0.168820 0.932709 0.526905
O O10 0.193845 0.092399 0.475759
O O11 0.500000 0.500000 0.500000
O O12 0.577211 0.630831 0.400409
O O13 0.488554 0.482581 0.355407
O O14 0.719729 0.974540 0.127717
O O15 0.763948 0.767456 0.893407
O O16 0.912227 0.750000 0.000000
O O17 0.590407 0.816756 0.133553
O O18 0.621460 0.750000 0.000000
O O19 0.635690 0.582200 0.750000
#
# Coordination Sequence:
#
# PCOD8232942 Si02
#       8
#     8   8   8   8   8   8   8   8
#     4  11  24  41  60  93 135 170 215 271 330 392
#     4  11  24  38  58  90 131 173 212 260 328 398
#     4  11  23  40  67  92 126 172 220 267 323 392
#     4  11  22  45  69  95 129 172 219 278 333 391
#     4  12  23  42  67  94 133 174 218 268 333 397
#     4  10  20  35  62  95 124 161 217 269 314 379
#     4  10  20  40  69  96 127 169 223 275 329 398
#     4  12  25  43  69 101 134 172 224 280 335 389
#
# _framework density 20.207322999999999
#
# number of rings (size 3 to 8) (size 9 to 14) (size 15 to 20)
#    0.000    1.000    3.750    4.500    1.750    2.500 
#    2.250    3.750    0.000    0.000    0.000    0.000 
#    0.000    0.000    0.000    0.000    0.000    0.000 
#
# Total GULP energy -793249.219933 kJ/mol
# GULP energy per Si atom -12394.519061 kJ/mol
# Density = 2.016133 g / cm^3
# Si number density = 20.207323 Si / 1000 Ang^3
#
#
#
# Elastic Constant Matrix: (Units=GPa)
#
#
# Indices 1 2 3 4 5 6 
#
# 1 112.3307 40.8074 52.9647 0.0000 0.0000 0.0000
# 2 40.8074 106.7957 27.5397 0.0000 0.0000 0.0000
# 3 52.9647 27.5397 99.7741 0.0000 0.0000 0.0000
# 4 0.0000 0.0000 0.0000 31.2772 0.0000 0.0000
# 5 0.0000 0.0000 0.0000 0.0000 25.7291 0.0000
# 6 0.0000 0.0000 0.0000 0.0000 0.0000 28.6026
#
#
#
# Elastic Compliance Matrix: (Units=1/GPa)
#
#
# Indices 1 2 3 4 5 6 
#
# 1 0.012936 -0.003415 -0.005925 0.000000 0.000000 0.000000
# 2 -0.003415 0.010983 -0.001218 0.000000 0.000000 0.000000
# 3 -0.005925 -0.001218 0.013504 0.000000 0.000000 0.000000
# 4 0.000000 0.000000 0.000000 0.031972 0.000000 0.000000
# 5 0.000000 0.000000 0.000000 0.000000 0.038867 0.000000
# 6 0.000000 0.000000 0.000000 0.000000 0.000000 0.034962
#
#
# Mechanical properties :
#
#
# Convention : Reuss Voigt Hill
#
# Bulk Modulus (GPa) = 61.32490 62.39158 61.85824
# Shear Modulus (GPa) = 29.45052 30.29437 29.87244
#
# Velocity S-wave (km/s) = 3.82176 3.87612 3.84904
# Velocity P-wave (km/s) = 7.06316 7.13969 7.10153
#
# Compressibility (1/GPa) = 0.01630659
#
# Stress axis : x y z
#
# Youngs Moduli (GPa) = 77.30068 91.05054 74.05207
#
# Poissons Ratio (x) = 0.31097 0.43873
# Poissons Ratio (y) = 0.26401 0.09023
# Poissons Ratio (z) = 0.45797 0.11094
#
# Static dielectric constant tensor:
#      x y z
#    x 3.711600 0.000000 0.000000 
#    y 0.000000 3.940820 0.000000 
#    z 0.000000 0.000000 3.654010 
# 
# 
# High freq. dielectric constant tensor:
#      x y z
#    x 1.781050 0.000000 0.000000 
#    y 0.000000 1.798420 0.000000 
#    z 0.000000 0.000000 1.789180 
# 
# From -- ./inp_files/22103.got.cif
#   From: 2010.03.12/outbox.cif.g09.slc.cpg/sg57_12_cif.got.tgz:22103.got - 2010.04.16 15:48:40.
