data_PCOD8232814
_publ_section_title
;
Structure prediction by ZEFSAII (Michael W. Deem and Ramdas Pophale) SiO2 
 PCOD8232814
Probable space group: P B C M
;
_chemical_formula_sum "Si O2"
_cell_formula_units_Z 64
_cell_length_a 21.361588
_cell_length_b 17.819259
_cell_length_c 9.058285
_cell_angle_alpha 90.000000
_cell_angle_beta 90.000000
_cell_angle_gamma 90.000000
_cell_volume 3448.015072
_symmetry_space_group_name_H-M "P B C M"
_symmetry_group_IT_number 57
_symmetry_cell_setting 'orthorhombic'
loop_
_space_group_symop_operation_xyz
x,y,z
-x,-y,1/2+z
x,1/2-y,-z
-x,1/2+y,1/2-z
-x,-y,-z
x,y,1/2-z
-x,1/2+y,z
x,1/2-y,1/2+z
loop_
_atom_site_type_symbol
_atom_site_label
_atom_site_fract_x
_atom_site_fract_y
_atom_site_fract_z
Si Si1 0.310245 0.539681 0.081006
Si Si2 0.994349 0.673611 0.579211
Si Si3 0.116358 0.407114 0.578969
Si Si4 0.116359 0.920253 0.420685
Si Si5 0.561610 0.530993 0.574728
Si Si6 0.776168 0.171210 0.078191
Si Si7 0.255475 0.095002 0.419388
Si Si8 0.380260 0.327620 0.925534
O O1 0.301618 0.518161 0.250000
O O2 0.382625 0.527642 0.035828
O O3 0.287891 0.624560 0.049329
O O4 0.263699 0.484328 0.997772
O O5 0.014480 0.750000 0.500000
O O6 0.984926 0.691712 0.750000
O O7 0.929395 0.642688 0.517507
O O8 0.047522 0.612214 0.551542
O O9 0.097113 0.400343 0.750000
O O10 0.114453 0.493592 0.527789
O O11 0.185956 0.373944 0.549545
O O12 0.136580 0.913619 0.250000
O O13 0.164665 0.873753 0.517793
O O14 0.500000 0.500000 0.500000
O O15 0.552593 0.540988 0.750000
O O16 0.575758 0.610314 0.499137
O O17 0.787829 0.185614 0.250000
O O18 0.767714 0.250000 0.000000
O O19 0.264528 0.075070 0.250000
O O20 0.307792 0.155313 0.467882
O O21 0.391360 0.324811 0.750000
O O22 0.399510 0.250000 0.000000
#
# Coordination Sequence:
#
# PCOD8232814 Si02
#       8
#     8   8   8   8   8   8   8   8
#     4   9  19  35  55  80 111 144 182 226 269 323
#     4  11  24  39  54  75 105 144 186 231 282 334
#     4  10  20  36  58  83 110 141 180 229 281 337
#     4  10  21  38  59  81 107 141 183 230 280 335
#     4  10  20  37  60  86 116 152 193 234 277 329
#     4  11  22  35  55  83 112 144 182 227 280 331
#     4   9  18  33  56  82 110 142 178 223 277 333
#     4  10  20  35  56  85 117 152 190 231 280 331
#
# _framework density 18.561402999999999
#
# number of rings (size 3 to 8) (size 9 to 14) (size 15 to 20)
#    0.000    2.000    1.250    2.250    0.000    5.000 
#    0.000    1.875    0.000    1.500    0.000    0.000 
#    0.000    0.000    0.000    0.000    0.000    0.000 
#
# Total GULP energy -793672.876203 kJ/mol
# GULP energy per Si atom -12401.138691 kJ/mol
# Density = 1.851916 g / cm^3
# Si number density = 18.561403 Si / 1000 Ang^3
#
#
#
# Elastic Constant Matrix: (Units=GPa)
#
#
# Indices 1 2 3 4 5 6 
#
# 1 98.8110 38.8539 42.7081 0.0000 0.0000 0.0000
# 2 38.8539 87.1139 41.1644 0.0000 0.0000 0.0000
# 3 42.7081 41.1644 83.8071 0.0000 0.0000 0.0000
# 4 0.0000 0.0000 0.0000 31.4999 0.0000 0.0000
# 5 0.0000 0.0000 0.0000 0.0000 28.4879 0.0000
# 6 0.0000 0.0000 0.0000 0.0000 0.0000 22.0566
#
#
#
# Elastic Compliance Matrix: (Units=1/GPa)
#
#
# Indices 1 2 3 4 5 6 
#
# 1 0.013837 -0.003698 -0.005235 0.000000 0.000000 0.000000
# 2 -0.003698 0.015937 -0.005944 0.000000 0.000000 0.000000
# 3 -0.005235 -0.005944 0.017519 0.000000 0.000000 0.000000
# 4 0.000000 0.000000 0.000000 0.031746 0.000000 0.000000
# 5 0.000000 0.000000 0.000000 0.000000 0.035103 0.000000
# 6 0.000000 0.000000 0.000000 0.000000 0.000000 0.045338
#
#
# Mechanical properties :
#
#
# Convention : Reuss Voigt Hill
#
# Bulk Modulus (GPa) = 57.01070 57.24276 57.12673
# Shear Modulus (GPa) = 25.63054 26.20925 25.91989
#
# Velocity S-wave (km/s) = 3.72001 3.76177 3.74095
# Velocity P-wave (km/s) = 7.01660 7.05511 7.03588
#
# Compressibility (1/GPa) = 0.01754057
#
# Stress axis : x y z
#
# Youngs Moduli (GPa) = 72.26979 62.74707 57.07977
#
# Poissons Ratio (x) = 0.23202 0.29882
# Poissons Ratio (y) = 0.26723 0.33926
# Poissons Ratio (z) = 0.37834 0.37294
#
# Static dielectric constant tensor:
#      x y z
#    x 3.556210 0.000000 0.000000 
#    y 0.000000 3.612940 0.000000 
#    z 0.000000 0.000000 3.488330 
# 
# 
# High freq. dielectric constant tensor:
#      x y z
#    x 1.720410 0.000000 0.000000 
#    y 0.000000 1.717010 0.000000 
#    z 0.000000 0.000000 1.728120 
# 
# From -- ./inp_files/8434.got.cif
#   From: 2010.03.12/outbox.cif.g09.slc.cpg/sg57_5_cif.got.tgz:8434.got - 2010.04.16 15:48:40.
