data_PCOD8232872
_publ_section_title
;
Structure prediction by ZEFSAII (Michael W. Deem and Ramdas Pophale) SiO2 
 PCOD8232872
Probable space group: P B C M
;
_chemical_formula_sum "Si O2"
_cell_formula_units_Z 48
_cell_length_a 16.429076
_cell_length_b 17.797891
_cell_length_c 8.662793
_cell_angle_alpha 90.000000
_cell_angle_beta 90.000000
_cell_angle_gamma 90.000000
_cell_volume 2533.025829
_symmetry_space_group_name_H-M "P B C M"
_symmetry_group_IT_number 57
_symmetry_cell_setting 'orthorhombic'
loop_
_space_group_symop_operation_xyz
x,y,z
-x,-y,1/2+z
x,1/2-y,-z
-x,1/2+y,1/2-z
-x,-y,-z
x,y,1/2-z
-x,1/2+y,z
x,1/2-y,1/2+z
loop_
_atom_site_type_symbol
_atom_site_label
_atom_site_fract_x
_atom_site_fract_y
_atom_site_fract_z
Si Si1 0.741101 0.051925 0.071369
Si Si2 0.007480 0.417481 0.568275
Si Si3 0.143612 0.668883 0.931729
Si Si4 0.824636 0.894297 0.428421
Si Si5 0.413223 0.018970 0.431676
Si Si6 0.331264 0.326527 0.568967
O O1 0.737618 0.075116 0.250000
O O2 0.797743 0.979853 0.045352
O O3 0.778000 0.118949 0.971525
O O4 0.650564 0.036644 0.011505
O O5 0.999682 0.424047 0.750000
O O6 0.092855 0.379884 0.522030
O O7 0.000000 0.500000 0.500000
O O8 0.936938 0.364472 0.507177
O O9 0.131294 0.673056 0.750000
O O10 0.160907 0.750000 0.000000
O O11 0.839917 0.876476 0.250000
O O12 0.756523 0.838385 0.492031
O O13 0.411655 0.004911 0.250000
O O14 0.391672 0.105218 0.472639
O O15 0.500000 0.000000 0.500000
O O16 0.369494 0.250000 0.500000
O O17 0.319083 0.318991 0.750000
#
# Coordination Sequence:
#
# PCOD8232872 Si02
#       6
#     8   8   8   8   8   8
#     4  10  20  37  61  86 115 150 192 236 288 351
#     4  12  23  37  58  85 117 156 202 248 295 348
#     4  12  25  41  60  84 118 156 199 249 298 349
#     4  10  20  35  58  85 114 151 195 238 287 346
#     4  10  21  38  62  91 120 152 195 241 291 352
#     4  10  21  37  58  86 120 154 191 238 294 351
#
# _framework density 18.949669
#
# number of rings (size 3 to 8) (size 9 to 14) (size 15 to 20)
#    0.000    1.333    1.667    5.000    0.000    4.000 
#    0.000    4.167    0.000    2.000    0.000    0.000 
#    0.000    0.000    0.000    0.000    0.000    0.000 
#
# Total GULP energy -595480.467313 kJ/mol
# GULP energy per Si atom -12405.843069 kJ/mol
# Density = 1.890654 g / cm^3
# Si number density = 18.949669 Si / 1000 Ang^3
#
#
#
# Elastic Constant Matrix: (Units=GPa)
#
#
# Indices 1 2 3 4 5 6 
#
# 1 131.8473 46.4050 52.4657 0.0000 0.0000 0.0000
# 2 46.4050 102.0443 47.3600 0.0000 0.0000 0.0000
# 3 52.4657 47.3600 139.5649 0.0000 0.0000 0.0000
# 4 0.0000 0.0000 0.0000 33.6517 0.0000 0.0000
# 5 0.0000 0.0000 0.0000 0.0000 37.5088 0.0000
# 6 0.0000 0.0000 0.0000 0.0000 0.0000 21.1718
#
#
#
# Elastic Compliance Matrix: (Units=1/GPa)
#
#
# Indices 1 2 3 4 5 6 
#
# 1 0.009746 -0.003242 -0.002563 0.000000 0.000000 0.000000
# 2 -0.003242 0.012710 -0.003094 0.000000 0.000000 0.000000
# 3 -0.002563 -0.003094 0.009179 0.000000 0.000000 0.000000
# 4 0.000000 0.000000 0.000000 0.029716 0.000000 0.000000
# 5 0.000000 0.000000 0.000000 0.000000 0.026660 0.000000
# 6 0.000000 0.000000 0.000000 0.000000 0.000000 0.047233
#
#
# Mechanical properties :
#
#
# Convention : Reuss Voigt Hill
#
# Bulk Modulus (GPa) = 72.28097 73.99089 73.13593
# Shear Modulus (GPa) = 31.71478 33.61484 32.66481
#
# Velocity S-wave (km/s) = 4.09544 4.21634 4.15633
# Velocity P-wave (km/s) = 7.78396 7.92680 7.85570
#
# Compressibility (1/GPa) = 0.01383490
#
# Stress axis : x y z
#
# Youngs Moduli (GPa) = 102.60927 78.67740 108.94685
#
# Poissons Ratio (x) = 0.25509 0.27928
# Poissons Ratio (y) = 0.33268 0.33711
# Poissons Ratio (z) = 0.26303 0.24345
#
# Static dielectric constant tensor:
#      x y z
#    x 3.469810 0.000000 0.000000 
#    y 0.000000 3.545120 0.000000 
#    z 0.000000 0.000000 3.580260 
# 
# 
# High freq. dielectric constant tensor:
#      x y z
#    x 1.732810 0.000000 0.000000 
#    y 0.000000 1.731910 0.000000 
#    z 0.000000 0.000000 1.757730 
# 
# From -- ./inp_files/4695.got.cif
#   From: 2010.03.12/outbox.cif.g09.slc.cpg/sg57_3_cif.got.tgz:4695.got - 2010.04.16 15:48:40.
