data_PCOD8232590
_publ_section_title
;
Structure prediction by ZEFSAII (Michael W. Deem and Ramdas Pophale) SiO2 
 PCOD8232590
Probable space group: P B C M
;
_chemical_formula_sum "Si O2"
_cell_formula_units_Z 64
_cell_length_a 10.280885
_cell_length_b 22.276520
_cell_length_c 13.913227
_cell_angle_alpha 90.000000
_cell_angle_beta 90.000000
_cell_angle_gamma 90.000000
_cell_volume 3186.439809
_symmetry_space_group_name_H-M "P B C M"
_symmetry_group_IT_number 57
_symmetry_cell_setting 'orthorhombic'
loop_
_space_group_symop_operation_xyz
x,y,z
-x,-y,1/2+z
x,1/2-y,-z
-x,1/2+y,1/2-z
-x,-y,-z
x,y,1/2-z
-x,1/2+y,z
x,1/2-y,1/2+z
loop_
_atom_site_type_symbol
_atom_site_label
_atom_site_fract_x
_atom_site_fract_y
_atom_site_fract_z
Si Si1 0.918621 0.719259 0.863174
Si Si2 0.710061 0.105085 0.361173
Si Si3 0.650886 0.844316 0.361264
Si Si4 0.015174 0.433712 0.027616
Si Si5 0.399462 0.682443 0.975770
Si Si6 0.999288 0.649474 0.139527
Si Si7 0.160153 0.640364 0.862912
Si Si8 0.749511 0.530443 0.641609
O O1 0.926910 0.720055 0.750000
O O2 0.784747 0.687923 0.897009
O O3 0.941784 0.787315 0.899346
O O4 0.042842 0.682644 0.901236
O O5 0.660620 0.105837 0.250000
O O6 0.608267 0.140141 0.429385
O O7 0.844460 0.142252 0.369420
O O8 0.719928 0.035872 0.402274
O O9 0.626266 0.826289 0.250000
O O10 0.542666 0.818481 0.431695
O O11 0.640279 0.917654 0.369763
O O12 0.128376 0.431379 0.105234
O O13 0.875339 0.418282 0.075426
O O14 0.000000 0.500000 0.000000
O O15 0.061933 0.398746 0.932090
O O16 0.301103 0.662857 0.892044
O O17 0.362355 0.750000 0.000000
O O18 0.956804 0.637517 0.250000
O O19 0.158035 0.628578 0.750000
O O20 0.781922 0.514545 0.750000
#
# Coordination Sequence:
#
# PCOD8232590 Si02
#       8
#     8   8   8   8   8   8   8   8
#     4   9  19  37  61  88 118 158 202 247 306 372
#     4  10  21  40  62  88 122 165 213 261 311 372
#     4  10  22  41  63  90 123 163 206 253 314 382
#     4  12  21  33  57  91 127 157 202 254 312 371
#     4  12  25  40  60  92 125 165 208 262 321 370
#     4  10  20  34  56  86 125 161 201 254 308 365
#     4  11  22  38  62  91 121 158 205 260 311 368
#     4  10  20  39  64  89 123 166 210 257 315 381
#
# _framework density 20.085111999999999
#
# number of rings (size 3 to 8) (size 9 to 14) (size 15 to 20)
#    0.000    1.500    3.750    1.500    0.000    4.000 
#    0.000    0.000    0.000    0.750    0.000    0.000 
#    0.000    0.000    0.000    0.000    0.000    0.000 
#
# Total GULP energy -792956.562371 kJ/mol
# GULP energy per Si atom -12389.946287 kJ/mol
# Density = 2.003940 g / cm^3
# Si number density = 20.085112 Si / 1000 Ang^3
#
#
#
# Elastic Constant Matrix: (Units=GPa)
#
#
# Indices 1 2 3 4 5 6 
#
# 1 73.8801 35.2959 25.2717 0.0000 0.0000 0.0000
# 2 35.2959 138.5194 48.2886 0.0000 0.0000 0.0000
# 3 25.2717 48.2886 71.9991 0.0000 0.0000 0.0000
# 4 0.0000 0.0000 0.0000 33.7351 0.0000 0.0000
# 5 0.0000 0.0000 0.0000 0.0000 28.6539 0.0000
# 6 0.0000 0.0000 0.0000 0.0000 0.0000 20.7908
#
#
#
# Elastic Compliance Matrix: (Units=1/GPa)
#
#
# Indices 1 2 3 4 5 6 
#
# 1 0.016171 -0.002795 -0.003801 0.000000 0.000000 0.000000
# 2 -0.002795 0.009905 -0.005662 0.000000 0.000000 0.000000
# 3 -0.003801 -0.005662 0.019021 0.000000 0.000000 0.000000
# 4 0.000000 0.000000 0.000000 0.029643 0.000000 0.000000
# 5 0.000000 0.000000 0.000000 0.000000 0.034899 0.000000
# 6 0.000000 0.000000 0.000000 0.000000 0.000000 0.048098
#
#
# Mechanical properties :
#
#
# Convention : Reuss Voigt Hill
#
# Bulk Modulus (GPa) = 48.59152 55.79009 52.19081
# Shear Modulus (GPa) = 26.43889 28.33877 27.38883
#
# Velocity S-wave (km/s) = 3.63208 3.76032 3.69675
# Velocity P-wave (km/s) = 6.46797 6.83304 6.65301
#
# Compressibility (1/GPa) = 0.02057972
#
# Stress axis : x y z
#
# Youngs Moduli (GPa) = 61.83827 100.95534 52.57390
#
# Poissons Ratio (x) = 0.28221 0.19985
# Poissons Ratio (y) = 0.17286 0.29768
# Poissons Ratio (z) = 0.23506 0.57163
#
# Static dielectric constant tensor:
#      x y z
#    x 3.135590 0.000000 0.000000 
#    y 0.000000 4.018160 0.000000 
#    z 0.000000 0.000000 3.759100 
# 
# 
# High freq. dielectric constant tensor:
#      x y z
#    x 1.749500 0.000000 0.000000 
#    y 0.000000 1.798690 0.000000 
#    z 0.000000 0.000000 1.796490 
# 
# From -- ./inp_files/16998.got.cif
#   From: 2010.03.12/outbox.cif.g09.slc.cpg/sg57_9_cif.got.tgz:16998.got - 2010.04.16 15:48:40.
