data_PCOD8232045
_publ_section_title
;
Structure prediction by ZEFSAII (Michael W. Deem and Ramdas Pophale) SiO2 
 PCOD8232045
Probable space group: P B C M
;
_chemical_formula_sum "Si O2"
_cell_formula_units_Z 64
_cell_length_a 12.161688
_cell_length_b 14.522528
_cell_length_c 17.273107
_cell_angle_alpha 90.000000
_cell_angle_beta 90.000000
_cell_angle_gamma 90.000000
_cell_volume 3050.749463
_symmetry_space_group_name_H-M "P B C M"
_symmetry_group_IT_number 57
_symmetry_cell_setting 'orthorhombic'
loop_
_space_group_symop_operation_xyz
x,y,z
-x,-y,1/2+z
x,1/2-y,-z
-x,1/2+y,1/2-z
-x,-y,-z
x,y,1/2-z
-x,1/2+y,z
x,1/2-y,1/2+z
loop_
_atom_site_type_symbol
_atom_site_label
_atom_site_fract_x
_atom_site_fract_y
_atom_site_fract_z
Si Si1 0.323240 0.842098 0.340738
Si Si2 0.060414 0.213559 0.164466
Si Si3 0.385801 0.851492 0.663980
Si Si4 0.100278 0.397821 0.095252
Si Si5 0.149930 0.897181 0.880066
Si Si6 0.860994 0.100831 0.946881
Si Si7 0.406278 0.457853 0.657992
Si Si8 0.208828 0.400646 0.940830
O O1 0.296260 0.833430 0.250000
O O2 0.388610 0.751924 0.372310
O O3 0.205687 0.839429 0.384403
O O4 0.394547 0.933030 0.359462
O O5 0.091691 0.177951 0.250000
O O6 0.086263 0.323309 0.163514
O O7 0.140434 0.178675 0.098802
O O8 0.935382 0.181230 0.147551
O O9 0.429474 0.838686 0.750000
O O10 0.262932 0.891529 0.666919
O O11 0.473155 0.924368 0.628834
O O12 0.101429 0.499903 0.132211
O O13 0.989899 0.379393 0.045584
O O14 0.203367 0.384927 0.034768
O O15 0.187355 0.879993 0.968406
O O16 0.849852 0.995810 0.920516
O O17 0.380944 0.440203 0.750000
O O18 0.328161 0.401103 0.599324
#
# Coordination Sequence:
#
# PCOD8232045 Si02
#       8
#     8   8   8   8   8   8   8   8
#     4   9  19  36  61  91 115 152 211 254 296 367
#     4  12  24  36  59  91 121 158 198 238 299 370
#     4  10  21  38  59  86 124 161 197 253 313 353
#     4  11  22  39  59  87 123 159 194 247 311 356
#     4  11  22  40  60  88 123 159 201 250 300 365
#     4  10  19  37  63  85 117 160 199 243 306 355
#     4   9  19  38  63  86 116 159 205 255 303 357
#     4  10  19  39  61  84 112 156 203 244 294 357
#
# _framework density 20.978451
#
# number of rings (size 3 to 8) (size 9 to 14) (size 15 to 20)
#    0.000    1.750    2.500    2.625    0.000    4.500 
#    2.250    5.625    2.750    0.000    0.000    0.000 
#    0.000    0.000    0.000    0.000    0.000    0.000 
#
# Total GULP energy -792869.129168 kJ/mol
# GULP energy per Si atom -12388.580143 kJ/mol
# Density = 2.093070 g / cm^3
# Si number density = 20.978451 Si / 1000 Ang^3
#
#
#
# Elastic Constant Matrix: (Units=GPa)
#
#
# Indices 1 2 3 4 5 6 
#
# 1 103.6581 51.6325 13.6883 0.0000 0.0000 0.0000
# 2 51.6325 98.7385 32.1240 0.0000 0.0000 0.0000
# 3 13.6883 32.1240 52.7094 0.0000 0.0000 0.0000
# 4 0.0000 0.0000 0.0000 22.3052 0.0000 0.0000
# 5 0.0000 0.0000 0.0000 0.0000 26.0979 0.0000
# 6 0.0000 0.0000 0.0000 0.0000 0.0000 32.6521
#
#
#
# Elastic Compliance Matrix: (Units=1/GPa)
#
#
# Indices 1 2 3 4 5 6 
#
# 1 0.013084 -0.007155 0.000963 0.000000 0.000000 0.000000
# 2 -0.007155 0.016545 -0.008226 0.000000 0.000000 0.000000
# 3 0.000963 -0.008226 0.023735 0.000000 0.000000 0.000000
# 4 0.000000 0.000000 0.000000 0.044833 0.000000 0.000000
# 5 0.000000 0.000000 0.000000 0.000000 0.038317 0.000000
# 6 0.000000 0.000000 0.000000 0.000000 0.000000 0.030626
#
#
# Mechanical properties :
#
#
# Convention : Reuss Voigt Hill
#
# Bulk Modulus (GPa) = 40.76837 49.99949 45.38393
# Shear Modulus (GPa) = 24.49155 26.72178 25.60667
#
# Velocity S-wave (km/s) = 3.42052 3.57287 3.49752
# Velocity P-wave (km/s) = 5.92247 6.39578 6.16367
#
# Compressibility (1/GPa) = 0.02452882
#
# Stress axis : x y z
#
# Youngs Moduli (GPa) = 76.42947 60.43950 42.13193
#
# Poissons Ratio (x) = 0.43245 -0.04057
# Poissons Ratio (y) = 0.54686 0.34656
# Poissons Ratio (z) = -0.07360 0.49715
#
# Static dielectric constant tensor:
#      x y z
#    x 3.697060 0.000000 0.000000 
#    y 0.000000 4.016020 0.000000 
#    z 0.000000 0.000000 3.637300 
# 
# 
# High freq. dielectric constant tensor:
#      x y z
#    x 1.796410 0.000000 0.000000 
#    y 0.000000 1.832960 0.000000 
#    z 0.000000 0.000000 1.809650 
# 
# From -- ./inp_files/22071.got.cif
#   From: 2010.03.12/outbox.cif.g09.slc.cpg/sg57_12_cif.got.tgz:22071.got - 2010.04.16 15:48:40.
