data_PCOD8232836
_publ_section_title
;
Structure prediction by ZEFSAII (Michael W. Deem and Ramdas Pophale) SiO2 
 PCOD8232836
Probable space group: P B C M
;
_chemical_formula_sum "Si O2"
_cell_formula_units_Z 48
_cell_length_a 31.060499
_cell_length_b 9.090860
_cell_length_c 8.712808
_cell_angle_alpha 90.000000
_cell_angle_beta 90.000000
_cell_angle_gamma 90.000000
_cell_volume 2460.206389
_symmetry_space_group_name_H-M "P B C M"
_symmetry_group_IT_number 57
_symmetry_cell_setting 'orthorhombic'
loop_
_space_group_symop_operation_xyz
x,y,z
-x,-y,1/2+z
x,1/2-y,-z
-x,1/2+y,1/2-z
-x,-y,-z
x,y,1/2-z
-x,1/2+y,z
x,1/2-y,1/2+z
loop_
_atom_site_type_symbol
_atom_site_label
_atom_site_fract_x
_atom_site_fract_y
_atom_site_fract_z
Si Si1 0.539477 0.088627 0.068048
Si Si2 0.876104 0.591545 0.072489
Si Si3 0.376966 0.090039 0.930707
Si Si4 0.039439 0.412646 0.431504
Si Si5 0.294772 0.590561 0.068393
Si Si6 0.780813 0.588838 0.428280
O O1 0.535116 0.096721 0.250000
O O2 0.583131 0.008862 0.015165
O O3 0.539721 0.250000 0.000000
O O4 0.500000 0.000000 0.000000
O O5 0.889069 0.604051 0.250000
O O6 0.828949 0.519402 0.051370
O O7 0.871152 0.750000 0.000000
O O8 0.915347 0.509357 0.983567
O O9 0.376392 0.106750 0.750000
O O10 0.333152 0.014614 0.989736
O O11 0.381665 0.250000 0.000000
O O12 0.038631 0.250000 0.500000
O O13 0.035792 0.409281 0.250000
O O14 0.000000 0.500000 0.500000
O O15 0.293938 0.603404 0.250000
O O16 0.302828 0.750000 0.000000
O O17 0.249866 0.526035 0.010960
O O18 0.775743 0.750000 0.500000
O O19 0.768777 0.602410 0.250000
#
# Coordination Sequence:
#
# PCOD8232836 Si02
#       6
#     8   8   8   8   8   8
#     4  11  23  40  61  88 120 155 195 238 287 339
#     4   9  17  31  52  78 107 140 180 224 272 325
#     4  10  23  40  60  86 115 149 190 236 283 334
#     4  11  21  35  55  80 110 144 183 227 276 329
#     4  11  23  39  58  82 113 149 187 229 280 335
#     4  10  20  35  57  84 112 143 182 228 274 326
#
# _framework density 19.510558
#
# number of rings (size 3 to 8) (size 9 to 14) (size 15 to 20)
#    0.000    1.667    0.000    6.000    0.000    7.333 
#    0.000    0.833    0.000    4.000    0.000    0.000 
#    0.000    0.000    0.000    0.000    0.000    0.000 
#
# Total GULP energy -595146.498109 kJ/mol
# GULP energy per Si atom -12398.885377 kJ/mol
# Density = 1.946615 g / cm^3
# Si number density = 19.510558 Si / 1000 Ang^3
#
#
#
# Elastic Constant Matrix: (Units=GPa)
#
#
# Indices 1 2 3 4 5 6 
#
# 1 169.0952 68.9104 66.6882 0.0000 0.0000 0.0000
# 2 68.9104 121.5433 48.1686 0.0000 0.0000 0.0000
# 3 66.6882 48.1686 122.1242 0.0000 0.0000 0.0000
# 4 0.0000 0.0000 0.0000 35.8219 0.0000 0.0000
# 5 0.0000 0.0000 0.0000 0.0000 34.9804 0.0000
# 6 0.0000 0.0000 0.0000 0.0000 0.0000 38.3274
#
#
#
# Elastic Compliance Matrix: (Units=1/GPa)
#
#
# Indices 1 2 3 4 5 6 
#
# 1 0.008697 -0.003614 -0.003324 0.000000 0.000000 0.000000
# 2 -0.003614 0.011253 -0.002465 0.000000 0.000000 0.000000
# 3 -0.003324 -0.002465 0.010976 0.000000 0.000000 0.000000
# 4 0.000000 0.000000 0.000000 0.027916 0.000000 0.000000
# 5 0.000000 0.000000 0.000000 0.000000 0.028587 0.000000
# 6 0.000000 0.000000 0.000000 0.000000 0.000000 0.026091
#
#
# Mechanical properties :
#
#
# Convention : Reuss Voigt Hill
#
# Bulk Modulus (GPa) = 82.50403 86.69969 84.60186
# Shear Modulus (GPa) = 36.66564 37.09230 36.87897
#
# Velocity S-wave (km/s) = 4.33976 4.36494 4.35237
# Velocity P-wave (km/s) = 8.21523 8.36286 8.28937
#
# Compressibility (1/GPa) = 0.01212062
#
# Stress axis : x y z
#
# Youngs Moduli (GPa) = 114.97576 88.86215 91.10877
#
# Poissons Ratio (x) = 0.32113 0.30285
# Poissons Ratio (y) = 0.41550 0.22460
# Poissons Ratio (z) = 0.38219 0.21906
#
# Static dielectric constant tensor:
#      x y z
#    x 4.548090 0.000000 0.000000 
#    y 0.000000 3.331900 0.000000 
#    z 0.000000 0.000000 3.710480 
# 
# 
# High freq. dielectric constant tensor:
#      x y z
#    x 1.787910 0.000000 0.000000 
#    y 0.000000 1.738110 0.000000 
#    z 0.000000 0.000000 1.774690 
# 
# From -- ./inp_files/10021.got.cif
#   From: 2010.03.12/outbox.cif.g09.slc.cpg/sg57_6_cif.got.tgz:10021.got - 2010.04.16 15:48:40.
