data_PCOD8232277
_publ_section_title
;
Structure prediction by ZEFSAII (Michael W. Deem and Ramdas Pophale) SiO2 
 PCOD8232277
Probable space group: P B C M
;
_chemical_formula_sum "Si O2"
_cell_formula_units_Z 64
_cell_length_a 19.019523
_cell_length_b 23.399368
_cell_length_c 8.677149
_cell_angle_alpha 90.000000
_cell_angle_beta 90.000000
_cell_angle_gamma 90.000000
_cell_volume 3861.720196
_symmetry_space_group_name_H-M "P B C M"
_symmetry_group_IT_number 57
_symmetry_cell_setting 'orthorhombic'
loop_
_space_group_symop_operation_xyz
x,y,z
-x,-y,1/2+z
x,1/2-y,-z
-x,1/2+y,1/2-z
-x,-y,-z
x,y,1/2-z
-x,1/2+y,z
x,1/2-y,1/2+z
loop_
_atom_site_type_symbol
_atom_site_label
_atom_site_fract_x
_atom_site_fract_y
_atom_site_fract_z
Si Si1 0.522534 0.086399 0.931329
Si Si2 0.108517 0.688953 0.432423
Si Si3 0.610371 0.188765 0.931719
Si Si4 0.239949 0.505900 0.069981
Si Si5 0.022497 0.909829 0.429293
Si Si6 0.899464 0.526211 0.070944
Si Si7 0.604598 0.515450 0.929724
Si Si8 0.755323 0.131481 0.567347
O O1 0.526566 0.088453 0.750000
O O2 0.547307 0.147983 0.994572
O O3 0.443445 0.069355 0.985648
O O4 0.579946 0.040598 0.982740
O O5 0.085751 0.750000 0.500000
O O6 0.119243 0.692603 0.250000
O O7 0.180377 0.670200 0.513364
O O8 0.046799 0.644302 0.471622
O O9 0.609817 0.193825 0.750000
O O10 0.684998 0.163722 0.986347
O O11 0.595875 0.250000 0.000000
O O12 0.222283 0.505886 0.250000
O O13 0.313606 0.473833 0.033990
O O14 0.181270 0.469486 0.980787
O O15 0.242176 0.570592 0.013667
O O16 0.024904 0.893890 0.250000
O O17 0.074079 0.962460 0.468046
O O18 0.943564 0.926844 0.476878
O O19 0.907493 0.540149 0.250000
O O20 0.592411 0.504140 0.750000
O O21 0.759341 0.122070 0.750000
#
# Coordination Sequence:
#
# PCOD8232277 Si02
#       8
#     8   8   8   8   8   8   8   8
#     4   9  17  32  48  67  94 127 163 203 248 293
#     4  12  24  37  53  73 101 137 175 211 247 291
#     4  10  21  33  48  67  94 131 169 207 244 288
#     4  11  20  30  48  75 102 132 164 203 250 302
#     4  10  20  35  53  74 101 131 167 208 251 296
#     4  10  20  33  52  74 101 133 165 204 250 301
#     4   9  18  30  48  71  96 125 161 202 248 297
#     4  11  21  34  48  69  99 135 173 207 243 290
#
# _framework density 16.572925999999999
#
# number of rings (size 3 to 8) (size 9 to 14) (size 15 to 20)
#    0.000    1.750    2.500    3.000    0.000    4.000 
#    0.000    0.000    0.000    0.000    0.000    0.875 
#    0.000    4.000    0.000    0.000    0.000    0.000 
#
# Total GULP energy -793600.455335 kJ/mol
# GULP energy per Si atom -12400.007115 kJ/mol
# Density = 1.653521 g / cm^3
# Si number density = 16.572926 Si / 1000 Ang^3
#
#
#
# Elastic Constant Matrix: (Units=GPa)
#
#
# Indices 1 2 3 4 5 6 
#
# 1 108.2643 56.7513 15.6975 0.0000 0.0000 0.0000
# 2 56.7513 80.5995 10.8960 0.0000 0.0000 0.0000
# 3 15.6975 10.8960 22.3355 0.0000 0.0000 0.0000
# 4 0.0000 0.0000 0.0000 24.7430 0.0000 0.0000
# 5 0.0000 0.0000 0.0000 0.0000 20.7272 0.0000
# 6 0.0000 0.0000 0.0000 0.0000 0.0000 21.1014
#
#
#
# Elastic Compliance Matrix: (Units=1/GPa)
#
#
# Indices 1 2 3 4 5 6 
#
# 1 0.015333 -0.009999 -0.005898 0.000000 0.000000 0.000000
# 2 -0.009999 0.019803 -0.002633 0.000000 0.000000 0.000000
# 3 -0.005898 -0.002633 0.050202 0.000000 0.000000 0.000000
# 4 0.000000 0.000000 0.000000 0.040415 0.000000 0.000000
# 5 0.000000 0.000000 0.000000 0.000000 0.048246 0.000000
# 6 0.000000 0.000000 0.000000 0.000000 0.000000 0.047390
#
#
# Mechanical properties :
#
#
# Convention : Reuss Voigt Hill
#
# Bulk Modulus (GPa) = 20.71384 41.98766 31.35075
# Shear Modulus (GPa) = 18.21199 21.83794 20.02497
#
# Velocity S-wave (km/s) = 3.31856 3.63394 3.47982
# Velocity P-wave (km/s) = 5.21628 6.55724 5.92482
#
# Compressibility (1/GPa) = 0.04827689
#
# Stress axis : x y z
#
# Youngs Moduli (GPa) = 65.21758 50.49613 19.91953
#
# Poissons Ratio (x) = 0.50491 0.11749
# Poissons Ratio (y) = 0.65211 0.05246
# Poissons Ratio (z) = 0.38468 0.13298
#
# Static dielectric constant tensor:
#      x y z
#    x 3.299150 0.000000 0.000000 
#    y 0.000000 2.975860 0.000000 
#    z 0.000000 0.000000 3.162920 
# 
# 
# High freq. dielectric constant tensor:
#      x y z
#    x 1.637070 0.000000 0.000000 
#    y 0.000000 1.612440 0.000000 
#    z 0.000000 0.000000 1.648310 
# 
# From -- ./inp_files/7375.got.cif
#   From: 2010.03.12/outbox.cif.g09.slc.cpg/sg57_4_cif.got.tgz:7375.got - 2010.04.16 15:48:40.
