data_PCOD8232458
_publ_section_title
;
Structure prediction by ZEFSAII (Michael W. Deem and Ramdas Pophale) SiO2 
 PCOD8232458
Probable space group: P B C M
;
_chemical_formula_sum "Si O2"
_cell_formula_units_Z 64
_cell_length_a 22.483617
_cell_length_b 17.604476
_cell_length_c 9.058122
_cell_angle_alpha 90.000000
_cell_angle_beta 90.000000
_cell_angle_gamma 90.000000
_cell_volume 3585.316065
_symmetry_space_group_name_H-M "P B C M"
_symmetry_group_IT_number 57
_symmetry_cell_setting 'orthorhombic'
loop_
_space_group_symop_operation_xyz
x,y,z
-x,-y,1/2+z
x,1/2-y,-z
-x,1/2+y,1/2-z
-x,-y,-z
x,y,1/2-z
-x,1/2+y,z
x,1/2-y,1/2+z
loop_
_atom_site_type_symbol
_atom_site_label
_atom_site_fract_x
_atom_site_fract_y
_atom_site_fract_z
Si Si1 0.248183 0.514755 0.080293
Si Si2 0.466936 0.931914 0.421842
Si Si3 0.049750 0.327282 0.925050
Si Si4 0.201784 0.825533 0.574515
Si Si5 0.076808 0.617160 0.424661
Si Si6 0.118495 0.044877 0.920682
Si Si7 0.550645 0.829082 0.925837
Si Si8 0.362520 0.034420 0.081434
O O1 0.265105 0.519242 0.250000
O O2 0.239517 0.601125 0.021330
O O3 0.188452 0.467012 0.055484
O O4 0.300793 0.469706 0.002712
O O5 0.484884 0.926547 0.250000
O O6 0.486374 0.854558 0.505785
O O7 0.500000 0.000000 0.500000
O O8 0.397327 0.953820 0.438851
O O9 0.049372 0.318916 0.750000
O O10 0.984420 0.349174 0.988367
O O11 0.070207 0.250000 0.000000
O O12 0.098165 0.388645 0.972119
O O13 0.228766 0.750000 0.500000
O O14 0.204358 0.818020 0.750000
O O15 0.133667 0.835486 0.517703
O O16 0.077197 0.620411 0.250000
O O17 0.082733 0.529695 0.473073
O O18 0.104668 0.064429 0.750000
O O19 0.544693 0.820614 0.750000
O O20 0.598910 0.892937 0.972730
O O21 0.570067 0.750000 0.000000
O O22 0.346606 0.048275 0.250000
#
# Coordination Sequence:
#
# PCOD8232458 Si02
#       8
#     8   8   8   8   8   8   8   8
#     4   9  19  34  53  73  97 133 173 207 247 294
#     4   9  17  31  51  76 104 134 164 199 243 292
#     4  11  21  32  48  72  98 127 160 200 251 305
#     4   9  17  31  49  72  99 127 159 200 248 299
#     4   8  16  31  51  72  96 123 157 200 248 303
#     4   9  18  35  53  70  95 128 164 206 250 296
#     4  10  20  34  53  80 109 137 168 209 256 299
#     4   9  19  34  53  77 104 133 171 211 246 288
#
# _framework density 17.850587999999998
#
# number of rings (size 3 to 8) (size 9 to 14) (size 15 to 20)
#    0.000    2.750    0.000    4.125    0.000    4.000 
#    0.000    4.375    0.000    3.000    0.000    0.000 
#    0.000    0.000    0.000    0.000    0.000    0.000 
#
# Total GULP energy -793281.227931 kJ/mol
# GULP energy per Si atom -12395.019186 kJ/mol
# Density = 1.780996 g / cm^3
# Si number density = 17.850588 Si / 1000 Ang^3
#
#
#
# Elastic Constant Matrix: (Units=GPa)
#
#
# Indices 1 2 3 4 5 6 
#
# 1 63.2851 40.9680 33.8087 0.0000 0.0000 0.0000
# 2 40.9680 113.7417 41.5387 0.0000 0.0000 0.0000
# 3 33.8087 41.5387 67.2661 0.0000 0.0000 0.0000
# 4 0.0000 0.0000 0.0000 32.0039 0.0000 0.0000
# 5 0.0000 0.0000 0.0000 0.0000 29.0626 0.0000
# 6 0.0000 0.0000 0.0000 0.0000 0.0000 19.5156
#
#
#
# Elastic Compliance Matrix: (Units=1/GPa)
#
#
# Indices 1 2 3 4 5 6 
#
# 1 0.023975 -0.005468 -0.008673 0.000000 0.000000 0.000000
# 2 -0.005468 0.012599 -0.005032 0.000000 0.000000 0.000000
# 3 -0.008673 -0.005032 0.022333 0.000000 0.000000 0.000000
# 4 0.000000 0.000000 0.000000 0.031246 0.000000 0.000000
# 5 0.000000 0.000000 0.000000 0.000000 0.034409 0.000000
# 6 0.000000 0.000000 0.000000 0.000000 0.000000 0.051241
#
#
# Mechanical properties :
#
#
# Convention : Reuss Voigt Hill
#
# Bulk Modulus (GPa) = 48.63749 52.99151 50.81450
# Shear Modulus (GPa) = 22.62416 24.64824 23.63620
#
# Velocity S-wave (km/s) = 3.56394 3.71995 3.64278
# Velocity P-wave (km/s) = 6.65145 6.94272 6.79864
#
# Compressibility (1/GPa) = 0.02056027
#
# Stress axis : x y z
#
# Youngs Moduli (GPa) = 41.71057 79.37158 44.77649
#
# Poissons Ratio (x) = 0.43399 0.38837
# Poissons Ratio (y) = 0.22806 0.22532
# Poissons Ratio (z) = 0.36178 0.39940
#
# Static dielectric constant tensor:
#      x y z
#    x 3.320510 0.000000 0.000000 
#    y 0.000000 3.335880 0.000000 
#    z 0.000000 0.000000 3.172230 
# 
# 
# High freq. dielectric constant tensor:
#      x y z
#    x 1.675590 0.000000 0.000000 
#    y 0.000000 1.687880 0.000000 
#    z 0.000000 0.000000 1.682930 
# 
# From -- ./inp_files/8437.got.cif
#   From: 2010.03.12/outbox.cif.g09.slc.cpg/sg57_5_cif.got.tgz:8437.got - 2010.04.16 15:48:40.
