data_PCOD8232072
_publ_section_title
;
Structure prediction by ZEFSAII (Michael W. Deem and Ramdas Pophale) SiO2 
 PCOD8232072
Probable space group: P B C M
;
_chemical_formula_sum "Si O2"
_cell_formula_units_Z 36
_cell_length_a 11.963851
_cell_length_b 10.358566
_cell_length_c 14.558598
_cell_angle_alpha 90.000000
_cell_angle_beta 90.000000
_cell_angle_gamma 90.000000
_cell_volume 1804.222886
_symmetry_space_group_name_H-M "P B C M"
_symmetry_group_IT_number 57
_symmetry_cell_setting 'orthorhombic'
loop_
_space_group_symop_operation_xyz
x,y,z
-x,-y,1/2+z
x,1/2-y,-z
-x,1/2+y,1/2-z
-x,-y,-z
x,y,1/2-z
-x,1/2+y,z
x,1/2-y,1/2+z
loop_
_atom_site_type_symbol
_atom_site_label
_atom_site_fract_x
_atom_site_fract_y
_atom_site_fract_z
Si Si1 0.866522 0.800605 0.400109
Si Si2 0.038775 0.618804 0.750000
Si Si3 0.655510 0.895836 0.463260
Si Si4 0.586823 0.363638 0.426602
Si Si5 0.285910 0.650362 0.750000
Si Si6 0.186811 0.107444 0.250000
O O1 0.907806 0.750000 0.500000
O O2 0.772102 0.585310 0.592504
O O3 0.805546 0.687773 0.343328
O O4 0.972300 0.850572 0.343027
O O5 0.156678 0.699026 0.750000
O O6 0.066786 0.466816 0.750000
O O7 0.669741 0.750000 0.500000
O O8 0.541755 0.903060 0.403129
O O9 0.651091 0.007855 0.539951
O O10 0.586879 0.250000 0.500000
O O11 0.647697 0.301697 0.339092
O O12 0.289205 0.493413 0.750000
#
# Coordination Sequence:
#
# PCOD8232072 Si02
#       6
#     8   4   8   8   4   4
#     4  10  19  38  62  81 108 157 200 244 295 342
#     4   9  23  37  50  88 117 145 209 244 277 360
#     4   9  19  38  64  87 111 151 203 242 287 364
#     4  10  21  39  59  91 124 150 197 248 296 355
#     4  10  20  38  53  80 124 166 177 240 315 333
#     4   9  21  39  53  86 119 143 206 248 274 365
#
# _framework density 19.953188999999998
#
# number of rings (size 3 to 8) (size 9 to 14) (size 15 to 20)
#    0.667    1.778    0.000    2.667    0.000    3.556 
#    8.000   11.111    0.000    0.000    0.000    0.000 
#    0.000    0.000    0.000    0.000    0.000    0.000 
#
# Total GULP energy -445970.147741 kJ/mol
# GULP energy per Si atom -12388.059659 kJ/mol
# Density = 1.990777 g / cm^3
# Si number density = 19.953189 Si / 1000 Ang^3
#
#
#
# Elastic Constant Matrix: (Units=GPa)
#
#
# Indices 1 2 3 4 5 6 
#
# 1 145.8204 6.7314 71.2017 0.0000 0.0000 0.0000
# 2 6.7314 52.7144 17.6899 0.0000 0.0000 0.0000
# 3 71.2017 17.6899 141.3469 0.0000 0.0000 0.0000
# 4 0.0000 0.0000 0.0000 23.3007 0.0000 0.0000
# 5 0.0000 0.0000 0.0000 0.0000 33.7406 0.0000
# 6 0.0000 0.0000 0.0000 0.0000 0.0000 36.2467
#
#
#
# Elastic Compliance Matrix: (Units=1/GPa)
#
#
# Indices 1 2 3 4 5 6 
#
# 1 0.009103 0.000393 -0.004634 0.000000 0.000000 0.000000
# 2 0.000393 0.019819 -0.002678 0.000000 0.000000 0.000000
# 3 -0.004634 -0.002678 0.009745 0.000000 0.000000 0.000000
# 4 0.000000 0.000000 0.000000 0.042917 0.000000 0.000000
# 5 0.000000 0.000000 0.000000 0.000000 0.029638 0.000000
# 6 0.000000 0.000000 0.000000 0.000000 0.000000 0.027589
#
#
# Mechanical properties :
#
#
# Convention : Reuss Voigt Hill
#
# Bulk Modulus (GPa) = 40.28016 59.01420 49.64718
# Shear Modulus (GPa) = 31.07046 34.94153 33.00599
#
# Velocity S-wave (km/s) = 3.95038 4.18924 4.07156
# Velocity P-wave (km/s) = 6.40613 7.28287 6.85852
#
# Compressibility (1/GPa) = 0.02482612
#
# Stress axis : x y z
#
# Youngs Moduli (GPa) = 109.85933 50.45728 102.62162
#
# Poissons Ratio (x) = -0.01982 0.47560
# Poissons Ratio (y) = -0.04316 0.27485
# Poissons Ratio (z) = 0.50914 0.13514
#
# Static dielectric constant tensor:
#      x y z
#    x 3.855160 0.000000 0.000000 
#    y 0.000000 3.450440 0.000000 
#    z 0.000000 0.000000 3.431640 
# 
# 
# High freq. dielectric constant tensor:
#      x y z
#    x 1.787680 0.000000 0.000000 
#    y 0.000000 1.761190 0.000000 
#    z 0.000000 0.000000 1.766780 
# 
# From -- ./inp_files/17361.got.cif
#   From: 2010.03.12/outbox.cif.g09.slc.cpg/sg57_9_cif.got.tgz:17361.got - 2010.04.16 15:48:40.
