data_PCOD8232790
_publ_section_title
;
Structure prediction by ZEFSAII (Michael W. Deem and Ramdas Pophale) SiO2 
 PCOD8232790
Probable space group: P B C M
;
_chemical_formula_sum "Si O2"
_cell_formula_units_Z 56
_cell_length_a 16.579168
_cell_length_b 21.090602
_cell_length_c 8.517820
_cell_angle_alpha 90.000000
_cell_angle_beta 90.000000
_cell_angle_gamma 90.000000
_cell_volume 2978.380411
_symmetry_space_group_name_H-M "P B C M"
_symmetry_group_IT_number 57
_symmetry_cell_setting 'orthorhombic'
loop_
_space_group_symop_operation_xyz
x,y,z
-x,-y,1/2+z
x,1/2-y,-z
-x,1/2+y,1/2-z
-x,-y,-z
x,y,1/2-z
-x,1/2+y,z
x,1/2-y,1/2+z
loop_
_atom_site_type_symbol
_atom_site_label
_atom_site_fract_x
_atom_site_fract_y
_atom_site_fract_z
Si Si1 0.548935 0.440113 0.435788
Si Si2 0.703151 0.490057 0.566742
Si Si3 0.139750 0.182318 0.566823
Si Si4 0.294394 0.124434 0.066918
Si Si5 0.981239 0.592466 0.433120
Si Si6 0.550496 0.683466 0.935520
Si Si7 0.125590 0.972831 0.432649
O O1 0.500000 0.500000 0.500000
O O2 0.555002 0.445746 0.250000
O O3 0.637896 0.437951 0.512518
O O4 0.507564 0.374044 0.486093
O O5 0.694714 0.504352 0.750000
O O6 0.679085 0.553043 0.470889
O O7 0.792271 0.464813 0.529019
O O8 0.164080 0.250000 0.500000
O O9 0.123491 0.185423 0.750000
O O10 0.212934 0.135350 0.529963
O O11 0.057949 0.158935 0.482683
O O12 0.275712 0.132712 0.250000
O O13 0.362584 0.173593 0.015037
O O14 0.000047 0.590261 0.250000
O O15 0.918371 0.537723 0.483395
O O16 0.065604 0.584730 0.524909
O O17 0.561434 0.686493 0.750000
O O18 0.514929 0.750000 0.000000
O O19 0.147180 0.972495 0.250000
#
# Coordination Sequence:
#
# PCOD8232790 Si02
#       7
#     8   8   8   8   8   8   8
#     4  11  23  39  61  87 118 155 198 244 296 354
#     4  12  23  36  58  87 120 154 193 241 295 349
#     4  12  24  38  56  80 116 156 196 236 284 343
#     4  12  23  37  57  83 118 156 195 238 290 350
#     4  10  20  35  56  82 113 148 189 231 280 336
#     4  11  24  41  61  86 117 156 199 243 294 354
#     4  10  20  35  57  83 114 148 185 231 285 337
#
# _framework density 18.802164999999999
#
# number of rings (size 3 to 8) (size 9 to 14) (size 15 to 20)
#    0.000    0.857    2.857    6.000    0.000    2.857 
#    0.000    0.000    0.000    0.857    0.000    4.000 
#    0.000    0.000    0.000    0.000    0.000    0.000 
#
# Total GULP energy -694751.300635 kJ/mol
# GULP energy per Si atom -12406.273226 kJ/mol
# Density = 1.875937 g / cm^3
# Si number density = 18.802165 Si / 1000 Ang^3
#
#
#
# Elastic Constant Matrix: (Units=GPa)
#
#
# Indices 1 2 3 4 5 6 
#
# 1 108.3242 43.3334 32.3120 0.0000 0.0000 0.0000
# 2 43.3334 89.1793 25.1060 0.0000 0.0000 0.0000
# 3 32.3120 25.1060 76.3469 0.0000 0.0000 0.0000
# 4 0.0000 0.0000 0.0000 29.7767 0.0000 0.0000
# 5 0.0000 0.0000 0.0000 0.0000 34.5381 0.0000
# 6 0.0000 0.0000 0.0000 0.0000 0.0000 25.2127
#
#
#
# Elastic Compliance Matrix: (Units=1/GPa)
#
#
# Indices 1 2 3 4 5 6 
#
# 1 0.012281 -0.004964 -0.003565 0.000000 0.000000 0.000000
# 2 -0.004964 0.014364 -0.002623 0.000000 0.000000 0.000000
# 3 -0.003565 -0.002623 0.015469 0.000000 0.000000 0.000000
# 4 0.000000 0.000000 0.000000 0.033583 0.000000 0.000000
# 5 0.000000 0.000000 0.000000 0.000000 0.028953 0.000000
# 6 0.000000 0.000000 0.000000 0.000000 0.000000 0.039663
#
#
# Mechanical properties :
#
#
# Convention : Reuss Voigt Hill
#
# Bulk Modulus (GPa) = 50.47772 52.81701 51.64737
# Shear Modulus (GPa) = 28.86510 29.44543 29.15527
#
# Velocity S-wave (km/s) = 3.92241 3.96165 3.94208
# Velocity P-wave (km/s) = 6.88613 7.00558 6.94611
#
# Compressibility (1/GPa) = 0.01981072
#
# Stress axis : x y z
#
# Youngs Moduli (GPa) = 81.42898 69.62055 64.64356
#
# Poissons Ratio (x) = 0.34557 0.23047
# Poissons Ratio (y) = 0.40418 0.16953
# Poissons Ratio (z) = 0.29031 0.18259
#
# Static dielectric constant tensor:
#      x y z
#    x 3.525110 0.000000 0.000000 
#    y 0.000000 3.303440 0.000000 
#    z 0.000000 0.000000 3.490650 
# 
# 
# High freq. dielectric constant tensor:
#      x y z
#    x 1.729440 0.000000 0.000000 
#    y 0.000000 1.707590 0.000000 
#    z 0.000000 0.000000 1.747800 
# 
# From -- ./inp_files/5161.got.cif
#   From: 2010.03.12/outbox.cif.g09.slc.cpg/sg57_3_cif.got.tgz:5161.got - 2010.04.16 15:48:40.
