data_PCOD8232140
_publ_section_title
;
Structure prediction by ZEFSAII (Michael W. Deem and Ramdas Pophale) SiO2 
 PCOD8232140
Probable space group: P B C M
;
_chemical_formula_sum "Si O2"
_cell_formula_units_Z 48
_cell_length_a 14.883638
_cell_length_b 18.489814
_cell_length_c 9.715086
_cell_angle_alpha 90.000000
_cell_angle_beta 90.000000
_cell_angle_gamma 90.000000
_cell_volume 2673.549875
_symmetry_space_group_name_H-M "P B C M"
_symmetry_group_IT_number 57
_symmetry_cell_setting 'orthorhombic'
loop_
_space_group_symop_operation_xyz
x,y,z
-x,-y,1/2+z
x,1/2-y,-z
-x,1/2+y,1/2-z
-x,-y,-z
x,y,1/2-z
-x,1/2+y,z
x,1/2-y,1/2+z
loop_
_atom_site_type_symbol
_atom_site_label
_atom_site_fract_x
_atom_site_fract_y
_atom_site_fract_z
Si Si1 0.530478 0.821484 0.590560
Si Si2 0.673533 0.938008 0.909449
Si Si3 0.937781 0.088645 0.093405
Si Si4 0.873903 0.540133 0.408243
Si Si5 0.781720 0.184735 0.405269
Si Si6 0.369437 0.927517 0.909073
O O1 0.525519 0.750000 0.500000
O O2 0.521471 0.798928 0.750000
O O3 0.624246 0.862296 0.561096
O O4 0.450630 0.875311 0.547745
O O5 0.662268 0.960196 0.750000
O O6 0.778147 0.925675 0.949875
O O7 0.627962 0.000930 0.998722
O O8 0.921096 0.062596 0.250000
O O9 0.886544 0.164589 0.068895
O O10 0.044772 0.097471 0.064839
O O11 0.892731 0.030581 0.995340
O O12 0.872311 0.515685 0.250000
O O13 0.750758 0.250000 0.500000
O O14 0.764651 0.210717 0.250000
O O15 0.723447 0.113908 0.438226
O O16 0.378113 0.950883 0.750000
#
# Coordination Sequence:
#
# PCOD8232140 Si02
#       6
#     8   8   8   8   8   8
#     4  10  22  38  54  75 105 139 175 213 257 309
#     4  10  20  34  54  81 106 132 171 217 260 307
#     4   9  17  31  49  71 100 132 167 207 251 300
#     4   9  17  30  51  75  99 129 165 208 254 299
#     4  10  20  32  48  72 103 136 170 211 258 307
#     4  10  20  35  54  77 103 134 173 216 260 308
#
# _framework density 17.953658999999998
#
# number of rings (size 3 to 8) (size 9 to 14) (size 15 to 20)
#    0.000    2.333    1.667    1.000    0.000    2.667 
#    0.000    0.833    0.000    0.000    0.000    0.000 
#    0.000    0.000    0.000    0.000    0.000    0.000 
#
# Total GULP energy -595082.348738 kJ/mol
# GULP energy per Si atom -12397.548932 kJ/mol
# Density = 1.791280 g / cm^3
# Si number density = 17.953659 Si / 1000 Ang^3
#
#
#
# Elastic Constant Matrix: (Units=GPa)
#
#
# Indices 1 2 3 4 5 6 
#
# 1 122.1012 34.0219 34.4837 0.0000 0.0000 0.0000
# 2 34.0219 60.2660 37.7785 0.0000 0.0000 0.0000
# 3 34.4837 37.7785 59.1155 0.0000 0.0000 0.0000
# 4 0.0000 0.0000 0.0000 28.7374 0.0000 0.0000
# 5 0.0000 0.0000 0.0000 0.0000 22.4137 0.0000
# 6 0.0000 0.0000 0.0000 0.0000 0.0000 14.0846
#
#
#
# Elastic Compliance Matrix: (Units=1/GPa)
#
#
# Indices 1 2 3 4 5 6 
#
# 1 0.010203 -0.003385 -0.003788 0.000000 0.000000 0.000000
# 2 -0.003385 0.028806 -0.016434 0.000000 0.000000 0.000000
# 3 -0.003788 -0.016434 0.029629 0.000000 0.000000 0.000000
# 4 0.000000 0.000000 0.000000 0.034798 0.000000 0.000000
# 5 0.000000 0.000000 0.000000 0.000000 0.044616 0.000000
# 6 0.000000 0.000000 0.000000 0.000000 0.000000 0.071000
#
#
# Mechanical properties :
#
#
# Convention : Reuss Voigt Hill
#
# Bulk Modulus (GPa) = 46.68095 50.45010 48.56552
# Shear Modulus (GPa) = 18.28775 22.06038 20.17406
#
# Velocity S-wave (km/s) = 3.19503 3.50914 3.35576
# Velocity P-wave (km/s) = 6.29827 6.67682 6.49031
#
# Compressibility (1/GPa) = 0.02142201
#
# Stress axis : x y z
#
# Youngs Moduli (GPa) = 98.00971 34.71476 33.75128
#
# Poissons Ratio (x) = 0.11751 0.12786
# Poissons Ratio (y) = 0.33177 0.55468
# Poissons Ratio (z) = 0.37130 0.57051
#
# Static dielectric constant tensor:
#      x y z
#    x 3.749760 0.000000 0.000000 
#    y 0.000000 2.950030 0.000000 
#    z 0.000000 0.000000 3.322880 
# 
# 
# High freq. dielectric constant tensor:
#      x y z
#    x 1.715900 0.000000 0.000000 
#    y 0.000000 1.660840 0.000000 
#    z 0.000000 0.000000 1.696450 
# 
# From -- ./inp_files/4607.got.cif
#   From: 2010.03.12/outbox.cif.g09.slc.cpg/sg57_3_cif.got.tgz:4607.got - 2010.04.16 15:48:40.
