data_PCOD8232229
_publ_section_title
;
Structure prediction by ZEFSAII (Michael W. Deem and Ramdas Pophale) SiO2 
 PCOD8232229
Probable space group: P B C M
;
_chemical_formula_sum "Si O2"
_cell_formula_units_Z 40
_cell_length_a 26.144034
_cell_length_b 9.278099
_cell_length_c 8.775674
_cell_angle_alpha 90.000000
_cell_angle_beta 90.000000
_cell_angle_gamma 90.000000
_cell_volume 2128.688351
_symmetry_space_group_name_H-M "P B C M"
_symmetry_group_IT_number 57
_symmetry_cell_setting 'orthorhombic'
loop_
_space_group_symop_operation_xyz
x,y,z
-x,-y,1/2+z
x,1/2-y,-z
-x,1/2+y,1/2-z
-x,-y,-z
x,y,1/2-z
-x,1/2+y,z
x,1/2-y,1/2+z
loop_
_atom_site_type_symbol
_atom_site_label
_atom_site_fract_x
_atom_site_fract_y
_atom_site_fract_z
Si Si1 0.454093 0.591532 0.068186
Si Si2 0.747505 0.594891 0.074805
Si Si3 0.956392 0.905610 0.427629
Si Si4 0.155562 0.406755 0.073144
Si Si5 0.634011 0.908345 0.928657
O O1 0.457978 0.597740 0.250000
O O2 0.457422 0.750000 0.000000
O O3 0.500000 0.500000 0.000000
O O4 0.401239 0.519339 0.018126
O O5 0.760538 0.611766 0.250000
O O6 0.691391 0.526115 0.050128
O O7 0.744827 0.750000 0.000000
O O8 0.795525 0.506946 0.999115
O O9 0.959013 0.750000 0.500000
O O10 0.966952 0.889970 0.250000
O O11 0.900219 0.978141 0.458149
O O12 0.000000 0.000000 0.500000
O O13 0.165915 0.391905 0.250000
O O14 0.154344 0.250000 0.000000
O O15 0.619392 0.899609 0.750000
O O16 0.627831 0.750000 0.000000
#
# Coordination Sequence:
#
# PCOD8232229 Si02
#       5
#     8   8   8   8   8
#     4  12  25  42  62  84 111 144 180 220 264 311
#     4   9  16  26  45  72 103 135 169 210 255 302
#     4  10  20  33  50  73 101 135 173 217 265 316
#     4   9  16  26  43  68  98 130 168 211 257 306
#     4  10  20  35  55  83 114 144 178 216 260 311
#
# _framework density 18.790914999999998
#
# number of rings (size 3 to 8) (size 9 to 14) (size 15 to 20)
#    0.000    2.000    0.000    6.000    0.000    4.800 
#    0.000    0.000    0.000    1.200    0.000    8.400 
#    0.000    0.000    0.000    0.000    0.000    0.000 
#
# Total GULP energy -495590.199623 kJ/mol
# GULP energy per Si atom -12389.754991 kJ/mol
# Density = 1.874815 g / cm^3
# Si number density = 18.790915 Si / 1000 Ang^3
#
#
#
# Elastic Constant Matrix: (Units=GPa)
#
#
# Indices 1 2 3 4 5 6 
#
# 1 184.7775 57.9377 94.5178 0.0000 0.0000 0.0000
# 2 57.9377 73.2063 46.6609 0.0000 0.0000 0.0000
# 3 94.5178 46.6609 168.0466 0.0000 0.0000 0.0000
# 4 0.0000 0.0000 0.0000 26.2359 0.0000 0.0000
# 5 0.0000 0.0000 0.0000 0.0000 39.0024 0.0000
# 6 0.0000 0.0000 0.0000 0.0000 0.0000 20.7706
#
#
#
# Elastic Compliance Matrix: (Units=1/GPa)
#
#
# Indices 1 2 3 4 5 6 
#
# 1 0.008700 -0.004576 -0.003623 0.000000 0.000000 0.000000
# 2 -0.004576 0.019005 -0.002703 0.000000 0.000000 0.000000
# 3 -0.003623 -0.002703 0.008739 0.000000 0.000000 0.000000
# 4 0.000000 0.000000 0.000000 0.038116 0.000000 0.000000
# 5 0.000000 0.000000 0.000000 0.000000 0.025639 0.000000
# 6 0.000000 0.000000 0.000000 0.000000 0.000000 0.048145
#
#
# Mechanical properties :
#
#
# Convention : Reuss Voigt Hill
#
# Bulk Modulus (GPa) = 68.30801 91.58479 79.94640
# Shear Modulus (GPa) = 28.56698 32.32938 30.44818
#
# Velocity S-wave (km/s) = 3.90327 4.15237 4.02975
# Velocity P-wave (km/s) = 7.53290 8.47551 8.01807
#
# Compressibility (1/GPa) = 0.01463957
#
# Stress axis : x y z
#
# Youngs Moduli (GPa) = 114.94450 52.61836 114.43276
#
# Poissons Ratio (x) = 0.24080 0.41454
# Poissons Ratio (y) = 0.52603 0.30931
# Poissons Ratio (z) = 0.41639 0.14223
#
# Static dielectric constant tensor:
#      x y z
#    x 4.917850 0.000000 0.000000 
#    y 0.000000 2.929800 0.000000 
#    z 0.000000 0.000000 3.701880 
# 
# 
# High freq. dielectric constant tensor:
#      x y z
#    x 1.767210 0.000000 0.000000 
#    y 0.000000 1.664190 0.000000 
#    z 0.000000 0.000000 1.754430 
# 
# From -- ./inp_files/9631.got.cif
#   From: 2010.03.12/outbox.cif.g09.slc.cpg/sg57_5_cif.got.tgz:9631.got - 2010.04.16 15:48:40.
