data_PCOD8232473
_publ_section_title
;
Structure prediction by ZEFSAII (Michael W. Deem and Ramdas Pophale) SiO2 
 PCOD8232473
Probable space group: P B C M
;
_chemical_formula_sum "Si O2"
_cell_formula_units_Z 48
_cell_length_a 10.332838
_cell_length_b 26.697788
_cell_length_c 9.090861
_cell_angle_alpha 90.000000
_cell_angle_beta 90.000000
_cell_angle_gamma 90.000000
_cell_volume 2507.840537
_symmetry_space_group_name_H-M "P B C M"
_symmetry_group_IT_number 57
_symmetry_cell_setting 'orthorhombic'
loop_
_space_group_symop_operation_xyz
x,y,z
-x,-y,1/2+z
x,1/2-y,-z
-x,1/2+y,1/2-z
-x,-y,-z
x,y,1/2-z
-x,1/2+y,z
x,1/2-y,1/2+z
loop_
_atom_site_type_symbol
_atom_site_label
_atom_site_fract_x
_atom_site_fract_y
_atom_site_fract_z
Si Si1 0.119293 0.473561 0.576820
Si Si2 0.118709 0.802696 0.422712
Si Si3 0.626104 0.358253 0.075165
Si Si4 0.616712 0.028334 0.576411
Si Si5 0.126885 0.369403 0.079787
Si Si6 0.372864 0.198051 0.921408
O O1 0.096546 0.475034 0.750000
O O2 0.249313 0.502439 0.531880
O O3 0.130447 0.417017 0.523972
O O4 0.000000 0.500000 0.500000
O O5 0.101352 0.750000 0.500000
O O6 0.129007 0.793022 0.250000
O O7 0.246018 0.830567 0.484221
O O8 0.996961 0.836779 0.462796
O O9 0.627603 0.359836 0.250000
O O10 0.621401 0.414918 0.015601
O O11 0.502071 0.328038 0.015676
O O12 0.593051 0.026882 0.750000
O O13 0.500000 0.000000 0.500000
O O14 0.121508 0.386263 0.250000
O O15 0.254091 0.338016 0.044560
O O16 0.387066 0.209115 0.750000
O O17 0.347226 0.250000 0.000000
#
# Coordination Sequence:
#
# PCOD8232473 Si02
#       6
#     8   8   8   8   8   8
#     4  11  23  38  59  86 115 149 189 234 282 334
#     4  10  20  35  55  78 106 141 180 224 274 327
#     4   9  18  34  54  75 104 141 176 215 270 330
#     4  10  21  38  59  83 112 147 187 230 279 334
#     4  10  21  37  56  78 108 146 183 223 276 332
#     4  10  20  34  54  78 105 140 178 220 271 325
#
# _framework density 19.139973000000001
#
# number of rings (size 3 to 8) (size 9 to 14) (size 15 to 20)
#    0.000    2.000    0.000    3.500    0.000    6.667 
#    0.000    1.667    0.000    0.000    0.000    0.000 
#    0.000    0.000    0.000    0.000    0.000    0.000 
#
# Total GULP energy -595396.822234 kJ/mol
# GULP energy per Si atom -12404.100463 kJ/mol
# Density = 1.909641 g / cm^3
# Si number density = 19.139973 Si / 1000 Ang^3
#
#
#
# Elastic Constant Matrix: (Units=GPa)
#
#
# Indices 1 2 3 4 5 6 
#
# 1 148.5799 49.0934 48.9137 0.0000 0.0000 0.0000
# 2 49.0934 130.1431 51.5809 0.0000 0.0000 0.0000
# 3 48.9137 51.5809 48.2667 0.0000 0.0000 0.0000
# 4 0.0000 0.0000 0.0000 35.9315 0.0000 0.0000
# 5 0.0000 0.0000 0.0000 0.0000 -27.2359 0.0000
# 6 0.0000 0.0000 0.0000 0.0000 0.0000 35.1451
#
#
#
# Elastic Compliance Matrix: (Units=1/GPa)
#
#
# Indices 1 2 3 4 5 6 
#
# 1 0.010114 0.000429 -0.010707 0.000000 0.000000 0.000000
# 2 0.000429 0.013348 -0.014699 0.000000 0.000000 0.000000
# 3 -0.010707 -0.014699 0.047277 0.000000 0.000000 0.000000
# 4 0.000000 0.000000 0.000000 0.027831 0.000000 0.000000
# 5 0.000000 0.000000 0.000000 0.000000 -0.036716 0.000000
# 6 0.000000 0.000000 0.000000 0.000000 0.000000 0.028453
#
#
# Mechanical properties :
#
#
# Convention : Reuss Voigt Hill
#
# Bulk Modulus (GPa) = 48.11454 69.57394 58.84424
# Shear Modulus (GPa) = 33.96997 20.59492 27.28244
#
# Velocity S-wave (km/s) = 4.21743 3.28383 3.77957
# Velocity P-wave (km/s) = 6.99346 7.12790 7.06100
#
# Compressibility (1/GPa) = 0.02078374
#
# Stress axis : x y z
#
# Youngs Moduli (GPa) = 98.87592 74.91847 21.15203
#
# Poissons Ratio (x) = -0.03211 0.22648
# Poissons Ratio (y) = -0.04237 0.31091
# Poissons Ratio (z) = 1.05868 1.10120
#
# Static dielectric constant tensor:
#      x y z
#    x 3.861820 0.000000 0.000000 
#    y 0.000000 3.578030 0.000000 
#    z 0.000000 0.000000 3.246890 
# 
# 
# High freq. dielectric constant tensor:
#      x y z
#    x 1.767710 0.000000 0.000000 
#    y 0.000000 1.761590 0.000000 
#    z 0.000000 0.000000 1.719700 
# 
# From -- ./inp_files/2026.got.cif
#   From: 2010.03.12/outbox.cif.g09.slc.cpg/sg57_2_cif.got.tgz:2026.got - 2010.04.16 15:48:40.
