data_PCOD8232376
_publ_section_title
;
Structure prediction by ZEFSAII (Michael W. Deem and Ramdas Pophale) SiO2 
 PCOD8232376
Probable space group: P B C M
;
_chemical_formula_sum "Si O2"
_cell_formula_units_Z 48
_cell_length_a 19.275666
_cell_length_b 14.305792
_cell_length_c 9.136807
_cell_angle_alpha 90.000000
_cell_angle_beta 90.000000
_cell_angle_gamma 90.000000
_cell_volume 2519.508048
_symmetry_space_group_name_H-M "P B C M"
_symmetry_group_IT_number 57
_symmetry_cell_setting 'orthorhombic'
loop_
_space_group_symop_operation_xyz
x,y,z
-x,-y,1/2+z
x,1/2-y,-z
-x,1/2+y,1/2-z
-x,-y,-z
x,y,1/2-z
-x,1/2+y,z
x,1/2-y,1/2+z
loop_
_atom_site_type_symbol
_atom_site_label
_atom_site_fract_x
_atom_site_fract_y
_atom_site_fract_z
Si Si1 0.257125 0.504233 0.580103
Si Si2 0.631902 0.348406 0.421268
Si Si3 0.667573 0.651284 0.921441
Si Si4 0.482295 0.345566 0.417580
Si Si5 0.901174 0.496059 0.081639
Si Si6 0.017648 0.350157 0.422392
O O1 0.272182 0.483845 0.750000
O O2 0.307300 0.585291 0.519278
O O3 0.272312 0.411661 0.488520
O O4 0.177944 0.533523 0.552463
O O5 0.639218 0.250000 0.500000
O O6 0.641822 0.330528 0.250000
O O7 0.555707 0.397140 0.454207
O O8 0.681426 0.664455 0.750000
O O9 0.591112 0.603162 0.952883
O O10 0.671799 0.750000 0.000000
O O11 0.483422 0.250000 0.500000
O O12 0.482026 0.316903 0.250000
O O13 0.913693 0.524716 0.250000
O O14 0.946526 0.405136 0.040648
O O15 0.919721 0.586122 0.983474
O O16 0.016199 0.250000 0.500000
O O17 0.028076 0.334944 0.250000
#
# Coordination Sequence:
#
# PCOD8232376 Si02
#       6
#     8   8   8   8   8   8
#     4  10  21  36  53  76 108 141 171 209 258 308
#     4   9  18  33  52  74 102 137 175 216 262 308
#     4  10  20  34  52  74 101 136 178 221 264 309
#     4   8  15  29  48  70  97 130 172 219 261 303
#     4   9  20  38  56  78 109 140 172 209 248 300
#     4  10  20  36  60  85 107 135 170 208 252 301
#
# _framework density 19.051338000000001
#
# number of rings (size 3 to 8) (size 9 to 14) (size 15 to 20)
#    0.000    2.667    0.000    1.000    0.000    4.667 
#    0.000    0.000    0.000    0.000    0.000    0.000 
#    0.000    0.000    0.000    0.000    0.000    0.000 
#
# Total GULP energy -594759.724924 kJ/mol
# GULP energy per Si atom -12390.827603 kJ/mol
# Density = 1.900798 g / cm^3
# Si number density = 19.051338 Si / 1000 Ang^3
#
#
#
# Elastic Constant Matrix: (Units=GPa)
#
#
# Indices 1 2 3 4 5 6 
#
# 1 86.4841 14.6836 20.1092 0.0000 0.0000 0.0000
# 2 14.6836 70.0231 28.1879 0.0000 0.0000 0.0000
# 3 20.1092 28.1879 57.4116 0.0000 0.0000 0.0000
# 4 0.0000 0.0000 0.0000 28.9366 0.0000 0.0000
# 5 0.0000 0.0000 0.0000 0.0000 22.6090 0.0000
# 6 0.0000 0.0000 0.0000 0.0000 0.0000 24.2093
#
#
#
# Elastic Compliance Matrix: (Units=1/GPa)
#
#
# Indices 1 2 3 4 5 6 
#
# 1 0.012654 -0.001083 -0.003900 0.000000 0.000000 0.000000
# 2 -0.001083 0.017892 -0.008405 0.000000 0.000000 0.000000
# 3 -0.003900 -0.008405 0.022911 0.000000 0.000000 0.000000
# 4 0.000000 0.000000 0.000000 0.034558 0.000000 0.000000
# 5 0.000000 0.000000 0.000000 0.000000 0.044230 0.000000
# 6 0.000000 0.000000 0.000000 0.000000 0.000000 0.041306
#
#
# Mechanical properties :
#
#
# Convention : Reuss Voigt Hill
#
# Bulk Modulus (GPa) = 37.48263 37.76448 37.62355
# Shear Modulus (GPa) = 23.89818 25.21352 24.55585
#
# Velocity S-wave (km/s) = 3.54561 3.64187 3.59406
# Velocity P-wave (km/s) = 6.03979 6.12779 6.08395
#
# Compressibility (1/GPa) = 0.02667903
#
# Stress axis : x y z
#
# Youngs Moduli (GPa) = 79.02867 55.89212 43.64745
#
# Poissons Ratio (x) = 0.06055 0.17023
# Poissons Ratio (y) = 0.08562 0.36685
# Poissons Ratio (z) = 0.30823 0.46977
#
# Static dielectric constant tensor:
#      x y z
#    x 3.891380 0.000000 0.000000 
#    y 0.000000 3.191580 0.000000 
#    z 0.000000 0.000000 3.451200 
# 
# 
# High freq. dielectric constant tensor:
#      x y z
#    x 1.752520 0.000000 0.000000 
#    y 0.000000 1.717790 0.000000 
#    z 0.000000 0.000000 1.743020 
# 
# From -- ./inp_files/6500.got.cif
#   From: 2010.03.12/outbox.cif.g09.slc.cpg/sg57_4_cif.got.tgz:6500.got - 2010.04.16 15:48:40.
