data_PCOD8232709
_publ_section_title
;
Structure prediction by ZEFSAII (Michael W. Deem and Ramdas Pophale) SiO2 
 PCOD8232709
Probable space group: P B C M
;
_chemical_formula_sum "Si O2"
_cell_formula_units_Z 64
_cell_length_a 19.342604
_cell_length_b 21.441730
_cell_length_c 8.883600
_cell_angle_alpha 90.000000
_cell_angle_beta 90.000000
_cell_angle_gamma 90.000000
_cell_volume 3684.374425
_symmetry_space_group_name_H-M "P B C M"
_symmetry_group_IT_number 57
_symmetry_cell_setting 'orthorhombic'
loop_
_space_group_symop_operation_xyz
x,y,z
-x,-y,1/2+z
x,1/2-y,-z
-x,1/2+y,1/2-z
-x,-y,-z
x,y,1/2-z
-x,1/2+y,z
x,1/2-y,1/2+z
loop_
_atom_site_type_symbol
_atom_site_label
_atom_site_fract_x
_atom_site_fract_y
_atom_site_fract_z
Si Si1 0.813867 0.002904 0.427158
Si Si2 0.974942 0.685141 0.428791
Si Si3 0.042781 0.556193 0.426716
Si Si4 0.464166 0.557514 0.921080
Si Si5 0.604680 0.606021 0.585172
Si Si6 0.335715 0.532011 0.082164
Si Si7 0.838108 0.636671 0.571404
Si Si8 0.703247 0.688203 0.075051
O O1 0.802462 0.995755 0.250000
O O2 0.876119 0.049690 0.468765
O O3 0.741007 0.028288 0.494783
O O4 0.834192 0.934455 0.488694
O O5 0.003734 0.750000 0.500000
O O6 0.975928 0.692152 0.250000
O O7 0.897983 0.673643 0.486552
O O8 0.020096 0.625063 0.482062
O O9 0.030885 0.549086 0.250000
O O10 0.000000 0.500000 0.500000
O O11 0.449791 0.538995 0.750000
O O12 0.521378 0.612517 0.934530
O O13 0.500000 0.500000 0.000000
O O14 0.389591 0.576451 0.992321
O O15 0.625247 0.633984 0.750000
O O16 0.629730 0.535238 0.582620
O O17 0.641810 0.639024 0.446116
O O18 0.328683 0.559383 0.250000
O O19 0.850333 0.640649 0.750000
O O20 0.768342 0.670263 0.525820
O O21 0.722735 0.694274 0.250000
O O22 0.673147 0.750000 0.000000
#
# Coordination Sequence:
#
# PCOD8232709 Si02
#       8
#     8   8   8   8   8   8   8   8
#     4   9  17  31  52  75 102 136 165 204 263 313
#     4  11  23  37  54  78 105 136 179 220 261 313
#     4  10  20  35  55  79 104 134 174 217 264 318
#     4   9  17  28  44  67  95 125 156 193 237 283
#     4   9  17  31  47  66  94 129 164 200 246 294
#     4   9  16  29  48  70  97 127 159 195 243 299
#     4  11  20  35  55  72 100 137 173 211 259 309
#     4  12  24  35  48  68  97 132 174 215 252 298
#
# _framework density 17.370654999999999
#
# number of rings (size 3 to 8) (size 9 to 14) (size 15 to 20)
#    0.000    2.000    2.500    3.375    0.000    3.000 
#    0.000    0.625    0.000    0.000    0.000    0.875 
#    0.000    4.000    0.000    0.000    0.000    0.000 
#
# Total GULP energy -793096.939219 kJ/mol
# GULP energy per Si atom -12392.139675 kJ/mol
# Density = 1.733112 g / cm^3
# Si number density = 17.370655 Si / 1000 Ang^3
#
#
#
# Elastic Constant Matrix: (Units=GPa)
#
#
# Indices 1 2 3 4 5 6 
#
# 1 117.9279 40.2779 28.5662 0.0000 0.0000 0.0000
# 2 40.2779 58.2486 29.5280 0.0000 0.0000 0.0000
# 3 28.5662 29.5280 63.5013 0.0000 0.0000 0.0000
# 4 0.0000 0.0000 0.0000 19.3385 0.0000 0.0000
# 5 0.0000 0.0000 0.0000 0.0000 23.4737 0.0000
# 6 0.0000 0.0000 0.0000 0.0000 0.0000 11.3270
#
#
#
# Elastic Compliance Matrix: (Units=1/GPa)
#
#
# Indices 1 2 3 4 5 6 
#
# 1 0.011273 -0.006836 -0.001893 0.000000 0.000000 0.000000
# 2 -0.006836 0.026608 -0.009298 0.000000 0.000000 0.000000
# 3 -0.001893 -0.009298 0.020922 0.000000 0.000000 0.000000
# 4 0.000000 0.000000 0.000000 0.051710 0.000000 0.000000
# 5 0.000000 0.000000 0.000000 0.000000 0.042601 0.000000
# 6 0.000000 0.000000 0.000000 0.000000 0.000000 0.088284
#
#
# Mechanical properties :
#
#
# Convention : Reuss Voigt Hill
#
# Bulk Modulus (GPa) = 43.95297 48.49132 46.22215
# Shear Modulus (GPa) = 17.54178 20.24823 18.89501
#
# Velocity S-wave (km/s) = 3.18126 3.41788 3.30169
# Velocity P-wave (km/s) = 6.23313 6.59940 6.41888
#
# Compressibility (1/GPa) = 0.02275159
#
# Stress axis : x y z
#
# Youngs Moduli (GPa) = 88.70847 37.58318 47.79559
#
# Poissons Ratio (x) = 0.25690 0.09046
# Poissons Ratio (y) = 0.60637 0.44438
# Poissons Ratio (z) = 0.16789 0.34943
#
# Static dielectric constant tensor:
#      x y z
#    x 3.698430 0.000000 0.000000 
#    y 0.000000 3.135230 0.000000 
#    z 0.000000 0.000000 3.245580 
# 
# 
# High freq. dielectric constant tensor:
#      x y z
#    x 1.676990 0.000000 0.000000 
#    y 0.000000 1.630720 0.000000 
#    z 0.000000 0.000000 1.666580 
# 
# From -- ./inp_files/8603.got.cif
#   From: 2010.03.12/outbox.cif.g09.slc.cpg/sg57_5_cif.got.tgz:8603.got - 2010.04.16 15:48:40.
