data_PCOD8232226
_publ_section_title
;
Structure prediction by ZEFSAII (Michael W. Deem and Ramdas Pophale) SiO2 
 PCOD8232226
Probable space group: P B C M
;
_chemical_formula_sum "Si O2"
_cell_formula_units_Z 48
_cell_length_a 21.271508
_cell_length_b 14.082838
_cell_length_c 9.213539
_cell_angle_alpha 90.000000
_cell_angle_beta 90.000000
_cell_angle_gamma 90.000000
_cell_volume 2760.037237
_symmetry_space_group_name_H-M "P B C M"
_symmetry_group_IT_number 57
_symmetry_cell_setting 'orthorhombic'
loop_
_space_group_symop_operation_xyz
x,y,z
-x,-y,1/2+z
x,1/2-y,-z
-x,1/2+y,1/2-z
-x,-y,-z
x,y,1/2-z
-x,1/2+y,z
x,1/2-y,1/2+z
loop_
_atom_site_type_symbol
_atom_site_label
_atom_site_fract_x
_atom_site_fract_y
_atom_site_fract_z
Si Si1 0.765356 0.500394 0.422158
Si Si2 0.434936 0.500417 0.918415
Si Si3 0.092932 0.014874 0.419426
Si Si4 0.332962 0.151518 0.420350
Si Si5 0.667799 0.151309 0.579370
Si Si6 0.997243 0.651219 0.579934
O O1 0.763748 0.498270 0.250000
O O2 0.836566 0.501094 0.479452
O O3 0.728665 0.594412 0.475289
O O4 0.728816 0.406755 0.477730
O O5 0.450445 0.500338 0.750000
O O6 0.395220 0.407393 0.960794
O O7 0.395093 0.593502 0.960286
O O8 0.500000 0.500000 0.000000
O O9 0.091080 0.043103 0.250000
O O10 0.057239 0.916006 0.446533
O O11 0.063506 0.100785 0.511015
O O12 0.336082 0.250000 0.500000
O O13 0.329006 0.169715 0.250000
O O14 0.665229 0.250000 0.500000
O O15 0.672388 0.168804 0.750000
O O16 0.010710 0.750000 0.500000
O O17 0.985230 0.669210 0.750000
#
# Coordination Sequence:
#
# PCOD8232226 Si02
#       6
#     8   8   8   8   8   8
#     4   8  16  33  53  71  96 128 159 195 241 287
#     4   9  19  34  50  69  96 128 159 194 237 283
#     4   9  18  34  54  73  96 129 166 203 243 287
#     4   9  18  33  51  71  96 125 157 195 238 282
#     4   9  18  33  51  72  98 127 159 196 239 285
#     4  10  20  33  50  73 101 131 163 201 244 290
#
# _framework density 17.391068000000001
#
# number of rings (size 3 to 8) (size 9 to 14) (size 15 to 20)
#    0.000    3.000    0.000    2.500    0.000    4.000 
#    0.000    9.167    0.000    0.000    0.000    0.000 
#    0.000    0.000    0.000    0.000    0.000    0.000 
#
# Total GULP energy -595095.493421 kJ/mol
# GULP energy per Si atom -12397.822780 kJ/mol
# Density = 1.735149 g / cm^3
# Si number density = 17.391068 Si / 1000 Ang^3
#
#
#
# Elastic Constant Matrix: (Units=GPa)
#
#
# Indices 1 2 3 4 5 6 
#
# 1 167.2995 75.6561 52.9407 0.0000 0.0000 0.0000
# 2 75.6561 158.9362 59.5861 0.0000 0.0000 0.0000
# 3 52.9407 59.5861 57.8575 0.0000 0.0000 0.0000
# 4 0.0000 0.0000 0.0000 37.1950 0.0000 0.0000
# 5 0.0000 0.0000 0.0000 0.0000 25.1717 0.0000
# 6 0.0000 0.0000 0.0000 0.0000 0.0000 14.0236
#
#
#
# Elastic Compliance Matrix: (Units=1/GPa)
#
#
# Indices 1 2 3 4 5 6 
#
# 1 0.008750 -0.001895 -0.006055 0.000000 0.000000 0.000000
# 2 -0.001895 0.010660 -0.009244 0.000000 0.000000 0.000000
# 3 -0.006055 -0.009244 0.032344 0.000000 0.000000 0.000000
# 4 0.000000 0.000000 0.000000 0.026885 0.000000 0.000000
# 5 0.000000 0.000000 0.000000 0.000000 0.039727 0.000000
# 6 0.000000 0.000000 0.000000 0.000000 0.000000 0.071309
#
#
# Mechanical properties :
#
#
# Convention : Reuss Voigt Hill
#
# Bulk Modulus (GPa) = 57.58318 84.49543 71.03931
# Shear Modulus (GPa) = 21.75314 28.33875 25.04594
#
# Velocity S-wave (km/s) = 3.54053 4.04109 3.79906
# Velocity P-wave (km/s) = 7.06375 8.39433 7.75762
#
# Compressibility (1/GPa) = 0.01736618
#
# Stress axis : x y z
#
# Youngs Moduli (GPa) = 114.28030 93.81215 30.91755
#
# Poissons Ratio (x) = 0.17781 0.18720
# Poissons Ratio (y) = 0.21660 0.28580
# Poissons Ratio (z) = 0.69195 0.86718
#
# Static dielectric constant tensor:
#      x y z
#    x 3.644790 0.000000 0.000000 
#    y 0.000000 3.089730 0.000000 
#    z 0.000000 0.000000 3.043270 
# 
# 
# High freq. dielectric constant tensor:
#      x y z
#    x 1.677800 0.000000 0.000000 
#    y 0.000000 1.676440 0.000000 
#    z 0.000000 0.000000 1.654800 
# 
# From -- ./inp_files/7867.got.cif
#   From: 2010.03.12/outbox.cif.g09.slc.cpg/sg57_4_cif.got.tgz:7867.got - 2010.04.16 15:48:40.
