data_PCOD8232547
_publ_section_title
;
Structure prediction by ZEFSAII (Michael W. Deem and Ramdas Pophale) SiO2 
 PCOD8232547
Probable space group: P B C M
;
_chemical_formula_sum "Si O2"
_cell_formula_units_Z 56
_cell_length_a 21.890383
_cell_length_b 14.387252
_cell_length_c 8.951807
_cell_angle_alpha 90.000000
_cell_angle_beta 90.000000
_cell_angle_gamma 90.000000
_cell_volume 2819.304088
_symmetry_space_group_name_H-M "P B C M"
_symmetry_group_IT_number 57
_symmetry_cell_setting 'orthorhombic'
loop_
_space_group_symop_operation_xyz
x,y,z
-x,-y,1/2+z
x,1/2-y,-z
-x,1/2+y,1/2-z
-x,-y,-z
x,y,1/2-z
-x,1/2+y,z
x,1/2-y,1/2+z
loop_
_atom_site_type_symbol
_atom_site_label
_atom_site_fract_x
_atom_site_fract_y
_atom_site_fract_z
Si Si1 0.861408 0.975801 0.576817
Si Si2 0.392719 0.845851 0.427362
Si Si3 0.358605 0.470686 0.425900
Si Si4 0.032455 0.343659 0.574975
Si Si5 0.106920 0.655348 0.074550
Si Si6 0.745262 0.849547 0.925686
Si Si7 0.531714 0.657798 0.922785
O O1 0.864516 0.002574 0.750000
O O2 0.924302 0.927643 0.522675
O O3 0.806026 0.907556 0.542053
O O4 0.852185 0.070210 0.483742
O O5 0.369033 0.750000 0.500000
O O6 0.383869 0.842317 0.250000
O O7 0.462897 0.863314 0.476523
O O8 0.352748 0.929262 0.495516
O O9 0.346601 0.480813 0.250000
O O10 0.310525 0.401185 0.497050
O O11 0.425856 0.429857 0.460672
O O12 0.056905 0.250000 0.500000
O O13 0.038015 0.328144 0.750000
O O14 0.963077 0.364294 0.525607
O O15 0.114433 0.665332 0.250000
O O16 0.130896 0.750000 0.000000
O O17 0.732457 0.838373 0.750000
O O18 0.753989 0.750000 0.000000
O O19 0.532216 0.681218 0.750000
O O20 0.558263 0.750000 0.000000
#
# Coordination Sequence:
#
# PCOD8232547 Si02
#       7
#     8   8   8   8   8   8   8
#     4  10  21  37  56  79 110 145 184 227 272 321
#     4  10  20  36  57  83 114 146 182 226 275 329
#     4  11  22  37  57  82 112 148 188 229 274 325
#     4   9  18  32  52  81 113 145 179 221 271 325
#     4  10  20  34  55  82 112 144 180 222 272 326
#     4  11  24  41  60  83 111 145 184 228 273 321
#     4   9  19  33  53  82 114 147 182 223 273 327
#
# _framework density 19.863057000000001
#
# number of rings (size 3 to 8) (size 9 to 14) (size 15 to 20)
#    0.000    2.000    0.000    3.429    0.000    5.143 
#    0.000    0.714    0.000    3.429    0.000    0.000 
#    0.000    0.000    0.000    0.000    0.000    0.000 
#
# Total GULP energy -694597.988496 kJ/mol
# GULP energy per Si atom -12403.535509 kJ/mol
# Density = 1.981785 g / cm^3
# Si number density = 19.863057 Si / 1000 Ang^3
#
#
#
# Elastic Constant Matrix: (Units=GPa)
#
#
# Indices 1 2 3 4 5 6 
#
# 1 46.7993 41.0582 34.6992 0.0000 0.0000 0.0000
# 2 41.0582 166.4819 72.4082 0.0000 0.0000 0.0000
# 3 34.6992 72.4082 90.8284 0.0000 0.0000 0.0000
# 4 0.0000 0.0000 0.0000 43.6818 0.0000 0.0000
# 5 0.0000 0.0000 0.0000 0.0000 23.1618 0.0000
# 6 0.0000 0.0000 0.0000 0.0000 0.0000 28.2212
#
#
#
# Elastic Compliance Matrix: (Units=1/GPa)
#
#
# Indices 1 2 3 4 5 6 
#
# 1 0.031355 -0.003862 -0.008900 0.000000 0.000000 0.000000
# 2 -0.003862 0.009670 -0.006234 0.000000 0.000000 0.000000
# 3 -0.008900 -0.006234 0.019379 0.000000 0.000000 0.000000
# 4 0.000000 0.000000 0.000000 0.022893 0.000000 0.000000
# 5 0.000000 0.000000 0.000000 0.000000 0.043175 0.000000
# 6 0.000000 0.000000 0.000000 0.000000 0.000000 0.035434
#
#
# Mechanical properties :
#
#
# Convention : Reuss Voigt Hill
#
# Bulk Modulus (GPa) = 44.61609 66.71563 55.66586
# Shear Modulus (GPa) = 24.11167 29.40921 26.76044
#
# Velocity S-wave (km/s) = 3.48788 3.85203 3.67447
# Velocity P-wave (km/s) = 6.22342 7.31060 6.78881
#
# Compressibility (1/GPa) = 0.02241344
#
# Stress axis : x y z
#
# Youngs Moduli (GPa) = 31.89307 103.40820 51.60143
#
# Poissons Ratio (x) = 0.39937 0.45924
# Poissons Ratio (y) = 0.12317 0.32167
# Poissons Ratio (z) = 0.28384 0.64463
#
# Static dielectric constant tensor:
#      x y z
#    x 3.577690 0.000000 0.000000 
#    y 0.000000 3.726790 0.000000 
#    z 0.000000 0.000000 3.574260 
# 
# 
# High freq. dielectric constant tensor:
#      x y z
#    x 1.755290 0.000000 0.000000 
#    y 0.000000 1.786810 0.000000 
#    z 0.000000 0.000000 1.778950 
# 
# From -- ./inp_files/8024.got.cif
#   From: 2010.03.12/outbox.cif.g09.slc.cpg/sg57_5_cif.got.tgz:8024.got - 2010.04.16 15:48:40.
