data_PCOD8232671
_publ_section_title
;
Structure prediction by ZEFSAII (Michael W. Deem and Ramdas Pophale) SiO2 
 PCOD8232671
Probable space group: P B C M
;
_chemical_formula_sum "Si O2"
_cell_formula_units_Z 64
_cell_length_a 15.179621
_cell_length_b 23.354491
_cell_length_c 8.970262
_cell_angle_alpha 90.000000
_cell_angle_beta 90.000000
_cell_angle_gamma 90.000000
_cell_volume 3180.068411
_symmetry_space_group_name_H-M "P B C M"
_symmetry_group_IT_number 57
_symmetry_cell_setting 'orthorhombic'
loop_
_space_group_symop_operation_xyz
x,y,z
-x,-y,1/2+z
x,1/2-y,-z
-x,1/2+y,1/2-z
-x,-y,-z
x,y,1/2-z
-x,1/2+y,z
x,1/2-y,1/2+z
loop_
_atom_site_type_symbol
_atom_site_label
_atom_site_fract_x
_atom_site_fract_y
_atom_site_fract_z
Si Si1 0.899538 0.887054 0.923158
Si Si2 0.834964 0.491113 0.418466
Si Si3 0.570337 0.870012 0.573855
Si Si4 0.959855 0.309520 0.073255
Si Si5 0.383260 0.894360 0.575572
Si Si6 0.188335 0.875767 0.926402
Si Si7 0.631689 0.509468 0.419334
Si Si8 0.262028 0.192495 0.423502
O O1 0.924575 0.877517 0.750000
O O2 0.805550 0.858428 0.958986
O O3 0.896255 0.954748 0.961503
O O4 0.973278 0.859461 0.027259
O O5 0.855267 0.470174 0.250000
O O6 0.850894 0.438038 0.529755
O O7 0.736384 0.514013 0.430281
O O8 0.585550 0.873210 0.750000
O O9 0.468029 0.854098 0.534780
O O10 0.591942 0.932847 0.509404
O O11 0.640921 0.824300 0.510740
O O12 0.957330 0.302712 0.250000
O O13 0.990717 0.250000 0.000000
O O14 0.863378 0.325761 0.011388
O O15 0.373839 0.901886 0.750000
O O16 0.290035 0.869788 0.516413
O O17 0.405023 0.956570 0.512383
O O18 0.178455 0.867391 0.750000
O O19 0.600786 0.500671 0.250000
O O20 0.227902 0.250000 0.500000
O O21 0.267137 0.205385 0.250000
#
# Coordination Sequence:
#
# PCOD8232671 Si02
#       8
#     8   8   8   8   8   8   8   8
#     4  10  20  37  61  87 116 148 185 228 278 339
#     4   9  17  32  56  86 118 154 189 224 276 338
#     4   9  16  30  51  75 107 148 187 221 269 326
#     4  12  26  44  65  86 108 141 186 236 287 341
#     4   9  18  31  51  79 111 145 182 227 275 321
#     4  10  21  38  58  84 118 152 189 236 285 333
#     4   9  15  27  49  77 110 148 184 220 264 323
#     4  10  20  35  54  77 109 150 189 228 276 332
#
# _framework density 20.125354000000002
#
# number of rings (size 3 to 8) (size 9 to 14) (size 15 to 20)
#    0.000    2.250    1.250    2.250    0.000    3.000 
#    0.000    1.875    0.000    1.500    0.000    0.000 
#    0.000    0.000    0.000    0.000    0.000    0.000 
#
# Total GULP energy -793381.797994 kJ/mol
# GULP energy per Si atom -12396.590594 kJ/mol
# Density = 2.007955 g / cm^3
# Si number density = 20.125354 Si / 1000 Ang^3
#
#
#
# Elastic Constant Matrix: (Units=GPa)
#
#
# Indices 1 2 3 4 5 6 
#
# 1 72.3147 16.1367 28.6198 0.0000 0.0000 0.0000
# 2 16.1367 40.6337 16.7442 0.0000 0.0000 0.0000
# 3 28.6198 16.7442 57.9856 0.0000 0.0000 0.0000
# 4 0.0000 0.0000 0.0000 28.5641 0.0000 0.0000
# 5 0.0000 0.0000 0.0000 0.0000 19.8104 0.0000
# 6 0.0000 0.0000 0.0000 0.0000 0.0000 21.9368
#
#
#
# Elastic Compliance Matrix: (Units=1/GPa)
#
#
# Indices 1 2 3 4 5 6 
#
# 1 0.017712 -0.003895 -0.007618 0.000000 0.000000 0.000000
# 2 -0.003895 0.028791 -0.006391 0.000000 0.000000 0.000000
# 3 -0.007618 -0.006391 0.022851 0.000000 0.000000 0.000000
# 4 0.000000 0.000000 0.000000 0.035009 0.000000 0.000000
# 5 0.000000 0.000000 0.000000 0.000000 0.050479 0.000000
# 6 0.000000 0.000000 0.000000 0.000000 0.000000 0.045585
#
#
# Mechanical properties :
#
#
# Convention : Reuss Voigt Hill
#
# Bulk Modulus (GPa) = 29.80949 32.65950 31.23450
# Shear Modulus (GPa) = 20.20881 21.35780 20.78330
#
# Velocity S-wave (km/s) = 3.17227 3.26120 3.21704
# Velocity P-wave (km/s) = 5.31618 5.51759 5.41782
#
# Compressibility (1/GPa) = 0.03354636
#
# Stress axis : x y z
#
# Youngs Moduli (GPa) = 56.45771 34.73352 43.76175
#
# Poissons Ratio (x) = 0.13529 0.33336
# Poissons Ratio (y) = 0.21991 0.27969
# Poissons Ratio (z) = 0.43007 0.22199
#
# Static dielectric constant tensor:
#      x y z
#    x 3.951310 0.000000 0.000000 
#    y 0.000000 3.518430 0.000000 
#    z 0.000000 0.000000 3.414780 
# 
# 
# High freq. dielectric constant tensor:
#      x y z
#    x 1.797650 0.000000 0.000000 
#    y 0.000000 1.768150 0.000000 
#    z 0.000000 0.000000 1.761470 
# 
# From -- ./inp_files/5750.got.cif
#   From: 2010.03.12/outbox.cif.g09.slc.cpg/sg57_3_cif.got.tgz:5750.got - 2010.04.16 15:48:40.
