data_PCOD8232032
_publ_section_title
;
Structure prediction by ZEFSAII (Michael W. Deem and Ramdas Pophale) SiO2 
 PCOD8232032
Probable space group: P B C M
;
_chemical_formula_sum "Si O2"
_cell_formula_units_Z 36
_cell_length_a 8.476219
_cell_length_b 19.940201
_cell_length_c 9.986308
_cell_angle_alpha 90.000000
_cell_angle_beta 90.000000
_cell_angle_gamma 90.000000
_cell_volume 1687.860918
_symmetry_space_group_name_H-M "P B C M"
_symmetry_group_IT_number 57
_symmetry_cell_setting 'orthorhombic'
loop_
_space_group_symop_operation_xyz
x,y,z
-x,-y,1/2+z
x,1/2-y,-z
-x,1/2+y,1/2-z
-x,-y,-z
x,y,1/2-z
-x,1/2+y,z
x,1/2-y,1/2+z
loop_
_atom_site_type_symbol
_atom_site_label
_atom_site_fract_x
_atom_site_fract_y
_atom_site_fract_z
Si Si1 0.745189 0.364593 0.750000
Si Si2 0.746105 0.285721 0.250000
Si Si3 0.126351 0.885087 0.035647
Si Si4 0.624686 0.617638 0.250000
Si Si5 0.558265 0.649264 0.750000
Si Si6 0.211345 0.328375 0.491813
Si Si7 0.291006 0.963696 0.250000
O O1 0.810885 0.288943 0.750000
O O2 0.811220 0.397564 0.614715
O O3 0.559160 0.368397 0.750000
O O4 0.802773 0.320788 0.387059
O O5 0.555486 0.285666 0.250000
O O6 0.181163 0.950354 0.119600
O O7 0.939377 0.875420 0.032422
O O8 0.704970 0.652884 0.126944
O O9 0.651095 0.538709 0.250000
O O10 0.666293 0.652480 0.621634
O O11 0.446520 0.583441 0.750000
O O12 0.164212 0.250000 0.500000
#
# Coordination Sequence:
#
# PCOD8232032 Si02
#       7
#     4   4   8   4   4   8   4
#     4  12  21  36  61  93 120 164 208 253 310 364
#     4  10  19  37  60  91 126 164 201 246 312 384
#     4  10  23  40  65  89 128 166 202 255 312 384
#     4  12  27  41  65  91 127 163 212 266 301 376
#     4  10  22  38  64  87 125 167 205 257 304 366
#     4  12  23  40  65 101 128 158 203 265 327 368
#     4  10  25  48  60  86 122 176 220 244 311 374
#
# _framework density 21.328771
#
# number of rings (size 3 to 8) (size 9 to 14) (size 15 to 20)
#    0.000    1.333    0.000    8.667    0.000    4.444 
#    0.000    2.222    0.000    0.000    0.000    0.000 
#    0.000    0.000    0.000    0.000    0.000    0.000 
#
# Total GULP energy -446351.364138 kJ/mol
# GULP energy per Si atom -12398.649004 kJ/mol
# Density = 2.128023 g / cm^3
# Si number density = 21.328771 Si / 1000 Ang^3
#
#
#
# Elastic Constant Matrix: (Units=GPa)
#
#
# Indices 1 2 3 4 5 6 
#
# 1 146.2290 -7.3937 59.0423 0.0000 0.0000 0.0000
# 2 -7.3937 63.3818 14.6850 0.0000 0.0000 0.0000
# 3 59.0423 14.6850 191.2087 0.0000 0.0000 0.0000
# 4 0.0000 0.0000 0.0000 17.8188 0.0000 0.0000
# 5 0.0000 0.0000 0.0000 0.0000 45.7571 0.0000
# 6 0.0000 0.0000 0.0000 0.0000 0.0000 19.2284
#
#
#
# Elastic Compliance Matrix: (Units=1/GPa)
#
#
# Indices 1 2 3 4 5 6 
#
# 1 0.007955 0.001524 -0.002573 0.000000 0.000000 0.000000
# 2 0.001524 0.016355 -0.001727 0.000000 0.000000 0.000000
# 3 -0.002573 -0.001727 0.006157 0.000000 0.000000 0.000000
# 4 0.000000 0.000000 0.000000 0.056120 0.000000 0.000000
# 5 0.000000 0.000000 0.000000 0.000000 0.021855 0.000000
# 6 0.000000 0.000000 0.000000 0.000000 0.000000 0.052006
#
#
# Mechanical properties :
#
#
# Convention : Reuss Voigt Hill
#
# Bulk Modulus (GPa) = 40.13608 59.27629 49.70619
# Shear Modulus (GPa) = 28.68528 38.85993 33.77260
#
# Velocity S-wave (km/s) = 3.67128 4.27306 3.98355
# Velocity P-wave (km/s) = 6.06875 7.22478 6.67185
#
# Compressibility (1/GPa) = 0.02491524
#
# Stress axis : x y z
#
# Youngs Moduli (GPa) = 125.71215 61.14237 162.41391
#
# Poissons Ratio (x) = -0.09319 0.41795
# Poissons Ratio (y) = -0.19161 0.28045
# Poissons Ratio (z) = 0.32350 0.10558
#
# Static dielectric constant tensor:
#      x y z
#    x 4.081620 0.000000 0.000000 
#    y 0.000000 3.752340 0.000000 
#    z 0.000000 0.000000 3.953920 
# 
# 
# High freq. dielectric constant tensor:
#      x y z
#    x 1.854380 0.000000 0.000000 
#    y 0.000000 1.818830 0.000000 
#    z 0.000000 0.000000 1.858660 
# 
# From -- ./inp_files/1391.got.cif
#   From: 2010.03.12/outbox.cif.g09.slc.cpg/sg57_1_cif.got.tgz:1391.got - 2010.04.16 15:48:40.
