data_PCOD8232325
_publ_section_title
;
Structure prediction by ZEFSAII (Michael W. Deem and Ramdas Pophale) SiO2 
 PCOD8232325
Probable space group: P B C M
;
_chemical_formula_sum "Si O2"
_cell_formula_units_Z 64
_cell_length_a 23.622320
_cell_length_b 7.737645
_cell_length_c 16.617462
_cell_angle_alpha 90.000000
_cell_angle_beta 90.000000
_cell_angle_gamma 90.000000
_cell_volume 3037.358420
_symmetry_space_group_name_H-M "P B C M"
_symmetry_group_IT_number 57
_symmetry_cell_setting 'orthorhombic'
loop_
_space_group_symop_operation_xyz
x,y,z
-x,-y,1/2+z
x,1/2-y,-z
-x,1/2+y,1/2-z
-x,-y,-z
x,y,1/2-z
-x,1/2+y,z
x,1/2-y,1/2+z
loop_
_atom_site_type_symbol
_atom_site_label
_atom_site_fract_x
_atom_site_fract_y
_atom_site_fract_z
Si Si1 0.438047 0.382949 0.159803
Si Si2 0.861555 0.817015 0.845014
Si Si3 0.673465 0.436534 0.603505
Si Si4 0.061668 0.009633 0.845886
Si Si5 0.464380 0.038985 0.419037
Si Si6 0.340050 0.563993 0.915535
Si Si7 0.938813 0.123900 0.654134
Si Si8 0.261940 0.259680 0.904653
O O1 0.430721 0.308452 0.250000
O O2 0.386278 0.505096 0.137911
O O3 0.494951 0.497413 0.156114
O O4 0.443816 0.236539 0.090712
O O5 0.867272 0.816445 0.750000
O O6 0.891514 0.643840 0.879595
O O7 0.796713 0.824367 0.869594
O O8 0.892538 0.988256 0.879542
O O9 0.675418 0.441079 0.508153
O O10 0.684336 0.236819 0.628991
O O11 0.721710 0.571787 0.633032
O O12 0.061201 0.011114 0.750000
O O13 0.000330 0.067667 0.878259
O O14 0.075854 0.816632 0.877761
O O15 0.500000 0.000000 0.500000
O O16 0.408051 0.924585 0.410911
O O17 0.311109 0.394607 0.876172
O O18 0.939273 0.122729 0.750000
O O19 0.257116 0.250000 0.000000
#
# Coordination Sequence:
#
# PCOD8232325 Si02
#       8
#     8   8   8   8   8   8   8   8
#     4  12  25  40  59  94 136 159 187 255 333 377
#     4  10  20  33  54  85 115 149 195 242 295 354
#     4  10  21  40  64  87 112 154 206 251 297 360
#     4   9  15  26  48  80 116 148 186 238 290 344
#     4  12  23  38  65  94 121 160 212 255 299 382
#     4  10  21  40  65  91 110 149 212 260 290 352
#     4   9  15  26  48  81 116 147 185 238 292 345
#     4  10  22  41  60  81 118 158 204 247 295 359
#
# _framework density 21.07094
#
# number of rings (size 3 to 8) (size 9 to 14) (size 15 to 20)
#    0.000    1.750    3.750    1.500    1.750    1.500 
#    0.000    1.250    0.000    0.750    0.000    0.000 
#    0.000    0.000    0.000    0.000    0.000    0.000 
#
# Total GULP energy -793219.673884 kJ/mol
# GULP energy per Si atom -12394.057404 kJ/mol
# Density = 2.102298 g / cm^3
# Si number density = 21.070940 Si / 1000 Ang^3
#
#
#
# Elastic Constant Matrix: (Units=GPa)
#
#
# Indices 1 2 3 4 5 6 
#
# 1 125.2835 55.3217 9.8943 0.0000 0.0000 0.0000
# 2 55.3217 143.7475 34.9218 0.0000 0.0000 0.0000
# 3 9.8943 34.9218 27.2103 0.0000 0.0000 0.0000
# 4 0.0000 0.0000 0.0000 12.8502 0.0000 0.0000
# 5 0.0000 0.0000 0.0000 0.0000 21.9920 0.0000
# 6 0.0000 0.0000 0.0000 0.0000 0.0000 36.7683
#
#
#
# Elastic Compliance Matrix: (Units=1/GPa)
#
#
# Indices 1 2 3 4 5 6 
#
# 1 0.009679 -0.004170 0.001832 0.000000 0.000000 0.000000
# 2 -0.004170 0.011905 -0.013763 0.000000 0.000000 0.000000
# 3 0.001832 -0.013763 0.053747 0.000000 0.000000 0.000000
# 4 0.000000 0.000000 0.000000 0.077820 0.000000 0.000000
# 5 0.000000 0.000000 0.000000 0.000000 0.045471 0.000000
# 6 0.000000 0.000000 0.000000 0.000000 0.000000 0.027197
#
#
# Mechanical properties :
#
#
# Convention : Reuss Voigt Hill
#
# Bulk Modulus (GPa) = 23.18534 55.16853 39.17694
# Shear Modulus (GPa) = 18.35561 27.39566 22.87564
#
# Velocity S-wave (km/s) = 2.95470 3.60969 3.29849
# Velocity P-wave (km/s) = 4.76106 6.60396 5.75673
#
# Compressibility (1/GPa) = 0.04313069
#
# Stress axis : x y z
#
# Youngs Moduli (GPa) = 103.32151 83.99887 18.60556
#
# Poissons Ratio (x) = 0.35027 -0.03409
# Poissons Ratio (y) = 0.43085 0.25606
# Poissons Ratio (z) = -0.18933 1.15604
#
# Static dielectric constant tensor:
#      x y z
#    x 3.881290 0.000000 0.000000 
#    y 0.000000 2.986790 0.000000 
#    z 0.000000 0.000000 3.319840 
# 
# 
# High freq. dielectric constant tensor:
#      x y z
#    x 1.818560 0.000000 0.000000 
#    y 0.000000 1.846040 0.000000 
#    z 0.000000 0.000000 1.774360 
# 
# From -- ./inp_files/23136.got.cif
#   From: 2010.03.12/outbox.cif.g09.slc.cpg/sg57_12_cif.got.tgz:23136.got - 2010.04.16 15:48:40.
