data_PCOD8232396
_publ_section_title
;
Structure prediction by ZEFSAII (Michael W. Deem and Ramdas Pophale) SiO2 
 PCOD8232396
Probable space group: P B C M
;
_chemical_formula_sum "Si O2"
_cell_formula_units_Z 32
_cell_length_a 11.277575
_cell_length_b 18.097650
_cell_length_c 8.833536
_cell_angle_alpha 90.000000
_cell_angle_beta 90.000000
_cell_angle_gamma 90.000000
_cell_volume 1802.903543
_symmetry_space_group_name_H-M "P B C M"
_symmetry_group_IT_number 57
_symmetry_cell_setting 'orthorhombic'
loop_
_space_group_symop_operation_xyz
x,y,z
-x,-y,1/2+z
x,1/2-y,-z
-x,1/2+y,1/2-z
-x,-y,-z
x,y,1/2-z
-x,1/2+y,z
x,1/2-y,1/2+z
loop_
_atom_site_type_symbol
_atom_site_label
_atom_site_fract_x
_atom_site_fract_y
_atom_site_fract_z
Si Si1 0.275624 0.826598 0.569176
Si Si2 0.166670 0.043874 0.917020
Si Si3 0.966017 0.389884 0.916598
Si Si4 0.379380 0.528264 0.570496
O O1 0.322411 0.750000 0.500000
O O2 0.289155 0.828593 0.750000
O O3 0.137507 0.836464 0.520167
O O4 0.354108 0.891530 0.499168
O O5 0.213410 0.065778 0.750000
O O6 0.088076 0.971176 0.905995
O O7 0.082780 0.110275 0.978092
O O8 0.277194 0.030569 0.027930
O O9 0.005905 0.363762 0.750000
O O10 0.500000 0.500000 0.500000
O O11 0.388770 0.534320 0.750000
#
# Coordination Sequence:
#
# PCOD8232396 Si02
#       4
#     8   8   8   8
#     4  10  20  34  52  76 104 134 170 211 259 312
#     4   9  16  27  45  70  97 124 158 199 244 292
#     4   8  15  27  44  68  97 126 156 193 240 293
#     4  11  21  34  52  74 102 136 176 219 262 307
#
# _framework density 17.749147000000001
#
# number of rings (size 3 to 8) (size 9 to 14) (size 15 to 20)
#    0.000    2.500    0.000    5.250    0.000    7.000 
#    0.000    0.000    0.000    1.500    0.000    7.000 
#    0.000    0.000    0.000    0.000    0.000    0.000 
#
# Total GULP energy -396638.515808 kJ/mol
# GULP energy per Si atom -12394.953619 kJ/mol
# Density = 1.770875 g / cm^3
# Si number density = 17.749147 Si / 1000 Ang^3
#
#
#
# Elastic Constant Matrix: (Units=GPa)
#
#
# Indices 1 2 3 4 5 6 
#
# 1 106.7731 51.8388 61.7452 0.0000 0.0000 0.0000
# 2 51.8388 70.8999 48.4467 0.0000 0.0000 0.0000
# 3 61.7452 48.4467 139.1982 0.0000 0.0000 0.0000
# 4 0.0000 0.0000 0.0000 22.1724 0.0000 0.0000
# 5 0.0000 0.0000 0.0000 0.0000 32.2746 0.0000
# 6 0.0000 0.0000 0.0000 0.0000 0.0000 17.3874
#
#
#
# Elastic Compliance Matrix: (Units=1/GPa)
#
#
# Indices 1 2 3 4 5 6 
#
# 1 0.016041 -0.009009 -0.003980 0.000000 0.000000 0.000000
# 2 -0.009009 0.023565 -0.004205 0.000000 0.000000 0.000000
# 3 -0.003980 -0.004205 0.010413 0.000000 0.000000 0.000000
# 4 0.000000 0.000000 0.000000 0.045101 0.000000 0.000000
# 5 0.000000 0.000000 0.000000 0.000000 0.030984 0.000000
# 6 0.000000 0.000000 0.000000 0.000000 0.000000 0.057513
#
#
# Mechanical properties :
#
#
# Convention : Reuss Voigt Hill
#
# Bulk Modulus (GPa) = 63.97770 71.21472 67.59621
# Shear Modulus (GPa) = 22.39982 24.68959 23.54470
#
# Velocity S-wave (km/s) = 3.55635 3.73370 3.64610
# Velocity P-wave (km/s) = 7.27923 7.66794 7.47611
#
# Compressibility (1/GPa) = 0.01563045
#
# Stress axis : x y z
#
# Youngs Moduli (GPa) = 62.33978 42.43592 96.03305
#
# Poissons Ratio (x) = 0.38230 0.38221
# Poissons Ratio (y) = 0.56162 0.40386
# Poissons Ratio (z) = 0.24811 0.17846
#
# Static dielectric constant tensor:
#      x y z
#    x 3.298640 0.000000 0.000000 
#    y 0.000000 3.075870 0.000000 
#    z 0.000000 0.000000 3.593440 
# 
# 
# High freq. dielectric constant tensor:
#      x y z
#    x 1.673770 0.000000 0.000000 
#    y 0.000000 1.645270 0.000000 
#    z 0.000000 0.000000 1.702760 
# 
# From -- ./inp_files/2384.got.cif
#   From: 2010.03.12/outbox.cif.g09.slc.cpg/sg57_2_cif.got.tgz:2384.got - 2010.04.16 15:48:40.
