data_PCOD8232184
_publ_section_title
;
Structure prediction by ZEFSAII (Michael W. Deem and Ramdas Pophale) SiO2 
 PCOD8232184
Probable space group: P B C M
;
_chemical_formula_sum "Si O2"
_cell_formula_units_Z 64
_cell_length_a 22.683933
_cell_length_b 17.360187
_cell_length_c 9.205709
_cell_angle_alpha 90.000000
_cell_angle_beta 90.000000
_cell_angle_gamma 90.000000
_cell_volume 3625.183522
_symmetry_space_group_name_H-M "P B C M"
_symmetry_group_IT_number 57
_symmetry_cell_setting 'orthorhombic'
loop_
_space_group_symop_operation_xyz
x,y,z
-x,-y,1/2+z
x,1/2-y,-z
-x,1/2+y,1/2-z
-x,-y,-z
x,y,1/2-z
-x,1/2+y,z
x,1/2-y,1/2+z
loop_
_atom_site_type_symbol
_atom_site_label
_atom_site_fract_x
_atom_site_fract_y
_atom_site_fract_z
Si Si1 0.562379 0.829099 0.082477
Si Si2 0.630738 0.518531 0.917547
Si Si3 0.182420 0.173868 0.416956
Si Si4 0.767877 0.970495 0.418361
Si Si5 0.863694 0.048318 0.916623
Si Si6 0.061592 0.098073 0.414435
Si Si7 0.957813 0.170558 0.582565
Si Si8 0.538694 0.062285 0.919062
O O1 0.574878 0.811869 0.250000
O O2 0.606185 0.897896 0.029023
O O3 0.493861 0.855266 0.058363
O O4 0.575798 0.750000 0.000000
O O5 0.612659 0.508262 0.750000
O O6 0.699891 0.510892 0.941737
O O7 0.603094 0.446434 0.007783
O O8 0.201982 0.250000 0.500000
O O9 0.202207 0.179811 0.250000
O O10 0.217041 0.104397 0.489900
O O11 0.112148 0.162785 0.429507
O O12 0.783140 0.956903 0.250000
O O13 0.806590 0.041881 0.479905
O O14 0.843869 0.034784 0.750000
O O15 0.894118 0.130940 0.938189
O O16 0.911517 0.983858 0.960259
O O17 0.037217 0.095829 0.250000
O O18 0.008738 0.115523 0.522823
O O19 0.956748 0.250000 0.500000
O O20 0.971652 0.186445 0.750000
O O21 0.543421 0.042324 0.750000
O O22 0.500000 0.000000 0.000000
#
# Coordination Sequence:
#
# PCOD8232184 Si02
#       8
#     8   8   8   8   8   8   8   8
#     4   9  18  31  47  72 105 133 159 193 234 282
#     4   9  19  34  50  73 101 128 166 208 242 288
#     4  10  20  33  48  69 100 135 169 205 246 295
#     4  10  20  34  53  74  97 129 168 210 251 291
#     4   9  20  37  53  72  99 130 165 206 249 298
#     4   9  18  33  52  73  97 126 162 202 246 300
#     4  11  22  34  51  75 101 127 158 202 255 307
#     4   9  17  30  49  72  98 130 165 200 238 279
#
# _framework density 17.654278999999999
#
# number of rings (size 3 to 8) (size 9 to 14) (size 15 to 20)
#    0.000    2.500    0.000    3.750    0.000    8.500 
#    0.000    1.250    0.000    0.750    0.000    0.000 
#    0.000    0.000    0.000    0.000    0.000    0.000 
#
# Total GULP energy -793424.048299 kJ/mol
# GULP energy per Si atom -12397.250755 kJ/mol
# Density = 1.761410 g / cm^3
# Si number density = 17.654279 Si / 1000 Ang^3
#
#
#
# Elastic Constant Matrix: (Units=GPa)
#
#
# Indices 1 2 3 4 5 6 
#
# 1 91.3508 27.5003 55.7957 0.0000 0.0000 0.0000
# 2 27.5003 37.7246 26.4363 0.0000 0.0000 0.0000
# 3 55.7957 26.4363 104.5345 0.0000 0.0000 0.0000
# 4 0.0000 0.0000 0.0000 27.5940 0.0000 0.0000
# 5 0.0000 0.0000 0.0000 0.0000 30.5871 0.0000
# 6 0.0000 0.0000 0.0000 0.0000 0.0000 14.4642
#
#
#
# Elastic Compliance Matrix: (Units=1/GPa)
#
#
# Indices 1 2 3 4 5 6 
#
# 1 0.017923 -0.007732 -0.007611 0.000000 0.000000 0.000000
# 2 -0.007732 0.035553 -0.004864 0.000000 0.000000 0.000000
# 3 -0.007611 -0.004864 0.014859 0.000000 0.000000 0.000000
# 4 0.000000 0.000000 0.000000 0.036240 0.000000 0.000000
# 5 0.000000 0.000000 0.000000 0.000000 0.032694 0.000000
# 6 0.000000 0.000000 0.000000 0.000000 0.000000 0.069136
#
#
# Mechanical properties :
#
#
# Convention : Reuss Voigt Hill
#
# Bulk Modulus (GPa) = 35.81614 50.34160 43.07887
# Shear Modulus (GPa) = 19.52163 22.78757 21.15460
#
# Velocity S-wave (km/s) = 3.32892 3.59662 3.46536
# Velocity P-wave (km/s) = 5.92513 6.76940 6.36129
#
# Compressibility (1/GPa) = 0.02792037
#
# Stress axis : x y z
#
# Youngs Moduli (GPa) = 55.79343 28.12701 67.29969
#
# Poissons Ratio (x) = 0.21747 0.51223
# Poissons Ratio (y) = 0.43139 0.32736
# Poissons Ratio (z) = 0.42466 0.13682
#
# Static dielectric constant tensor:
#      x y z
#    x 4.412810 0.000000 0.000000 
#    y 0.000000 3.261170 0.000000 
#    z 0.000000 0.000000 3.475190 
# 
# 
# High freq. dielectric constant tensor:
#      x y z
#    x 1.671330 0.000000 0.000000 
#    y 0.000000 1.661640 0.000000 
#    z 0.000000 0.000000 1.693490 
# 
# From -- ./inp_files/9568.got.cif
#   From: 2010.03.12/outbox.cif.g09.slc.cpg/sg57_5_cif.got.tgz:9568.got - 2010.04.16 15:48:40.
