data_PCOD8232573
_publ_section_title
;
Structure prediction by ZEFSAII (Michael W. Deem and Ramdas Pophale) SiO2 
 PCOD8232573
Probable space group: P B C M
;
_chemical_formula_sum "Si O2"
_cell_formula_units_Z 64
_cell_length_a 21.111538
_cell_length_b 18.499978
_cell_length_c 8.925806
_cell_angle_alpha 90.000000
_cell_angle_beta 90.000000
_cell_angle_gamma 90.000000
_cell_volume 3486.089467
_symmetry_space_group_name_H-M "P B C M"
_symmetry_group_IT_number 57
_symmetry_cell_setting 'orthorhombic'
loop_
_space_group_symop_operation_xyz
x,y,z
-x,-y,1/2+z
x,1/2-y,-z
-x,1/2+y,1/2-z
-x,-y,-z
x,y,1/2-z
-x,1/2+y,z
x,1/2-y,1/2+z
loop_
_atom_site_type_symbol
_atom_site_label
_atom_site_fract_x
_atom_site_fract_y
_atom_site_fract_z
Si Si1 0.125520 0.823074 0.927246
Si Si2 0.936973 0.471705 0.924720
Si Si3 0.505097 0.076600 0.425716
Si Si4 0.605431 0.678282 0.425594
Si Si5 0.751380 0.114879 0.924900
Si Si6 0.182599 0.033039 0.423224
Si Si7 0.251812 0.176748 0.073232
Si Si8 0.624814 0.171389 0.428612
O O1 0.134731 0.814386 0.750000
O O2 0.076705 0.887832 0.965302
O O3 0.097117 0.750000 0.000000
O O4 0.193162 0.837475 0.003029
O O5 0.944796 0.482313 0.750000
O O6 0.879219 0.520629 0.978826
O O7 0.000000 0.500000 0.000000
O O8 0.509419 0.065946 0.250000
O O9 0.440073 0.114214 0.475884
O O10 0.565303 0.122939 0.480774
O O11 0.500000 0.000000 0.500000
O O12 0.577952 0.750000 0.500000
O O13 0.603718 0.690203 0.250000
O O14 0.676531 0.662388 0.482222
O O15 0.745454 0.135092 0.750000
O O16 0.765827 0.030037 0.947556
O O17 0.686969 0.132032 0.010041
O O18 0.162363 0.036572 0.250000
O O19 0.211264 0.108425 0.480414
O O20 0.248669 0.185671 0.250000
O O21 0.224438 0.250000 0.000000
O O22 0.617301 0.250000 0.500000
O O23 0.628944 0.178879 0.250000
#
# Coordination Sequence:
#
# PCOD8232573 Si02
#       8
#     8   8   8   8   8   8   8   8
#     4  10  20  35  56  83 114 145 180 225 268 316
#     4  10  21  37  58  83 112 146 182 222 264 311
#     4  10  23  38  54  76 104 138 178 225 272 324
#     4   9  18  34  55  76 101 134 175 221 269 322
#     4  10  20  34  56  82 108 145 181 221 273 324
#     4   9  19  35  56  81 109 143 181 219 266 320
#     4   9  18  33  54  80 107 137 176 223 271 321
#     4  11  23  38  54  78 108 142 180 223 272 325
#
# _framework density 18.35868
#
# number of rings (size 3 to 8) (size 9 to 14) (size 15 to 20)
#    0.000    2.250    0.000    2.250    1.750    4.000 
#    0.000    0.625    0.000    0.000    0.000    0.000 
#    0.000    0.000    0.000    0.000    0.000    0.000 
#
# Total GULP energy -793673.741077 kJ/mol
# GULP energy per Si atom -12401.152204 kJ/mol
# Density = 1.831689 g / cm^3
# Si number density = 18.358680 Si / 1000 Ang^3
#
#
#
# Elastic Constant Matrix: (Units=GPa)
#
#
# Indices 1 2 3 4 5 6 
#
# 1 115.8761 84.0038 54.4808 0.0000 0.0000 0.0000
# 2 84.0038 167.7247 60.1076 0.0000 0.0000 0.0000
# 3 54.4808 60.1076 70.4520 0.0000 0.0000 0.0000
# 4 0.0000 0.0000 0.0000 35.2581 0.0000 0.0000
# 5 0.0000 0.0000 0.0000 0.0000 30.0443 0.0000
# 6 0.0000 0.0000 0.0000 0.0000 0.0000 30.3154
#
#
#
# Elastic Compliance Matrix: (Units=1/GPa)
#
#
# Indices 1 2 3 4 5 6 
#
# 1 0.016219 -0.005227 -0.008083 0.000000 0.000000 0.000000
# 2 -0.005227 0.010272 -0.004722 0.000000 0.000000 0.000000
# 3 -0.008083 -0.004722 0.024474 0.000000 0.000000 0.000000
# 4 0.000000 0.000000 0.000000 0.028362 0.000000 0.000000
# 5 0.000000 0.000000 0.000000 0.000000 0.033284 0.000000
# 6 0.000000 0.000000 0.000000 0.000000 0.000000 0.032987
#
#
# Mechanical properties :
#
#
# Convention : Reuss Voigt Hill
#
# Bulk Modulus (GPa) = 67.10908 83.47079 75.28994
# Shear Modulus (GPa) = 26.79107 29.48761 28.13934
#
# Velocity S-wave (km/s) = 3.82424 4.01208 3.91929
# Velocity P-wave (km/s) = 7.49223 8.18705 7.84733
#
# Compressibility (1/GPa) = 0.01490111
#
# Stress axis : x y z
#
# Youngs Moduli (GPa) = 61.65470 97.35104 40.86002
#
# Poissons Ratio (x) = 0.50881 0.33029
# Poissons Ratio (y) = 0.32224 0.19295
# Poissons Ratio (z) = 0.49838 0.45971
#
# Static dielectric constant tensor:
#      x y z
#    x 3.372020 0.000000 0.000000 
#    y 0.000000 3.495820 0.000000 
#    z 0.000000 0.000000 3.391590 
# 
# 
# High freq. dielectric constant tensor:
#      x y z
#    x 1.705400 0.000000 0.000000 
#    y 0.000000 1.721380 0.000000 
#    z 0.000000 0.000000 1.715880 
# 
# From -- ./inp_files/8538.got.cif
#   From: 2010.03.12/outbox.cif.g09.slc.cpg/sg57_5_cif.got.tgz:8538.got - 2010.04.16 15:48:40.
