data_PCOD8232332
_publ_section_title
;
Structure prediction by ZEFSAII (Michael W. Deem and Ramdas Pophale) SiO2 
 PCOD8232332
Probable space group: P B C M
;
_chemical_formula_sum "Si O2"
_cell_formula_units_Z 64
_cell_length_a 14.987940
_cell_length_b 23.903478
_cell_length_c 8.903861
_cell_angle_alpha 90.000000
_cell_angle_beta 90.000000
_cell_angle_gamma 90.000000
_cell_volume 3189.931914
_symmetry_space_group_name_H-M "P B C M"
_symmetry_group_IT_number 57
_symmetry_cell_setting 'orthorhombic'
loop_
_space_group_symop_operation_xyz
x,y,z
-x,-y,1/2+z
x,1/2-y,-z
-x,1/2+y,1/2-z
-x,-y,-z
x,y,1/2-z
-x,1/2+y,z
x,1/2-y,1/2+z
loop_
_atom_site_type_symbol
_atom_site_label
_atom_site_fract_x
_atom_site_fract_y
_atom_site_fract_z
Si Si1 0.838006 0.981630 0.418118
Si Si2 0.033499 0.690111 0.572042
Si Si3 0.876021 0.626648 0.076851
Si Si4 0.357079 0.598762 0.923052
Si Si5 0.549566 0.628791 0.923428
Si Si6 0.631488 0.514165 0.580368
Si Si7 0.299677 0.306675 0.577172
Si Si8 0.173949 0.608678 0.427294
O O1 0.875458 0.973134 0.250000
O O2 0.854421 0.045401 0.471054
O O3 0.888035 0.937958 0.526933
O O4 0.734070 0.967834 0.422963
O O5 0.050888 0.750000 0.500000
O O6 0.034602 0.695842 0.750000
O O7 0.112002 0.649689 0.519450
O O8 0.938619 0.666497 0.520441
O O9 0.904662 0.631605 0.250000
O O10 0.774527 0.645855 0.049405
O O11 0.326543 0.599237 0.750000
O O12 0.443574 0.638371 0.947775
O O13 0.386581 0.536178 0.966454
O O14 0.276425 0.620229 0.026644
O O15 0.576617 0.634998 0.750000
O O16 0.574204 0.566408 0.978449
O O17 0.604356 0.674515 0.015404
O O18 0.604863 0.496158 0.750000
O O19 0.266854 0.250000 0.500000
O O20 0.312201 0.293263 0.750000
O O21 0.164608 0.618874 0.250000
#
# Coordination Sequence:
#
# PCOD8232332 Si02
#       8
#     8   8   8   8   8   8   8   8
#     4   9  18  34  59  89 124 164 200 240 297 356
#     4  12  26  45  69  93 118 153 198 249 301 358
#     4  11  23  39  62  93 124 157 198 244 298 361
#     4  10  20  33  55  87 120 156 199 246 297 351
#     4  10  20  35  55  81 117 158 200 246 294 348
#     4   9  17  31  52  81 119 162 199 239 291 347
#     4  11  24  39  58  84 116 158 202 250 301 358
#     4  10  22  42  64  89 124 162 201 249 303 358
#
# _framework density 20.063123000000001
#
# number of rings (size 3 to 8) (size 9 to 14) (size 15 to 20)
#    0.000    1.750    1.250    4.125    0.000    7.000 
#    0.000    0.625    0.000    3.000    0.000    0.000 
#    0.000    0.000    0.000    0.000    0.000    0.000 
#
# Total GULP energy -793748.915996 kJ/mol
# GULP energy per Si atom -12402.326812 kJ/mol
# Density = 2.001746 g / cm^3
# Si number density = 20.063123 Si / 1000 Ang^3
#
#
#
# Elastic Constant Matrix: (Units=GPa)
#
#
# Indices 1 2 3 4 5 6 
#
# 1 62.4757 42.4942 46.2161 0.0000 0.0000 0.0000
# 2 42.4942 100.0848 61.1976 0.0000 0.0000 0.0000
# 3 46.2161 61.1976 123.8914 0.0000 0.0000 0.0000
# 4 0.0000 0.0000 0.0000 33.7275 0.0000 0.0000
# 5 0.0000 0.0000 0.0000 0.0000 32.3404 0.0000
# 6 0.0000 0.0000 0.0000 0.0000 0.0000 26.5411
#
#
#
# Elastic Compliance Matrix: (Units=1/GPa)
#
#
# Indices 1 2 3 4 5 6 
#
# 1 0.025189 -0.007091 -0.005894 0.000000 0.000000 0.000000
# 2 -0.007091 0.016311 -0.005412 0.000000 0.000000 0.000000
# 3 -0.005894 -0.005412 0.012944 0.000000 0.000000 0.000000
# 4 0.000000 0.000000 0.000000 0.029649 0.000000 0.000000
# 5 0.000000 0.000000 0.000000 0.000000 0.030921 0.000000
# 6 0.000000 0.000000 0.000000 0.000000 0.000000 0.037677
#
#
# Mechanical properties :
#
#
# Convention : Reuss Voigt Hill
#
# Bulk Modulus (GPa) = 56.65569 65.14086 60.89828
# Shear Modulus (GPa) = 25.59252 27.62473 26.60862
#
# Velocity S-wave (km/s) = 3.57543 3.71467 3.64572
# Velocity P-wave (km/s) = 6.73387 7.13700 6.93836
#
# Compressibility (1/GPa) = 0.01765048
#
# Stress axis : x y z
#
# Youngs Moduli (GPa) = 39.69933 61.30644 77.25877
#
# Poissons Ratio (x) = 0.43473 0.45535
# Poissons Ratio (y) = 0.28151 0.41812
# Poissons Ratio (z) = 0.23398 0.33179
#
# Static dielectric constant tensor:
#      x y z
#    x 3.587050 0.000000 0.000000 
#    y 0.000000 3.512880 0.000000 
#    z 0.000000 0.000000 3.658390 
# 
# 
# High freq. dielectric constant tensor:
#      x y z
#    x 1.782910 0.000000 0.000000 
#    y 0.000000 1.769390 0.000000 
#    z 0.000000 0.000000 1.788150 
# 
# From -- ./inp_files/5565.got.cif
#   From: 2010.03.12/outbox.cif.g09.slc.cpg/sg57_3_cif.got.tgz:5565.got - 2010.04.16 15:48:40.
