data_PCOD8232489
_publ_section_title
;
Structure prediction by ZEFSAII (Michael W. Deem and Ramdas Pophale) SiO2 
 PCOD8232489
Probable space group: P B C M
;
_chemical_formula_sum "Si O2"
_cell_formula_units_Z 48
_cell_length_a 30.927112
_cell_length_b 9.465527
_cell_length_c 8.676476
_cell_angle_alpha 90.000000
_cell_angle_beta 90.000000
_cell_angle_gamma 90.000000
_cell_volume 2539.963850
_symmetry_space_group_name_H-M "P B C M"
_symmetry_group_IT_number 57
_symmetry_cell_setting 'orthorhombic'
loop_
_space_group_symop_operation_xyz
x,y,z
-x,-y,1/2+z
x,1/2-y,-z
-x,1/2+y,1/2-z
-x,-y,-z
x,y,1/2-z
-x,1/2+y,z
x,1/2-y,1/2+z
loop_
_atom_site_type_symbol
_atom_site_label
_atom_site_fract_x
_atom_site_fract_y
_atom_site_fract_z
Si Si1 0.369050 0.096682 0.570512
Si Si2 0.282792 0.406805 0.568339
Si Si3 0.463754 0.403530 0.428821
Si Si4 0.208068 0.904668 0.569966
Si Si5 0.963003 0.903513 0.932893
Si Si6 0.127004 0.400360 0.069700
O O1 0.373229 0.250000 0.500000
O O2 0.357703 0.106204 0.750000
O O3 0.328658 0.022537 0.484520
O O4 0.416136 0.025115 0.542743
O O5 0.276717 0.250000 0.500000
O O6 0.280983 0.394698 0.750000
O O7 0.245832 0.510040 0.511711
O O8 0.466910 0.250000 0.500000
O O9 0.500000 0.500000 0.500000
O O10 0.472904 0.386997 0.250000
O O11 0.204398 0.750000 0.500000
O O12 0.218321 0.894729 0.750000
O O13 0.163487 0.984728 0.537066
O O14 0.965070 0.902003 0.750000
O O15 0.971227 0.750000 0.000000
O O16 0.916197 0.958591 0.988108
O O17 0.000000 0.000000 0.000000
O O18 0.118005 0.378795 0.250000
O O19 0.141619 0.250000 0.000000
#
# Coordination Sequence:
#
# PCOD8232489 Si02
#       6
#     8   8   8   8   8   8
#     4   9  17  31  52  78 106 138 179 224 270 320
#     4  11  21  35  58  84 110 142 182 226 271 323
#     4  10  20  34  54  79 109 143 180 224 271 323
#     4  11  24  40  58  82 114 148 183 226 277 331
#     4  11  22  38  60  86 117 151 189 232 278 328
#     4  10  21  38  60  85 112 146 189 232 275 325
#
# _framework density 18.897908000000001
#
# number of rings (size 3 to 8) (size 9 to 14) (size 15 to 20)
#    0.000    1.667    0.000    7.500    0.000    6.667 
#    0.000    2.500    0.000    4.000    0.000    0.000 
#    0.000    0.000    0.000    0.000    0.000    0.000 
#
# Total GULP energy -595077.481295 kJ/mol
# GULP energy per Si atom -12397.447527 kJ/mol
# Density = 1.885490 g / cm^3
# Si number density = 18.897908 Si / 1000 Ang^3
#
#
#
# Elastic Constant Matrix: (Units=GPa)
#
#
# Indices 1 2 3 4 5 6 
#
# 1 166.7762 80.6358 100.8668 0.0000 0.0000 0.0000
# 2 80.6358 91.0236 66.0461 0.0000 0.0000 0.0000
# 3 100.8668 66.0461 181.1918 0.0000 0.0000 0.0000
# 4 0.0000 0.0000 0.0000 32.5308 0.0000 0.0000
# 5 0.0000 0.0000 0.0000 0.0000 35.8989 0.0000
# 6 0.0000 0.0000 0.0000 0.0000 0.0000 35.6966
#
#
#
# Elastic Compliance Matrix: (Units=1/GPa)
#
#
# Indices 1 2 3 4 5 6 
#
# 1 0.012213 -0.008003 -0.003882 0.000000 0.000000 0.000000
# 2 -0.008003 0.020181 -0.002901 0.000000 0.000000 0.000000
# 3 -0.003882 -0.002901 0.008737 0.000000 0.000000 0.000000
# 4 0.000000 0.000000 0.000000 0.030740 0.000000 0.000000
# 5 0.000000 0.000000 0.000000 0.000000 0.027856 0.000000
# 6 0.000000 0.000000 0.000000 0.000000 0.000000 0.028014
#
#
# Mechanical properties :
#
#
# Convention : Reuss Voigt Hill
#
# Bulk Modulus (GPa) = 86.50503 103.78765 95.14634
# Shear Modulus (GPa) = 31.02408 33.58812 32.30610
#
# Velocity S-wave (km/s) = 4.05614 4.22043 4.13910
# Velocity P-wave (km/s) = 8.23473 8.87631 8.56153
#
# Compressibility (1/GPa) = 0.01156002
#
# Stress axis : x y z
#
# Youngs Moduli (GPa) = 81.87976 49.55275 114.45083
#
# Poissons Ratio (x) = 0.39655 0.44427
# Poissons Ratio (y) = 0.65526 0.33202
# Poissons Ratio (z) = 0.31784 0.14375
#
# Static dielectric constant tensor:
#      x y z
#    x 4.294830 0.000000 0.000000 
#    y 0.000000 3.221350 0.000000 
#    z 0.000000 0.000000 3.724600 
# 
# 
# High freq. dielectric constant tensor:
#      x y z
#    x 1.758880 0.000000 0.000000 
#    y 0.000000 1.704490 0.000000 
#    z 0.000000 0.000000 1.758820 
# 
# From -- ./inp_files/9936.got.cif
#   From: 2010.03.12/outbox.cif.g09.slc.cpg/sg57_5_cif.got.tgz:9936.got - 2010.04.16 15:48:40.
