data_PCOD8232180
_publ_section_title
;
Structure prediction by ZEFSAII (Michael W. Deem and Ramdas Pophale) SiO2 
 PCOD8232180
Probable space group: P B C M
;
_chemical_formula_sum "Si O2"
_cell_formula_units_Z 64
_cell_length_a 17.757823
_cell_length_b 22.692182
_cell_length_c 9.212054
_cell_angle_alpha 90.000000
_cell_angle_beta 90.000000
_cell_angle_gamma 90.000000
_cell_volume 3712.123838
_symmetry_space_group_name_H-M "P B C M"
_symmetry_group_IT_number 57
_symmetry_cell_setting 'orthorhombic'
loop_
_space_group_symop_operation_xyz
x,y,z
-x,-y,1/2+z
x,1/2-y,-z
-x,1/2+y,1/2-z
-x,-y,-z
x,y,1/2-z
-x,1/2+y,z
x,1/2-y,1/2+z
loop_
_atom_site_type_symbol
_atom_site_label
_atom_site_fract_x
_atom_site_fract_y
_atom_site_fract_z
Si Si1 0.509416 0.940663 0.583244
Si Si2 0.070799 0.191231 0.078814
Si Si3 0.751296 0.308547 0.922630
Si Si4 0.348934 0.582636 0.420475
Si Si5 0.923226 0.485778 0.578351
Si Si6 0.830377 0.920082 0.917647
Si Si7 0.910772 0.352898 0.579151
Si Si8 0.669826 0.960273 0.583057
O O1 0.502724 0.956833 0.750000
O O2 0.437105 0.899705 0.543736
O O3 0.595164 0.919693 0.547083
O O4 0.500000 0.000000 0.500000
O O5 0.068036 0.202194 0.250000
O O6 0.131415 0.141297 0.037917
O O7 0.988515 0.173326 0.014772
O O8 0.098483 0.250000 0.000000
O O9 0.744829 0.301480 0.750000
O O10 0.702259 0.363947 0.978750
O O11 0.837761 0.317271 0.974730
O O12 0.720024 0.250000 0.000000
O O13 0.334800 0.574780 0.250000
O O14 0.325757 0.520639 0.491971
O O15 0.933492 0.492668 0.750000
O O16 0.859149 0.528656 0.521488
O O17 0.899432 0.420274 0.532333
O O18 0.000000 0.500000 0.500000
O O19 0.849965 0.934758 0.750000
O O20 0.740763 0.917555 0.945841
O O21 0.917660 0.349373 0.750000
O O22 0.668418 0.980626 0.750000
#
# Coordination Sequence:
#
# PCOD8232180 Si02
#       8
#     8   8   8   8   8   8   8   8
#     4   8  14  26  45  70  96 122 151 184 226 281
#     4  10  20  35  50  64  87 120 159 201 239 277
#     4  10  20  33  48  67  92 127 165 201 238 279
#     4   9  17  30  48  70  99 129 156 192 242 291
#     4  11  20  33  52  74 100 128 158 195 243 295
#     4  10  20  34  49  70 100 128 156 197 244 284
#     4   9  18  33  50  67  93 123 153 195 241 278
#     4   9  17  29  49  75  99 124 157 195 239 291
#
# _framework density 17.240805000000002
#
# number of rings (size 3 to 8) (size 9 to 14) (size 15 to 20)
#    0.000    2.500    1.250    1.500    0.000    2.500 
#    0.000    1.250    0.000    0.750    0.000    0.000 
#    0.000    0.000    0.000    0.000    0.000    0.000 
#
# Total GULP energy -793002.641492 kJ/mol
# GULP energy per Si atom -12390.666273 kJ/mol
# Density = 1.720156 g / cm^3
# Si number density = 17.240805 Si / 1000 Ang^3
#
#
#
# Elastic Constant Matrix: (Units=GPa)
#
#
# Indices 1 2 3 4 5 6 
#
# 1 142.7095 53.6383 22.5489 0.0000 0.0000 0.0000
# 2 53.6383 98.9841 26.0693 0.0000 0.0000 0.0000
# 3 22.5489 26.0693 31.7790 0.0000 0.0000 0.0000
# 4 0.0000 0.0000 0.0000 25.8482 0.0000 0.0000
# 5 0.0000 0.0000 0.0000 0.0000 17.9632 0.0000
# 6 0.0000 0.0000 0.0000 0.0000 0.0000 18.9678
#
#
#
# Elastic Compliance Matrix: (Units=1/GPa)
#
#
# Indices 1 2 3 4 5 6 
#
# 1 0.009026 -0.004087 -0.003051 0.000000 0.000000 0.000000
# 2 -0.004087 0.014738 -0.009190 0.000000 0.000000 0.000000
# 3 -0.003051 -0.009190 0.041171 0.000000 0.000000 0.000000
# 4 0.000000 0.000000 0.000000 0.038687 0.000000 0.000000
# 5 0.000000 0.000000 0.000000 0.000000 0.055669 0.000000
# 6 0.000000 0.000000 0.000000 0.000000 0.000000 0.052721
#
#
# Mechanical properties :
#
#
# Convention : Reuss Voigt Hill
#
# Bulk Modulus (GPa) = 30.98101 53.10954 42.04527
# Shear Modulus (GPa) = 19.57502 23.97025 21.77264
#
# Velocity S-wave (km/s) = 3.37321 3.73275 3.55752
# Velocity P-wave (km/s) = 5.76021 7.03202 6.42765
#
# Compressibility (1/GPa) = 0.03227784
#
# Stress axis : x y z
#
# Youngs Moduli (GPa) = 110.79629 67.85296 24.28901
#
# Poissons Ratio (x) = 0.27733 0.07411
# Poissons Ratio (y) = 0.45285 0.22321
# Poissons Ratio (z) = 0.33806 0.62355
#
# Static dielectric constant tensor:
#      x y z
#    x 4.050500 0.000000 0.000000 
#    y 0.000000 2.995490 0.000000 
#    z 0.000000 0.000000 3.009700 
# 
# 
# High freq. dielectric constant tensor:
#      x y z
#    x 1.682100 0.000000 0.000000 
#    y 0.000000 1.636830 0.000000 
#    z 0.000000 0.000000 1.653750 
# 
# From -- ./inp_files/7229.got.cif
#   From: 2010.03.12/outbox.cif.g09.slc.cpg/sg57_4_cif.got.tgz:7229.got - 2010.04.16 15:48:40.
