data_PCOD8232360
_publ_section_title
;
Structure prediction by ZEFSAII (Michael W. Deem and Ramdas Pophale) SiO2 
 PCOD8232360
Probable space group: P B C M
;
_chemical_formula_sum "Si O2"
_cell_formula_units_Z 64
_cell_length_a 20.269966
_cell_length_b 19.274402
_cell_length_c 9.278116
_cell_angle_alpha 90.000000
_cell_angle_beta 90.000000
_cell_angle_gamma 90.000000
_cell_volume 3624.880809
_symmetry_space_group_name_H-M "P B C M"
_symmetry_group_IT_number 57
_symmetry_cell_setting 'orthorhombic'
loop_
_space_group_symop_operation_xyz
x,y,z
-x,-y,1/2+z
x,1/2-y,-z
-x,1/2+y,1/2-z
-x,-y,-z
x,y,1/2-z
-x,1/2+y,z
x,1/2-y,1/2+z
loop_
_atom_site_type_symbol
_atom_site_label
_atom_site_fract_x
_atom_site_fract_y
_atom_site_fract_z
Si Si1 0.837525 0.820003 0.083286
Si Si2 0.527355 0.180562 0.414379
Si Si3 0.670456 0.323388 0.919709
Si Si4 0.384608 0.322208 0.917606
Si Si5 0.237994 0.571793 0.583139
Si Si6 0.092691 0.955699 0.082610
Si Si7 0.047069 0.086704 0.585875
Si Si8 0.261746 0.087220 0.083101
O O1 0.819024 0.809422 0.250000
O O2 0.914763 0.840553 0.064147
O O3 0.821743 0.750000 0.000000
O O4 0.794562 0.881747 0.017909
O O5 0.527197 0.250000 0.500000
O O6 0.527338 0.203276 0.250000
O O7 0.597060 0.142267 0.447793
O O8 0.457322 0.143010 0.450558
O O9 0.683563 0.312341 0.750000
O O10 0.677312 0.250000 0.000000
O O11 0.723141 0.376174 0.981941
O O12 0.377176 0.304288 0.750000
O O13 0.331297 0.379311 0.964565
O O14 0.372784 0.250000 0.000000
O O15 0.246893 0.593126 0.750000
O O16 0.161459 0.578271 0.533268
O O17 0.265410 0.494707 0.556097
O O18 0.098378 0.972879 0.250000
O O19 0.030703 0.904920 0.046219
O O20 0.082266 0.029363 0.009499
O O21 0.053580 0.061137 0.750000
O O22 0.245031 0.103126 0.250000
#
# Coordination Sequence:
#
# PCOD8232360 Si02
#       8
#     8   8   8   8   8   8   8   8
#     4  11  22  34  50  73 105 140 175 216 258 304
#     4   8  15  29  49  72  96 127 166 210 254 300
#     4  10  20  35  56  78 101 129 166 211 261 313
#     4   9  17  30  49  72 100 133 173 214 253 298
#     4  10  20  34  53  77 106 138 169 207 255 308
#     4   9  17  32  54  75  99 130 166 208 251 301
#     4   9  18  32  51  75  98 127 169 214 253 294
#     4  10  20  34  51  74 104 140 176 210 253 304
#
# _framework density 17.655753000000001
#
# number of rings (size 3 to 8) (size 9 to 14) (size 15 to 20)
#    0.000    2.500    1.250    1.125    0.000    3.500 
#    0.000    1.250    0.000    1.500    0.000    0.000 
#    0.000    0.000    0.000    0.000    0.000    0.000 
#
# Total GULP energy -792987.135881 kJ/mol
# GULP energy per Si atom -12390.423998 kJ/mol
# Density = 1.761557 g / cm^3
# Si number density = 17.655753 Si / 1000 Ang^3
#
#
#
# Elastic Constant Matrix: (Units=GPa)
#
#
# Indices 1 2 3 4 5 6 
#
# 1 155.4121 55.3701 52.3097 0.0000 0.0000 0.0000
# 2 55.3701 69.9103 36.8289 0.0000 0.0000 0.0000
# 3 52.3097 36.8289 64.4306 0.0000 0.0000 0.0000
# 4 0.0000 0.0000 0.0000 25.9508 0.0000 0.0000
# 5 0.0000 0.0000 0.0000 0.0000 27.6303 0.0000
# 6 0.0000 0.0000 0.0000 0.0000 0.0000 27.4336
#
#
#
# Elastic Compliance Matrix: (Units=1/GPa)
#
#
# Indices 1 2 3 4 5 6 
#
# 1 0.010034 -0.005230 -0.005156 0.000000 0.000000 0.000000
# 2 -0.005230 0.023194 -0.009011 0.000000 0.000000 0.000000
# 3 -0.005156 -0.009011 0.024858 0.000000 0.000000 0.000000
# 4 0.000000 0.000000 0.000000 0.038534 0.000000 0.000000
# 5 0.000000 0.000000 0.000000 0.000000 0.036192 0.000000
# 6 0.000000 0.000000 0.000000 0.000000 0.000000 0.036452
#
#
# Mechanical properties :
#
#
# Convention : Reuss Voigt Hill
#
# Bulk Modulus (GPa) = 51.84254 64.30782 58.07518
# Shear Modulus (GPa) = 23.31126 25.88590 24.59858
#
# Velocity S-wave (km/s) = 3.63756 3.83318 3.73665
# Velocity P-wave (km/s) = 6.86070 7.48954 7.18201
#
# Compressibility (1/GPa) = 0.01928918
#
# Stress axis : x y z
#
# Youngs Moduli (GPa) = 99.66605 43.11514 40.22895
#
# Poissons Ratio (x) = 0.22551 0.20743
# Poissons Ratio (y) = 0.52129 0.36251
# Poissons Ratio (z) = 0.51390 0.38852
#
# Static dielectric constant tensor:
#      x y z
#    x 4.039210 0.000000 0.000000 
#    y 0.000000 2.888810 0.000000 
#    z 0.000000 0.000000 3.309970 
# 
# 
# High freq. dielectric constant tensor:
#      x y z
#    x 1.705870 0.000000 0.000000 
#    y 0.000000 1.642170 0.000000 
#    z 0.000000 0.000000 1.687330 
# 
# From -- ./inp_files/8757.got.cif
#   From: 2010.03.12/outbox.cif.g09.slc.cpg/sg57_5_cif.got.tgz:8757.got - 2010.04.16 15:48:40.
