data_PCOD8232604
_publ_section_title
;
Structure prediction by ZEFSAII (Michael W. Deem and Ramdas Pophale) SiO2 
 PCOD8232604
Probable space group: P B C M
;
_chemical_formula_sum "Si O2"
_cell_formula_units_Z 32
_cell_length_a 16.318474
_cell_length_b 5.039709
_cell_length_c 19.362983
_cell_angle_alpha 90.000000
_cell_angle_beta 90.000000
_cell_angle_gamma 90.000000
_cell_volume 1592.418698
_symmetry_space_group_name_H-M "P B C M"
_symmetry_group_IT_number 57
_symmetry_cell_setting 'orthorhombic'
loop_
_space_group_symop_operation_xyz
x,y,z
-x,-y,1/2+z
x,1/2-y,-z
-x,1/2+y,1/2-z
-x,-y,-z
x,y,1/2-z
-x,1/2+y,z
x,1/2-y,1/2+z
loop_
_atom_site_type_symbol
_atom_site_label
_atom_site_fract_x
_atom_site_fract_y
_atom_site_fract_z
Si Si1 0.945982 0.556483 0.171815
Si Si2 0.444053 0.981683 0.897707
Si Si3 0.161791 0.509466 0.542720
Si Si4 0.448667 0.624100 0.250000
Si Si5 0.318790 0.750000 0.000000
O O1 0.912212 0.527627 0.250000
O O2 0.870629 0.507356 0.120528
O O3 0.981457 0.848048 0.158448
O O4 0.518638 0.773799 0.907661
O O5 0.402252 0.947185 0.821493
O O6 0.373663 0.941163 0.953300
O O7 0.119139 0.750000 0.500000
O O8 0.260229 0.561023 0.546869
O O9 0.139991 0.250000 0.500000
O O10 0.530015 0.436107 0.250000
#
# Coordination Sequence:
#
# PCOD8232604 Si02
#       5
#     8   8   8   4   4
#     4  10  21  39  64  88 113 148 193 235 275 334
#     4  10  20  34  58  77 103 144 194 237 273 324
#     4  10  23  38  56  84 121 150 182 233 283 348
#     4   8  16  32  50  76  98 124 176 234 274 314
#     4  10  24  36  52  82 116 146 186 226 288 336
#
# _framework density 20.095217999999999
#
# number of rings (size 3 to 8) (size 9 to 14) (size 15 to 20)
#    0.750    1.500    0.000    2.250    3.500    3.000 
#    2.250    0.000    2.750    0.000    0.000    0.000 
#    0.000    0.000    0.000    0.000    0.000    0.000 
#
# Total GULP energy -396589.409251 kJ/mol
# GULP energy per Si atom -12393.419039 kJ/mol
# Density = 2.004948 g / cm^3
# Si number density = 20.095218 Si / 1000 Ang^3
#
#
#
# Elastic Constant Matrix: (Units=GPa)
#
#
# Indices 1 2 3 4 5 6 
#
# 1 66.7131 0.5466 55.2123 0.0000 0.0000 0.0000
# 2 0.5466 87.0243 0.7392 0.0000 0.0000 0.0000
# 3 55.2123 0.7392 109.8956 0.0000 0.0000 0.0000
# 4 0.0000 0.0000 0.0000 27.4918 0.0000 0.0000
# 5 0.0000 0.0000 0.0000 0.0000 16.7004 0.0000
# 6 0.0000 0.0000 0.0000 0.0000 0.0000 3.9851
#
#
#
# Elastic Compliance Matrix: (Units=1/GPa)
#
#
# Indices 1 2 3 4 5 6 
#
# 1 0.025658 -0.000052 -0.012891 0.000000 0.000000 0.000000
# 2 -0.000052 0.011492 -0.000051 0.000000 0.000000 0.000000
# 3 -0.012891 -0.000051 0.015576 0.000000 0.000000 0.000000
# 4 0.000000 0.000000 0.000000 0.036374 0.000000 0.000000
# 5 0.000000 0.000000 0.000000 0.000000 0.059879 0.000000
# 6 0.000000 0.000000 0.000000 0.000000 0.000000 0.250934
#
#
# Mechanical properties :
#
#
# Convention : Reuss Voigt Hill
#
# Bulk Modulus (GPa) = 37.39833 41.84770 39.62302
# Shear Modulus (GPa) = 11.49917 23.44445 17.47181
#
# Velocity S-wave (km/s) = 2.39474 3.41936 2.95184
# Velocity P-wave (km/s) = 5.12809 6.03815 5.60163
#
# Compressibility (1/GPa) = 0.02673916
#
# Stress axis : x y z
#
# Youngs Moduli (GPa) = 38.97366 87.01853 64.20039
#
# Poissons Ratio (x) = 0.00450 0.82758
# Poissons Ratio (y) = 0.00201 0.00330
# Poissons Ratio (z) = 0.50239 0.00447
#
# Static dielectric constant tensor:
#      x y z
#    x 3.126800 0.000000 0.000000 
#    y 0.000000 3.773530 0.000000 
#    z 0.000000 0.000000 4.013650 
# 
# 
# High freq. dielectric constant tensor:
#      x y z
#    x 1.730680 0.000000 0.000000 
#    y 0.000000 1.804630 0.000000 
#    z 0.000000 0.000000 1.798860 
# 
# From -- ./inp_files/25190.got.cif
#   From: 2010.03.12/outbox.cif.g09.slc.cpg/sg57_13_cif.got.tgz:25190.got - 2010.04.16 15:48:40.
