data_PCOD8232994
_publ_section_title
;
Structure prediction by ZEFSAII (Michael W. Deem and Ramdas Pophale) SiO2 
 PCOD8232994
Probable space group: P B C M
;
_chemical_formula_sum "Si O2"
_cell_formula_units_Z 40
_cell_length_a 16.260712
_cell_length_b 14.356186
_cell_length_c 8.776706
_cell_angle_alpha 90.000000
_cell_angle_beta 90.000000
_cell_angle_gamma 90.000000
_cell_volume 2048.850099
_symmetry_space_group_name_H-M "P B C M"
_symmetry_group_IT_number 57
_symmetry_cell_setting 'orthorhombic'
loop_
_space_group_symop_operation_xyz
x,y,z
-x,-y,1/2+z
x,1/2-y,-z
-x,1/2+y,1/2-z
-x,-y,-z
x,y,1/2-z
-x,1/2+y,z
x,1/2-y,1/2+z
loop_
_atom_site_type_symbol
_atom_site_label
_atom_site_fract_x
_atom_site_fract_y
_atom_site_fract_z
Si Si1 0.021587 0.850322 0.070301
Si Si2 0.119939 0.467319 0.929462
Si Si3 0.293270 0.485052 0.069453
Si Si4 0.434611 0.152063 0.928535
Si Si5 0.380746 0.650774 0.929986
O O1 0.013035 0.838249 0.250000
O O2 0.045587 0.750000 0.000000
O O3 0.935912 0.887528 0.004077
O O4 0.090548 0.927778 0.027913
O O5 0.118420 0.452029 0.750000
O O6 0.210126 0.449081 0.994014
O O7 0.283739 0.484884 0.250000
O O8 0.368307 0.421270 0.011054
O O9 0.313034 0.587119 0.008998
O O10 0.428394 0.164652 0.750000
O O11 0.526486 0.118990 0.974406
O O12 0.411788 0.250000 0.000000
O O13 0.367038 0.651761 0.750000
O O14 0.362761 0.750000 0.000000
#
# Coordination Sequence:
#
# PCOD8232994 Si02
#       5
#     8   8   8   8   8
#     4  10  21  39  63  86 110 143 181 223 275 332
#     4  10  22  39  58  84 115 146 184 227 272 327
#     4  11  22  36  55  82 115 148 184 229 278 327
#     4   9  20  36  55  79 108 145 188 232 277 327
#     4  10  20  36  56  79 108 145 189 233 279 329
#
# _framework density 19.523143999999998
#
# number of rings (size 3 to 8) (size 9 to 14) (size 15 to 20)
#    0.000    2.000    0.000    3.000    0.000    6.400 
#    0.000    4.000    0.000    0.000    0.000    0.000 
#    0.000    0.000    0.000    0.000    0.000    0.000 
#
# Total GULP energy -496071.909660 kJ/mol
# GULP energy per Si atom -12401.797741 kJ/mol
# Density = 1.947871 g / cm^3
# Si number density = 19.523144 Si / 1000 Ang^3
#
#
#
# Elastic Constant Matrix: (Units=GPa)
#
#
# Indices 1 2 3 4 5 6 
#
# 1 53.9508 2.0132 12.0601 0.0000 0.0000 0.0000
# 2 2.0132 57.6342 21.1142 0.0000 0.0000 0.0000
# 3 12.0601 21.1142 51.1839 0.0000 0.0000 0.0000
# 4 0.0000 0.0000 0.0000 37.5826 0.0000 0.0000
# 5 0.0000 0.0000 0.0000 0.0000 34.2688 0.0000
# 6 0.0000 0.0000 0.0000 0.0000 0.0000 19.2407
#
#
#
# Elastic Compliance Matrix: (Units=1/GPa)
#
#
# Indices 1 2 3 4 5 6 
#
# 1 0.019635 0.001189 -0.005117 0.000000 0.000000 0.000000
# 2 0.001189 0.020512 -0.008741 0.000000 0.000000 0.000000
# 3 -0.005117 -0.008741 0.024349 0.000000 0.000000 0.000000
# 4 0.000000 0.000000 0.000000 0.026608 0.000000 0.000000
# 5 0.000000 0.000000 0.000000 0.000000 0.029181 0.000000
# 6 0.000000 0.000000 0.000000 0.000000 0.000000 0.051973
#
#
# Mechanical properties :
#
#
# Convention : Reuss Voigt Hill
#
# Bulk Modulus (GPa) = 25.53859 25.90486 25.72172
# Shear Modulus (GPa) = 23.73617 26.72387 25.23002
#
# Velocity S-wave (km/s) = 3.49061 3.70378 3.59878
# Velocity P-wave (km/s) = 5.41806 5.62035 5.52013
#
# Compressibility (1/GPa) = 0.03915643
#
# Stress axis : x y z
#
# Youngs Moduli (GPa) = 50.92990 48.75267 41.06948
#
# Poissons Ratio (x) = -0.05795 0.21014
# Poissons Ratio (y) = -0.06054 0.35901
# Poissons Ratio (z) = 0.26059 0.42617
#
# Static dielectric constant tensor:
#      x y z
#    x 3.636960 0.000000 0.000000 
#    y 0.000000 3.573930 0.000000 
#    z 0.000000 0.000000 3.140890 
# 
# 
# High freq. dielectric constant tensor:
#      x y z
#    x 1.760650 0.000000 0.000000 
#    y 0.000000 1.762550 0.000000 
#    z 0.000000 0.000000 1.770340 
# 
# From -- ./inp_files/4266.got.cif
#   From: 2010.03.12/outbox.cif.g09.slc.cpg/sg57_3_cif.got.tgz:4266.got - 2010.04.16 15:48:40.
