data_PCOD8232098
_publ_section_title
;
Structure prediction by ZEFSAII (Michael W. Deem and Ramdas Pophale) SiO2 
 PCOD8232098
Probable space group: P B C M
;
_chemical_formula_sum "Si O2"
_cell_formula_units_Z 64
_cell_length_a 21.790835
_cell_length_b 9.031717
_cell_length_c 15.000662
_cell_angle_alpha 90.000000
_cell_angle_beta 90.000000
_cell_angle_gamma 90.000000
_cell_volume 2952.260111
_symmetry_space_group_name_H-M "P B C M"
_symmetry_group_IT_number 57
_symmetry_cell_setting 'orthorhombic'
loop_
_space_group_symop_operation_xyz
x,y,z
-x,-y,1/2+z
x,1/2-y,-z
-x,1/2+y,1/2-z
-x,-y,-z
x,y,1/2-z
-x,1/2+y,z
x,1/2-y,1/2+z
loop_
_atom_site_type_symbol
_atom_site_label
_atom_site_fract_x
_atom_site_fract_y
_atom_site_fract_z
Si Si1 0.626007 0.082004 0.479678
Si Si2 0.817238 0.592894 0.517651
Si Si3 0.742821 0.086195 0.351827
Si Si4 0.955307 0.277551 0.847420
Si Si5 0.456842 0.393343 0.149399
Si Si6 0.581072 0.942797 0.648866
Si Si7 0.171377 0.827335 0.406485
Si Si8 0.953520 0.925278 0.434582
O O1 0.605977 0.250000 0.500000
O O2 0.688596 0.081954 0.423829
O O3 0.576075 0.000661 0.419684
O O4 0.631366 0.991243 0.574017
O O5 0.784625 0.750000 0.500000
O O6 0.792396 0.530867 0.611863
O O7 0.804379 0.491155 0.430610
O O8 0.889674 0.617988 0.522213
O O9 0.722309 0.047918 0.250000
O O10 0.774674 0.247667 0.350910
O O11 0.979996 0.250503 0.750000
O O12 0.894083 0.176642 0.857905
O O13 0.939993 0.450539 0.859520
O O14 0.013214 0.225371 0.905288
O O15 0.433604 0.427363 0.250000
O O16 0.445538 0.220541 0.126686
O O17 0.528528 0.432010 0.141995
O O18 0.608867 0.945236 0.750000
O O19 0.158041 0.750000 0.500000
O O20 0.000000 0.000000 0.500000
#
# Coordination Sequence:
#
# PCOD8232098 Si02
#       8
#     8   8   8   8   8   8   8   8
#     4  12  24  40  64  96 131 176 230 280 334 396
#     4  11  23  41  66  93 125 164 210 260 331 405
#     4  11  25  46  70  92 124 173 227 281 332 396
#     4  12  23  36  58  90 125 157 203 260 316 386
#     4  10  21  40  66 100 142 185 228 275 332 390
#     4  10  22  40  66 100 141 184 226 277 331 389
#     4  10  19  41  65  86 115 163 209 252 319 392
#     4  12  22  39  60  89 123 165 202 250 319 400
#
# _framework density 21.678305999999999
#
# number of rings (size 3 to 8) (size 9 to 14) (size 15 to 20)
#    0.000    1.000    3.750    4.875    0.000    3.500 
#    0.000    1.250    0.000    0.000    0.000    0.000 
#    0.000    0.000    0.000    0.000    0.000    0.000 
#
# Total GULP energy -793171.760803 kJ/mol
# GULP energy per Si atom -12393.308763 kJ/mol
# Density = 2.162896 g / cm^3
# Si number density = 21.678306 Si / 1000 Ang^3
#
#
#
# Elastic Constant Matrix: (Units=GPa)
#
#
# Indices 1 2 3 4 5 6 
#
# 1 75.4619 21.9880 41.6602 0.0000 0.0000 0.0000
# 2 21.9880 147.5927 45.5056 0.0000 0.0000 0.0000
# 3 41.6602 45.5056 128.6863 0.0000 0.0000 0.0000
# 4 0.0000 0.0000 0.0000 24.7304 0.0000 0.0000
# 5 0.0000 0.0000 0.0000 0.0000 25.0799 0.0000
# 6 0.0000 0.0000 0.0000 0.0000 0.0000 23.5573
#
#
#
# Elastic Compliance Matrix: (Units=1/GPa)
#
#
# Indices 1 2 3 4 5 6 
#
# 1 0.016240 -0.000896 -0.004941 0.000000 0.000000 0.000000
# 2 -0.000896 0.007654 -0.002416 0.000000 0.000000 0.000000
# 3 -0.004941 -0.002416 0.010225 0.000000 0.000000 0.000000
# 4 0.000000 0.000000 0.000000 0.040436 0.000000 0.000000
# 5 0.000000 0.000000 0.000000 0.000000 0.039873 0.000000
# 6 0.000000 0.000000 0.000000 0.000000 0.000000 0.042450
#
#
# Mechanical properties :
#
#
# Convention : Reuss Voigt Hill
#
# Bulk Modulus (GPa) = 56.77753 63.33874 60.05814
# Shear Modulus (GPa) = 27.89322 30.84598 29.36960
#
# Velocity S-wave (km/s) = 3.59094 3.77622 3.68474
# Velocity P-wave (km/s) = 6.59097 6.94940 6.77256
#
# Compressibility (1/GPa) = 0.01761260
#
# Stress axis : x y z
#
# Youngs Moduli (GPa) = 61.57457 130.65158 97.80128
#
# Poissons Ratio (x) = 0.11708 0.48321
# Poissons Ratio (y) = 0.05518 0.23633
# Poissons Ratio (z) = 0.30422 0.31571
#
# Static dielectric constant tensor:
#      x y z
#    x 3.680190 0.000000 0.000000 
#    y 0.000000 4.768690 0.000000 
#    z 0.000000 0.000000 4.079380 
# 
# 
# High freq. dielectric constant tensor:
#      x y z
#    x 1.833810 0.000000 0.000000 
#    y 0.000000 1.857640 0.000000 
#    z 0.000000 0.000000 1.852590 
# 
# From -- ./inp_files/19530.got.cif
#   From: 2010.03.12/outbox.cif.g09.slc.cpg/sg57_10_cif.got.tgz:19530.got - 2010.04.16 15:48:40.
