data_PCOD8232299
_publ_section_title
;
Structure prediction by ZEFSAII (Michael W. Deem and Ramdas Pophale) SiO2 
 PCOD8232299
Probable space group: P B C M
;
_chemical_formula_sum "Si O2"
_cell_formula_units_Z 64
_cell_length_a 19.910304
_cell_length_b 19.649766
_cell_length_c 9.250964
_cell_angle_alpha 90.000000
_cell_angle_beta 90.000000
_cell_angle_gamma 90.000000
_cell_volume 3619.280683
_symmetry_space_group_name_H-M "P B C M"
_symmetry_group_IT_number 57
_symmetry_cell_setting 'orthorhombic'
loop_
_space_group_symop_operation_xyz
x,y,z
-x,-y,1/2+z
x,1/2-y,-z
-x,1/2+y,1/2-z
-x,-y,-z
x,y,1/2-z
-x,1/2+y,z
x,1/2-y,1/2+z
loop_
_atom_site_type_symbol
_atom_site_label
_atom_site_fract_x
_atom_site_fract_y
_atom_site_fract_z
Si Si1 0.519626 0.566436 0.583684
Si Si2 0.254951 0.682332 0.582382
Si Si3 0.887508 0.818548 0.579021
Si Si4 0.840780 0.086786 0.084261
Si Si5 0.339760 0.466518 0.080945
Si Si6 0.040778 0.816104 0.916482
Si Si7 0.192188 0.066526 0.917774
Si Si8 0.620219 0.398769 0.084072
O O1 0.500000 0.500000 0.500000
O O2 0.518840 0.546307 0.750000
O O3 0.597357 0.585511 0.544111
O O4 0.458999 0.620207 0.550544
O O5 0.233222 0.750000 0.500000
O O6 0.237945 0.692139 0.750000
O O7 0.213962 0.618691 0.521557
O O8 0.334114 0.667474 0.555293
O O9 0.863189 0.750000 0.500000
O O10 0.876693 0.810861 0.750000
O O11 0.964844 0.833754 0.537880
O O12 0.844293 0.880525 0.520239
O O13 0.820287 0.102396 0.250000
O O14 0.913672 0.118363 0.047620
O O15 0.843036 0.006292 0.057183
O O16 0.332846 0.481054 0.250000
O O17 0.269744 0.434558 0.028299
O O18 0.352978 0.539228 0.010446
O O19 0.044386 0.796106 0.750000
O O20 0.068352 0.750000 0.000000
O O21 0.186505 0.088578 0.750000
O O22 0.628023 0.421852 0.250000
#
# Coordination Sequence:
#
# PCOD8232299 Si02
#       8
#     8   8   8   8   8   8   8   8
#     4   8  14  25  43  67  93 123 160 201 244 290
#     4  11  22  33  47  69 100 139 179 215 257 305
#     4  10  21  38  58  78 100 129 168 210 256 311
#     4  10  20  35  53  75 106 137 170 211 253 302
#     4   9  16  28  48  73 100 131 163 199 250 302
#     4   9  19  35  54  75 100 134 173 213 253 297
#     4  10  20  33  52  79 109 138 166 205 257 306
#     4   9  17  29  45  67  96 128 167 213 252 290
#
# _framework density 17.683071000000002
#
# number of rings (size 3 to 8) (size 9 to 14) (size 15 to 20)
#    0.000    2.500    1.250    1.125    0.000    4.000 
#    0.000    0.000    0.000    0.750    0.000    1.750 
#    0.000    0.000    0.000    0.000    0.000    0.000 
#
# Total GULP energy -793044.758666 kJ/mol
# GULP energy per Si atom -12391.324354 kJ/mol
# Density = 1.764282 g / cm^3
# Si number density = 17.683071 Si / 1000 Ang^3
#
#
#
# Elastic Constant Matrix: (Units=GPa)
#
#
# Indices 1 2 3 4 5 6 
#
# 1 119.9159 54.9002 41.6989 0.0000 0.0000 0.0000
# 2 54.9002 83.5454 41.6396 0.0000 0.0000 0.0000
# 3 41.6989 41.6396 63.1201 0.0000 0.0000 0.0000
# 4 0.0000 0.0000 0.0000 26.9436 0.0000 0.0000
# 5 0.0000 0.0000 0.0000 0.0000 20.8904 0.0000
# 6 0.0000 0.0000 0.0000 0.0000 0.0000 20.4035
#
#
#
# Elastic Compliance Matrix: (Units=1/GPa)
#
#
# Indices 1 2 3 4 5 6 
#
# 1 0.012660 -0.006184 -0.004284 0.000000 0.000000 0.000000
# 2 -0.006184 0.020854 -0.009672 0.000000 0.000000 0.000000
# 3 -0.004284 -0.009672 0.025053 0.000000 0.000000 0.000000
# 4 0.000000 0.000000 0.000000 0.037115 0.000000 0.000000
# 5 0.000000 0.000000 0.000000 0.000000 0.047869 0.000000
# 6 0.000000 0.000000 0.000000 0.000000 0.000000 0.049011
#
#
# Mechanical properties :
#
#
# Convention : Reuss Voigt Hill
#
# Bulk Modulus (GPa) = 54.68192 60.33986 57.51089
# Shear Modulus (GPa) = 20.92603 22.20368 21.56485
#
# Velocity S-wave (km/s) = 3.44378 3.54735 3.49595
# Velocity P-wave (km/s) = 6.84129 7.13970 6.99209
#
# Compressibility (1/GPa) = 0.01828758
#
# Stress axis : x y z
#
# Youngs Moduli (GPa) = 78.98815 47.95315 39.91516
#
# Poissons Ratio (x) = 0.29655 0.17100
# Poissons Ratio (y) = 0.48848 0.38604
# Poissons Ratio (z) = 0.33839 0.46378
#
# Static dielectric constant tensor:
#      x y z
#    x 3.883090 0.000000 0.000000 
#    y 0.000000 2.964620 0.000000 
#    z 0.000000 0.000000 3.284420 
# 
# 
# High freq. dielectric constant tensor:
#      x y z
#    x 1.702150 0.000000 0.000000 
#    y 0.000000 1.644140 0.000000 
#    z 0.000000 0.000000 1.687280 
# 
# From -- ./inp_files/8455.got.cif
#   From: 2010.03.12/outbox.cif.g09.slc.cpg/sg57_5_cif.got.tgz:8455.got - 2010.04.16 15:48:40.
