data_PCOD8232476
_publ_section_title
;
Structure prediction by ZEFSAII (Michael W. Deem and Ramdas Pophale) SiO2 
 PCOD8232476
Probable space group: P B C M
;
_chemical_formula_sum "Si O2"
_cell_formula_units_Z 48
_cell_length_a 30.339397
_cell_length_b 9.536758
_cell_length_c 8.708618
_cell_angle_alpha 90.000000
_cell_angle_beta 90.000000
_cell_angle_gamma 90.000000
_cell_volume 2519.747065
_symmetry_space_group_name_H-M "P B C M"
_symmetry_group_IT_number 57
_symmetry_cell_setting 'orthorhombic'
loop_
_space_group_symop_operation_xyz
x,y,z
-x,-y,1/2+z
x,1/2-y,-z
-x,1/2+y,1/2-z
-x,-y,-z
x,y,1/2-z
-x,1/2+y,z
x,1/2-y,1/2+z
loop_
_atom_site_type_symbol
_atom_site_label
_atom_site_fract_x
_atom_site_fract_y
_atom_site_fract_z
Si Si1 0.211265 0.896076 0.927771
Si Si2 0.891658 0.101670 0.071051
Si Si3 0.536335 0.597774 0.571723
Si Si4 0.038679 0.094647 0.432836
Si Si5 0.280473 0.095850 0.430867
Si Si6 0.633112 0.902288 0.428582
O O1 0.223609 0.894995 0.750000
O O2 0.159855 0.923369 0.955348
O O3 0.226226 0.750000 0.000000
O O4 0.237249 0.017577 0.012605
O O5 0.904471 0.101422 0.250000
O O6 0.906837 0.250000 0.000000
O O7 0.915323 0.974579 0.983796
O O8 0.532721 0.750000 0.500000
O O9 0.500000 0.500000 0.500000
O O10 0.526775 0.614234 0.750000
O O11 0.584986 0.528008 0.543800
O O12 0.035100 0.250000 0.500000
O O13 0.035438 0.101421 0.250000
O O14 0.000000 0.000000 0.500000
O O15 0.279015 0.250000 0.500000
O O16 0.280043 0.102742 0.250000
O O17 0.325840 0.018747 0.488338
O O18 0.629618 0.750000 0.500000
O O19 0.644430 0.891289 0.250000
#
# Coordination Sequence:
#
# PCOD8232476 Si02
#       6
#     8   8   8   8   8   8
#     4  10  21  38  59  83 114 149 185 226 275 331
#     4  10  21  39  62  87 115 150 189 229 276 329
#     4  10  20  34  54  78 106 139 176 220 269 324
#     4  12  25  42  63  88 119 153 191 234 280 330
#     4  11  21  34  55  81 109 142 182 227 272 321
#     4   9  17  31  51  75 103 137 177 220 269 323
#
# _framework density 19.049531000000002
#
# number of rings (size 3 to 8) (size 9 to 14) (size 15 to 20)
#    0.000    1.667    0.000    6.500    0.000    4.667 
#    0.000    0.833    0.000    4.000    0.000    0.000 
#    0.000    0.000    0.000    0.000    0.000    0.000 
#
# Total GULP energy -595127.863239 kJ/mol
# GULP energy per Si atom -12398.497151 kJ/mol
# Density = 1.900617 g / cm^3
# Si number density = 19.049531 Si / 1000 Ang^3
#
#
#
# Elastic Constant Matrix: (Units=GPa)
#
#
# Indices 1 2 3 4 5 6 
#
# 1 108.9353 64.8492 74.1579 0.0000 0.0000 0.0000
# 2 64.8492 105.8985 65.5846 0.0000 0.0000 0.0000
# 3 74.1579 65.5846 180.1786 0.0000 0.0000 0.0000
# 4 0.0000 0.0000 0.0000 35.8153 0.0000 0.0000
# 5 0.0000 0.0000 0.0000 0.0000 45.5065 0.0000
# 6 0.0000 0.0000 0.0000 0.0000 0.0000 32.1322
#
#
#
# Elastic Compliance Matrix: (Units=1/GPa)
#
#
# Indices 1 2 3 4 5 6 
#
# 1 0.016409 -0.007573 -0.003997 0.000000 0.000000 0.000000
# 2 -0.007573 0.015686 -0.002593 0.000000 0.000000 0.000000
# 3 -0.003997 -0.002593 0.008139 0.000000 0.000000 0.000000
# 4 0.000000 0.000000 0.000000 0.027921 0.000000 0.000000
# 5 0.000000 0.000000 0.000000 0.000000 0.021975 0.000000
# 6 0.000000 0.000000 0.000000 0.000000 0.000000 0.031121
#
#
# Mechanical properties :
#
#
# Convention : Reuss Voigt Hill
#
# Bulk Modulus (GPa) = 83.97431 89.35509 86.66470
# Shear Modulus (GPa) = 32.56340 35.38553 33.97446
#
# Velocity S-wave (km/s) = 4.13898 4.31461 4.22771
# Velocity P-wave (km/s) = 8.18654 8.47524 8.33214
#
# Compressibility (1/GPa) = 0.01190840
#
# Stress axis : x y z
#
# Youngs Moduli (GPa) = 60.94250 63.75003 122.86563
#
# Poissons Ratio (x) = 0.48277 0.49110
# Poissons Ratio (y) = 0.46151 0.31858
# Poissons Ratio (z) = 0.24359 0.16530
#
# Static dielectric constant tensor:
#      x y z
#    x 4.112370 0.000000 0.000000 
#    y 0.000000 3.297190 0.000000 
#    z 0.000000 0.000000 3.724350 
# 
# 
# High freq. dielectric constant tensor:
#      x y z
#    x 1.761120 0.000000 0.000000 
#    y 0.000000 1.713810 0.000000 
#    z 0.000000 0.000000 1.764380 
# 
# From -- ./inp_files/9922.got.cif
#   From: 2010.03.12/outbox.cif.g09.slc.cpg/sg57_5_cif.got.tgz:9922.got - 2010.04.16 15:48:40.
