data_PCOD8232245
_publ_section_title
;
Structure prediction by ZEFSAII (Michael W. Deem and Ramdas Pophale) SiO2 
 PCOD8232245
Probable space group: P B C M
;
_chemical_formula_sum "Si O2"
_cell_formula_units_Z 64
_cell_length_a 21.002923
_cell_length_b 19.247722
_cell_length_c 8.819932
_cell_angle_alpha 90.000000
_cell_angle_beta 90.000000
_cell_angle_gamma 90.000000
_cell_volume 3565.531802
_symmetry_space_group_name_H-M "P B C M"
_symmetry_group_IT_number 57
_symmetry_cell_setting 'orthorhombic'
loop_
_space_group_symop_operation_xyz
x,y,z
-x,-y,1/2+z
x,1/2-y,-z
-x,1/2+y,1/2-z
-x,-y,-z
x,y,1/2-z
-x,1/2+y,z
x,1/2-y,1/2+z
loop_
_atom_site_type_symbol
_atom_site_label
_atom_site_fract_x
_atom_site_fract_y
_atom_site_fract_z
Si Si1 0.766777 0.360341 0.419265
Si Si2 0.891319 0.318819 0.570950
Si Si3 0.062166 0.968228 0.572705
Si Si4 0.354634 0.590858 0.070298
Si Si5 0.683576 0.552802 0.070798
Si Si6 0.460390 0.676860 0.574490
Si Si7 0.608388 0.823155 0.425898
Si Si8 0.818066 0.514791 0.416536
O O1 0.761252 0.328401 0.250000
O O2 0.818367 0.318009 0.515656
O O3 0.698875 0.357196 0.502811
O O4 0.787810 0.439277 0.408772
O O5 0.924934 0.250000 0.500000
O O6 0.893474 0.313911 0.750000
O O7 0.927088 0.388954 0.514498
O O8 0.053245 0.969342 0.750000
O O9 0.122651 0.016645 0.531355
O O10 0.000000 0.000000 0.500000
O O11 0.351468 0.593871 0.250000
O O12 0.345910 0.512021 0.017742
O O13 0.422902 0.616129 0.011269
O O14 0.674919 0.540432 0.250000
O O15 0.759084 0.563324 0.031311
O O16 0.648306 0.621109 0.017856
O O17 0.442665 0.750000 0.500000
O O18 0.440754 0.679235 0.750000
O O19 0.534365 0.659315 0.553695
O O20 0.625461 0.750000 0.500000
O O21 0.628080 0.822770 0.250000
O O22 0.843488 0.536688 0.250000
#
# Coordination Sequence:
#
# PCOD8232245 Si02
#       8
#     8   8   8   8   8   8   8   8
#     4   9  17  31  49  70  99 133 166 204 249 298
#     4  10  20  33  50  75 104 137 176 216 255 299
#     4  10  20  33  53  79 107 140 176 211 251 303
#     4  11  21  33  51  76 105 137 174 215 260 311
#     4  10  20  35  56  80 106 136 170 214 263 310
#     4  10  21  37  53  71  98 133 173 216 264 317
#     4  10  21  37  57  78 101 132 171 217 268 323
#     4   8  16  31  51  75 102 130 161 200 246 293
#
# _framework density 17.949636999999999
#
# number of rings (size 3 to 8) (size 9 to 14) (size 15 to 20)
#    0.000    2.250    0.000    4.125    0.000    7.500 
#    0.000    2.500    0.000    0.750    0.000    3.500 
#    0.000    0.000    0.000    0.000    0.000    0.000 
#
# Total GULP energy -793514.697008 kJ/mol
# GULP energy per Si atom -12398.667141 kJ/mol
# Density = 1.790878 g / cm^3
# Si number density = 17.949637 Si / 1000 Ang^3
#
#
#
# Elastic Constant Matrix: (Units=GPa)
#
#
# Indices 1 2 3 4 5 6 
#
# 1 97.0486 55.8496 49.2879 0.0000 0.0000 0.0000
# 2 55.8496 81.2004 40.6131 0.0000 0.0000 0.0000
# 3 49.2879 40.6131 107.3336 0.0000 0.0000 0.0000
# 4 0.0000 0.0000 0.0000 31.1210 0.0000 0.0000
# 5 0.0000 0.0000 0.0000 0.0000 31.2484 0.0000
# 6 0.0000 0.0000 0.0000 0.0000 0.0000 26.2387
#
#
#
# Elastic Compliance Matrix: (Units=1/GPa)
#
#
# Indices 1 2 3 4 5 6 
#
# 1 0.018728 -0.010583 -0.004596 0.000000 0.000000 0.000000
# 2 -0.010583 0.021170 -0.003151 0.000000 0.000000 0.000000
# 3 -0.004596 -0.003151 0.012619 0.000000 0.000000 0.000000
# 4 0.000000 0.000000 0.000000 0.032133 0.000000 0.000000
# 5 0.000000 0.000000 0.000000 0.000000 0.032002 0.000000
# 6 0.000000 0.000000 0.000000 0.000000 0.000000 0.038112
#
#
# Mechanical properties :
#
#
# Convention : Reuss Voigt Hill
#
# Bulk Modulus (GPa) = 63.05523 64.12042 63.58782
# Shear Modulus (GPa) = 25.41838 27.04374 26.23106
#
# Velocity S-wave (km/s) = 3.76719 3.88576 3.82693
# Velocity P-wave (km/s) = 7.35714 7.47878 7.41821
#
# Compressibility (1/GPa) = 0.01585911
#
# Stress axis : x y z
#
# Youngs Moduli (GPa) = 53.39518 47.23704 79.24363
#
# Poissons Ratio (x) = 0.49989 0.36419
# Poissons Ratio (y) = 0.56506 0.24967
# Poissons Ratio (z) = 0.24539 0.14883
#
# Static dielectric constant tensor:
#      x y z
#    x 3.386940 0.000000 0.000000 
#    y 0.000000 3.278980 0.000000 
#    z 0.000000 0.000000 3.477450 
# 
# 
# High freq. dielectric constant tensor:
#      x y z
#    x 1.684400 0.000000 0.000000 
#    y 0.000000 1.675890 0.000000 
#    z 0.000000 0.000000 1.710940 
# 
# From -- ./inp_files/8592.got.cif
#   From: 2010.03.12/outbox.cif.g09.slc.cpg/sg57_5_cif.got.tgz:8592.got - 2010.04.16 15:48:40.
