data_PCOD8232263
_publ_section_title
;
Structure prediction by ZEFSAII (Michael W. Deem and Ramdas Pophale) SiO2 
 PCOD8232263
Probable space group: P B C M
;
_chemical_formula_sum "Si O2"
_cell_formula_units_Z 64
_cell_length_a 23.024920
_cell_length_b 15.936179
_cell_length_c 8.940948
_cell_angle_alpha 90.000000
_cell_angle_beta 90.000000
_cell_angle_gamma 90.000000
_cell_volume 3280.695313
_symmetry_space_group_name_H-M "P B C M"
_symmetry_group_IT_number 57
_symmetry_cell_setting 'orthorhombic'
loop_
_space_group_symop_operation_xyz
x,y,z
-x,-y,1/2+z
x,1/2-y,-z
-x,1/2+y,1/2-z
-x,-y,-z
x,y,1/2-z
-x,1/2+y,z
x,1/2-y,1/2+z
loop_
_atom_site_type_symbol
_atom_site_label
_atom_site_fract_x
_atom_site_fract_y
_atom_site_fract_z
Si Si1 0.315434 0.832929 0.924855
Si Si2 0.538537 0.668129 0.576520
Si Si3 0.361782 0.419245 0.578188
Si Si4 0.256977 0.003966 0.926367
Si Si5 0.069486 0.835459 0.072293
Si Si6 0.864714 0.993765 0.924040
Si Si7 0.419780 0.904645 0.080660
Si Si8 0.944810 0.834981 0.572923
O O1 0.312134 0.821366 0.750000
O O2 0.276802 0.911475 0.979455
O O3 0.288654 0.750000 0.000000
O O4 0.382435 0.844711 0.972909
O O5 0.511860 0.750000 0.500000
O O6 0.550343 0.681815 0.750000
O O7 0.600577 0.651981 0.500462
O O8 0.488599 0.598755 0.546626
O O9 0.351574 0.396359 0.750000
O O10 0.299178 0.427280 0.500604
O O11 0.400343 0.501162 0.553827
O O12 0.261702 0.013895 0.750000
O O13 0.192213 0.020980 0.978904
O O14 0.063986 0.824007 0.250000
O O15 0.107890 0.916558 0.031075
O O16 0.096586 0.750000 0.000000
O O17 0.006852 0.851481 0.001253
O O18 0.848355 0.992931 0.750000
O O19 0.906807 0.916668 0.964323
O O20 0.406978 0.875122 0.250000
O O21 0.917392 0.750000 0.500000
O O22 0.951620 0.821804 0.750000
#
# Coordination Sequence:
#
# PCOD8232263 Si02
#       8
#     8   8   8   8   8   8   8   8
#     4  10  20  33  51  76 106 140 177 219 267 321
#     4  11  22  35  52  78 108 135 170 214 263 319
#     4  10  20  37  58  77 102 137 174 215 266 318
#     4  10  22  38  56  78 104 139 184 228 268 317
#     4  10  20  35  56  85 120 154 186 223 270 325
#     4  10  22  38  57  82 113 149 188 231 277 325
#     4   9  19  34  54  79 105 135 170 212 263 320
#     4  10  20  36  58  85 115 147 185 228 276 327
#
# _framework density 19.50806
#
# number of rings (size 3 to 8) (size 9 to 14) (size 15 to 20)
#    0.000    2.000    0.000    4.125    0.000    6.500 
#    0.000    3.125    0.000    1.500    0.000    0.000 
#    0.000    0.000    0.000    0.000    0.000    0.000 
#
# Total GULP energy -793586.083332 kJ/mol
# GULP energy per Si atom -12399.782552 kJ/mol
# Density = 1.946366 g / cm^3
# Si number density = 19.508060 Si / 1000 Ang^3
#
#
#
# Elastic Constant Matrix: (Units=GPa)
#
#
# Indices 1 2 3 4 5 6 
#
# 1 101.3124 37.3212 45.5881 0.0000 0.0000 0.0000
# 2 37.3212 78.6421 34.0612 0.0000 0.0000 0.0000
# 3 45.5881 34.0612 90.6679 0.0000 0.0000 0.0000
# 4 0.0000 0.0000 0.0000 31.7336 0.0000 0.0000
# 5 0.0000 0.0000 0.0000 0.0000 33.9047 0.0000
# 6 0.0000 0.0000 0.0000 0.0000 0.0000 19.4019
#
#
#
# Elastic Compliance Matrix: (Units=1/GPa)
#
#
# Indices 1 2 3 4 5 6 
#
# 1 0.013851 -0.004248 -0.005368 0.000000 0.000000 0.000000
# 2 -0.004248 0.016490 -0.004059 0.000000 0.000000 0.000000
# 3 -0.005368 -0.004059 0.015253 0.000000 0.000000 0.000000
# 4 0.000000 0.000000 0.000000 0.031512 0.000000 0.000000
# 5 0.000000 0.000000 0.000000 0.000000 0.029494 0.000000
# 6 0.000000 0.000000 0.000000 0.000000 0.000000 0.051541
#
#
# Mechanical properties :
#
#
# Convention : Reuss Voigt Hill
#
# Bulk Modulus (GPa) = 54.81415 56.06259 55.43837
# Shear Modulus (GPa) = 26.09956 27.25150 26.67553
#
# Velocity S-wave (km/s) = 3.66168 3.74161 3.70186
# Velocity P-wave (km/s) = 6.78501 6.88962 6.83751
#
# Compressibility (1/GPa) = 0.01824346
#
# Stress axis : x y z
#
# Youngs Moduli (GPa) = 72.19676 60.64358 65.55964
#
# Poissons Ratio (x) = 0.25762 0.35195
# Poissons Ratio (y) = 0.30670 0.26609
# Poissons Ratio (z) = 0.38758 0.24614
#
# Static dielectric constant tensor:
#      x y z
#    x 3.421470 0.000000 0.000000 
#    y 0.000000 3.643370 0.000000 
#    z 0.000000 0.000000 3.596480 
# 
# 
# High freq. dielectric constant tensor:
#      x y z
#    x 1.748540 0.000000 0.000000 
#    y 0.000000 1.758720 0.000000 
#    z 0.000000 0.000000 1.770080 
# 
# From -- ./inp_files/9310.got.cif
#   From: 2010.03.12/outbox.cif.g09.slc.cpg/sg57_5_cif.got.tgz:9310.got - 2010.04.16 15:48:40.
