data_PCOD8232202
_publ_section_title
;
Structure prediction by ZEFSAII (Michael W. Deem and Ramdas Pophale) SiO2 
 PCOD8232202
Probable space group: P B C M
;
_chemical_formula_sum "Si O2"
_cell_formula_units_Z 48
_cell_length_a 15.962296
_cell_length_b 18.517356
_cell_length_c 9.293539
_cell_angle_alpha 90.000000
_cell_angle_beta 90.000000
_cell_angle_gamma 90.000000
_cell_volume 2746.979775
_symmetry_space_group_name_H-M "P B C M"
_symmetry_group_IT_number 57
_symmetry_cell_setting 'orthorhombic'
loop_
_space_group_symop_operation_xyz
x,y,z
-x,-y,1/2+z
x,1/2-y,-z
-x,1/2+y,1/2-z
-x,-y,-z
x,y,1/2-z
-x,1/2+y,z
x,1/2-y,1/2+z
loop_
_atom_site_type_symbol
_atom_site_label
_atom_site_fract_x
_atom_site_fract_y
_atom_site_fract_z
Si Si1 0.671956 0.595779 0.919905
Si Si2 0.677988 0.323961 0.418716
Si Si3 0.833991 0.823106 0.420450
Si Si4 0.248340 0.952011 0.915458
Si Si5 0.923634 0.532062 0.913481
Si Si6 0.488262 0.177825 0.916808
O O1 0.682974 0.591721 0.750000
O O2 0.740824 0.653804 0.974269
O O3 0.691266 0.515405 0.977098
O O4 0.578363 0.617572 0.968637
O O5 0.697112 0.250000 0.500000
O O6 0.695339 0.313492 0.250000
O O7 0.739712 0.383330 0.482947
O O8 0.582230 0.349037 0.448696
O O9 0.861556 0.750000 0.500000
O O10 0.836297 0.809945 0.250000
O O11 0.897603 0.887483 0.465345
O O12 0.269923 0.932054 0.750000
O O13 0.153271 0.977291 0.930013
O O14 0.953031 0.536757 0.750000
O O15 0.000000 0.500000 0.000000
O O16 0.475485 0.195300 0.750000
O O17 0.466692 0.250000 0.000000
#
# Coordination Sequence:
#
# PCOD8232202 Si02
#       6
#     8   8   8   8   8   8
#     4   8  15  29  48  69  97 130 159 192 236 284
#     4  10  20  33  49  70  96 127 165 205 241 280
#     4   9  17  30  49  74 101 128 158 191 232 284
#     4   9  18  34  53  71  94 126 160 195 242 292
#     4   9  19  35  54  75  99 127 159 196 240 290
#     4   9  17  29  45  67  96 130 165 199 236 277
#
# _framework density 17.473735999999999
#
# number of rings (size 3 to 8) (size 9 to 14) (size 15 to 20)
#    0.000    3.000    0.000    3.000    0.000    2.667 
#    0.000    4.167    0.000    2.000    0.000    0.000 
#    0.000    0.000    0.000    0.000    0.000    0.000 
#
# Total GULP energy -595022.684188 kJ/mol
# GULP energy per Si atom -12396.305921 kJ/mol
# Density = 1.743396 g / cm^3
# Si number density = 17.473736 Si / 1000 Ang^3
#
#
#
# Elastic Constant Matrix: (Units=GPa)
#
#
# Indices 1 2 3 4 5 6 
#
# 1 64.0872 55.9910 36.9875 0.0000 0.0000 0.0000
# 2 55.9910 126.6012 55.8394 0.0000 0.0000 0.0000
# 3 36.9875 55.8394 64.0525 0.0000 0.0000 0.0000
# 4 0.0000 0.0000 0.0000 32.5588 0.0000 0.0000
# 5 0.0000 0.0000 0.0000 0.0000 24.9811 0.0000
# 6 0.0000 0.0000 0.0000 0.0000 0.0000 24.6907
#
#
#
# Elastic Compliance Matrix: (Units=1/GPa)
#
#
# Indices 1 2 3 4 5 6 
#
# 1 0.028175 -0.008586 -0.008785 0.000000 0.000000 0.000000
# 2 -0.008586 0.015450 -0.008511 0.000000 0.000000 0.000000
# 3 -0.008785 -0.008511 0.028104 0.000000 0.000000 0.000000
# 4 0.000000 0.000000 0.000000 0.030714 0.000000 0.000000
# 5 0.000000 0.000000 0.000000 0.000000 0.040030 0.000000
# 6 0.000000 0.000000 0.000000 0.000000 0.000000 0.040501
#
#
# Mechanical properties :
#
#
# Convention : Reuss Voigt Hill
#
# Bulk Modulus (GPa) = 50.08435 61.37519 55.72977
# Shear Modulus (GPa) = 20.71304 23.50764 22.11034
#
# Velocity S-wave (km/s) = 3.44667 3.67183 3.56103
# Velocity P-wave (km/s) = 6.67565 7.29225 6.99075
#
# Compressibility (1/GPa) = 0.01996632
#
# Stress axis : x y z
#
# Youngs Moduli (GPa) = 35.49202 64.72487 35.58152
#
# Poissons Ratio (x) = 0.55574 0.31257
# Poissons Ratio (y) = 0.30474 0.30283
# Poissons Ratio (z) = 0.31179 0.55086
#
# Static dielectric constant tensor:
#      x y z
#    x 3.175470 0.000000 0.000000 
#    y 0.000000 3.257780 0.000000 
#    z 0.000000 0.000000 3.061780 
# 
# 
# High freq. dielectric constant tensor:
#      x y z
#    x 1.665710 0.000000 0.000000 
#    y 0.000000 1.675150 0.000000 
#    z 0.000000 0.000000 1.658990 
# 
# From -- ./inp_files/6702.got.cif
#   From: 2010.03.12/outbox.cif.g09.slc.cpg/sg57_4_cif.got.tgz:6702.got - 2010.04.16 15:48:40.
