data_PCOD8232055
_publ_section_title
;
Structure prediction by ZEFSAII (Michael W. Deem and Ramdas Pophale) SiO2 
 PCOD8232055
Probable space group: P B C M
;
_chemical_formula_sum "Si O2"
_cell_formula_units_Z 64
_cell_length_a 5.292221
_cell_length_b 31.084745
_cell_length_c 17.359863
_cell_angle_alpha 90.000000
_cell_angle_beta 90.000000
_cell_angle_gamma 90.000000
_cell_volume 2855.824890
_symmetry_space_group_name_H-M "P B C M"
_symmetry_group_IT_number 57
_symmetry_cell_setting 'orthorhombic'
loop_
_space_group_symop_operation_xyz
x,y,z
-x,-y,1/2+z
x,1/2-y,-z
-x,1/2+y,1/2-z
-x,-y,-z
x,y,1/2-z
-x,1/2+y,z
x,1/2-y,1/2+z
loop_
_atom_site_type_symbol
_atom_site_label
_atom_site_fract_x
_atom_site_fract_y
_atom_site_fract_z
Si Si1 0.446869 0.105316 0.020445
Si Si2 0.533206 0.840350 0.116422
Si Si3 0.009629 0.203652 0.161534
Si Si4 0.212874 0.542689 0.558263
Si Si5 0.196555 0.612184 0.333738
Si Si6 0.929916 0.955208 0.910418
Si Si7 0.497585 0.743791 0.091096
Si Si8 0.972972 0.112489 0.836001
O O1 0.616200 0.112943 0.094905
O O2 0.184880 0.086888 0.048776
O O3 0.423519 0.150377 0.975281
O O4 0.538217 0.071117 0.954364
O O5 0.539601 0.789756 0.131237
O O6 0.260111 0.856581 0.143606
O O7 0.764491 0.861742 0.162072
O O8 0.027466 0.219739 0.250000
O O9 0.995197 0.151940 0.158365
O O10 0.761935 0.223460 0.121728
O O11 0.263192 0.214895 0.115010
O O12 0.251561 0.496844 0.604346
O O13 0.013842 0.571592 0.606466
O O14 0.139695 0.529140 0.471115
O O15 0.335169 0.614988 0.250000
O O16 0.050997 0.565715 0.333940
O O17 0.479681 0.750000 0.000000
O O18 0.934600 0.094598 0.750000
#
# Coordination Sequence:
#
# PCOD8232055 Si02
#       8
#     8   8   8   8   8   8   8   8
#     4  10  20  38  65  88 127 163 210 265 319 378
#     4  11  24  41  66  96 125 167 217 259 325 389
#     4  11  26  46  66  94 136 177 212 268 342 399
#     4   9  20  36  59  94 124 162 214 255 318 378
#     4  10  24  40  60  91 125 169 215 263 325 385
#     4  10  19  37  65  87 121 166 211 263 311 381
#     4  12  26  43  70 100 128 165 225 279 324 387
#     4  11  23  41  63  93 134 171 208 264 318 379
#
# _framework density 22.410337999999999
#
# number of rings (size 3 to 8) (size 9 to 14) (size 15 to 20)
#    0.000    1.500    1.250    3.000    3.500    4.000 
#    0.000    0.000    0.000    0.000    0.000    0.000 
#    0.000    0.000    0.000    0.000    0.000    0.000 
#
# Total GULP energy -792963.784200 kJ/mol
# GULP energy per Si atom -12390.059128 kJ/mol
# Density = 2.235933 g / cm^3
# Si number density = 22.410338 Si / 1000 Ang^3
#
#
#
# Elastic Constant Matrix: (Units=GPa)
#
#
# Indices 1 2 3 4 5 6 
#
# 1 83.5400 6.9097 16.9127 0.0000 0.0000 0.0000
# 2 6.9097 96.6841 23.2219 0.0000 0.0000 0.0000
# 3 16.9127 23.2219 112.2538 0.0000 0.0000 0.0000
# 4 0.0000 0.0000 0.0000 22.4336 0.0000 0.0000
# 5 0.0000 0.0000 0.0000 0.0000 21.9141 0.0000
# 6 0.0000 0.0000 0.0000 0.0000 0.0000 19.5548
#
#
#
# Elastic Compliance Matrix: (Units=1/GPa)
#
#
# Indices 1 2 3 4 5 6 
#
# 1 0.012366 -0.000459 -0.001768 0.000000 0.000000 0.000000
# 2 -0.000459 0.010901 -0.002186 0.000000 0.000000 0.000000
# 3 -0.001768 -0.002186 0.009627 0.000000 0.000000 0.000000
# 4 0.000000 0.000000 0.000000 0.044576 0.000000 0.000000
# 5 0.000000 0.000000 0.000000 0.000000 0.045633 0.000000
# 6 0.000000 0.000000 0.000000 0.000000 0.000000 0.051138
#
#
# Mechanical properties :
#
#
# Convention : Reuss Voigt Hill
#
# Bulk Modulus (GPa) = 41.54944 42.95184 42.25064
# Shear Modulus (GPa) = 26.16568 29.14274 27.65421
#
# Velocity S-wave (km/s) = 3.42068 3.61004 3.51664
# Velocity P-wave (km/s) = 5.84653 6.04849 5.94837
#
# Compressibility (1/GPa) = 0.02406772
#
# Stress axis : x y z
#
# Youngs Moduli (GPa) = 80.86526 91.73655 103.87476
#
# Poissons Ratio (x) = 0.04211 0.18367
# Poissons Ratio (y) = 0.03712 0.22706
# Poissons Ratio (z) = 0.14298 0.20052
#
# Static dielectric constant tensor:
#      x y z
#    x 3.851840 0.000000 0.000000 
#    y 0.000000 4.471490 0.000000 
#    z 0.000000 0.000000 4.190570 
# 
# 
# High freq. dielectric constant tensor:
#      x y z
#    x 1.871880 0.000000 0.000000 
#    y 0.000000 1.893860 0.000000 
#    z 0.000000 0.000000 1.880950 
# 
# From -- ./inp_files/20328.got.cif
#   From: 2010.03.12/outbox.cif.g09.slc.cpg/sg57_11_cif.got.tgz:20328.got - 2010.04.16 15:48:40.
