data_PCOD8232627
_publ_section_title
;
Structure prediction by ZEFSAII (Michael W. Deem and Ramdas Pophale) SiO2 
 PCOD8232627
Probable space group: P B C M
;
_chemical_formula_sum "Si O2"
_cell_formula_units_Z 60
_cell_length_a 5.483518
_cell_length_b 16.138235
_cell_length_c 29.551355
_cell_angle_alpha 90.000000
_cell_angle_beta 90.000000
_cell_angle_gamma 90.000000
_cell_volume 2615.126537
_symmetry_space_group_name_H-M "P B C M"
_symmetry_group_IT_number 57
_symmetry_cell_setting 'orthorhombic'
loop_
_space_group_symop_operation_xyz
x,y,z
-x,-y,1/2+z
x,1/2-y,-z
-x,1/2+y,1/2-z
-x,-y,-z
x,y,1/2-z
-x,1/2+y,z
x,1/2-y,1/2+z
loop_
_atom_site_type_symbol
_atom_site_label
_atom_site_fract_x
_atom_site_fract_y
_atom_site_fract_z
Si Si1 0.627943 0.333182 0.069006
Si Si2 0.748268 0.591333 0.994963
Si Si3 0.982272 0.073581 0.164200
Si Si4 0.464226 0.269878 0.339843
Si Si5 0.932813 0.250000 0.500000
Si Si6 0.097068 0.508833 0.572434
Si Si7 0.518642 0.910461 0.698015
Si Si8 0.034147 0.758845 0.303154
O O1 0.453501 0.293787 0.107097
O O2 0.784263 0.259570 0.046972
O O3 0.788424 0.406073 0.091918
O O4 0.497910 0.373441 0.025664
O O5 0.703824 0.540334 0.041474
O O6 0.915469 0.667998 0.008451
O O7 0.865561 0.530020 0.958291
O O8 0.228033 0.039113 0.189551
O O9 0.967885 0.172316 0.170129
O O10 0.725937 0.037341 0.184690
O O11 0.000036 0.049166 0.112200
O O12 0.466015 0.171043 0.333237
O O13 0.215601 0.307358 0.317274
O O14 0.715959 0.306552 0.317683
O O15 0.500562 0.882716 0.750000
O O16 0.033807 0.742170 0.250000
#
# Coordination Sequence:
#
# PCOD8232627 Si02
#       8
#     8   8   8   8   4   8   8   8
#     4  11  24  40  61  92 129 167 218 269 328 392
#     4  10  23  44  65  86 133 168 213 274 325 392
#     4  10  20  34  63  92 122 164 215 264 312 400
#     4  10  21  34  64  91 127 163 207 271 321 383
#     4  10  24  38  64  94 122 162 212 274 320 384
#     4  10  24  41  62  90 126 176 219 258 334 390
#     4  10  20  37  62  96 127 162 213 276 329 379
#     4  10  20  38  63  97 127 165 214 274 331 382
#
# _framework density 22.943441
#
# number of rings (size 3 to 8) (size 9 to 14) (size 15 to 20)
#    0.000    1.867    0.000    4.800    9.333    3.200 
#    0.000    0.000    0.000    8.800    0.000    0.000 
#    0.000    0.000    0.000    0.000    0.000    0.000 
#
# Total GULP energy -743504.812852 kJ/mol
# GULP energy per Si atom -12391.746881 kJ/mol
# Density = 2.289122 g / cm^3
# Si number density = 22.943441 Si / 1000 Ang^3
#
#
#
# Elastic Constant Matrix: (Units=GPa)
#
#
# Indices 1 2 3 4 5 6 
#
# 1 175.6277 5.7822 22.9306 0.0000 0.0000 0.0000
# 2 5.7822 46.2848 42.3218 0.0000 0.0000 0.0000
# 3 22.9306 42.3218 93.6880 0.0000 0.0000 0.0000
# 4 0.0000 0.0000 0.0000 20.9115 0.0000 0.0000
# 5 0.0000 0.0000 0.0000 0.0000 20.3047 0.0000
# 6 0.0000 0.0000 0.0000 0.0000 0.0000 -138.9323
#
#
#
# Elastic Compliance Matrix: (Units=1/GPa)
#
#
# Indices 1 2 3 4 5 6 
#
# 1 0.005909 0.000995 -0.001896 0.000000 0.000000 0.000000
# 2 0.000995 0.036977 -0.016947 0.000000 0.000000 0.000000
# 3 -0.001896 -0.016947 0.018793 0.000000 0.000000 0.000000
# 4 0.000000 0.000000 0.000000 0.047820 0.000000 0.000000
# 5 0.000000 0.000000 0.000000 0.000000 0.049250 0.000000
# 6 0.000000 0.000000 0.000000 0.000000 0.000000 -0.007198
#
#
# Mechanical properties :
#
#
# Convention : Reuss Voigt Hill
#
# Bulk Modulus (GPa) = 38.48586 50.85222 44.66904
# Shear Modulus (GPa) = 25.52208 -3.23882 11.14163
#
# Velocity S-wave (km/s) = 3.33887 -1.18942 2.20605
# Velocity P-wave (km/s) = 5.62803 4.50844 5.09905
#
# Compressibility (1/GPa) = 0.02598357
#
# Stress axis : x y z
#
# Youngs Moduli (GPa) = 169.24443 27.04357 53.21013
#
# Poissons Ratio (x) = -0.02692 0.10087
# Poissons Ratio (y) = -0.16845 0.90178
# Poissons Ratio (z) = 0.32085 0.45832
#
# Static dielectric constant tensor:
#      x y z
#    x 5.315410 0.000000 0.000000 
#    y 0.000000 3.995440 0.000000 
#    z 0.000000 0.000000 4.004110 
# 
# 
# High freq. dielectric constant tensor:
#      x y z
#    x 1.928570 0.000000 0.000000 
#    y 0.000000 1.862370 0.000000 
#    z 0.000000 0.000000 1.902060 
# 
# From -- ./inp_files/28073.got.cif
#   From: 2010.03.12/outbox.cif.g09.slc.cpg/sg57_15_cif.got.tgz:28073.got - 2010.04.16 15:48:40.
