data_PCOD8232079
_publ_section_title
;
Structure prediction by ZEFSAII (Michael W. Deem and Ramdas Pophale) SiO2 
 PCOD8232079
Probable space group: P B C M
;
_chemical_formula_sum "Si O2"
_cell_formula_units_Z 64
_cell_length_a 18.213122
_cell_length_b 9.545159
_cell_length_c 16.679976
_cell_angle_alpha 90.000000
_cell_angle_beta 90.000000
_cell_angle_gamma 90.000000
_cell_volume 2899.766213
_symmetry_space_group_name_H-M "P B C M"
_symmetry_group_IT_number 57
_symmetry_cell_setting 'orthorhombic'
loop_
_space_group_symop_operation_xyz
x,y,z
-x,-y,1/2+z
x,1/2-y,-z
-x,1/2+y,1/2-z
-x,-y,-z
x,y,1/2-z
-x,1/2+y,z
x,1/2-y,1/2+z
loop_
_atom_site_type_symbol
_atom_site_label
_atom_site_fract_x
_atom_site_fract_y
_atom_site_fract_z
Si Si1 0.552776 0.264097 0.655122
Si Si2 0.420265 0.049253 0.345767
Si Si3 0.966007 0.217046 0.156709
Si Si4 0.814163 0.170593 0.842878
Si Si5 0.213453 0.351550 0.071864
Si Si6 0.299880 0.915094 0.843258
Si Si7 0.050183 0.057569 0.928224
Si Si8 0.257878 0.100406 0.342381
O O1 0.550209 0.250853 0.750000
O O2 0.479336 0.338052 0.621445
O O3 0.562318 0.106949 0.619871
O O4 0.619664 0.365691 0.630724
O O5 0.423497 0.045568 0.250000
O O6 0.340877 0.102290 0.376970
O O7 0.979990 0.246834 0.250000
O O8 0.891199 0.281730 0.120000
O O9 0.028490 0.287839 0.102243
O O10 0.962622 0.050168 0.144725
O O11 0.830025 0.147012 0.750000
O O12 0.752957 0.285303 0.856678
O O13 0.787394 0.026345 0.884512
O O14 0.274939 0.464742 0.095144
O O15 0.136433 0.426876 0.051258
O O16 0.212168 0.243765 0.146816
O O17 0.240417 0.250000 0.000000
O O18 0.297317 0.966343 0.750000
O O19 0.000000 0.000000 0.000000
O O20 0.264062 0.061935 0.250000
#
# Coordination Sequence:
#
# PCOD8232079 Si02
#       8
#     8   8   8   8   8   8   8   8
#     4   9  17  29  53  91 131 163 199 251 312 370
#     4   9  17  30  52  91 131 161 197 249 311 369
#     4  11  24  42  69  97 123 159 212 264 314 386
#     4   9  18  36  61  90 118 151 197 255 313 367
#     4  12  27  43  60  88 124 163 212 260 314 378
#     4  10  19  38  64  90 122 163 209 258 311 370
#     4  12  27  48  65  91 131 172 207 259 333 398
#     4  10  21  38  63  93 127 161 206 263 313 368
#
# _framework density 22.070744999999999
#
# number of rings (size 3 to 8) (size 9 to 14) (size 15 to 20)
#    0.000    1.750    2.500    1.875    5.250    1.500 
#    0.000    0.625    0.000    0.750    0.000    0.000 
#    0.000    0.000    0.000    0.000    0.000    0.000 
#
# Total GULP energy -793248.921333 kJ/mol
# GULP energy per Si atom -12394.514396 kJ/mol
# Density = 2.202051 g / cm^3
# Si number density = 22.070745 Si / 1000 Ang^3
#
#
#
# Elastic Constant Matrix: (Units=GPa)
#
#
# Indices 1 2 3 4 5 6 
#
# 1 85.9927 37.0407 21.3430 0.0000 0.0000 0.0000
# 2 37.0407 102.0958 15.4990 0.0000 0.0000 0.0000
# 3 21.3430 15.4990 35.3417 0.0000 0.0000 0.0000
# 4 0.0000 0.0000 0.0000 20.2173 0.0000 0.0000
# 5 0.0000 0.0000 0.0000 0.0000 20.5465 0.0000
# 6 0.0000 0.0000 0.0000 0.0000 0.0000 39.4115
#
#
#
# Elastic Compliance Matrix: (Units=1/GPa)
#
#
# Indices 1 2 3 4 5 6 
#
# 1 0.015370 -0.004464 -0.007324 0.000000 0.000000 0.000000
# 2 -0.004464 0.011790 -0.002474 0.000000 0.000000 0.000000
# 3 -0.007324 -0.002474 0.033803 0.000000 0.000000 0.000000
# 4 0.000000 0.000000 0.000000 0.049463 0.000000 0.000000
# 5 0.000000 0.000000 0.000000 0.000000 0.048670 0.000000
# 6 0.000000 0.000000 0.000000 0.000000 0.000000 0.025373
#
#
# Mechanical properties :
#
#
# Convention : Reuss Voigt Hill
#
# Bulk Modulus (GPa) = 30.82855 41.24397 36.03626
# Shear Modulus (GPa) = 22.34068 26.00489 24.17279
#
# Velocity S-wave (km/s) = 3.18501 3.43629 3.31303
# Velocity P-wave (km/s) = 5.24634 5.87127 5.56758
#
# Compressibility (1/GPa) = 0.03243746
#
# Stress axis : x y z
#
# Youngs Moduli (GPa) = 65.06336 84.81734 29.58292
#
# Poissons Ratio (x) = 0.37865 0.21666
# Poissons Ratio (y) = 0.29046 0.07320
# Poissons Ratio (z) = 0.47652 0.20988
#
# Static dielectric constant tensor:
#      x y z
#    x 4.220080 0.000000 0.000000 
#    y 0.000000 4.241590 0.000000 
#    z 0.000000 0.000000 3.533030 
# 
# 
# High freq. dielectric constant tensor:
#      x y z
#    x 1.875480 0.000000 0.000000 
#    y 0.000000 1.883900 0.000000 
#    z 0.000000 0.000000 1.820620 
# 
# From -- ./inp_files/25614.got.cif
#   From: 2010.03.12/outbox.cif.g09.slc.cpg/sg57_13_cif.got.tgz:25614.got - 2010.04.16 15:48:40.
