data_PCOD8232803
_publ_section_title
;
Structure prediction by ZEFSAII (Michael W. Deem and Ramdas Pophale) SiO2 
 PCOD8232803
Probable space group: P B C M
;
_chemical_formula_sum "Si O2"
_cell_formula_units_Z 64
_cell_length_a 14.336320
_cell_length_b 25.740227
_cell_length_c 8.750604
_cell_angle_alpha 90.000000
_cell_angle_beta 90.000000
_cell_angle_gamma 90.000000
_cell_volume 3229.149036
_symmetry_space_group_name_H-M "P B C M"
_symmetry_group_IT_number 57
_symmetry_cell_setting 'orthorhombic'
loop_
_space_group_symop_operation_xyz
x,y,z
-x,-y,1/2+z
x,1/2-y,-z
-x,1/2+y,1/2-z
-x,-y,-z
x,y,1/2-z
-x,1/2+y,z
x,1/2-y,1/2+z
loop_
_atom_site_type_symbol
_atom_site_label
_atom_site_fract_x
_atom_site_fract_y
_atom_site_fract_z
Si Si1 0.421519 0.304117 0.931015
Si Si2 0.885924 0.104884 0.931043
Si Si3 0.210084 0.196787 0.070895
Si Si4 0.762592 0.194185 0.431279
Si Si5 0.206439 0.498709 0.568447
Si Si6 0.912258 0.599408 0.068419
Si Si7 0.406954 0.521165 0.926342
Si Si8 0.586378 0.141384 0.927893
O O1 0.432389 0.303680 0.750000
O O2 0.315540 0.314608 0.983932
O O3 0.457660 0.250000 0.000000
O O4 0.484031 0.349336 0.003027
O O5 0.873886 0.111278 0.750000
O O6 0.837052 0.052454 0.992191
O O7 0.840610 0.154035 0.013020
O O8 0.993253 0.101159 0.975112
O O9 0.208053 0.203864 0.250000
O O10 0.145645 0.149748 0.017937
O O11 0.171095 0.250000 0.000000
O O12 0.788130 0.250000 0.500000
O O13 0.764241 0.197571 0.250000
O O14 0.660525 0.177078 0.485758
O O15 0.207284 0.499677 0.750000
O O16 0.145237 0.450595 0.510034
O O17 0.313524 0.492892 0.509414
O O18 0.930543 0.597653 0.250000
O O19 0.418833 0.509112 0.750000
O O20 0.390059 0.581693 0.957238
O O21 0.500000 0.500000 0.000000
O O22 0.588931 0.155659 0.750000
#
# Coordination Sequence:
#
# PCOD8232803 Si02
#       8
#     8   8   8   8   8   8   8   8
#     4  10  20  35  56  84 114 153 198 240 290 350
#     4  11  22  41  63  89 123 158 197 249 311 364
#     4   9  20  37  58  83 117 155 195 245 297 352
#     4  12  25  42  65  92 122 161 207 254 305 369
#     4   9  19  39  64  86 120 160 197 248 305 357
#     4  10  21  38  62  90 116 155 206 252 304 364
#     4  10  22  39  60  88 123 162 198 245 302 358
#     4  11  22  39  60  86 123 160 197 247 303 359
#
# _framework density 19.819464
#
# number of rings (size 3 to 8) (size 9 to 14) (size 15 to 20)
#    0.000    1.750    1.250    3.000    1.750    2.500 
#    0.000    2.500    0.000    0.000    0.000    0.000 
#    0.000    0.000    0.000    0.000    0.000    0.000 
#
# Total GULP energy -793759.675321 kJ/mol
# GULP energy per Si atom -12402.494927 kJ/mol
# Density = 1.977435 g / cm^3
# Si number density = 19.819464 Si / 1000 Ang^3
#
#
#
# Elastic Constant Matrix: (Units=GPa)
#
#
# Indices 1 2 3 4 5 6 
#
# 1 143.7293 75.8500 38.5399 0.0000 0.0000 0.0000
# 2 75.8500 127.0491 53.0523 0.0000 0.0000 0.0000
# 3 38.5399 53.0523 76.0988 0.0000 0.0000 0.0000
# 4 0.0000 0.0000 0.0000 28.2853 0.0000 0.0000
# 5 0.0000 0.0000 0.0000 0.0000 35.1033 0.0000
# 6 0.0000 0.0000 0.0000 0.0000 0.0000 34.8488
#
#
#
# Elastic Compliance Matrix: (Units=1/GPa)
#
#
# Indices 1 2 3 4 5 6 
#
# 1 0.010249 -0.005574 -0.001305 0.000000 0.000000 0.000000
# 2 -0.005574 0.014135 -0.007031 0.000000 0.000000 0.000000
# 3 -0.001305 -0.007031 0.018703 0.000000 0.000000 0.000000
# 4 0.000000 0.000000 0.000000 0.035354 0.000000 0.000000
# 5 0.000000 0.000000 0.000000 0.000000 0.028487 0.000000
# 6 0.000000 0.000000 0.000000 0.000000 0.000000 0.028695
#
#
# Mechanical properties :
#
#
# Convention : Reuss Voigt Hill
#
# Bulk Modulus (GPa) = 65.49863 75.75128 70.62495
# Shear Modulus (GPa) = 29.66795 31.60983 30.63889
#
# Velocity S-wave (km/s) = 3.87319 3.99794 3.93606
# Velocity P-wave (km/s) = 7.28845 7.72107 7.50788
#
# Compressibility (1/GPa) = 0.01526750
#
# Stress axis : x y z
#
# Youngs Moduli (GPa) = 97.57171 70.74797 53.46660
#
# Poissons Ratio (x) = 0.39434 0.06975
# Poissons Ratio (y) = 0.54386 0.37593
# Poissons Ratio (z) = 0.12730 0.49744
#
# Static dielectric constant tensor:
#      x y z
#    x 3.740550 0.000000 0.000000 
#    y 0.000000 3.774640 0.000000 
#    z 0.000000 0.000000 3.474150 
# 
# 
# High freq. dielectric constant tensor:
#      x y z
#    x 1.785710 0.000000 0.000000 
#    y 0.000000 1.781130 0.000000 
#    z 0.000000 0.000000 1.760920 
# 
# From -- ./inp_files/5614.got.cif
#   From: 2010.03.12/outbox.cif.g09.slc.cpg/sg57_3_cif.got.tgz:5614.got - 2010.04.16 15:48:40.
