data_PCOD8232172
_publ_section_title
;
Structure prediction by ZEFSAII (Michael W. Deem and Ramdas Pophale) SiO2 
 PCOD8232172
Probable space group: P B C M
;
_chemical_formula_sum "Si O2"
_cell_formula_units_Z 56
_cell_length_a 17.521314
_cell_length_b 21.714207
_cell_length_c 9.353282
_cell_angle_alpha 90.000000
_cell_angle_beta 90.000000
_cell_angle_gamma 90.000000
_cell_volume 3558.563130
_symmetry_space_group_name_H-M "P B C M"
_symmetry_group_IT_number 57
_symmetry_cell_setting 'orthorhombic'
loop_
_space_group_symop_operation_xyz
x,y,z
-x,-y,1/2+z
x,1/2-y,-z
-x,1/2+y,1/2-z
-x,-y,-z
x,y,1/2-z
-x,1/2+y,z
x,1/2-y,1/2+z
loop_
_atom_site_type_symbol
_atom_site_label
_atom_site_fract_x
_atom_site_fract_y
_atom_site_fract_z
Si Si1 0.552583 0.083523 0.088086
Si Si2 0.902125 0.954791 0.584123
Si Si3 0.160473 0.686724 0.918071
Si Si4 0.588525 0.939673 0.088246
Si Si5 0.696065 0.105673 0.914943
Si Si6 0.962435 0.412309 0.417171
Si Si7 0.730373 0.535010 0.414305
O O1 0.543780 0.107914 0.250000
O O2 0.568444 0.011249 0.086911
O O3 0.475248 0.097633 0.000652
O O4 0.622186 0.118922 0.012023
O O5 0.918955 0.944670 0.750000
O O6 0.814296 0.939870 0.547527
O O7 0.956195 0.908294 0.496857
O O8 0.919187 0.025056 0.539637
O O9 0.157383 0.698912 0.750000
O O10 0.239669 0.654215 0.960243
O O11 0.090133 0.644102 0.967040
O O12 0.153159 0.750000 0.000000
O O13 0.591279 0.914279 0.250000
O O14 0.670405 0.929288 0.014103
O O15 0.672007 0.113200 0.750000
O O16 0.729400 0.037912 0.942467
O O17 0.978608 0.409586 0.250000
O O18 0.708993 0.548603 0.250000
#
# Coordination Sequence:
#
# PCOD8232172 Si02
#       7
#     8   8   8   8   8   8   8
#     4   9  16  25  37  55  79 108 142 175 205 243
#     4   9  16  27  44  64  85 112 145 180 219 268
#     4  10  20  33  47  63  86 116 150 187 226 265
#     4   9  16  24  35  55  82 111 141 170 204 245
#     4   9  16  28  43  57  79 112 145 177 217 258
#     4   9  17  30  44  61  85 113 144 180 225 268
#     4   9  15  25  41  59  83 113 143 175 213 258
#
# _framework density 15.736689
#
# number of rings (size 3 to 8) (size 9 to 14) (size 15 to 20)
#    0.000    2.857    1.429    0.857    0.000    5.143 
#    0.000    0.000    0.000    0.000    0.000    0.000 
#    0.000    1.143    0.000    5.714    0.000    5.857 
#
# Total GULP energy -694329.837331 kJ/mol
# GULP energy per Si atom -12398.747095 kJ/mol
# Density = 1.570087 g / cm^3
# Si number density = 15.736689 Si / 1000 Ang^3
#
#
#
# Elastic Constant Matrix: (Units=GPa)
#
#
# Indices 1 2 3 4 5 6 
#
# 1 147.9260 45.4929 79.3432 0.0000 0.0000 0.0000
# 2 45.4929 49.0191 32.9020 0.0000 0.0000 0.0000
# 3 79.3432 32.9020 93.2593 0.0000 0.0000 0.0000
# 4 0.0000 0.0000 0.0000 18.2188 0.0000 0.0000
# 5 0.0000 0.0000 0.0000 0.0000 34.4674 0.0000
# 6 0.0000 0.0000 0.0000 0.0000 0.0000 14.2133
#
#
#
# Elastic Compliance Matrix: (Units=1/GPa)
#
#
# Indices 1 2 3 4 5 6 
#
# 1 0.013844 -0.006476 -0.009493 0.000000 0.000000 0.000000
# 2 -0.006476 0.029759 -0.004990 0.000000 0.000000 0.000000
# 3 -0.009493 -0.004990 0.020560 0.000000 0.000000 0.000000
# 4 0.000000 0.000000 0.000000 0.054888 0.000000 0.000000
# 5 0.000000 0.000000 0.000000 0.000000 0.029013 0.000000
# 6 0.000000 0.000000 0.000000 0.000000 0.000000 0.070357
#
#
# Mechanical properties :
#
#
# Convention : Reuss Voigt Hill
#
# Bulk Modulus (GPa) = 44.95314 67.29784 56.12549
# Shear Modulus (GPa) = 18.67394 22.21099 20.44246
#
# Velocity S-wave (km/s) = 3.44852 3.76096 3.60812
# Velocity P-wave (km/s) = 6.66965 7.85605 7.28703
#
# Compressibility (1/GPa) = 0.02224539
#
# Stress axis : x y z
#
# Youngs Moduli (GPa) = 72.23590 33.60297 48.63895
#
# Poissons Ratio (x) = 0.21761 0.46173
# Poissons Ratio (y) = 0.46779 0.24269
# Poissons Ratio (z) = 0.68574 0.16766
#
# Static dielectric constant tensor:
#      x y z
#    x 3.189530 0.000000 0.000000 
#    y 0.000000 2.462410 0.000000 
#    z 0.000000 0.000000 3.062170 
# 
# 
# High freq. dielectric constant tensor:
#      x y z
#    x 1.616590 0.000000 0.000000 
#    y 0.000000 1.533930 0.000000 
#    z 0.000000 0.000000 1.609240 
# 
# From -- ./inp_files/7012.got.cif
#   From: 2010.03.12/outbox.cif.g09.slc.cpg/sg57_4_cif.got.tgz:7012.got - 2010.04.16 15:48:40.
