data_PCOD8232287
_publ_section_title
;
Structure prediction by ZEFSAII (Michael W. Deem and Ramdas Pophale) SiO2 
 PCOD8232287
Probable space group: P B C M
;
_chemical_formula_sum "Si O2"
_cell_formula_units_Z 48
_cell_length_a 19.595143
_cell_length_b 5.162302
_cell_length_c 24.197772
_cell_angle_alpha 90.000000
_cell_angle_beta 90.000000
_cell_angle_gamma 90.000000
_cell_volume 2447.750935
_symmetry_space_group_name_H-M "P B C M"
_symmetry_group_IT_number 57
_symmetry_cell_setting 'orthorhombic'
loop_
_space_group_symop_operation_xyz
x,y,z
-x,-y,1/2+z
x,1/2-y,-z
-x,1/2+y,1/2-z
-x,-y,-z
x,y,1/2-z
-x,1/2+y,z
x,1/2-y,1/2+z
loop_
_atom_site_type_symbol
_atom_site_label
_atom_site_fract_x
_atom_site_fract_y
_atom_site_fract_z
Si Si1 0.179175 0.844618 0.880806
Si Si2 0.220209 0.156006 0.062374
Si Si3 0.042668 0.673683 0.314236
Si Si4 0.575915 0.996542 0.975305
Si Si5 0.317563 0.638311 0.185821
Si Si6 0.358117 0.131888 0.370789
O O1 0.186112 0.626263 0.928754
O O2 0.111249 0.782241 0.847774
O O3 0.241823 0.844739 0.838155
O O4 0.174620 0.129697 0.906617
O O5 0.295207 0.130486 0.087310
O O6 0.224792 0.250000 0.000000
O O7 0.061827 0.687573 0.250000
O O8 0.010022 0.399387 0.330159
O O9 0.577234 0.959510 0.908707
O O10 0.615781 0.750000 0.000000
O O11 0.614314 0.250000 0.000000
O O12 0.500000 0.000000 0.000000
O O13 0.313208 0.571914 0.250000
O O14 0.363720 0.415453 0.156533
O O15 0.352553 0.917057 0.177111
#
# Coordination Sequence:
#
# PCOD8232287 Si02
#       6
#     8   8   8   8   8   8
#     4  10  20  34  53  76 105 138 173 218 267 325
#     4  10  20  33  52  76 105 139 172 214 269 320
#     4  10  20  34  54  77 100 131 173 222 270 313
#     4  10  20  34  54  82 110 139 173 219 266 307
#     4  10  20  34  53  80 111 143 175 214 269 327
#     4  10  20  33  53  81 110 140 177 218 265 317
#
# _framework density 19.609839000000001
#
# number of rings (size 3 to 8) (size 9 to 14) (size 15 to 20)
#    0.000    2.000    0.000    4.000    0.000    2.667 
#    0.000    5.000    0.000   10.000    0.000   46.667 
#    0.000    0.000    0.000    0.000    0.000    0.000 
#
# Total GULP energy -594879.393167 kJ/mol
# GULP energy per Si atom -12393.320691 kJ/mol
# Density = 1.956521 g / cm^3
# Si number density = 19.609839 Si / 1000 Ang^3
#
#
#
# Elastic Constant Matrix: (Units=GPa)
#
#
# Indices 1 2 3 4 5 6 
#
# 1 50.1700 22.2822 30.9762 0.0000 0.0000 0.0000
# 2 22.2822 139.7441 41.7876 0.0000 0.0000 0.0000
# 3 30.9762 41.7876 110.4591 0.0000 0.0000 0.0000
# 4 0.0000 0.0000 0.0000 34.0419 0.0000 0.0000
# 5 0.0000 0.0000 0.0000 0.0000 28.4593 0.0000
# 6 0.0000 0.0000 0.0000 0.0000 0.0000 9.4636
#
#
#
# Elastic Compliance Matrix: (Units=1/GPa)
#
#
# Indices 1 2 3 4 5 6 
#
# 1 0.024641 -0.002100 -0.006116 0.000000 0.000000 0.000000
# 2 -0.002100 0.008248 -0.002531 0.000000 0.000000 0.000000
# 3 -0.006116 -0.002531 0.011726 0.000000 0.000000 0.000000
# 4 0.000000 0.000000 0.000000 0.029376 0.000000 0.000000
# 5 0.000000 0.000000 0.000000 0.000000 0.035138 0.000000
# 6 0.000000 0.000000 0.000000 0.000000 0.000000 0.105667
#
#
# Mechanical properties :
#
#
# Convention : Reuss Voigt Hill
#
# Bulk Modulus (GPa) = 43.25201 54.49612 48.87407
# Shear Modulus (GPa) = 20.49214 28.08145 24.28679
#
# Velocity S-wave (km/s) = 3.23614 3.78829 3.52305
# Velocity P-wave (km/s) = 6.00563 6.85459 6.44411
#
# Compressibility (1/GPa) = 0.02312031
#
# Stress axis : x y z
#
# Youngs Moduli (GPa) = 40.58293 121.24546 85.28289
#
# Poissons Ratio (x) = 0.25465 0.52155
# Poissons Ratio (y) = 0.08524 0.21587
# Poissons Ratio (z) = 0.24819 0.30690
#
# Static dielectric constant tensor:
#      x y z
#    x 3.211430 0.000000 0.000000 
#    y 0.000000 1.038270 0.000000 
#    z 0.000000 0.000000 3.478270 
# 
# 
# High freq. dielectric constant tensor:
#      x y z
#    x 1.729050 0.000000 0.000000 
#    y 0.000000 1.795530 0.000000 
#    z 0.000000 0.000000 1.756890 
# 
# From -- ./inp_files/25701.got.cif
#   From: 2010.03.12/outbox.cif.g09.slc.cpg/sg57_13_cif.got.tgz:25701.got - 2010.04.16 15:48:40.
