data_PCOD8232950
_publ_section_title
;
Structure prediction by ZEFSAII (Michael W. Deem and Ramdas Pophale) SiO2 
 PCOD8232950
Probable space group: P B C M
;
_chemical_formula_sum "Si O2"
_cell_formula_units_Z 56
_cell_length_a 14.849234
_cell_length_b 22.424242
_cell_length_c 8.957044
_cell_angle_alpha 90.000000
_cell_angle_beta 90.000000
_cell_angle_gamma 90.000000
_cell_volume 2982.541741
_symmetry_space_group_name_H-M "P B C M"
_symmetry_group_IT_number 57
_symmetry_cell_setting 'orthorhombic'
loop_
_space_group_symop_operation_xyz
x,y,z
-x,-y,1/2+z
x,1/2-y,-z
-x,1/2+y,1/2-z
-x,-y,-z
x,y,1/2-z
-x,1/2+y,z
x,1/2-y,1/2+z
loop_
_atom_site_type_symbol
_atom_site_label
_atom_site_fract_x
_atom_site_fract_y
_atom_site_fract_z
Si Si1 0.100265 0.444891 0.925017
Si Si2 0.706031 0.587343 0.425989
Si Si3 0.080919 0.918282 0.074927
Si Si4 0.422388 0.189674 0.426042
Si Si5 0.809952 0.311578 0.576214
Si Si6 0.408951 0.520963 0.925593
Si Si7 0.384794 0.642480 0.078244
O O1 0.078631 0.438019 0.750000
O O2 0.189752 0.408916 0.974109
O O3 0.114946 0.514902 0.963332
O O4 0.021665 0.413969 0.018993
O O5 0.698069 0.591581 0.250000
O O6 0.644267 0.639595 0.494432
O O7 0.668370 0.523976 0.479149
O O8 0.085130 0.905058 0.250000
O O9 0.141385 0.869075 0.993293
O O10 0.389302 0.250000 0.500000
O O11 0.412689 0.194951 0.250000
O O12 0.525614 0.177287 0.472320
O O13 0.842645 0.250000 0.500000
O O14 0.835008 0.308705 0.750000
O O15 0.702512 0.316745 0.552068
O O16 0.423747 0.520459 0.750000
O O17 0.500000 0.500000 0.000000
O O18 0.375237 0.585025 0.975894
O O19 0.393494 0.622173 0.250000
#
# Coordination Sequence:
#
# PCOD8232950 Si02
#       7
#     8   8   8   8   8   8   8
#     4   9  18  35  60  85 108 144 186 226 282 341
#     4   9  18  34  55  77 108 144 178 224 274 322
#     4  10  20  36  58  85 115 143 181 231 283 343
#     4  10  20  36  53  72 104 142 183 223 264 315
#     4  11  23  38  58  83 115 152 191 236 283 337
#     4  11  20  33  54  81 113 147 184 226 277 330
#     4  10  21  37  55  79 112 146 183 229 277 327
#
# _framework density 18.775929999999999
#
# number of rings (size 3 to 8) (size 9 to 14) (size 15 to 20)
#    0.000    2.000    1.429    2.571    0.000    3.429 
#    0.000    2.857    0.000    1.714    0.000    0.000 
#    0.000    0.000    0.000    0.000    0.000    0.000 
#
# Total GULP energy -694371.872168 kJ/mol
# GULP energy per Si atom -12399.497717 kJ/mol
# Density = 1.873320 g / cm^3
# Si number density = 18.775930 Si / 1000 Ang^3
#
#
#
# Elastic Constant Matrix: (Units=GPa)
#
#
# Indices 1 2 3 4 5 6 
#
# 1 116.4495 44.3333 38.0816 0.0000 0.0000 0.0000
# 2 44.3333 99.2232 41.1722 0.0000 0.0000 0.0000
# 3 38.0816 41.1722 68.3256 0.0000 0.0000 0.0000
# 4 0.0000 0.0000 0.0000 33.8140 0.0000 0.0000
# 5 0.0000 0.0000 0.0000 0.0000 24.2664 0.0000
# 6 0.0000 0.0000 0.0000 0.0000 0.0000 24.1656
#
#
#
# Elastic Compliance Matrix: (Units=1/GPa)
#
#
# Indices 1 2 3 4 5 6 
#
# 1 0.011226 -0.003226 -0.004313 0.000000 0.000000 0.000000
# 2 -0.003226 0.014366 -0.006858 0.000000 0.000000 0.000000
# 3 -0.004313 -0.006858 0.021172 0.000000 0.000000 0.000000
# 4 0.000000 0.000000 0.000000 0.029574 0.000000 0.000000
# 5 0.000000 0.000000 0.000000 0.000000 0.041209 0.000000
# 6 0.000000 0.000000 0.000000 0.000000 0.000000 0.041381
#
#
# Mechanical properties :
#
#
# Convention : Reuss Voigt Hill
#
# Bulk Modulus (GPa) = 55.65091 59.01915 57.33503
# Shear Modulus (GPa) = 25.81144 27.14329 26.47737
#
# Velocity S-wave (km/s) = 3.71173 3.80629 3.75931
# Velocity P-wave (km/s) = 6.93348 7.12873 7.03178
#
# Compressibility (1/GPa) = 0.01796916
#
# Stress axis : x y z
#
# Youngs Moduli (GPa) = 89.07846 69.61043 47.23140
#
# Poissons Ratio (x) = 0.22458 0.20370
# Poissons Ratio (y) = 0.28739 0.32393
# Poissons Ratio (z) = 0.38418 0.47742
#
# Static dielectric constant tensor:
#      x y z
#    x 3.512880 0.000000 0.000000 
#    y 0.000000 3.465270 0.000000 
#    z 0.000000 0.000000 3.291460 
# 
# 
# High freq. dielectric constant tensor:
#      x y z
#    x 1.733760 0.000000 0.000000 
#    y 0.000000 1.725440 0.000000 
#    z 0.000000 0.000000 1.718880 
# 
# From -- ./inp_files/5124.got.cif
#   From: 2010.03.12/outbox.cif.g09.slc.cpg/sg57_3_cif.got.tgz:5124.got - 2010.04.16 15:48:40.
