data_PCOD8232907
_publ_section_title
;
Structure prediction by ZEFSAII (Michael W. Deem and Ramdas Pophale) SiO2 
 PCOD8232907
Probable space group: P B C M
;
_chemical_formula_sum "Si O2"
_cell_formula_units_Z 56
_cell_length_a 21.055452
_cell_length_b 14.896672
_cell_length_c 8.638323
_cell_angle_alpha 90.000000
_cell_angle_beta 90.000000
_cell_angle_gamma 90.000000
_cell_volume 2709.463241
_symmetry_space_group_name_H-M "P B C M"
_symmetry_group_IT_number 57
_symmetry_cell_setting 'orthorhombic'
loop_
_space_group_symop_operation_xyz
x,y,z
-x,-y,1/2+z
x,1/2-y,-z
-x,1/2+y,1/2-z
-x,-y,-z
x,y,1/2-z
-x,1/2+y,z
x,1/2-y,1/2+z
loop_
_atom_site_type_symbol
_atom_site_label
_atom_site_fract_x
_atom_site_fract_y
_atom_site_fract_z
Si Si1 0.690043 0.659981 0.929533
Si Si2 0.432368 0.393622 0.573822
Si Si3 0.572373 0.083434 0.428730
Si Si4 0.989322 0.350882 0.067723
Si Si5 0.090905 0.002639 0.569207
Si Si6 0.774942 0.988936 0.572200
Si Si7 0.305853 0.661206 0.928927
O O1 0.705780 0.653260 0.750000
O O2 0.720492 0.750000 0.000000
O O3 0.614076 0.660593 0.959395
O O4 0.719758 0.577261 0.019626
O O5 0.410864 0.374929 0.750000
O O6 0.505471 0.364340 0.546261
O O7 0.425317 0.499153 0.542486
O O8 0.578410 0.051912 0.250000
O O9 0.630052 0.147322 0.473054
O O10 0.986754 0.339285 0.250000
O O11 0.050044 0.410564 0.013909
O O12 0.991194 0.250000 0.000000
O O13 0.928369 0.409193 0.014149
O O14 0.081261 0.987365 0.750000
O O15 0.163271 0.025599 0.531483
O O16 0.792793 0.971470 0.750000
O O17 0.747570 0.087213 0.544770
O O18 0.324079 0.671010 0.750000
O O19 0.274096 0.750000 0.000000
#
# Coordination Sequence:
#
# PCOD8232907 Si02
#       7
#     8   8   8   8   8   8   8
#     4  12  25  41  63  88 118 159 205 255 311 370
#     4  10  20  36  58  86 117 151 196 249 309 373
#     4  10  20  35  59  86 115 153 196 248 310 373
#     4  10  21  39  65  97 131 166 205 251 300 351
#     4  10  22  40  64  94 128 168 209 249 299 358
#     4  11  24  43  64  89 125 165 206 255 304 360
#     4  11  24  40  61  86 118 157 203 255 308 368
#
# _framework density 20.668301
#
# number of rings (size 3 to 8) (size 9 to 14) (size 15 to 20)
#    0.000    1.429    1.429    3.857    0.000    6.857 
#    0.000    2.857    0.000    0.000    0.000    0.000 
#    0.000    0.000    0.000    0.000    0.000    0.000 
#
# Total GULP energy -694513.071122 kJ/mol
# GULP energy per Si atom -12402.019127 kJ/mol
# Density = 2.062126 g / cm^3
# Si number density = 20.668301 Si / 1000 Ang^3
#
#
#
# Elastic Constant Matrix: (Units=GPa)
#
#
# Indices 1 2 3 4 5 6 
#
# 1 83.2285 13.6946 29.7824 0.0000 0.0000 0.0000
# 2 13.6946 99.2224 47.0394 0.0000 0.0000 0.0000
# 3 29.7824 47.0394 70.3176 0.0000 0.0000 0.0000
# 4 0.0000 0.0000 0.0000 35.6058 0.0000 0.0000
# 5 0.0000 0.0000 0.0000 0.0000 30.5169 0.0000
# 6 0.0000 0.0000 0.0000 0.0000 0.0000 9.4868
#
#
#
# Elastic Compliance Matrix: (Units=1/GPa)
#
#
# Indices 1 2 3 4 5 6 
#
# 1 0.014277 0.001312 -0.006925 0.000000 0.000000 0.000000
# 2 0.001312 0.014880 -0.010510 0.000000 0.000000 0.000000
# 3 -0.006925 -0.010510 0.024185 0.000000 0.000000 0.000000
# 4 0.000000 0.000000 0.000000 0.028085 0.000000 0.000000
# 5 0.000000 0.000000 0.000000 0.000000 0.032769 0.000000
# 6 0.000000 0.000000 0.000000 0.000000 0.000000 0.105410
#
#
# Mechanical properties :
#
#
# Convention : Reuss Voigt Hill
#
# Bulk Modulus (GPa) = 47.39976 48.20014 47.79995
# Shear Modulus (GPa) = 19.31382 25.93869 22.62626
#
# Velocity S-wave (km/s) = 3.06022 3.54644 3.31226
# Velocity P-wave (km/s) = 5.95566 6.33570 6.14862
#
# Compressibility (1/GPa) = 0.02109715
#
# Stress axis : x y z
#
# Youngs Moduli (GPa) = 70.04185 67.20575 41.34841
#
# Poissons Ratio (x) = -0.08820 0.28634
# Poissons Ratio (y) = -0.09193 0.43456
# Poissons Ratio (z) = 0.48504 0.70631
#
# Static dielectric constant tensor:
#      x y z
#    x 3.673710 0.000000 0.000000 
#    y 0.000000 3.710790 0.000000 
#    z 0.000000 0.000000 3.749630 
# 
# 
# High freq. dielectric constant tensor:
#      x y z
#    x 1.802330 0.000000 0.000000 
#    y 0.000000 1.808180 0.000000 
#    z 0.000000 0.000000 1.820280 
# 
# From -- ./inp_files/8061.got.cif
#   From: 2010.03.12/outbox.cif.g09.slc.cpg/sg57_5_cif.got.tgz:8061.got - 2010.04.16 15:48:40.
