data_PCOD8232846
_publ_section_title
;
Structure prediction by ZEFSAII (Michael W. Deem and Ramdas Pophale) SiO2 
 PCOD8232846
Probable space group: P B C M
;
_chemical_formula_sum "Si O2"
_cell_formula_units_Z 64
_cell_length_a 21.074794
_cell_length_b 18.612567
_cell_length_c 8.728764
_cell_angle_alpha 90.000000
_cell_angle_beta 90.000000
_cell_angle_gamma 90.000000
_cell_volume 3423.910185
_symmetry_space_group_name_H-M "P B C M"
_symmetry_group_IT_number 57
_symmetry_cell_setting 'orthorhombic'
loop_
_space_group_symop_operation_xyz
x,y,z
-x,-y,1/2+z
x,1/2-y,-z
-x,1/2+y,1/2-z
-x,-y,-z
x,y,1/2-z
-x,1/2+y,z
x,1/2-y,1/2+z
loop_
_atom_site_type_symbol
_atom_site_label
_atom_site_fract_x
_atom_site_fract_y
_atom_site_fract_z
Si Si1 0.127370 0.824908 0.431153
Si Si2 0.937478 0.468242 0.072156
Si Si3 0.502454 0.077763 0.569440
Si Si4 0.608986 0.676152 0.570138
Si Si5 0.749532 0.104517 0.067695
Si Si6 0.194445 0.033169 0.431689
Si Si7 0.247132 0.174119 0.568389
Si Si8 0.622785 0.328731 0.432406
O O1 0.102726 0.750000 0.500000
O O2 0.138283 0.819384 0.250000
O O3 0.073971 0.884559 0.470911
O O4 0.193864 0.845458 0.507788
O O5 0.946441 0.477278 0.250000
O O6 0.876603 0.513103 0.016745
O O7 0.000000 0.500000 0.000000
O O8 0.502777 0.071113 0.750000
O O9 0.438143 0.115186 0.509671
O O10 0.563547 0.122511 0.514736
O O11 0.500000 0.000000 0.500000
O O12 0.584770 0.750000 0.500000
O O13 0.605061 0.684684 0.750000
O O14 0.680500 0.658275 0.518365
O O15 0.748160 0.105893 0.250000
O O16 0.684887 0.135619 0.002393
O O17 0.756974 0.022642 0.009807
O O18 0.203546 0.028209 0.250000
O O19 0.204834 0.112987 0.492247
O O20 0.224364 0.250000 0.500000
O O21 0.237994 0.174471 0.750000
O O22 0.612352 0.250000 0.500000
O O23 0.629027 0.323963 0.250000
#
# Coordination Sequence:
#
# PCOD8232846 Si02
#       8
#     8   8   8   8   8   8   8   8
#     4  10  20  36  57  85 117 149 187 232 278 330
#     4   9  20  37  58  83 114 150 187 229 273 325
#     4  10  23  39  55  78 108 142 183 230 279 333
#     4   9  19  36  56  79 105 136 180 228 275 332
#     4  11  22  36  57  84 113 149 186 230 282 335
#     4  10  21  38  58  84 117 149 185 231 279 330
#     4  10  20  35  57  85 113 146 187 234 285 335
#     4  11  23  39  57  81 111 147 186 229 282 337
#
# _framework density 18.692077999999999
#
# number of rings (size 3 to 8) (size 9 to 14) (size 15 to 20)
#    0.000    2.000    0.000    4.125    1.750    5.000 
#    0.000    0.625    0.000    1.500    0.000    0.000 
#    0.000    0.000    0.000    0.000    0.000    0.000 
#
# Total GULP energy -793695.060840 kJ/mol
# GULP energy per Si atom -12401.485326 kJ/mol
# Density = 1.864953 g / cm^3
# Si number density = 18.692078 Si / 1000 Ang^3
#
#
#
# Elastic Constant Matrix: (Units=GPa)
#
#
# Indices 1 2 3 4 5 6 
#
# 1 95.5263 77.5760 40.1013 0.0000 0.0000 0.0000
# 2 77.5760 174.8364 52.5504 0.0000 0.0000 0.0000
# 3 40.1013 52.5504 78.9515 0.0000 0.0000 0.0000
# 4 0.0000 0.0000 0.0000 39.6257 0.0000 0.0000
# 5 0.0000 0.0000 0.0000 0.0000 26.9859 0.0000
# 6 0.0000 0.0000 0.0000 0.0000 0.0000 30.9459
#
#
#
# Elastic Compliance Matrix: (Units=1/GPa)
#
#
# Indices 1 2 3 4 5 6 
#
# 1 0.017654 -0.006423 -0.004692 0.000000 0.000000 0.000000
# 2 -0.006423 0.009487 -0.003052 0.000000 0.000000 0.000000
# 3 -0.004692 -0.003052 0.017081 0.000000 0.000000 0.000000
# 4 0.000000 0.000000 0.000000 0.025236 0.000000 0.000000
# 5 0.000000 0.000000 0.000000 0.000000 0.037056 0.000000
# 6 0.000000 0.000000 0.000000 0.000000 0.000000 0.032314
#
#
# Mechanical properties :
#
#
# Convention : Reuss Voigt Hill
#
# Bulk Modulus (GPa) = 62.94150 76.64108 69.79129
# Shear Modulus (GPa) = 28.99258 31.45059 30.22158
#
# Velocity S-wave (km/s) = 3.94263 4.10636 4.02532
# Velocity P-wave (km/s) = 7.38049 7.97332 7.68262
#
# Compressibility (1/GPa) = 0.01588777
#
# Stress axis : x y z
#
# Youngs Moduli (GPa) = 56.64474 105.40816 58.54613
#
# Poissons Ratio (x) = 0.67703 0.27468
# Poissons Ratio (y) = 0.36383 0.17869
# Poissons Ratio (z) = 0.26576 0.32172
#
# Static dielectric constant tensor:
#      x y z
#    x -14.016350 0.000000 0.000000 
#    y 0.000000 6.835800 0.000000 
#    z 0.000000 0.000000 3.278060 
# 
# 
# High freq. dielectric constant tensor:
#      x y z
#    x 1.718840 0.000000 0.000000 
#    y 0.000000 1.737720 0.000000 
#    z 0.000000 0.000000 1.733400 
# 
# From -- ./inp_files/8536.got.cif
#   From: 2010.03.12/outbox.cif.g09.slc.cpg/sg57_5_cif.got.tgz:8536.got - 2010.04.16 15:48:40.
