data_PCOD8232019
_publ_section_title
;
Structure prediction by ZEFSAII (Michael W. Deem and Ramdas Pophale) SiO2 
 PCOD8232019
Probable space group: P B C M
;
_chemical_formula_sum "Si O2"
_cell_formula_units_Z 44
_cell_length_a 9.695237
_cell_length_b 17.268107
_cell_length_c 13.369826
_cell_angle_alpha 90.000000
_cell_angle_beta 90.000000
_cell_angle_gamma 90.000000
_cell_volume 2238.354742
_symmetry_space_group_name_H-M "P B C M"
_symmetry_group_IT_number 57
_symmetry_cell_setting 'orthorhombic'
loop_
_space_group_symop_operation_xyz
x,y,z
-x,-y,1/2+z
x,1/2-y,-z
-x,1/2+y,1/2-z
-x,-y,-z
x,y,1/2-z
-x,1/2+y,z
x,1/2-y,1/2+z
loop_
_atom_site_type_symbol
_atom_site_label
_atom_site_fract_x
_atom_site_fract_y
_atom_site_fract_z
Si Si1 0.888368 0.644741 0.750000
Si Si2 0.847508 0.260017 0.250000
Si Si3 0.571944 0.655334 0.750000
Si Si4 0.882475 0.976962 0.078388
Si Si5 0.642307 0.489099 0.050603
Si Si6 0.514157 0.981558 0.750000
Si Si7 0.778947 0.416185 0.750000
Si Si8 0.355654 0.687029 0.586274
O O1 0.732780 0.678483 0.750000
O O2 0.918935 0.595754 0.851173
O O3 0.991737 0.716897 0.750000
O O4 0.833868 0.169314 0.250000
O O5 0.776947 0.293289 0.151453
O O6 0.568523 0.562359 0.750000
O O7 0.495949 0.687849 0.651608
O O8 0.841468 0.047384 0.150101
O O9 0.751878 0.958332 0.008104
O O10 0.000000 0.000000 0.000000
O O11 0.623452 0.524321 0.160547
O O12 0.679686 0.398214 0.045167
O O13 0.500000 0.500000 0.000000
O O14 0.390229 0.918430 0.750000
O O15 0.376082 0.750000 0.500000
#
# Coordination Sequence:
#
# PCOD8232019 Si02
#       8
#     4   4   4   8   8   4   4   8
#     4  11  22  43  59  82 127 169 196 249 315 369
#     4  11  24  39  62  84 124 166 201 248 312 374
#     4   9  18  39  62  84 120 168 193 243 323 362
#     4  11  22  37  64  92 124 160 208 254 303 363
#     4  11  20  36  63  94 118 162 211 251 307 364
#     4  10  19  36  65  93 124 154 207 268 301 360
#     4  11  21  41  62  91 121 159 207 260 305 363
#     4  10  21  37  60  92 123 154 205 256 305 365
#
# _framework density 19.657295999999999
#
# number of rings (size 3 to 8) (size 9 to 14) (size 15 to 20)
#    0.000    1.455    3.636    3.818    0.000    1.455 
#    0.000    4.545    0.000    0.000    0.000    0.000 
#    0.000    0.000    0.000    0.000    0.000    0.000 
#
# Total GULP energy -545437.836570 kJ/mol
# GULP energy per Si atom -12396.314468 kJ/mol
# Density = 1.961255 g / cm^3
# Si number density = 19.657296 Si / 1000 Ang^3
#
#
#
# Elastic Constant Matrix: (Units=GPa)
#
#
# Indices 1 2 3 4 5 6 
#
# 1 134.5841 27.8802 53.3727 0.0000 0.0000 0.0000
# 2 27.8802 78.3225 28.5112 0.0000 0.0000 0.0000
# 3 53.3727 28.5112 140.2131 0.0000 0.0000 0.0000
# 4 0.0000 0.0000 0.0000 29.8899 0.0000 0.0000
# 5 0.0000 0.0000 0.0000 0.0000 35.3470 0.0000
# 6 0.0000 0.0000 0.0000 0.0000 0.0000 22.6403
#
#
#
# Elastic Compliance Matrix: (Units=1/GPa)
#
#
# Indices 1 2 3 4 5 6 
#
# 1 0.009069 -0.002129 -0.003019 0.000000 0.000000 0.000000
# 2 -0.002129 0.014288 -0.002095 0.000000 0.000000 0.000000
# 3 -0.003019 -0.002095 0.008707 0.000000 0.000000 0.000000
# 4 0.000000 0.000000 0.000000 0.033456 0.000000 0.000000
# 5 0.000000 0.000000 0.000000 0.000000 0.028291 0.000000
# 6 0.000000 0.000000 0.000000 0.000000 0.000000 0.044169
#
#
# Mechanical properties :
#
#
# Convention : Reuss Voigt Hill
#
# Bulk Modulus (GPa) = 56.88988 63.62754 60.25871
# Shear Modulus (GPa) = 31.58045 33.79914 32.68979
#
# Velocity S-wave (km/s) = 4.01253 4.15109 4.08240
# Velocity P-wave (km/s) = 7.10428 7.44406 7.27616
#
# Compressibility (1/GPa) = 0.01757782
#
# Stress axis : x y z
#
# Youngs Moduli (GPa) = 110.26988 69.98766 114.84723
#
# Poissons Ratio (x) = 0.14901 0.34673
# Poissons Ratio (y) = 0.23478 0.24060
# Poissons Ratio (z) = 0.33291 0.14662
#
# Static dielectric constant tensor:
#      x y z
#    x 3.513910 0.000000 0.000000 
#    y 0.000000 3.319010 0.000000 
#    z 0.000000 0.000000 3.880710 
# 
# 
# High freq. dielectric constant tensor:
#      x y z
#    x 1.766580 0.000000 0.000000 
#    y 0.000000 1.740020 0.000000 
#    z 0.000000 0.000000 1.791030 
# 
# From -- ./inp_files/16287.got.cif
#   From: 2010.03.12/outbox.cif.g09.slc.cpg/sg57_9_cif.got.tgz:16287.got - 2010.04.16 15:48:40.
