data_PCOD8232174
_publ_section_title
;
Structure prediction by ZEFSAII (Michael W. Deem and Ramdas Pophale) SiO2 
 PCOD8232174
Probable space group: P B C M
;
_chemical_formula_sum "Si O2"
_cell_formula_units_Z 64
_cell_length_a 12.054259
_cell_length_b 30.447728
_cell_length_c 8.854168
_cell_angle_alpha 90.000000
_cell_angle_beta 90.000000
_cell_angle_gamma 90.000000
_cell_volume 3249.699233
_symmetry_space_group_name_H-M "P B C M"
_symmetry_group_IT_number 57
_symmetry_cell_setting 'orthorhombic'
loop_
_space_group_symop_operation_xyz
x,y,z
-x,-y,1/2+z
x,1/2-y,-z
-x,1/2+y,1/2-z
-x,-y,-z
x,y,1/2-z
-x,1/2+y,z
x,1/2-y,1/2+z
loop_
_atom_site_type_symbol
_atom_site_label
_atom_site_fract_x
_atom_site_fract_y
_atom_site_fract_z
Si Si1 0.702377 0.205246 0.926556
Si Si2 0.090180 0.381817 0.583977
Si Si3 0.674217 0.431578 0.923998
Si Si4 0.321438 0.110666 0.928880
Si Si5 0.657128 0.981936 0.930966
Si Si6 0.141668 0.623525 0.926192
Si Si7 0.519997 0.152080 0.424402
Si Si8 0.100358 0.016834 0.409989
O O1 0.680841 0.211450 0.750000
O O2 0.793103 0.168193 0.959277
O O3 0.747662 0.250000 0.000000
O O4 0.587026 0.192947 0.007520
O O5 0.096188 0.358307 0.750000
O O6 0.201584 0.373227 0.487656
O O7 0.083167 0.432522 0.616197
O O8 0.979665 0.367881 0.495423
O O9 0.698534 0.442055 0.750000
O O10 0.590846 0.391796 0.945282
O O11 0.604786 0.473614 0.996630
O O12 0.791653 0.418098 0.002490
O O13 0.316841 0.105531 0.750000
O O14 0.407006 0.148142 0.980186
O O15 0.371027 0.065355 0.000030
O O16 0.640863 0.979715 0.750000
O O17 0.782615 0.991879 0.988026
O O18 0.129339 0.613663 0.750000
O O19 0.491872 0.161079 0.250000
O O20 0.100089 0.991965 0.250000
O O21 0.000000 0.000000 0.500000
#
# Coordination Sequence:
#
# PCOD8232174 Si02
#       8
#     8   8   8   8   8   8   8   8
#     4  10  21  38  62  91 118 142 172 212 262 320
#     4  10  20  34  51  73 104 142 181 219 264 316
#     4  10  20  33  51  76 105 141 184 230 280 328
#     4  11  22  36  54  76 105 144 190 233 274 322
#     4  10  20  33  47  67 100 141 185 232 278 321
#     4  10  20  34  54  82 113 143 176 217 267 323
#     4  10  21  38  58  80 109 143 181 225 273 325
#     4   9  18  28  40  61  90 128 173 219 262 305
#
# _framework density 19.694130000000001
#
# number of rings (size 3 to 8) (size 9 to 14) (size 15 to 20)
#    0.000    2.000    0.000    4.875    0.000    8.500 
#    0.000    0.000    0.000    0.750    0.000    3.500 
#    0.000    0.000    0.000    0.000    0.000    0.000 
#
# Total GULP energy -793154.348113 kJ/mol
# GULP energy per Si atom -12393.036689 kJ/mol
# Density = 1.964931 g / cm^3
# Si number density = 19.694130 Si / 1000 Ang^3
#
#
#
# Elastic Constant Matrix: (Units=GPa)
#
#
# Indices 1 2 3 4 5 6 
#
# 1 50.5593 -5.8337 35.8604 0.0000 0.0000 0.0000
# 2 -5.8337 50.5891 25.0022 0.0000 0.0000 0.0000
# 3 35.8604 25.0022 139.2477 0.0000 0.0000 0.0000
# 4 0.0000 0.0000 0.0000 30.0671 0.0000 0.0000
# 5 0.0000 0.0000 0.0000 0.0000 36.2450 0.0000
# 6 0.0000 0.0000 0.0000 0.0000 0.0000 16.5103
#
#
#
# Elastic Compliance Matrix: (Units=1/GPa)
#
#
# Indices 1 2 3 4 5 6 
#
# 1 0.026276 0.006995 -0.008023 0.000000 0.000000 0.000000
# 2 0.006995 0.023554 -0.006031 0.000000 0.000000 0.000000
# 3 -0.008023 -0.006031 0.010330 0.000000 0.000000 0.000000
# 4 0.000000 0.000000 0.000000 0.033259 0.000000 0.000000
# 5 0.000000 0.000000 0.000000 0.000000 0.027590 0.000000
# 6 0.000000 0.000000 0.000000 0.000000 0.000000 0.060568
#
#
# Mechanical properties :
#
#
# Convention : Reuss Voigt Hill
#
# Bulk Modulus (GPa) = 21.71830 38.93932 30.32881
# Shear Modulus (GPa) = 23.69183 28.92229 26.30706
#
# Velocity S-wave (km/s) = 3.47218 3.83636 3.65880
# Velocity P-wave (km/s) = 5.20830 6.28001 5.76909
#
# Compressibility (1/GPa) = 0.04604411
#
# Stress axis : x y z
#
# Youngs Moduli (GPa) = 38.05704 42.45521 96.80162
#
# Poissons Ratio (x) = -0.29698 0.77663
# Poissons Ratio (y) = -0.26622 0.58378
# Poissons Ratio (z) = 0.30533 0.25603
#
# Static dielectric constant tensor:
#      x y z
#    x 3.638910 0.000000 0.000000 
#    y 0.000000 3.412410 0.000000 
#    z 0.000000 0.000000 3.699310 
# 
# 
# High freq. dielectric constant tensor:
#      x y z
#    x 1.771430 0.000000 0.000000 
#    y 0.000000 1.734540 0.000000 
#    z 0.000000 0.000000 1.782480 
# 
# From -- ./inp_files/3752.got.cif
#   From: 2010.03.12/outbox.cif.g09.slc.cpg/sg57_2_cif.got.tgz:3752.got - 2010.04.16 15:48:40.
