data_PCOD8232886
_publ_section_title
;
Structure prediction by ZEFSAII (Michael W. Deem and Ramdas Pophale) SiO2 
 PCOD8232886
Probable space group: P B C M
;
_chemical_formula_sum "Si O2"
_cell_formula_units_Z 48
_cell_length_a 19.080636
_cell_length_b 15.001897
_cell_length_c 8.745440
_cell_angle_alpha 90.000000
_cell_angle_beta 90.000000
_cell_angle_gamma 90.000000
_cell_volume 2503.344909
_symmetry_space_group_name_H-M "P B C M"
_symmetry_group_IT_number 57
_symmetry_cell_setting 'orthorhombic'
loop_
_space_group_symop_operation_xyz
x,y,z
-x,-y,1/2+z
x,1/2-y,-z
-x,1/2+y,1/2-z
-x,-y,-z
x,y,1/2-z
-x,1/2+y,z
x,1/2-y,1/2+z
loop_
_atom_site_type_symbol
_atom_site_label
_atom_site_fract_x
_atom_site_fract_y
_atom_site_fract_z
Si Si1 0.002596 0.903064 0.568887
Si Si2 0.601188 0.490938 0.069276
Si Si3 0.144326 0.660504 0.931357
Si Si4 0.499321 0.650115 0.069377
Si Si5 0.851109 0.840442 0.569652
Si Si6 0.240655 0.500888 0.568379
O O1 0.010024 0.908678 0.750000
O O2 0.066821 0.849752 0.498437
O O3 0.931125 0.854943 0.518206
O O4 0.000000 0.000000 0.500000
O O5 0.597151 0.475941 0.250000
O O6 0.564293 0.584959 0.024414
O O7 0.680272 0.497065 0.006233
O O8 0.568633 0.402675 0.991715
O O9 0.138876 0.663108 0.750000
O O10 0.197041 0.585245 0.990417
O O11 0.177059 0.750000 0.000000
O O12 0.493214 0.662053 0.250000
O O13 0.507392 0.750000 0.000000
O O14 0.822018 0.750000 0.500000
O O15 0.845384 0.838255 0.750000
O O16 0.800208 0.915924 0.501889
O O17 0.241599 0.498639 0.750000
#
# Coordination Sequence:
#
# PCOD8232886 Si02
#       6
#     8   8   8   8   8   8
#     4  11  21  36  58  81 108 144 187 236 286 334
#     4   9  19  37  60  83 111 149 186 227 274 324
#     4  11  22  38  57  80 110 146 188 235 282 336
#     4  10  20  35  58  87 116 146 183 225 271 326
#     4  10  21  37  55  79 108 143 182 226 276 328
#     4   9  19  38  58  78 112 149 182 225 280 330
#
# _framework density 19.174347000000001
#
# number of rings (size 3 to 8) (size 9 to 14) (size 15 to 20)
#    0.000    2.000    1.667    2.000    0.000    4.667 
#    0.000    4.167    0.000    0.000    0.000    0.000 
#    0.000    0.000    0.000    0.000    0.000    0.000 
#
# Total GULP energy -595114.244785 kJ/mol
# GULP energy per Si atom -12398.213433 kJ/mol
# Density = 1.913071 g / cm^3
# Si number density = 19.174347 Si / 1000 Ang^3
#
#
#
# Elastic Constant Matrix: (Units=GPa)
#
#
# Indices 1 2 3 4 5 6 
#
# 1 163.1157 79.9744 34.0330 0.0000 0.0000 0.0000
# 2 79.9744 184.4513 38.6050 0.0000 0.0000 0.0000
# 3 34.0330 38.6050 50.4658 0.0000 0.0000 0.0000
# 4 0.0000 0.0000 0.0000 36.2001 0.0000 0.0000
# 5 0.0000 0.0000 0.0000 0.0000 22.7285 0.0000
# 6 0.0000 0.0000 0.0000 0.0000 0.0000 8.8568
#
#
#
# Elastic Compliance Matrix: (Units=1/GPa)
#
#
# Indices 1 2 3 4 5 6 
#
# 1 0.008238 -0.002868 -0.003361 0.000000 0.000000 0.000000
# 2 -0.002868 0.007454 -0.003767 0.000000 0.000000 0.000000
# 3 -0.003361 -0.003767 0.024964 0.000000 0.000000 0.000000
# 4 0.000000 0.000000 0.000000 0.027624 0.000000 0.000000
# 5 0.000000 0.000000 0.000000 0.000000 0.043998 0.000000
# 6 0.000000 0.000000 0.000000 0.000000 0.000000 0.112907
#
#
# Mechanical properties :
#
#
# Convention : Reuss Voigt Hill
#
# Bulk Modulus (GPa) = 48.39901 78.13976 63.26938
# Shear Modulus (GPa) = 19.83598 29.91843 24.87721
#
# Velocity S-wave (km/s) = 3.21986 3.95439 3.60588
# Velocity P-wave (km/s) = 6.25457 7.85432 7.09965
#
# Compressibility (1/GPa) = 0.02066158
#
# Stress axis : x y z
#
# Youngs Moduli (GPa) = 121.38366 134.16153 40.05719
#
# Poissons Ratio (x) = 0.38483 0.13465
# Poissons Ratio (y) = 0.34818 0.15091
# Poissons Ratio (z) = 0.40803 0.50545
#
# Static dielectric constant tensor:
#      x y z
#    x 3.983130 0.000000 0.000000 
#    y 0.000000 3.807400 0.000000 
#    z 0.000000 0.000000 3.234810 
# 
# 
# High freq. dielectric constant tensor:
#      x y z
#    x 1.745620 0.000000 0.000000 
#    y 0.000000 1.761130 0.000000 
#    z 0.000000 0.000000 1.732310 
# 
# From -- ./inp_files/6469.got.cif
#   From: 2010.03.12/outbox.cif.g09.slc.cpg/sg57_4_cif.got.tgz:6469.got - 2010.04.16 15:48:40.
