data_PCOD8232730
_publ_section_title
;
Structure prediction by ZEFSAII (Michael W. Deem and Ramdas Pophale) SiO2 
 PCOD8232730
Probable space group: P B C M
;
_chemical_formula_sum "Si O2"
_cell_formula_units_Z 40
_cell_length_a 25.344749
_cell_length_b 9.637234
_cell_length_c 8.765139
_cell_angle_alpha 90.000000
_cell_angle_beta 90.000000
_cell_angle_gamma 90.000000
_cell_volume 2140.913922
_symmetry_space_group_name_H-M "P B C M"
_symmetry_group_IT_number 57
_symmetry_cell_setting 'orthorhombic'
loop_
_space_group_symop_operation_xyz
x,y,z
-x,-y,1/2+z
x,1/2-y,-z
-x,1/2+y,1/2-z
-x,-y,-z
x,y,1/2-z
-x,1/2+y,z
x,1/2-y,1/2+z
loop_
_atom_site_type_symbol
_atom_site_label
_atom_site_fract_x
_atom_site_fract_y
_atom_site_fract_z
Si Si1 0.749261 0.602736 0.068615
Si Si2 0.659972 0.395847 0.071108
Si Si3 0.859563 0.602751 0.928967
Si Si4 0.044482 0.596624 0.071162
Si Si5 0.458426 0.602575 0.929625
O O1 0.752595 0.610146 0.250000
O O2 0.702707 0.504060 0.009434
O O3 0.734701 0.750000 0.000000
O O4 0.805132 0.550929 0.003462
O O5 0.664412 0.378757 0.250000
O O6 0.600959 0.444473 0.025144
O O7 0.674697 0.250000 0.000000
O O8 0.851707 0.627470 0.750000
O O9 0.900625 0.480438 0.963302
O O10 0.878347 0.750000 0.000000
O O11 0.033759 0.611946 0.250000
O O12 0.044788 0.750000 0.000000
O O13 0.000000 0.500000 0.000000
O O14 0.465933 0.609765 0.750000
O O15 0.471279 0.750000 0.000000
O O16 0.500000 0.500000 0.000000
#
# Coordination Sequence:
#
# PCOD8232730 Si02
#       5
#     8   8   8   8   8
#     4  10  20  35  55  80 108 141 179 220 265 317
#     4   9  20  36  54  77 106 139 177 219 266 318
#     4  10  21  37  57  82 110 143 180 222 269 318
#     4  11  24  40  60  85 114 147 185 226 272 323
#     4  10  20  36  55  78 107 140 179 223 271 324
#
# _framework density 18.683610000000002
#
# number of rings (size 3 to 8) (size 9 to 14) (size 15 to 20)
#    0.000    2.000    0.000    4.200    0.000    8.800 
#    0.000    6.000    0.000    0.000    0.000    0.000 
#    0.000    0.000    0.000    0.000    0.000    0.000 
#
# Total GULP energy -496005.744762 kJ/mol
# GULP energy per Si atom -12400.143619 kJ/mol
# Density = 1.864109 g / cm^3
# Si number density = 18.683610 Si / 1000 Ang^3
#
#
#
# Elastic Constant Matrix: (Units=GPa)
#
#
# Indices 1 2 3 4 5 6 
#
# 1 157.5421 120.7068 71.2278 0.0000 0.0000 0.0000
# 2 120.7068 152.2659 72.0888 0.0000 0.0000 0.0000
# 3 71.2278 72.0888 96.2449 0.0000 0.0000 0.0000
# 4 0.0000 0.0000 0.0000 36.2789 0.0000 0.0000
# 5 0.0000 0.0000 0.0000 0.0000 25.6205 0.0000
# 6 0.0000 0.0000 0.0000 0.0000 0.0000 45.8684
#
#
#
# Elastic Compliance Matrix: (Units=1/GPa)
#
#
# Indices 1 2 3 4 5 6 
#
# 1 0.017047 -0.011684 -0.003864 0.000000 0.000000 0.000000
# 2 -0.011684 0.018185 -0.004973 0.000000 0.000000 0.000000
# 3 -0.003864 -0.004973 0.016975 0.000000 0.000000 0.000000
# 4 0.000000 0.000000 0.000000 0.027564 0.000000 0.000000
# 5 0.000000 0.000000 0.000000 0.000000 0.039031 0.000000
# 6 0.000000 0.000000 0.000000 0.000000 0.000000 0.021801
#
#
# Mechanical properties :
#
#
# Convention : Reuss Voigt Hill
#
# Bulk Modulus (GPa) = 89.58240 103.78885 96.68562
# Shear Modulus (GPa) = 26.97334 31.02220 28.99777
#
# Velocity S-wave (km/s) = 3.80371 4.07922 3.94387
# Velocity P-wave (km/s) = 8.20623 8.82372 8.52057
#
# Compressibility (1/GPa) = 0.01116291
#
# Stress axis : x y z
#
# Youngs Moduli (GPa) = 58.66157 54.99155 58.90992
#
# Poissons Ratio (x) = 0.64254 0.22764
# Poissons Ratio (y) = 0.68542 0.29298
# Poissons Ratio (z) = 0.22668 0.27349
#
# Static dielectric constant tensor:
#      x y z
#    x 3.774310 0.000000 0.000000 
#    y 0.000000 2.867850 0.000000 
#    z 0.000000 0.000000 3.566120 
# 
# 
# High freq. dielectric constant tensor:
#      x y z
#    x 1.738810 0.000000 0.000000 
#    y 0.000000 1.725830 0.000000 
#    z 0.000000 0.000000 1.739400 
# 
# From -- ./inp_files/8885.got.cif
#   From: 2010.03.12/outbox.cif.g09.slc.cpg/sg57_5_cif.got.tgz:8885.got - 2010.04.16 15:48:40.
