data_PCOD8232539
_publ_section_title
;
Structure prediction by ZEFSAII (Michael W. Deem and Ramdas Pophale) SiO2 
 PCOD8232539
Probable space group: P B C M
;
_chemical_formula_sum "Si O2"
_cell_formula_units_Z 32
_cell_length_a 10.373213
_cell_length_b 18.591255
_cell_length_c 8.793365
_cell_angle_alpha 90.000000
_cell_angle_beta 90.000000
_cell_angle_gamma 90.000000
_cell_volume 1695.809656
_symmetry_space_group_name_H-M "P B C M"
_symmetry_group_IT_number 57
_symmetry_cell_setting 'orthorhombic'
loop_
_space_group_symop_operation_xyz
x,y,z
-x,-y,1/2+z
x,1/2-y,-z
-x,1/2+y,1/2-z
-x,-y,-z
x,y,1/2-z
-x,1/2+y,z
x,1/2-y,1/2+z
loop_
_atom_site_type_symbol
_atom_site_label
_atom_site_fract_x
_atom_site_fract_y
_atom_site_fract_z
Si Si1 0.485055 0.672801 0.574149
Si Si2 0.233572 0.671225 0.429422
Si Si3 0.229380 0.171539 0.927270
Si Si4 0.990210 0.922011 0.929789
O O1 0.494427 0.750000 0.500000
O O2 0.449405 0.679930 0.750000
O O3 0.365750 0.632793 0.490332
O O4 0.626385 0.637932 0.551329
O O5 0.215917 0.750000 0.500000
O O6 0.240245 0.678240 0.250000
O O7 0.114486 0.622904 0.482622
O O8 0.194592 0.178439 0.750000
O O9 0.214336 0.250000 0.000000
O O10 0.136989 0.115964 0.009001
O O11 0.981763 0.928087 0.750000
O O12 0.000000 0.000000 0.000000
#
# Coordination Sequence:
#
# PCOD8232539 Si02
#       4
#     8   8   8   8
#     4   9  17  30  52  81 109 137 171 215 264 312
#     4  10  20  34  55  82 108 137 175 217 263 316
#     4  10  20  35  57  84 111 140 178 220 264 317
#     4  11  24  39  55  77 107 144 183 224 270 319
#
# _framework density 18.870042999999999
#
# number of rings (size 3 to 8) (size 9 to 14) (size 15 to 20)
#    0.000    2.000    0.000    5.250    0.000    9.000 
#    0.000    1.250    0.000    0.000    0.000    0.000 
#    0.000    0.000    0.000    0.000    0.000    0.000 
#
# Total GULP energy -396646.821268 kJ/mol
# GULP energy per Si atom -12395.213165 kJ/mol
# Density = 1.882709 g / cm^3
# Si number density = 18.870043 Si / 1000 Ang^3
#
#
#
# Elastic Constant Matrix: (Units=GPa)
#
#
# Indices 1 2 3 4 5 6 
#
# 1 170.3034 66.3371 61.1391 0.0000 0.0000 0.0000
# 2 66.3371 90.5256 38.9827 0.0000 0.0000 0.0000
# 3 61.1391 38.9827 92.2765 0.0000 0.0000 0.0000
# 4 0.0000 0.0000 0.0000 27.9199 0.0000 0.0000
# 5 0.0000 0.0000 0.0000 0.0000 37.4617 0.0000
# 6 0.0000 0.0000 0.0000 0.0000 0.0000 0.0791
#
#
#
# Elastic Compliance Matrix: (Units=1/GPa)
#
#
# Indices 1 2 3 4 5 6 
#
# 1 0.009290 -0.005082 -0.004009 0.000000 0.000000 0.000000
# 2 -0.005082 0.016283 -0.003512 0.000000 0.000000 0.000000
# 3 -0.004009 -0.003512 0.014977 0.000000 0.000000 0.000000
# 4 0.000000 0.000000 0.000000 0.035817 0.000000 0.000000
# 5 0.000000 0.000000 0.000000 0.000000 0.026694 0.000000
# 6 0.000000 0.000000 0.000000 0.000000 0.000000 12.635966
#
#
# Mechanical properties :
#
#
# Convention : Reuss Voigt Hill
#
# Bulk Modulus (GPa) = 65.16629 76.22482 70.69555
# Shear Modulus (GPa) = 0.39156 25.53524 12.96340
#
# Velocity S-wave (km/s) = 0.45602 3.68260 2.62388
# Velocity P-wave (km/s) = 5.90648 7.65274 6.83560
#
# Compressibility (1/GPa) = 0.01534536
#
# Stress axis : x y z
#
# Youngs Moduli (GPa) = 107.63699 61.41456 66.77096
#
# Poissons Ratio (x) = 0.31210 0.26767
# Poissons Ratio (y) = 0.54699 0.23448
# Poissons Ratio (z) = 0.43149 0.21567
#
# Static dielectric constant tensor:
#      x y z
#    x 6.140990 0.000000 0.000000 
#    y 0.000000 3.088360 0.000000 
#    z 0.000000 0.000000 3.615690 
# 
# 
# High freq. dielectric constant tensor:
#      x y z
#    x 1.762540 0.000000 0.000000 
#    y 0.000000 1.689160 0.000000 
#    z 0.000000 0.000000 1.753510 
# 
# From -- ./inp_files/2504.got.cif
#   From: 2010.03.12/outbox.cif.g09.slc.cpg/sg57_2_cif.got.tgz:2504.got - 2010.04.16 15:48:40.
