data_PCOD8232533
_publ_section_title
;
Structure prediction by ZEFSAII (Michael W. Deem and Ramdas Pophale) SiO2 
 PCOD8232533
Probable space group: P B C M
;
_chemical_formula_sum "Si O2"
_cell_formula_units_Z 40
_cell_length_a 12.868605
_cell_length_b 19.151280
_cell_length_c 8.741096
_cell_angle_alpha 90.000000
_cell_angle_beta 90.000000
_cell_angle_gamma 90.000000
_cell_volume 2154.245361
_symmetry_space_group_name_H-M "P B C M"
_symmetry_group_IT_number 57
_symmetry_cell_setting 'orthorhombic'
loop_
_space_group_symop_operation_xyz
x,y,z
-x,-y,1/2+z
x,1/2-y,-z
-x,1/2+y,1/2-z
-x,-y,-z
x,y,1/2-z
-x,1/2+y,z
x,1/2-y,1/2+z
loop_
_atom_site_type_symbol
_atom_site_label
_atom_site_fract_x
_atom_site_fract_y
_atom_site_fract_z
Si Si1 0.609206 0.582865 0.927069
Si Si2 0.219936 0.673483 0.928636
Si Si3 0.393726 0.579144 0.427918
Si Si4 0.213692 0.173361 0.429641
Si Si5 0.009952 0.174826 0.926860
O O1 0.623438 0.601629 0.750000
O O2 0.628730 0.501715 0.960993
O O3 0.493903 0.604843 0.978519
O O4 0.690087 0.625687 0.026448
O O5 0.248533 0.678062 0.750000
O O6 0.103793 0.640647 0.950585
O O7 0.230080 0.750000 0.000000
O O8 0.295041 0.621715 0.016408
O O9 0.414379 0.592854 0.250000
O O10 0.227670 0.250000 0.500000
O O11 0.207981 0.180625 0.250000
O O12 0.106700 0.136221 0.490158
O O13 0.038439 0.181210 0.750000
O O14 0.002036 0.250000 0.000000
#
# Coordination Sequence:
#
# PCOD8232533 Si02
#       5
#     8   8   8   8   8
#     4  10  21  38  57  77 105 139 175 216 263 315
#     4  10  20  34  55  81 109 140 176 217 259 309
#     4  10  21  37  57  79 105 138 175 216 264 315
#     4  11  21  34  55  81 108 138 175 217 261 310
#     4   9  17  31  51  76 106 139 173 211 259 309
#
# _framework density 18.567986999999999
#
# number of rings (size 3 to 8) (size 9 to 14) (size 15 to 20)
#    0.000    2.000    0.000    5.400    0.000    5.600 
#    0.000    5.000    0.000    0.000    0.000    0.000 
#    0.000    0.000    0.000    0.000    0.000    0.000 
#
# Total GULP energy -495898.813197 kJ/mol
# GULP energy per Si atom -12397.470330 kJ/mol
# Density = 1.852573 g / cm^3
# Si number density = 18.567987 Si / 1000 Ang^3
#
#
#
# Elastic Constant Matrix: (Units=GPa)
#
#
# Indices 1 2 3 4 5 6 
#
# 1 136.0652 54.4351 53.4591 0.0000 0.0000 0.0000
# 2 54.4351 50.9739 40.3524 0.0000 0.0000 0.0000
# 3 53.4591 40.3524 120.6601 0.0000 0.0000 0.0000
# 4 0.0000 0.0000 0.0000 26.7837 0.0000 0.0000
# 5 0.0000 0.0000 0.0000 0.0000 27.7438 0.0000
# 6 0.0000 0.0000 0.0000 0.0000 0.0000 124.4955
#
#
#
# Elastic Compliance Matrix: (Units=1/GPa)
#
#
# Indices 1 2 3 4 5 6 
#
# 1 0.013034 -0.012713 -0.001523 0.000000 0.000000 0.000000
# 2 -0.012713 0.039082 -0.007438 0.000000 0.000000 0.000000
# 3 -0.001523 -0.007438 0.011450 0.000000 0.000000 0.000000
# 4 0.000000 0.000000 0.000000 0.037336 0.000000 0.000000
# 5 0.000000 0.000000 0.000000 0.000000 0.036044 0.000000
# 6 0.000000 0.000000 0.000000 0.000000 0.000000 0.008032
#
#
# Mechanical properties :
#
#
# Convention : Reuss Voigt Hill
#
# Bulk Modulus (GPa) = 49.46031 67.13249 58.29640
# Shear Modulus (GPa) = 25.63231 46.43476 36.03353
#
# Velocity S-wave (km/s) = 3.71948 5.00622 4.41003
# Velocity P-wave (km/s) = 6.71873 8.34564 7.57598
#
# Compressibility (1/GPa) = 0.02021823
#
# Stress axis : x y z
#
# Youngs Moduli (GPa) = 76.72244 25.58701 87.33694
#
# Poissons Ratio (x) = 0.32530 0.13302
# Poissons Ratio (y) = 0.97540 0.64958
# Poissons Ratio (z) = 0.11685 0.19031
#
# Static dielectric constant tensor:
#      x y z
#    x 4.034090 0.000000 0.000000 
#    y 0.000000 3.096290 0.000000 
#    z 0.000000 0.000000 3.612640 
# 
# 
# High freq. dielectric constant tensor:
#      x y z
#    x 1.741950 0.000000 0.000000 
#    y 0.000000 1.684210 0.000000 
#    z 0.000000 0.000000 1.742900 
# 
# From -- ./inp_files/2623.got.cif
#   From: 2010.03.12/outbox.cif.g09.slc.cpg/sg57_2_cif.got.tgz:2623.got - 2010.04.16 15:48:40.
