data_PCOD8232610
_publ_section_title
;
Structure prediction by ZEFSAII (Michael W. Deem and Ramdas Pophale) SiO2 
 PCOD8232610
Probable space group: P B C M
;
_chemical_formula_sum "Si O2"
_cell_formula_units_Z 40
_cell_length_a 21.465842
_cell_length_b 5.215640
_cell_length_c 14.874878
_cell_angle_alpha 90.000000
_cell_angle_beta 90.000000
_cell_angle_gamma 90.000000
_cell_volume 1665.363141
_symmetry_space_group_name_H-M "P B C M"
_symmetry_group_IT_number 57
_symmetry_cell_setting 'orthorhombic'
loop_
_space_group_symop_operation_xyz
x,y,z
-x,-y,1/2+z
x,1/2-y,-z
-x,1/2+y,1/2-z
-x,-y,-z
x,y,1/2-z
-x,1/2+y,z
x,1/2-y,1/2+z
loop_
_atom_site_type_symbol
_atom_site_label
_atom_site_fract_x
_atom_site_fract_y
_atom_site_fract_z
Si Si1 0.027009 0.990353 0.900017
Si Si2 0.832359 0.047714 0.142998
Si Si3 0.377090 0.955344 0.350188
Si Si4 0.760135 0.550331 0.356751
Si Si5 0.541958 0.250000 0.000000
Si Si6 0.540659 0.788431 0.250000
O O1 0.101079 0.975681 0.903606
O O2 0.997195 0.745209 0.848834
O O3 0.000000 0.000000 0.000000
O O4 0.840689 0.039668 0.250000
O O5 0.801010 0.310672 0.109693
O O6 0.789954 0.813694 0.107147
O O7 0.368886 0.828170 0.250000
O O8 0.413937 0.755559 0.412241
O O9 0.417538 0.220517 0.338536
O O10 0.310294 0.023630 0.393602
O O11 0.758053 0.558346 0.250000
O O12 0.500000 0.500000 0.000000
O O13 0.516242 0.077389 0.250000
#
# Coordination Sequence:
#
# PCOD8232610 Si02
#       6
#     8   8   8   8   4   4
#     4  10  21  37  55  80 116 151 190 234 295 352
#     4  10  20  35  61  87 116 150 197 244 299 361
#     4   9  22  42  65  92 127 167 210 264 317 381
#     4   9  19  37  57  88 117 153 193 247 302 359
#     4  12  26  42  62  92 128 164 212 262 312 378
#     4  10  20  34  58  88 118 158 200 242 304 366
#
# _framework density 24.018785000000001
#
# number of rings (size 3 to 8) (size 9 to 14) (size 15 to 20)
#    0.600    1.600    0.000    2.400    0.000    4.000 
#    0.000    6.000    0.000    0.000    0.000    0.000 
#    0.000    0.000    0.000    0.000    0.000    0.000 
#
# Total GULP energy -495749.405462 kJ/mol
# GULP energy per Si atom -12393.735137 kJ/mol
# Density = 2.396412 g / cm^3
# Si number density = 24.018785 Si / 1000 Ang^3
#
#
#
# Elastic Constant Matrix: (Units=GPa)
#
#
# Indices 1 2 3 4 5 6 
#
# 1 187.9885 51.9610 8.8219 0.0000 0.0000 0.0000
# 2 51.9610 159.8005 -2.8952 0.0000 0.0000 0.0000
# 3 8.8219 -2.8952 43.5687 0.0000 0.0000 0.0000
# 4 0.0000 0.0000 0.0000 7.5209 0.0000 0.0000
# 5 0.0000 0.0000 0.0000 0.0000 39.7723 0.0000
# 6 0.0000 0.0000 0.0000 0.0000 0.0000 32.2440
#
#
#
# Elastic Compliance Matrix: (Units=1/GPa)
#
#
# Indices 1 2 3 4 5 6 
#
# 1 0.005921 -0.001949 -0.001328 0.000000 0.000000 0.000000
# 2 -0.001949 0.006907 0.000854 0.000000 0.000000 0.000000
# 3 -0.001328 0.000854 0.023278 0.000000 0.000000 0.000000
# 4 0.000000 0.000000 0.000000 0.132962 0.000000 0.000000
# 5 0.000000 0.000000 0.000000 0.000000 0.025143 0.000000
# 6 0.000000 0.000000 0.000000 0.000000 0.000000 0.031013
#
#
# Mechanical properties :
#
#
# Convention : Reuss Voigt Hill
#
# Bulk Modulus (GPa) = 31.99195 56.34809 44.17002
# Shear Modulus (GPa) = 20.79075 38.13879 29.46477
#
# Velocity S-wave (km/s) = 2.94531 3.98914 3.50628
# Velocity P-wave (km/s) = 4.99148 6.68794 5.90099
#
# Compressibility (1/GPa) = 0.03125786
#
# Stress axis : x y z
#
# Youngs Moduli (GPa) = 168.90227 144.77901 42.95909
#
# Poissons Ratio (x) = 0.28221 0.05706
# Poissons Ratio (y) = 0.32923 -0.03667
# Poissons Ratio (z) = 0.22436 -0.12359
#
# Static dielectric constant tensor:
#      x y z
#    x 4.494700 0.000000 0.000000 
#    y 0.000000 2.562170 0.000000 
#    z 0.000000 0.000000 3.965230 
# 
# 
# High freq. dielectric constant tensor:
#      x y z
#    x 1.966910 0.000000 0.000000 
#    y 0.000000 1.956480 0.000000 
#    z 0.000000 0.000000 1.920760 
# 
# From -- ./inp_files/22808.got.cif
#   From: 2010.03.12/outbox.cif.g09.slc.cpg/sg57_12_cif.got.tgz:22808.got - 2010.04.16 15:48:40.
