data_PCOD8232577
_publ_section_title
;
Structure prediction by ZEFSAII (Michael W. Deem and Ramdas Pophale) SiO2 
 PCOD8232577
Probable space group: P B C M
;
_chemical_formula_sum "Si O2"
_cell_formula_units_Z 56
_cell_length_a 16.556288
_cell_length_b 21.012779
_cell_length_c 8.632566
_cell_angle_alpha 90.000000
_cell_angle_beta 90.000000
_cell_angle_gamma 90.000000
_cell_volume 3003.214643
_symmetry_space_group_name_H-M "P B C M"
_symmetry_group_IT_number 57
_symmetry_cell_setting 'orthorhombic'
loop_
_space_group_symop_operation_xyz
x,y,z
-x,-y,1/2+z
x,1/2-y,-z
-x,1/2+y,1/2-z
-x,-y,-z
x,y,1/2-z
-x,1/2+y,z
x,1/2-y,1/2+z
loop_
_atom_site_type_symbol
_atom_site_label
_atom_site_fract_x
_atom_site_fract_y
_atom_site_fract_z
Si Si1 0.548825 0.681624 0.932760
Si Si2 0.455846 0.561779 0.066528
Si Si3 0.294363 0.522560 0.929027
Si Si4 0.146005 0.318183 0.070076
Si Si5 0.877512 0.020096 0.070642
Si Si6 0.030669 0.095740 0.073629
Si Si7 0.297926 0.375420 0.571950
O O1 0.535486 0.681122 0.750000
O O2 0.522617 0.750000 0.000000
O O3 0.495805 0.626897 0.010652
O O4 0.642353 0.668271 0.971922
O O5 0.461030 0.558087 0.250000
O O6 0.500000 0.500000 0.000000
O O7 0.363340 0.564070 0.010492
O O8 0.286534 0.541728 0.750000
O O9 0.320148 0.449163 0.947260
O O10 0.210855 0.539203 0.013657
O O11 0.161526 0.315098 0.250000
O O12 0.161121 0.250000 0.000000
O O13 0.056150 0.344046 0.031740
O O14 0.207937 0.367314 0.992072
O O15 0.875547 0.998352 0.250000
O O16 0.936085 0.081109 0.048520
O O17 0.913572 0.964169 0.967546
O O18 0.048814 0.114020 0.250000
O O19 0.303701 0.353789 0.750000
#
# Coordination Sequence:
#
# PCOD8232577 Si02
#       7
#     8   8   8   8   8   8   8
#     4  12  25  42  63  87 119 158 200 245 295 355
#     4  12  24  40  62  89 120 155 199 246 297 353
#     4  11  22  36  59  87 120 155 192 240 293 346
#     4  12  24  37  55  79 113 154 194 234 284 342
#     4  10  20  34  56  83 112 146 184 230 284 335
#     4  10  20  35  54  80 112 146 187 231 276 333
#     4  11  22  37  57  84 119 156 195 237 288 348
#
# _framework density 18.646687
#
# number of rings (size 3 to 8) (size 9 to 14) (size 15 to 20)
#    0.000    0.857    2.857    6.000    0.000    2.857 
#    0.000    0.000    0.000    0.857    0.000    2.000 
#    0.000    0.000    0.000    0.000    0.000    0.000 
#
# Total GULP energy -694656.220605 kJ/mol
# GULP energy per Si atom -12404.575368 kJ/mol
# Density = 1.860425 g / cm^3
# Si number density = 18.646687 Si / 1000 Ang^3
#
#
#
# Elastic Constant Matrix: (Units=GPa)
#
#
# Indices 1 2 3 4 5 6 
#
# 1 111.0187 35.2619 35.8011 0.0000 0.0000 0.0000
# 2 35.2619 77.7368 36.2081 0.0000 0.0000 0.0000
# 3 35.8011 36.2081 96.7216 0.0000 0.0000 0.0000
# 4 0.0000 0.0000 0.0000 30.6943 0.0000 0.0000
# 5 0.0000 0.0000 0.0000 0.0000 33.9539 0.0000
# 6 0.0000 0.0000 0.0000 0.0000 0.0000 25.4020
#
#
#
# Elastic Compliance Matrix: (Units=1/GPa)
#
#
# Indices 1 2 3 4 5 6 
#
# 1 0.011072 -0.003771 -0.002686 0.000000 0.000000 0.000000
# 2 -0.003771 0.016865 -0.004918 0.000000 0.000000 0.000000
# 3 -0.002686 -0.004918 0.013174 0.000000 0.000000 0.000000
# 4 0.000000 0.000000 0.000000 0.032579 0.000000 0.000000
# 5 0.000000 0.000000 0.000000 0.000000 0.029452 0.000000
# 6 0.000000 0.000000 0.000000 0.000000 0.000000 0.039367
#
#
# Mechanical properties :
#
#
# Convention : Reuss Voigt Hill
#
# Bulk Modulus (GPa) = 54.46387 55.55771 55.01079
# Shear Modulus (GPa) = 29.17511 29.89044 29.53277
#
# Velocity S-wave (km/s) = 3.95983 4.00808 3.98403
# Velocity P-wave (km/s) = 7.08369 7.16095 7.12243
#
# Compressibility (1/GPa) = 0.01836080
#
# Stress axis : x y z
#
# Youngs Moduli (GPa) = 90.32194 59.29457 75.90530
#
# Poissons Ratio (x) = 0.22359 0.20392
# Poissons Ratio (y) = 0.34059 0.37328
# Poissons Ratio (z) = 0.24265 0.29159
#
# Static dielectric constant tensor:
#      x y z
#    x 3.555170 0.000000 0.000000 
#    y 0.000000 3.285950 0.000000 
#    z 0.000000 0.000000 3.634430 
# 
# 
# High freq. dielectric constant tensor:
#      x y z
#    x 1.725270 0.000000 0.000000 
#    y 0.000000 1.701340 0.000000 
#    z 0.000000 0.000000 1.745630 
# 
# From -- ./inp_files/5096.got.cif
#   From: 2010.03.12/outbox.cif.g09.slc.cpg/sg57_3_cif.got.tgz:5096.got - 2010.04.16 15:48:40.
