data_PCOD8232713
_publ_section_title
;
Structure prediction by ZEFSAII (Michael W. Deem and Ramdas Pophale) SiO2 
 PCOD8232713
Probable space group: P B C M
;
_chemical_formula_sum "Si O2"
_cell_formula_units_Z 32
_cell_length_a 12.302457
_cell_length_b 15.002707
_cell_length_c 8.930265
_cell_angle_alpha 90.000000
_cell_angle_beta 90.000000
_cell_angle_gamma 90.000000
_cell_volume 1648.260420
_symmetry_space_group_name_H-M "P B C M"
_symmetry_group_IT_number 57
_symmetry_cell_setting 'orthorhombic'
loop_
_space_group_symop_operation_xyz
x,y,z
-x,-y,1/2+z
x,1/2-y,-z
-x,1/2+y,1/2-z
-x,-y,-z
x,y,1/2-z
-x,1/2+y,z
x,1/2-y,1/2+z
loop_
_atom_site_type_symbol
_atom_site_label
_atom_site_fract_x
_atom_site_fract_y
_atom_site_fract_z
Si Si1 0.488431 0.345695 0.074503
Si Si2 0.271385 0.654896 0.925479
Si Si3 0.278438 0.153917 0.073406
Si Si4 0.116332 0.000157 0.074052
O O1 0.464423 0.339380 0.250000
O O2 0.607890 0.385942 0.041495
O O3 0.487510 0.250000 0.000000
O O4 0.387120 0.395076 0.993668
O O5 0.257807 0.670078 0.750000
O O6 0.185239 0.583736 0.988201
O O7 0.250518 0.750000 0.000000
O O8 0.293346 0.164576 0.250000
O O9 0.176597 0.091832 0.032816
O O10 0.256616 0.250000 0.000000
O O11 0.102153 0.990566 0.250000
O O12 0.000000 0.000000 0.000000
#
# Coordination Sequence:
#
# PCOD8232713 Si02
#       4
#     8   8   8   8
#     4   9  16  29  52  80 108 136 168 209 259 315
#     4   9  19  36  56  80 109 138 171 214 263 313
#     4  10  20  35  55  79 108 140 173 214 262 310
#     4  10  23  40  55  75 105 140 180 222 261 307
#
# _framework density 19.414406
#
# number of rings (size 3 to 8) (size 9 to 14) (size 15 to 20)
#    0.000    2.500    0.000    3.000    0.000    6.000 
#    0.000    5.000    0.000    0.000    0.000    0.000 
#    0.000    0.000    0.000    0.000    0.000    0.000 
#
# Total GULP energy -396549.092450 kJ/mol
# GULP energy per Si atom -12392.159139 kJ/mol
# Density = 1.937022 g / cm^3
# Si number density = 19.414406 Si / 1000 Ang^3
#
#
#
# Elastic Constant Matrix: (Units=GPa)
#
#
# Indices 1 2 3 4 5 6 
#
# 1 201.3316 84.4397 68.8726 0.0000 0.0000 0.0000
# 2 84.4397 106.6647 48.3215 0.0000 0.0000 0.0000
# 3 68.8726 48.3215 80.9724 0.0000 0.0000 0.0000
# 4 0.0000 0.0000 0.0000 22.7909 0.0000 0.0000
# 5 0.0000 0.0000 0.0000 0.0000 33.9120 0.0000
# 6 0.0000 0.0000 0.0000 0.0000 0.0000 28.2284
#
#
#
# Elastic Compliance Matrix: (Units=1/GPa)
#
#
# Indices 1 2 3 4 5 6 
#
# 1 0.008430 -0.004695 -0.004369 0.000000 0.000000 0.000000
# 2 -0.004695 0.015463 -0.005235 0.000000 0.000000 0.000000
# 3 -0.004369 -0.005235 0.019190 0.000000 0.000000 0.000000
# 4 0.000000 0.000000 0.000000 0.043877 0.000000 0.000000
# 5 0.000000 0.000000 0.000000 0.000000 0.029488 0.000000
# 6 0.000000 0.000000 0.000000 0.000000 0.000000 0.035425
#
#
# Mechanical properties :
#
#
# Convention : Reuss Voigt Hill
#
# Bulk Modulus (GPa) = 69.02909 88.02627 78.52768
# Shear Modulus (GPa) = 26.98332 29.47529 28.22930
#
# Velocity S-wave (km/s) = 3.73213 3.90066 3.81732
# Velocity P-wave (km/s) = 7.36237 8.10716 7.74372
#
# Compressibility (1/GPa) = 0.01448665
#
# Stress axis : x y z
#
# Youngs Moduli (GPa) = 118.61726 64.67056 52.11033
#
# Poissons Ratio (x) = 0.30360 0.22768
# Poissons Ratio (y) = 0.55685 0.27278
# Poissons Ratio (z) = 0.51826 0.33853
#
# Static dielectric constant tensor:
#      x y z
#    x 4.434230 0.000000 0.000000 
#    y 0.000000 3.504060 0.000000 
#    z 0.000000 0.000000 3.609590 
# 
# 
# High freq. dielectric constant tensor:
#      x y z
#    x 1.767770 0.000000 0.000000 
#    y 0.000000 1.740490 0.000000 
#    z 0.000000 0.000000 1.756300 
# 
# From -- ./inp_files/2372.got.cif
#   From: 2010.03.12/outbox.cif.g09.slc.cpg/sg57_2_cif.got.tgz:2372.got - 2010.04.16 15:48:40.
