data_PCOD8232419
_publ_section_title
;
Structure prediction by ZEFSAII (Michael W. Deem and Ramdas Pophale) SiO2 
 PCOD8232419
Probable space group: P B C M
;
_chemical_formula_sum "Si O2"
_cell_formula_units_Z 64
_cell_length_a 13.936357
_cell_length_b 9.614340
_cell_length_c 27.541431
_cell_angle_alpha 90.000000
_cell_angle_beta 90.000000
_cell_angle_gamma 90.000000
_cell_volume 3690.245343
_symmetry_space_group_name_H-M "P B C M"
_symmetry_group_IT_number 57
_symmetry_cell_setting 'orthorhombic'
loop_
_space_group_symop_operation_xyz
x,y,z
-x,-y,1/2+z
x,1/2-y,-z
-x,1/2+y,1/2-z
-x,-y,-z
x,y,1/2-z
-x,1/2+y,z
x,1/2-y,1/2+z
loop_
_atom_site_type_symbol
_atom_site_label
_atom_site_fract_x
_atom_site_fract_y
_atom_site_fract_z
Si Si1 0.400912 0.424366 0.805274
Si Si2 0.379250 0.273196 0.943838
Si Si3 0.294021 0.697935 0.805779
Si Si4 0.713868 0.683081 0.648700
Si Si5 0.910154 0.196758 0.192580
Si Si6 0.596839 0.077339 0.142942
Si Si7 0.501097 0.982572 0.443396
Si Si8 0.911578 0.878413 0.192135
O O1 0.435760 0.413597 0.750000
O O2 0.314598 0.535081 0.811007
O O3 0.358556 0.278153 0.821253
O O4 0.493282 0.468939 0.836345
O O5 0.293805 0.221844 0.908701
O O6 0.477702 0.181164 0.932527
O O7 0.401807 0.435334 0.929405
O O8 0.347763 0.250000 0.000000
O O9 0.304717 0.747987 0.750000
O O10 0.188702 0.734585 0.826232
O O11 0.374626 0.771085 0.838763
O O12 0.680269 0.526634 0.660397
O O13 0.822297 0.697493 0.666579
O O14 0.912096 0.199405 0.250000
O O15 0.996468 0.292846 0.173293
O O16 0.921404 0.038072 0.174263
O O17 0.586577 0.066476 0.084322
O O18 0.500000 0.000000 0.500000
O O19 0.898324 0.870157 0.250000
#
# Coordination Sequence:
#
# PCOD8232419 Si02
#       8
#     8   8   8   8   8   8   8   8
#     4  11  23  32  46  71 106 145 175 202 239 300
#     4   9  18  33  52  74 101 131 172 213 259 302
#     4  10  21  35  49  70 103 141 176 211 250 296
#     4  11  21  33  51  76 103 133 175 212 257 307
#     4   9  19  35  53  71  96 129 168 215 258 295
#     4  11  20  33  50  70 103 140 175 206 247 300
#     4   9  18  31  48  70  98 131 168 211 249 291
#     4  10  20  34  53  74  99 130 169 216 260 302
#
# _framework density 17.343019000000002
#
# number of rings (size 3 to 8) (size 9 to 14) (size 15 to 20)
#    0.000    2.000    2.500    1.500    3.500    2.500 
#    0.000    0.000    0.000    0.000    0.000    0.875 
#    3.750    0.000    0.000    0.000    0.000    0.000 
#
# Total GULP energy -792911.536720 kJ/mol
# GULP energy per Si atom -12389.242761 kJ/mol
# Density = 1.730355 g / cm^3
# Si number density = 17.343019 Si / 1000 Ang^3
#
#
#
# Elastic Constant Matrix: (Units=GPa)
#
#
# Indices 1 2 3 4 5 6 
#
# 1 96.3310 21.3270 28.4686 0.0000 0.0000 0.0000
# 2 21.3270 50.3748 19.8503 0.0000 0.0000 0.0000
# 3 28.4686 19.8503 62.5640 0.0000 0.0000 0.0000
# 4 0.0000 0.0000 0.0000 16.2999 0.0000 0.0000
# 5 0.0000 0.0000 0.0000 0.0000 16.2231 0.0000
# 6 0.0000 0.0000 0.0000 0.0000 0.0000 30.9159
#
#
#
# Elastic Compliance Matrix: (Units=1/GPa)
#
#
# Indices 1 2 3 4 5 6 
#
# 1 0.012508 -0.003489 -0.004585 0.000000 0.000000 0.000000
# 2 -0.003489 0.023661 -0.005920 0.000000 0.000000 0.000000
# 3 -0.004585 -0.005920 0.019948 0.000000 0.000000 0.000000
# 4 0.000000 0.000000 0.000000 0.061350 0.000000 0.000000
# 5 0.000000 0.000000 0.000000 0.000000 0.061640 0.000000
# 6 0.000000 0.000000 0.000000 0.000000 0.000000 0.032346
#
#
# Mechanical properties :
#
#
# Convention : Reuss Voigt Hill
#
# Bulk Modulus (GPa) = 35.54830 38.72907 37.13869
# Shear Modulus (GPa) = 20.09513 21.99604 21.04558
#
# Velocity S-wave (km/s) = 3.40764 3.56517 3.48730
# Velocity P-wave (km/s) = 6.00203 6.27112 6.13805
#
# Compressibility (1/GPa) = 0.02813074
#
# Stress axis : x y z
#
# Youngs Moduli (GPa) = 79.94752 42.26381 50.13043
#
# Poissons Ratio (x) = 0.14746 0.22983
# Poissons Ratio (y) = 0.27893 0.29675
# Poissons Ratio (z) = 0.36653 0.25018
#
# Static dielectric constant tensor:
#      x y z
#    x 3.123430 0.000000 0.000000 
#    y 0.000000 3.921930 0.000000 
#    z 0.000000 0.000000 3.761360 
# 
# 
# High freq. dielectric constant tensor:
#      x y z
#    x 1.641460 0.000000 0.000000 
#    y 0.000000 1.684400 0.000000 
#    z 0.000000 0.000000 1.651790 
# 
# From -- ./inp_files/29770.got.cif
#   From: 2010.03.12/outbox.cif.g09.slc.cpg/sg57_15_cif.got.tgz:29770.got - 2010.04.16 15:48:40.
