data_PCOD8232364
_publ_section_title
;
Structure prediction by ZEFSAII (Michael W. Deem and Ramdas Pophale) SiO2 
 PCOD8232364
Probable space group: P B C M
;
_chemical_formula_sum "Si O2"
_cell_formula_units_Z 48
_cell_length_a 14.984689
_cell_length_b 20.604351
_cell_length_c 8.713103
_cell_angle_alpha 90.000000
_cell_angle_beta 90.000000
_cell_angle_gamma 90.000000
_cell_volume 2690.168737
_symmetry_space_group_name_H-M "P B C M"
_symmetry_group_IT_number 57
_symmetry_cell_setting 'orthorhombic'
loop_
_space_group_symop_operation_xyz
x,y,z
-x,-y,1/2+z
x,1/2-y,-z
-x,1/2+y,1/2-z
-x,-y,-z
x,y,1/2-z
-x,1/2+y,z
x,1/2-y,1/2+z
loop_
_atom_site_type_symbol
_atom_site_label
_atom_site_fract_x
_atom_site_fract_y
_atom_site_fract_z
Si Si1 0.193172 0.154887 0.570497
Si Si2 0.225407 0.475506 0.924787
Si Si3 0.940758 0.056423 0.572916
Si Si4 0.423960 0.043296 0.071727
Si Si5 0.379144 0.315014 0.930982
Si Si6 0.007280 0.185746 0.431882
O O1 0.202636 0.168780 0.750000
O O2 0.186185 0.078054 0.539471
O O3 0.276540 0.185239 0.481950
O O4 0.105090 0.187363 0.505034
O O5 0.220507 0.448100 0.750000
O O6 0.164374 0.539166 0.941234
O O7 0.328525 0.490242 0.966161
O O8 0.969234 0.065470 0.750000
O O9 0.952346 0.122769 0.481713
O O10 0.000000 0.000000 0.500000
O O11 0.442878 0.044908 0.250000
O O12 0.425166 0.117991 0.009091
O O13 0.500000 0.000000 0.000000
O O14 0.385050 0.311292 0.750000
O O15 0.425885 0.250000 0.000000
O O16 0.958462 0.250000 0.500000
O O17 0.012624 0.188152 0.250000
#
# Coordination Sequence:
#
# PCOD8232364 Si02
#       6
#     8   8   8   8   8   8
#     4  11  20  31  50  76 106 140 178 214 261 320
#     4   9  19  35  54  77 108 141 175 218 267 316
#     4  11  21  35  56  80 107 142 183 223 265 315
#     4   9  19  35  55  80 108 139 174 218 267 317
#     4  10  20  34  51  75 108 140 173 213 266 322
#     4  12  24  37  51  72 106 144 184 229 273 320
#
# _framework density 17.842746000000002
#
# number of rings (size 3 to 8) (size 9 to 14) (size 15 to 20)
#    0.000    1.667    1.667    5.500    0.000    4.000 
#    0.000    0.000    0.000    1.000    0.000    2.333 
#    0.000    0.000    0.000    0.000    0.000    0.000 
#
# Total GULP energy -595086.080678 kJ/mol
# GULP energy per Si atom -12397.626681 kJ/mol
# Density = 1.780214 g / cm^3
# Si number density = 17.842746 Si / 1000 Ang^3
#
#
#
# Elastic Constant Matrix: (Units=GPa)
#
#
# Indices 1 2 3 4 5 6 
#
# 1 76.8412 57.0124 23.1535 0.0000 0.0000 0.0000
# 2 57.0124 138.5516 33.0122 0.0000 0.0000 0.0000
# 3 23.1535 33.0122 68.8517 0.0000 0.0000 0.0000
# 4 0.0000 0.0000 0.0000 34.2854 0.0000 0.0000
# 5 0.0000 0.0000 0.0000 0.0000 25.6460 0.0000
# 6 0.0000 0.0000 0.0000 0.0000 0.0000 20.4368
#
#
#
# Elastic Compliance Matrix: (Units=1/GPa)
#
#
# Indices 1 2 3 4 5 6 
#
# 1 0.019275 -0.007211 -0.003025 0.000000 0.000000 0.000000
# 2 -0.007211 0.010846 -0.002775 0.000000 0.000000 0.000000
# 3 -0.003025 -0.002775 0.016872 0.000000 0.000000 0.000000
# 4 0.000000 0.000000 0.000000 0.029167 0.000000 0.000000
# 5 0.000000 0.000000 0.000000 0.000000 0.038992 0.000000
# 6 0.000000 0.000000 0.000000 0.000000 0.000000 0.048931
#
#
# Mechanical properties :
#
#
# Convention : Reuss Voigt Hill
#
# Bulk Modulus (GPa) = 47.68398 56.73340 52.20869
# Shear Modulus (GPa) = 25.36833 27.47807 26.42320
#
# Velocity S-wave (km/s) = 3.77473 3.92856 3.85241
# Velocity P-wave (km/s) = 6.76614 7.24179 7.00800
#
# Compressibility (1/GPa) = 0.02097140
#
# Stress axis : x y z
#
# Youngs Moduli (GPa) = 51.87975 92.19956 59.27061
#
# Poissons Ratio (x) = 0.66485 0.17926
# Poissons Ratio (y) = 0.37410 0.16450
# Poissons Ratio (z) = 0.15691 0.25589
#
# Static dielectric constant tensor:
#      x y z
#    x 3.183090 0.000000 0.000000 
#    y 0.000000 3.630690 0.000000 
#    z 0.000000 0.000000 3.499970 
# 
# 
# High freq. dielectric constant tensor:
#      x y z
#    x 1.655240 0.000000 0.000000 
#    y 0.000000 1.695970 0.000000 
#    z 0.000000 0.000000 1.701120 
# 
# From -- ./inp_files/4852.got.cif
#   From: 2010.03.12/outbox.cif.g09.slc.cpg/sg57_3_cif.got.tgz:4852.got - 2010.04.16 15:48:40.
