data_PCOD8232377
_publ_section_title
;
Structure prediction by ZEFSAII (Michael W. Deem and Ramdas Pophale) SiO2 
 PCOD8232377
Probable space group: P B C M
;
_chemical_formula_sum "Si O2"
_cell_formula_units_Z 64
_cell_length_a 20.079948
_cell_length_b 19.865493
_cell_length_c 8.859894
_cell_angle_alpha 90.000000
_cell_angle_beta 90.000000
_cell_angle_gamma 90.000000
_cell_volume 3534.194585
_symmetry_space_group_name_H-M "P B C M"
_symmetry_group_IT_number 57
_symmetry_cell_setting 'orthorhombic'
loop_
_space_group_symop_operation_xyz
x,y,z
-x,-y,1/2+z
x,1/2-y,-z
-x,1/2+y,1/2-z
-x,-y,-z
x,y,1/2-z
-x,1/2+y,z
x,1/2-y,1/2+z
loop_
_atom_site_type_symbol
_atom_site_label
_atom_site_fract_x
_atom_site_fract_y
_atom_site_fract_z
Si Si1 0.421852 0.180402 0.427970
Si Si2 0.185452 0.076856 0.426001
Si Si3 0.680791 0.424691 0.927571
Si Si4 0.182881 0.923386 0.073648
Si Si5 0.321945 0.421670 0.072468
Si Si6 0.069810 0.679144 0.929843
Si Si7 0.070354 0.179803 0.428692
Si Si8 0.573530 0.319030 0.572240
O O1 0.396490 0.250000 0.500000
O O2 0.413932 0.185992 0.250000
O O3 0.378419 0.119653 0.488811
O O4 0.497849 0.165749 0.477302
O O5 0.202847 0.082840 0.250000
O O6 0.249151 0.102501 0.519415
O O7 0.123565 0.123080 0.470993
O O8 0.166892 0.000455 0.471198
O O9 0.687726 0.419350 0.750000
O O10 0.667007 0.501180 0.977440
O O11 0.619887 0.379427 0.987972
O O12 0.749578 0.397756 0.996445
O O13 0.193547 0.915583 0.250000
O O14 0.122193 0.877261 0.018081
O O15 0.328653 0.410862 0.250000
O O16 0.064460 0.685509 0.750000
O O17 0.092831 0.750000 0.000000
O O18 0.998995 0.657149 0.997492
O O19 0.094824 0.250000 0.500000
O O20 0.061339 0.188365 0.250000
O O21 0.599422 0.250000 0.500000
O O22 0.579020 0.311321 0.750000
#
# Coordination Sequence:
#
# PCOD8232377 Si02
#       8
#     8   8   8   8   8   8   8   8
#     4  10  20  35  54  75 102 135 169 209 254 300
#     4   9  19  36  54  73 100 133 169 208 250 296
#     4   9  19  35  53  75 104 135 168 209 253 299
#     4   9  19  35  53  74 100 132 170 208 247 295
#     4  10  20  34  53  77 104 134 169 208 251 301
#     4  10  20  34  52  74 102 133 166 206 249 297
#     4  10  20  34  53  75 100 130 164 204 248 296
#     4   9  19  35  53  75 103 134 170 210 253 300
#
# _framework density 18.108794
#
# number of rings (size 3 to 8) (size 9 to 14) (size 15 to 20)
#    0.000    2.500    0.000    2.250    0.000    5.500 
#    0.000    3.750    0.000    0.000    0.000    0.000 
#    0.000    0.000    0.000    0.000    0.000    0.000 
#
# Total GULP energy -793741.250023 kJ/mol
# GULP energy per Si atom -12402.207032 kJ/mol
# Density = 1.806758 g / cm^3
# Si number density = 18.108794 Si / 1000 Ang^3
#
#
#
# Elastic Constant Matrix: (Units=GPa)
#
#
# Indices 1 2 3 4 5 6 
#
# 1 132.0657 94.7267 46.8537 0.0000 0.0000 0.0000
# 2 94.7267 114.2671 41.8799 0.0000 0.0000 0.0000
# 3 46.8537 41.8799 59.1025 0.0000 0.0000 0.0000
# 4 0.0000 0.0000 0.0000 28.2697 0.0000 0.0000
# 5 0.0000 0.0000 0.0000 0.0000 28.0285 0.0000
# 6 0.0000 0.0000 0.0000 0.0000 0.0000 37.7131
#
#
#
# Elastic Compliance Matrix: (Units=1/GPa)
#
#
# Indices 1 2 3 4 5 6 
#
# 1 0.019931 -0.014497 -0.005528 0.000000 0.000000 0.000000
# 2 -0.014497 0.022366 -0.004356 0.000000 0.000000 0.000000
# 3 -0.005528 -0.004356 0.024389 0.000000 0.000000 0.000000
# 4 0.000000 0.000000 0.000000 0.035374 0.000000 0.000000
# 5 0.000000 0.000000 0.000000 0.000000 0.035678 0.000000
# 6 0.000000 0.000000 0.000000 0.000000 0.000000 0.026516
#
#
# Mechanical properties :
#
#
# Convention : Reuss Voigt Hill
#
# Bulk Modulus (GPa) = 55.79103 74.70623 65.24863
# Shear Modulus (GPa) = 22.83206 26.93393 24.88300
#
# Velocity S-wave (km/s) = 3.55467 3.86079 3.71088
# Velocity P-wave (km/s) = 6.90820 7.82419 7.38042
#
# Compressibility (1/GPa) = 0.01792403
#
# Stress axis : x y z
#
# Youngs Moduli (GPa) = 50.17191 44.71124 41.00233
#
# Poissons Ratio (x) = 0.64817 0.22667
# Poissons Ratio (y) = 0.72734 0.17860
# Poissons Ratio (z) = 0.27736 0.19476
#
# Static dielectric constant tensor:
#      x y z
#    x 3.453620 0.000000 0.000000 
#    y 0.000000 3.483910 0.000000 
#    z 0.000000 0.000000 3.335700 
# 
# 
# High freq. dielectric constant tensor:
#      x y z
#    x 1.704650 0.000000 0.000000 
#    y 0.000000 1.702660 0.000000 
#    z 0.000000 0.000000 1.705470 
# 
# From -- ./inp_files/7224.got.cif
#   From: 2010.03.12/outbox.cif.g09.slc.cpg/sg57_4_cif.got.tgz:7224.got - 2010.04.16 15:48:40.
