data_PCOD8232160
_publ_section_title
;
Structure prediction by ZEFSAII (Michael W. Deem and Ramdas Pophale) SiO2 
 PCOD8232160
Probable space group: P B C M
;
_chemical_formula_sum "Si O2"
_cell_formula_units_Z 64
_cell_length_a 11.137763
_cell_length_b 9.582009
_cell_length_c 30.009978
_cell_angle_alpha 90.000000
_cell_angle_beta 90.000000
_cell_angle_gamma 90.000000
_cell_volume 3202.729233
_symmetry_space_group_name_H-M "P B C M"
_symmetry_group_IT_number 57
_symmetry_cell_setting 'orthorhombic'
loop_
_space_group_symop_operation_xyz
x,y,z
-x,-y,1/2+z
x,1/2-y,-z
-x,1/2+y,1/2-z
-x,-y,-z
x,y,1/2-z
-x,1/2+y,z
x,1/2-y,1/2+z
loop_
_atom_site_type_symbol
_atom_site_label
_atom_site_fract_x
_atom_site_fract_y
_atom_site_fract_z
Si Si1 0.307964 0.996388 0.369368
Si Si2 0.085234 0.238279 0.950718
Si Si3 0.663908 0.400915 0.997936
Si Si4 0.725506 0.808464 0.122495
Si Si5 0.405100 0.703954 0.699955
Si Si6 0.358928 0.476462 0.199297
Si Si7 0.131483 0.962287 0.443355
Si Si8 0.526100 0.554855 0.571038
O O1 0.267084 0.153011 0.356518
O O2 0.209116 0.921734 0.400216
O O3 0.435780 0.014584 0.393958
O O4 0.314130 0.891629 0.327915
O O5 0.171083 0.165076 0.914266
O O6 0.057894 0.395915 0.934686
O O7 0.144156 0.250000 0.000000
O O8 0.959696 0.159331 0.955008
O O9 0.771141 0.497100 0.017214
O O10 0.545235 0.386204 0.028777
O O11 0.725095 0.250000 0.000000
O O12 0.624339 0.444865 0.948193
O O13 0.738508 0.922392 0.162829
O O14 0.598139 0.824498 0.096958
O O15 0.357605 0.692720 0.750000
O O16 0.537074 0.639380 0.695537
O O17 0.405353 0.868118 0.685763
O O18 0.307302 0.477191 0.250000
#
# Coordination Sequence:
#
# PCOD8232160 Si02
#       8
#     8   8   8   8   8   8   8   8
#     4  10  21  36  55  84 117 150 191 239 288 358
#     4  11  23  40  59  81 112 153 201 254 296 346
#     4  10  20  34  52  76 110 150 192 242 291 347
#     4  11  22  35  57  84 116 155 195 243 299 347
#     4  10  20  35  57  87 122 155 189 234 287 353
#     4  10  21  35  56  87 121 156 193 234 289 355
#     4  10  23  39  57  80 110 148 200 247 295 342
#     4  10  20  32  51  79 112 150 189 230 291 352
#
# _framework density 19.982958
#
# number of rings (size 3 to 8) (size 9 to 14) (size 15 to 20)
#    0.000    1.750    1.250    3.000    0.000    8.000 
#    0.000    0.000    0.000    0.750    0.000    0.000 
#    0.000    0.000    0.000    0.000    0.000    0.000 
#
# Total GULP energy -793087.354443 kJ/mol
# GULP energy per Si atom -12391.989913 kJ/mol
# Density = 1.993748 g / cm^3
# Si number density = 19.982958 Si / 1000 Ang^3
#
#
#
# Elastic Constant Matrix: (Units=GPa)
#
#
# Indices 1 2 3 4 5 6 
#
# 1 74.7841 35.3139 39.5619 0.0000 0.0000 0.0000
# 2 35.3139 113.2034 52.5981 0.0000 0.0000 0.0000
# 3 39.5619 52.5981 128.9245 0.0000 0.0000 0.0000
# 4 0.0000 0.0000 0.0000 29.4817 0.0000 0.0000
# 5 0.0000 0.0000 0.0000 0.0000 19.5508 0.0000
# 6 0.0000 0.0000 0.0000 0.0000 0.0000 30.3069
#
#
#
# Elastic Compliance Matrix: (Units=1/GPa)
#
#
# Indices 1 2 3 4 5 6 
#
# 1 0.017054 -0.003564 -0.003779 0.000000 0.000000 0.000000
# 2 -0.003564 0.011645 -0.003657 0.000000 0.000000 0.000000
# 3 -0.003779 -0.003657 0.010408 0.000000 0.000000 0.000000
# 4 0.000000 0.000000 0.000000 0.033919 0.000000 0.000000
# 5 0.000000 0.000000 0.000000 0.000000 0.051149 0.000000
# 6 0.000000 0.000000 0.000000 0.000000 0.000000 0.032996
#
#
# Mechanical properties :
#
#
# Convention : Reuss Voigt Hill
#
# Bulk Modulus (GPa) = 58.45821 63.53996 60.99909
# Shear Modulus (GPa) = 27.04550 28.49708 27.77129
#
# Velocity S-wave (km/s) = 3.68289 3.78043 3.73198
# Velocity P-wave (km/s) = 6.88494 7.13594 7.01156
#
# Compressibility (1/GPa) = 0.01710624
#
# Stress axis : x y z
#
# Youngs Moduli (GPa) = 58.63703 85.87610 96.07861
#
# Poissons Ratio (x) = 0.30607 0.36310
# Poissons Ratio (y) = 0.20899 0.35137
# Poissons Ratio (z) = 0.22160 0.31405
#
# Static dielectric constant tensor:
#      x y z
#    x 3.285990 0.000000 0.000000 
#    y 0.000000 3.696420 0.000000 
#    z 0.000000 0.000000 3.821610 
# 
# 
# High freq. dielectric constant tensor:
#      x y z
#    x 1.741050 0.000000 0.000000 
#    y 0.000000 1.789260 0.000000 
#    z 0.000000 0.000000 1.777200 
# 
# From -- ./inp_files/29772.got.cif
#   From: 2010.03.12/outbox.cif.g09.slc.cpg/sg57_15_cif.got.tgz:29772.got - 2010.04.16 15:48:40.
