data_PCOD8232270
_publ_section_title
;
Structure prediction by ZEFSAII (Michael W. Deem and Ramdas Pophale) SiO2 
 PCOD8232270
Probable space group: P B C M
;
_chemical_formula_sum "Si O2"
_cell_formula_units_Z 64
_cell_length_a 13.220215
_cell_length_b 25.087981
_cell_length_c 9.497239
_cell_angle_alpha 90.000000
_cell_angle_beta 90.000000
_cell_angle_gamma 90.000000
_cell_volume 3149.935039
_symmetry_space_group_name_H-M "P B C M"
_symmetry_group_IT_number 57
_symmetry_cell_setting 'orthorhombic'
loop_
_space_group_symop_operation_xyz
x,y,z
-x,-y,1/2+z
x,1/2-y,-z
-x,1/2+y,1/2-z
-x,-y,-z
x,y,1/2-z
-x,1/2+y,z
x,1/2-y,1/2+z
loop_
_atom_site_type_symbol
_atom_site_label
_atom_site_fract_x
_atom_site_fract_y
_atom_site_fract_z
Si Si1 0.779711 0.303481 0.415523
Si Si2 0.722367 0.515848 0.913919
Si Si3 0.156789 0.300750 0.589484
Si Si4 0.998086 0.153611 0.905048
Si Si5 0.943309 0.960949 0.097578
Si Si6 0.390925 0.302855 0.913897
Si Si7 0.679817 0.086023 0.909902
Si Si8 0.552615 0.598188 0.910552
O O1 0.747295 0.250000 0.500000
O O2 0.766787 0.291687 0.250000
O O3 0.895382 0.317956 0.454198
O O4 0.710187 0.354039 0.461040
O O5 0.706298 0.503183 0.750000
O O6 0.825839 0.548292 0.947168
O O7 0.629588 0.552957 0.966678
O O8 0.729158 0.459478 0.994238
O O9 0.125727 0.250000 0.500000
O O10 0.127808 0.290709 0.750000
O O11 0.272847 0.315940 0.570982
O O12 0.085204 0.344915 0.522841
O O13 0.031012 0.175707 0.750000
O O14 0.985168 0.090570 0.894047
O O15 0.938638 0.988444 0.250000
O O16 0.000000 0.000000 0.000000
O O17 0.422107 0.296123 0.750000
O O18 0.420201 0.250000 0.000000
O O19 0.447851 0.351627 0.985204
O O20 0.719457 0.079057 0.750000
O O21 0.560195 0.076048 0.916633
O O22 0.581595 0.615396 0.750000
#
# Coordination Sequence:
#
# PCOD8232270 Si02
#       8
#     8   8   8   8   8   8   8   8
#     4  10  22  39  58  82 112 149 192 236 285 340
#     4  10  21  37  59  88 119 151 189 237 294 349
#     4  10  20  33  51  77 107 139 176 217 265 323
#     4  10  20  35  55  78 108 145 182 223 272 325
#     4  10  21  36  55  81 113 148 184 224 274 332
#     4  10  21  36  55  81 114 151 189 233 287 346
#     4  10  22  40  61  84 112 148 191 239 291 347
#     4  10  21  38  60  85 113 147 191 243 295 348
#
# _framework density 20.317881
#
# number of rings (size 3 to 8) (size 9 to 14) (size 15 to 20)
#    0.000    2.000    0.000    3.000    0.000    8.000 
#    0.000    1.250    0.000    0.000    0.000    0.000 
#    0.000    0.000    0.000    0.000    0.000    0.000 
#
# Total GULP energy -793331.853109 kJ/mol
# GULP energy per Si atom -12395.810205 kJ/mol
# Density = 2.027164 g / cm^3
# Si number density = 20.317881 Si / 1000 Ang^3
#
#
#
# Elastic Constant Matrix: (Units=GPa)
#
#
# Indices 1 2 3 4 5 6 
#
# 1 53.8260 19.5550 19.2604 0.0000 0.0000 0.0000
# 2 19.5550 98.9881 36.7896 0.0000 0.0000 0.0000
# 3 19.2604 36.7896 83.2123 0.0000 0.0000 0.0000
# 4 0.0000 0.0000 0.0000 39.4986 0.0000 0.0000
# 5 0.0000 0.0000 0.0000 0.0000 26.0006 0.0000
# 6 0.0000 0.0000 0.0000 0.0000 0.0000 31.2213
#
#
#
# Elastic Compliance Matrix: (Units=1/GPa)
#
#
# Indices 1 2 3 4 5 6 
#
# 1 0.020879 -0.002786 -0.003601 0.000000 0.000000 0.000000
# 2 -0.002786 0.012460 -0.004864 0.000000 0.000000 0.000000
# 3 -0.003601 -0.004864 0.015001 0.000000 0.000000 0.000000
# 4 0.000000 0.000000 0.000000 0.025317 0.000000 0.000000
# 5 0.000000 0.000000 0.000000 0.000000 0.038461 0.000000
# 6 0.000000 0.000000 0.000000 0.000000 0.000000 0.032029
#
#
# Mechanical properties :
#
#
# Convention : Reuss Voigt Hill
#
# Bulk Modulus (GPa) = 38.70194 43.02627 40.86411
# Shear Modulus (GPa) = 28.52845 30.03886 29.28365
#
# Velocity S-wave (km/s) = 3.75120 3.84923 3.80053
# Velocity P-wave (km/s) = 6.15237 6.40140 6.27812
#
# Compressibility (1/GPa) = 0.02583850
#
# Stress axis : x y z
#
# Youngs Moduli (GPa) = 47.89469 80.25415 66.66060
#
# Poissons Ratio (x) = 0.22362 0.24003
# Poissons Ratio (y) = 0.13345 0.32424
# Poissons Ratio (z) = 0.17246 0.39036
#
# Static dielectric constant tensor:
#      x y z
#    x 3.803700 0.000000 0.000000 
#    y 0.000000 3.623620 0.000000 
#    z 0.000000 0.000000 3.900590 
# 
# 
# High freq. dielectric constant tensor:
#      x y z
#    x 1.794190 0.000000 0.000000 
#    y 0.000000 1.789730 0.000000 
#    z 0.000000 0.000000 1.791640 
# 
# From -- ./inp_files/5651.got.cif
#   From: 2010.03.12/outbox.cif.g09.slc.cpg/sg57_3_cif.got.tgz:5651.got - 2010.04.16 15:48:40.
