data_PCOD8232632
_publ_section_title
;
Structure prediction by ZEFSAII (Michael W. Deem and Ramdas Pophale) SiO2 
 PCOD8232632
Probable space group: P B C M
;
_chemical_formula_sum "Si O2"
_cell_formula_units_Z 64
_cell_length_a 21.696762
_cell_length_b 19.580388
_cell_length_c 8.979556
_cell_angle_alpha 90.000000
_cell_angle_beta 90.000000
_cell_angle_gamma 90.000000
_cell_volume 3814.793919
_symmetry_space_group_name_H-M "P B C M"
_symmetry_group_IT_number 57
_symmetry_cell_setting 'orthorhombic'
loop_
_space_group_symop_operation_xyz
x,y,z
-x,-y,1/2+z
x,1/2-y,-z
-x,1/2+y,1/2-z
-x,-y,-z
x,y,1/2-z
-x,1/2+y,z
x,1/2-y,1/2+z
loop_
_atom_site_type_symbol
_atom_site_label
_atom_site_fract_x
_atom_site_fract_y
_atom_site_fract_z
Si Si1 0.014283 0.605258 0.415713
Si Si2 0.192772 0.946079 0.574202
Si Si3 0.385763 0.684275 0.076388
Si Si4 0.474648 0.316429 0.923499
Si Si5 0.667137 0.457768 0.923492
Si Si6 0.441039 0.034943 0.074733
Si Si7 0.876596 0.177030 0.571601
Si Si8 0.915150 0.536355 0.585377
O O1 0.009298 0.637139 0.250000
O O2 0.945460 0.595073 0.482689
O O3 0.054954 0.655026 0.518694
O O4 0.043466 0.530940 0.407730
O O5 0.183674 0.930095 0.750000
O O6 0.261762 0.970103 0.537355
O O7 0.173709 0.878168 0.484274
O O8 0.151316 0.011184 0.524798
O O9 0.384057 0.696711 0.250000
O O10 0.455441 0.673668 0.018791
O O11 0.346213 0.619528 0.028792
O O12 0.355067 0.750000 0.000000
O O13 0.473327 0.302600 0.750000
O O14 0.438382 0.384946 0.966270
O O15 0.443980 0.250000 0.000000
O O16 0.652300 0.469749 0.750000
O O17 0.623927 0.506841 0.018624
O O18 0.448156 0.023536 0.250000
O O19 0.500000 0.000000 0.000000
O O20 0.859619 0.250000 0.500000
O O21 0.875029 0.181511 0.750000
O O22 0.908820 0.568130 0.750000
#
# Coordination Sequence:
#
# PCOD8232632 Si02
#       8
#     8   8   8   8   8   8   8   8
#     4   9  16  27  45  69  94 121 156 197 241 281
#     4   9  19  34  50  68  96 132 169 206 243 293
#     4   9  17  30  45  64  92 124 161 201 243 293
#     4   9  18  32  49  71  96 122 155 197 245 301
#     4  10  20  35  51  71 100 133 169 210 257 306
#     4  11  21  34  52  75 101 128 164 210 262 313
#     4  11  21  33  49  69  99 135 172 208 243 287
#     4   8  14  26  44  67  92 120 154 193 239 282
#
# _framework density 16.776789999999998
#
# number of rings (size 3 to 8) (size 9 to 14) (size 15 to 20)
#    0.000    2.500    1.250    2.625    0.000    5.500 
#    0.000    1.250    0.000    0.000    0.000    0.875 
#    0.000    2.000    0.000    0.000    0.000    0.000 
#
# Total GULP energy -793341.558679 kJ/mol
# GULP energy per Si atom -12395.961854 kJ/mol
# Density = 1.673861 g / cm^3
# Si number density = 16.776790 Si / 1000 Ang^3
#
#
#
# Elastic Constant Matrix: (Units=GPa)
#
#
# Indices 1 2 3 4 5 6 
#
# 1 107.8523 51.8922 43.3287 0.0000 0.0000 0.0000
# 2 51.8922 72.9173 44.5108 0.0000 0.0000 0.0000
# 3 43.3287 44.5108 84.3159 0.0000 0.0000 0.0000
# 4 0.0000 0.0000 0.0000 27.5880 0.0000 0.0000
# 5 0.0000 0.0000 0.0000 0.0000 22.5868 0.0000
# 6 0.0000 0.0000 0.0000 0.0000 0.0000 18.2350
#
#
#
# Elastic Compliance Matrix: (Units=1/GPa)
#
#
# Indices 1 2 3 4 5 6 
#
# 1 0.014589 -0.008566 -0.002975 0.000000 0.000000 0.000000
# 2 -0.008566 0.025265 -0.008935 0.000000 0.000000 0.000000
# 3 -0.002975 -0.008935 0.018106 0.000000 0.000000 0.000000
# 4 0.000000 0.000000 0.000000 0.036248 0.000000 0.000000
# 5 0.000000 0.000000 0.000000 0.000000 0.044274 0.000000
# 6 0.000000 0.000000 0.000000 0.000000 0.000000 0.054840
#
#
# Mechanical properties :
#
#
# Convention : Reuss Voigt Hill
#
# Bulk Modulus (GPa) = 58.80059 60.50543 59.65301
# Shear Modulus (GPa) = 20.83839 22.03887 21.43863
#
# Velocity S-wave (km/s) = 3.52816 3.62837 3.57862
# Velocity P-wave (km/s) = 7.19181 7.32780 7.26012
#
# Compressibility (1/GPa) = 0.01700663
#
# Stress axis : x y z
#
# Youngs Moduli (GPa) = 68.54676 39.58070 55.23085
#
# Poissons Ratio (x) = 0.33906 0.16429
# Poissons Ratio (y) = 0.58719 0.49351
# Poissons Ratio (z) = 0.20390 0.35367
#
# Static dielectric constant tensor:
#      x y z
#    x 3.148640 0.000000 0.000000 
#    y 0.000000 3.095900 0.000000 
#    z 0.000000 0.000000 3.229560 
# 
# 
# High freq. dielectric constant tensor:
#      x y z
#    x 1.626320 0.000000 0.000000 
#    y 0.000000 1.626010 0.000000 
#    z 0.000000 0.000000 1.650160 
# 
# From -- ./inp_files/7176.got.cif
#   From: 2010.03.12/outbox.cif.g09.slc.cpg/sg57_4_cif.got.tgz:7176.got - 2010.04.16 15:48:40.
