data_PCOD8232105
_publ_section_title
;
Structure prediction by ZEFSAII (Michael W. Deem and Ramdas Pophale) SiO2 
 PCOD8232105
Probable space group: P B C M
;
_chemical_formula_sum "Si O2"
_cell_formula_units_Z 64
_cell_length_a 18.275783
_cell_length_b 24.244663
_cell_length_c 9.213623
_cell_angle_alpha 90.000000
_cell_angle_beta 90.000000
_cell_angle_gamma 90.000000
_cell_volume 4082.466057
_symmetry_space_group_name_H-M "P B C M"
_symmetry_group_IT_number 57
_symmetry_cell_setting 'orthorhombic'
loop_
_space_group_symop_operation_xyz
x,y,z
-x,-y,1/2+z
x,1/2-y,-z
-x,1/2+y,1/2-z
-x,-y,-z
x,y,1/2-z
-x,1/2+y,z
x,1/2-y,1/2+z
loop_
_atom_site_type_symbol
_atom_site_label
_atom_site_fract_x
_atom_site_fract_y
_atom_site_fract_z
Si Si1 0.408810 0.046897 0.418705
Si Si2 0.889030 0.997216 0.417297
Si Si3 0.254048 0.485103 0.585661
Si Si4 0.047605 0.805531 0.579673
Si Si5 0.460661 0.926426 0.082857
Si Si6 0.021149 0.585270 0.918456
Si Si7 0.781263 0.196590 0.416614
Si Si8 0.306747 0.609943 0.912782
O O1 0.419739 0.056205 0.250000
O O2 0.464114 0.089524 0.498767
O O3 0.322703 0.054456 0.458852
O O4 0.432139 0.985951 0.467916
O O5 0.881718 0.015478 0.250000
O O6 0.946240 0.947952 0.435315
O O7 0.812153 0.974283 0.475668
O O8 0.912859 0.050634 0.509735
O O9 0.228473 0.471622 0.750000
O O10 0.281548 0.547308 0.576819
O O11 0.019896 0.750000 0.500000
O O12 0.027156 0.803117 0.750000
O O13 0.009014 0.857452 0.502872
O O14 0.133545 0.813008 0.554460
O O15 0.481367 0.926322 0.250000
O O16 0.393583 0.884463 0.051334
O O17 0.040935 0.596081 0.750000
O O18 0.752089 0.250000 0.500000
O O19 0.763715 0.206056 0.250000
O O20 0.738557 0.143407 0.470300
O O21 0.291599 0.632245 0.750000
#
# Coordination Sequence:
#
# PCOD8232105 Si02
#       8
#     8   8   8   8   8   8   8   8
#     4   8  14  24  37  55  79 106 136 167 198 235
#     4  10  20  31  44  64  88 116 150 184 219 262
#     4   9  17  28  42  60  84 114 143 173 212 253
#     4  10  20  33  49  68  88 112 145 182 220 262
#     4   8  14  24  37  54  77 106 136 165 199 234
#     4  10  20  33  47  63  87 117 147 182 222 262
#     4  10  20  31  43  60  81 106 137 173 211 248
#     4   9  17  28  41  58  82 111 142 174 208 248
#
# _framework density 15.6768
#
# number of rings (size 3 to 8) (size 9 to 14) (size 15 to 20)
#    0.000    2.750    0.000    3.750    0.000    6.500 
#    0.000    2.500    0.000    0.000    0.000    0.000 
#    0.000    1.000    0.000    3.250    0.000    4.750 
#
# Total GULP energy -793309.921738 kJ/mol
# GULP energy per Si atom -12395.467527 kJ/mol
# Density = 1.564112 g / cm^3
# Si number density = 15.676800 Si / 1000 Ang^3
#
#
#
# Elastic Constant Matrix: (Units=GPa)
#
#
# Indices 1 2 3 4 5 6 
#
# 1 72.5187 9.6115 41.0469 0.0000 0.0000 0.0000
# 2 9.6115 48.3227 30.9128 0.0000 0.0000 0.0000
# 3 41.0469 30.9128 88.5825 0.0000 0.0000 0.0000
# 4 0.0000 0.0000 0.0000 24.4610 0.0000 0.0000
# 5 0.0000 0.0000 0.0000 0.0000 28.5274 0.0000
# 6 0.0000 0.0000 0.0000 0.0000 0.0000 13.3180
#
#
#
# Elastic Compliance Matrix: (Units=1/GPa)
#
#
# Indices 1 2 3 4 5 6 
#
# 1 0.018901 0.002373 -0.009586 0.000000 0.000000 0.000000
# 2 0.002373 0.026940 -0.010501 0.000000 0.000000 0.000000
# 3 -0.009586 -0.010501 0.019396 0.000000 0.000000 0.000000
# 4 0.000000 0.000000 0.000000 0.040881 0.000000 0.000000
# 5 0.000000 0.000000 0.000000 0.000000 0.035054 0.000000
# 6 0.000000 0.000000 0.000000 0.000000 0.000000 0.075086
#
#
# Mechanical properties :
#
#
# Convention : Reuss Voigt Hill
#
# Bulk Modulus (GPa) = 33.54797 41.39624 37.47210
# Shear Modulus (GPa) = 19.11149 21.78479 20.44814
#
# Velocity S-wave (km/s) = 3.49534 3.73180 3.61551
# Velocity P-wave (km/s) = 6.14297 6.71058 6.43304
#
# Compressibility (1/GPa) = 0.02980807
#
# Stress axis : x y z
#
# Youngs Moduli (GPa) = 52.90683 37.11985 51.55822
#
# Poissons Ratio (x) = -0.08809 0.49426
# Poissons Ratio (y) = -0.12556 0.54141
# Poissons Ratio (z) = 0.50719 0.38979
#
# Static dielectric constant tensor:
#      x y z
#    x 3.236830 0.000000 0.000000 
#    y 0.000000 2.724200 0.000000 
#    z 0.000000 0.000000 3.109450 
# 
# 
# High freq. dielectric constant tensor:
#      x y z
#    x 1.596350 0.000000 0.000000 
#    y 0.000000 1.554540 0.000000 
#    z 0.000000 0.000000 1.612570 
# 
# From -- ./inp_files/7418.got.cif
#   From: 2010.03.12/outbox.cif.g09.slc.cpg/sg57_4_cif.got.tgz:7418.got - 2010.04.16 15:48:40.
