data_PCOD8232441
_publ_section_title
;
Structure prediction by ZEFSAII (Michael W. Deem and Ramdas Pophale) SiO2 
 PCOD8232441
Probable space group: P B C M
;
_chemical_formula_sum "Si O2"
_cell_formula_units_Z 64
_cell_length_a 20.749927
_cell_length_b 18.366985
_cell_length_c 8.958676
_cell_angle_alpha 90.000000
_cell_angle_beta 90.000000
_cell_angle_gamma 90.000000
_cell_volume 3414.273243
_symmetry_space_group_name_H-M "P B C M"
_symmetry_group_IT_number 57
_symmetry_cell_setting 'orthorhombic'
loop_
_space_group_symop_operation_xyz
x,y,z
-x,-y,1/2+z
x,1/2-y,-z
-x,1/2+y,1/2-z
-x,-y,-z
x,y,1/2-z
-x,1/2+y,z
x,1/2-y,1/2+z
loop_
_atom_site_type_symbol
_atom_site_label
_atom_site_fract_x
_atom_site_fract_y
_atom_site_fract_z
Si Si1 0.571936 0.417904 0.419853
Si Si2 0.933836 0.079765 0.925477
Si Si3 0.936399 0.586213 0.073993
Si Si4 0.811635 0.827633 0.574094
Si Si5 0.812101 0.172379 0.926446
Si Si6 0.294160 0.419182 0.081710
Si Si7 0.697222 0.091242 0.078458
Si Si8 0.434095 0.066050 0.920617
O O1 0.595333 0.408143 0.250000
O O2 0.625719 0.382552 0.527331
O O3 0.564937 0.503123 0.456193
O O4 0.499129 0.384782 0.442242
O O5 0.943410 0.085228 0.750000
O O6 0.872383 0.124458 0.980979
O O7 0.922882 0.996596 0.977182
O O8 0.997361 0.114053 0.000958
O O9 0.943502 0.591683 0.250000
O O10 0.877927 0.636203 0.016006
O O11 0.801918 0.750000 0.500000
O O12 0.812825 0.817715 0.750000
O O13 0.752479 0.879928 0.533643
O O14 0.810576 0.180843 0.750000
O O15 0.819598 0.250000 0.000000
O O16 0.747341 0.133989 0.978189
O O17 0.270371 0.402981 0.250000
O O18 0.294126 0.505498 0.050500
O O19 0.367406 0.388964 0.057995
O O20 0.707011 0.112827 0.250000
O O21 0.433536 0.033685 0.750000
#
# Coordination Sequence:
#
# PCOD8232441 Si02
#       8
#     8   8   8   8   8   8   8   8
#     4   9  15  25  45  73 104 136 170 213 263 311
#     4   9  19  36  58  82 106 133 168 211 257 307
#     4   9  19  36  57  80 105 134 170 211 255 306
#     4  11  23  37  53  75 105 140 178 218 260 308
#     4  11  23  38  55  77 107 141 178 218 261 310
#     4   9  18  33  53  77 105 137 174 216 261 310
#     4  10  20  34  53  78 107 139 176 217 262 314
#     4   8  15  27  44  71 105 136 169 213 263 313
#
# _framework density 18.744838999999999
#
# number of rings (size 3 to 8) (size 9 to 14) (size 15 to 20)
#    0.000    2.500    0.000    3.000    0.000    6.500 
#    0.000    5.000    0.000    0.750    0.000    3.500 
#    0.000    0.000    0.000    0.000    0.000    0.000 
#
# Total GULP energy -793347.921102 kJ/mol
# GULP energy per Si atom -12396.061267 kJ/mol
# Density = 1.870217 g / cm^3
# Si number density = 18.744839 Si / 1000 Ang^3
#
#
#
# Elastic Constant Matrix: (Units=GPa)
#
#
# Indices 1 2 3 4 5 6 
#
# 1 3494.6470 1972.4784 632.0921 0.0000 0.0000 0.0000
# 2 1972.4784 1166.9587 366.1697 0.0000 0.0000 0.0000
# 3 632.0921 366.1697 161.3992 0.0000 0.0000 0.0000
# 4 0.0000 0.0000 0.0000 24.1804 0.0000 0.0000
# 5 0.0000 0.0000 0.0000 0.0000 34.4294 0.0000
# 6 0.0000 0.0000 0.0000 0.0000 0.0000 0.5237
#
#
#
# Elastic Compliance Matrix: (Units=1/GPa)
#
#
# Indices 1 2 3 4 5 6 
#
# 1 0.006374 -0.010207 -0.001805 0.000000 0.000000 0.000000
# 2 -0.010207 0.019320 -0.003858 0.000000 0.000000 0.000000
# 3 -0.001805 -0.003858 0.022015 0.000000 0.000000 0.000000
# 4 0.000000 0.000000 0.000000 0.041356 0.000000 0.000000
# 5 0.000000 0.000000 0.000000 0.000000 0.029045 0.000000
# 6 0.000000 0.000000 0.000000 0.000000 0.000000 1.909420
#
#
# Mechanical properties :
#
#
# Convention : Reuss Voigt Hill
#
# Bulk Modulus (GPa) = 62.61613 1196.05394 629.33503
# Shear Modulus (GPa) = 2.42179 135.31102 68.86640
#
# Velocity S-wave (km/s) = 1.13788 8.50544 6.06783
# Velocity P-wave (km/s) = 5.93324 27.12771 19.63563
#
# Compressibility (1/GPa) = 0.01597033
#
# Stress axis : x y z
#
# Youngs Moduli (GPa) = 156.89319 51.75882 45.42287
#
# Poissons Ratio (x) = 0.52831 0.08197
# Poissons Ratio (y) = 1.60144 0.17524
# Poissons Ratio (z) = 0.28311 0.19968
#
# Static dielectric constant tensor:
#      x y z
#    x 3.865550 0.000000 0.000000 
#    y 0.000000 3.124830 0.000000 
#    z 0.000000 0.000000 3.417980 
# 
# 
# High freq. dielectric constant tensor:
#      x y z
#    x 1.752700 0.000000 0.000000 
#    y 0.000000 1.680080 0.000000 
#    z 0.000000 0.000000 1.731930 
# 
# From -- ./inp_files/8559.got.cif
#   From: 2010.03.12/outbox.cif.g09.slc.cpg/sg57_5_cif.got.tgz:8559.got - 2010.04.16 15:48:40.
