data_PCOD8232629
_publ_section_title
;
Structure prediction by ZEFSAII (Michael W. Deem and Ramdas Pophale) SiO2 
 PCOD8232629
Probable space group: P B C M
;
_chemical_formula_sum "Si O2"
_cell_formula_units_Z 64
_cell_length_a 17.781886
_cell_length_b 22.579153
_cell_length_c 9.271411
_cell_angle_alpha 90.000000
_cell_angle_beta 90.000000
_cell_angle_gamma 90.000000
_cell_volume 3722.470818
_symmetry_space_group_name_H-M "P B C M"
_symmetry_group_IT_number 57
_symmetry_cell_setting 'orthorhombic'
loop_
_space_group_symop_operation_xyz
x,y,z
-x,-y,1/2+z
x,1/2-y,-z
-x,1/2+y,1/2-z
-x,-y,-z
x,y,1/2-z
-x,1/2+y,z
x,1/2-y,1/2+z
loop_
_atom_site_type_symbol
_atom_site_label
_atom_site_fract_x
_atom_site_fract_y
_atom_site_fract_z
Si Si1 0.090287 0.639912 0.415703
Si Si2 0.929300 0.690581 0.420227
Si Si3 0.927370 0.477477 0.081414
Si Si4 0.329324 0.042235 0.080288
Si Si5 0.348790 0.581695 0.419070
Si Si6 0.749668 0.308523 0.916588
Si Si7 0.509475 0.558894 0.085523
Si Si8 0.174625 0.086718 0.417552
O O1 0.085345 0.617886 0.250000
O O2 0.100825 0.584396 0.519571
O O3 0.161477 0.682219 0.439938
O O4 0.015119 0.674717 0.459367
O O5 0.905558 0.750000 0.500000
O O6 0.919945 0.699300 0.250000
O O7 0.874436 0.639771 0.486188
O O8 0.945727 0.471625 0.250000
O O9 0.861612 0.523527 0.049618
O O10 0.000000 0.500000 0.000000
O O11 0.318626 0.028848 0.250000
O O12 0.405502 0.081517 0.050355
O O13 0.260145 0.082680 0.023001
O O14 0.329558 0.978953 0.000998
O O15 0.333321 0.570966 0.250000
O O16 0.296755 0.634987 0.477078
O O17 0.437156 0.600711 0.447741
O O18 0.729852 0.298866 0.750000
O O19 0.723624 0.250000 0.000000
O O20 0.506307 0.539572 0.250000
O O21 0.500000 0.500000 0.000000
O O22 0.174656 0.100642 0.250000
#
# Coordination Sequence:
#
# PCOD8232629 Si02
#       8
#     8   8   8   8   8   8   8   8
#     4  10  20  35  51  69  95 123 155 199 243 279
#     4  10  20  35  50  64  87 118 155 197 234 270
#     4  11  20  32  50  72  98 126 155 191 238 290
#     4   9  16  28  49  74  94 121 157 189 232 290
#     4   9  17  30  46  69 100 127 149 189 242 280
#     4  10  21  34  49  68  95 130 166 203 240 282
#     4   8  14  25  44  69  95 119 147 180 221 278
#     4   9  18  32  48  68  96 123 149 192 237 271
#
# _framework density 17.192882000000001
#
# number of rings (size 3 to 8) (size 9 to 14) (size 15 to 20)
#    0.000    2.500    1.250    1.500    0.000    1.500 
#    0.000    1.250    0.000    0.750    0.000    0.000 
#    0.000    0.000    0.000    0.000    0.000    0.000 
#
# Total GULP energy -793034.610697 kJ/mol
# GULP energy per Si atom -12391.165792 kJ/mol
# Density = 1.715375 g / cm^3
# Si number density = 17.192882 Si / 1000 Ang^3
#
#
#
# Elastic Constant Matrix: (Units=GPa)
#
#
# Indices 1 2 3 4 5 6 
#
# 1 144.0774 45.9149 24.3720 0.0000 0.0000 0.0000
# 2 45.9149 90.6503 30.0753 0.0000 0.0000 0.0000
# 3 24.3720 30.0753 38.9272 0.0000 0.0000 0.0000
# 4 0.0000 0.0000 0.0000 28.0410 0.0000 0.0000
# 5 0.0000 0.0000 0.0000 0.0000 16.3919 0.0000
# 6 0.0000 0.0000 0.0000 0.0000 0.0000 17.2616
#
#
#
# Elastic Compliance Matrix: (Units=1/GPa)
#
#
# Indices 1 2 3 4 5 6 
#
# 1 0.008479 -0.003407 -0.002677 0.000000 0.000000 0.000000
# 2 -0.003407 0.016202 -0.010385 0.000000 0.000000 0.000000
# 3 -0.002677 -0.010385 0.035388 0.000000 0.000000 0.000000
# 4 0.000000 0.000000 0.000000 0.035662 0.000000 0.000000
# 5 0.000000 0.000000 0.000000 0.000000 0.061006 0.000000
# 6 0.000000 0.000000 0.000000 0.000000 0.000000 0.057932
#
#
# Mechanical properties :
#
#
# Convention : Reuss Voigt Hill
#
# Bulk Modulus (GPa) = 36.85560 52.70883 44.78222
# Shear Modulus (GPa) = 19.48168 23.89173 21.68671
#
# Velocity S-wave (km/s) = 3.36984 3.73182 3.55544
# Velocity P-wave (km/s) = 6.05179 7.02086 6.55426
#
# Compressibility (1/GPa) = 0.02713292
#
# Stress axis : x y z
#
# Youngs Moduli (GPa) = 117.93623 61.71911 28.25779
#
# Poissons Ratio (x) = 0.21026 0.07564
# Poissons Ratio (y) = 0.40177 0.29346
# Poissons Ratio (z) = 0.31568 0.64096
#
# Static dielectric constant tensor:
#      x y z
#    x 3.802410 0.000000 0.000000 
#    y 0.000000 2.967050 0.000000 
#    z 0.000000 0.000000 3.016760 
# 
# 
# High freq. dielectric constant tensor:
#      x y z
#    x 1.680920 0.000000 0.000000 
#    y 0.000000 1.633280 0.000000 
#    z 0.000000 0.000000 1.651970 
# 
# From -- ./inp_files/7257.got.cif
#   From: 2010.03.12/outbox.cif.g09.slc.cpg/sg57_4_cif.got.tgz:7257.got - 2010.04.16 15:48:40.
