data_PCOD8232528
_publ_section_title
;
Structure prediction by ZEFSAII (Michael W. Deem and Ramdas Pophale) SiO2 
 PCOD8232528
Probable space group: P B C M
;
_chemical_formula_sum "Si O2"
_cell_formula_units_Z 56
_cell_length_a 16.497021
_cell_length_b 21.316999
_cell_length_c 8.799596
_cell_angle_alpha 90.000000
_cell_angle_beta 90.000000
_cell_angle_gamma 90.000000
_cell_volume 3094.527352
_symmetry_space_group_name_H-M "P B C M"
_symmetry_group_IT_number 57
_symmetry_cell_setting 'orthorhombic'
loop_
_space_group_symop_operation_xyz
x,y,z
-x,-y,1/2+z
x,1/2-y,-z
-x,1/2+y,1/2-z
-x,-y,-z
x,y,1/2-z
-x,1/2+y,z
x,1/2-y,1/2+z
loop_
_atom_site_type_symbol
_atom_site_label
_atom_site_fract_x
_atom_site_fract_y
_atom_site_fract_z
Si Si1 0.041655 0.315669 0.425657
Si Si2 0.209333 0.122505 0.925827
Si Si3 0.623536 0.029622 0.427093
Si Si4 0.640728 0.683591 0.071324
Si Si5 0.040709 0.940085 0.424732
Si Si6 0.477841 0.094019 0.927082
Si Si7 0.790779 0.493830 0.074757
O O1 0.016508 0.250000 0.500000
O O2 0.020846 0.308984 0.250000
O O3 0.990555 0.374082 0.496210
O O4 0.136785 0.328720 0.452519
O O5 0.237231 0.121897 0.750000
O O6 0.284320 0.139048 0.032543
O O7 0.181654 0.053288 0.974519
O O8 0.637705 0.041132 0.250000
O O9 0.563042 0.082015 0.491092
O O10 0.585836 0.961472 0.459651
O O11 0.708183 0.036492 0.513718
O O12 0.629519 0.689032 0.250000
O O13 0.660888 0.750000 0.000000
O O14 0.558454 0.657134 0.998127
O O15 0.013297 0.941756 0.250000
O O16 0.137957 0.942630 0.442822
O O17 0.000000 0.000000 0.500000
O O18 0.494179 0.103005 0.750000
O O19 0.779789 0.513870 0.250000
#
# Coordination Sequence:
#
# PCOD8232528 Si02
#       7
#     8   8   8   8   8   8   8
#     4  10  22  38  56  79 111 148 190 234 280 336
#     4  11  21  35  54  79 113 149 186 227 278 335
#     4  10  20  34  55  80 110 142 177 222 274 327
#     4  12  24  37  54  78 113 151 189 225 271 329
#     4  10  21  37  56  82 112 147 188 235 285 338
#     4  10  20  35  55  79 109 142 181 224 270 321
#     4  11  21  33  55  83 113 146 184 231 284 336
#
# _framework density 18.096461999999999
#
# number of rings (size 3 to 8) (size 9 to 14) (size 15 to 20)
#    0.000    1.429    2.857    3.429    0.000    4.571 
#    0.000    0.000    0.000    0.857    0.000    4.000 
#    0.000    0.000    0.000    0.000    0.000    0.000 
#
# Total GULP energy -694585.747681 kJ/mol
# GULP energy per Si atom -12403.316923 kJ/mol
# Density = 1.805527 g / cm^3
# Si number density = 18.096462 Si / 1000 Ang^3
#
#
#
# Elastic Constant Matrix: (Units=GPa)
#
#
# Indices 1 2 3 4 5 6 
#
# 1 95.1763 42.3386 37.7624 0.0000 0.0000 0.0000
# 2 42.3386 100.0045 26.3299 0.0000 0.0000 0.0000
# 3 37.7624 26.3299 60.0346 0.0000 0.0000 0.0000
# 4 0.0000 0.0000 0.0000 30.4446 0.0000 0.0000
# 5 0.0000 0.0000 0.0000 0.0000 26.5885 0.0000
# 6 0.0000 0.0000 0.0000 0.0000 0.0000 26.0976
#
#
#
# Elastic Compliance Matrix: (Units=1/GPa)
#
#
# Indices 1 2 3 4 5 6 
#
# 1 0.015647 -0.004560 -0.007842 0.000000 0.000000 0.000000
# 2 -0.004560 0.012634 -0.002673 0.000000 0.000000 0.000000
# 3 -0.007842 -0.002673 0.022762 0.000000 0.000000 0.000000
# 4 0.000000 0.000000 0.000000 0.032847 0.000000 0.000000
# 5 0.000000 0.000000 0.000000 0.000000 0.037610 0.000000
# 6 0.000000 0.000000 0.000000 0.000000 0.000000 0.038318
#
#
# Mechanical properties :
#
#
# Convention : Reuss Voigt Hill
#
# Bulk Modulus (GPa) = 47.86229 52.00858 49.93543
# Shear Modulus (GPa) = 25.38971 26.54511 25.96741
#
# Velocity S-wave (km/s) = 3.74976 3.83413 3.79218
# Velocity P-wave (km/s) = 6.72706 6.95721 6.84310
#
# Compressibility (1/GPa) = 0.02089328
#
# Stress axis : x y z
#
# Youngs Moduli (GPa) = 63.91190 79.15381 43.93263
#
# Poissons Ratio (x) = 0.36090 0.34453
# Poissons Ratio (y) = 0.29141 0.11743
# Poissons Ratio (z) = 0.50121 0.21157
#
# Static dielectric constant tensor:
#      x y z
#    x 3.388190 0.000000 0.000000 
#    y 0.000000 3.310890 0.000000 
#    z 0.000000 0.000000 3.470570 
# 
# 
# High freq. dielectric constant tensor:
#      x y z
#    x 1.699870 0.000000 0.000000 
#    y 0.000000 1.681060 0.000000 
#    z 0.000000 0.000000 1.710850 
# 
# From -- ./inp_files/5128.got.cif
#   From: 2010.03.12/outbox.cif.g09.slc.cpg/sg57_3_cif.got.tgz:5128.got - 2010.04.16 15:48:40.
