data_PCOD8232065
_publ_section_title
;
Structure prediction by ZEFSAII (Michael W. Deem and Ramdas Pophale) SiO2 
 PCOD8232065
Probable space group: P B C M
;
_chemical_formula_sum "Si O2"
_cell_formula_units_Z 56
_cell_length_a 19.837358
_cell_length_b 8.933330
_cell_length_c 16.270213
_cell_angle_alpha 90.000000
_cell_angle_beta 90.000000
_cell_angle_gamma 90.000000
_cell_volume 2883.304082
_symmetry_space_group_name_H-M "P B C M"
_symmetry_group_IT_number 57
_symmetry_cell_setting 'orthorhombic'
loop_
_space_group_symop_operation_xyz
x,y,z
-x,-y,1/2+z
x,1/2-y,-z
-x,1/2+y,1/2-z
-x,-y,-z
x,y,1/2-z
-x,1/2+y,z
x,1/2-y,1/2+z
loop_
_atom_site_type_symbol
_atom_site_label
_atom_site_fract_x
_atom_site_fract_y
_atom_site_fract_z
Si Si1 0.705361 0.412514 0.019702
Si Si2 0.322535 0.166042 0.914200
Si Si3 0.456361 0.249117 0.655374
Si Si4 0.447332 0.550111 0.931748
Si Si5 0.925562 0.863365 0.654131
Si Si6 0.772364 0.899149 0.657140
Si Si7 0.022383 0.868180 0.059876
O O1 0.625738 0.409753 0.035415
O O2 0.749173 0.470245 0.096126
O O3 0.733844 0.250000 0.000000
O O4 0.715332 0.512124 0.937421
O O5 0.394803 0.140603 0.871694
O O6 0.275881 0.256710 0.852129
O O7 0.336590 0.250000 0.000000
O O8 0.470043 0.229187 0.750000
O O9 0.524491 0.200276 0.609729
O O10 0.438483 0.419810 0.635395
O O11 0.500000 0.500000 0.000000
O O12 0.944627 0.844113 0.750000
O O13 0.846781 0.839314 0.637120
O O14 0.963805 0.734633 0.601680
O O15 0.938371 0.039398 0.630102
O O16 0.767553 0.961065 0.750000
O O17 0.063313 0.750000 0.000000
O O18 0.000000 0.000000 0.000000
#
# Coordination Sequence:
#
# PCOD8232065 Si02
#       7
#     8   8   8   8   8   8   8
#     4  11  23  39  60  85 113 156 198 246 303 361
#     4  10  19  38  60  80 107 153 196 236 291 361
#     4  12  23  36  56  85 112 144 190 246 300 351
#     4  12  22  39  58  80 113 148 194 241 302 366
#     4  10  20  37  61  91 123 163 198 242 302 356
#     4  10  22  40  63  86 119 159 203 248 296 356
#     4   9  19  34  57  89 125 156 198 246 284 338
#
# _framework density 19.422162
#
# number of rings (size 3 to 8) (size 9 to 14) (size 15 to 20)
#    0.000    1.429    4.286    2.571    0.000    6.286 
#    0.000    2.857    0.000    6.857    0.000    0.000 
#    0.000    0.000    0.000    0.000    0.000    0.000 
#
# Total GULP energy -693960.225140 kJ/mol
# GULP energy per Si atom -12392.146877 kJ/mol
# Density = 1.937796 g / cm^3
# Si number density = 19.422162 Si / 1000 Ang^3
#
#
#
# Elastic Constant Matrix: (Units=GPa)
#
#
# Indices 1 2 3 4 5 6 
#
# 1 71.6229 13.6080 31.3667 0.0000 0.0000 0.0000
# 2 13.6080 116.1505 34.2800 0.0000 0.0000 0.0000
# 3 31.3667 34.2800 87.4889 0.0000 0.0000 0.0000
# 4 0.0000 0.0000 0.0000 32.1630 0.0000 0.0000
# 5 0.0000 0.0000 0.0000 0.0000 23.4542 0.0000
# 6 0.0000 0.0000 0.0000 0.0000 0.0000 19.4809
#
#
#
# Elastic Compliance Matrix: (Units=1/GPa)
#
#
# Indices 1 2 3 4 5 6 
#
# 1 0.016567 -0.000213 -0.005856 0.000000 0.000000 0.000000
# 2 -0.000213 0.009738 -0.003739 0.000000 0.000000 0.000000
# 3 -0.005856 -0.003739 0.014995 0.000000 0.000000 0.000000
# 4 0.000000 0.000000 0.000000 0.031092 0.000000 0.000000
# 5 0.000000 0.000000 0.000000 0.000000 0.042636 0.000000
# 6 0.000000 0.000000 0.000000 0.000000 0.000000 0.051332
#
#
# Mechanical properties :
#
#
# Convention : Reuss Voigt Hill
#
# Bulk Modulus (GPa) = 46.11825 48.19685 47.15755
# Shear Modulus (GPa) = 25.87930 28.08680 26.98305
#
# Velocity S-wave (km/s) = 3.65425 3.80692 3.73136
# Velocity P-wave (km/s) = 6.44992 6.64776 6.54959
#
# Compressibility (1/GPa) = 0.02168339
#
# Stress axis : x y z
#
# Youngs Moduli (GPa) = 60.36030 102.69009 66.68959
#
# Poissons Ratio (x) = 0.02183 0.39056
# Poissons Ratio (y) = 0.01283 0.24938
# Poissons Ratio (z) = 0.35350 0.38400
#
# Static dielectric constant tensor:
#      x y z
#    x 3.437130 0.000000 0.000000 
#    y 0.000000 3.959860 0.000000 
#    z 0.000000 0.000000 3.705290 
# 
# 
# High freq. dielectric constant tensor:
#      x y z
#    x 1.738860 0.000000 0.000000 
#    y 0.000000 1.757020 0.000000 
#    z 0.000000 0.000000 1.763270 
# 
# From -- ./inp_files/22994.got.cif
#   From: 2010.03.12/outbox.cif.g09.slc.cpg/sg57_12_cif.got.tgz:22994.got - 2010.04.16 15:48:40.
