data_PCOD8232149
_publ_section_title
;
Structure prediction by ZEFSAII (Michael W. Deem and Ramdas Pophale) SiO2 
 PCOD8232149
Probable space group: P B C M
;
_chemical_formula_sum "Si O2"
_cell_formula_units_Z 48
_cell_length_a 8.978170
_cell_length_b 31.724075
_cell_length_c 9.405898
_cell_angle_alpha 90.000000
_cell_angle_beta 90.000000
_cell_angle_gamma 90.000000
_cell_volume 2679.026794
_symmetry_space_group_name_H-M "P B C M"
_symmetry_group_IT_number 57
_symmetry_cell_setting 'orthorhombic'
loop_
_space_group_symop_operation_xyz
x,y,z
-x,-y,1/2+z
x,1/2-y,-z
-x,1/2+y,1/2-z
-x,-y,-z
x,y,1/2-z
-x,1/2+y,z
x,1/2-y,1/2+z
loop_
_atom_site_type_symbol
_atom_site_label
_atom_site_fract_x
_atom_site_fract_y
_atom_site_fract_z
Si Si1 0.420034 0.035945 0.911945
Si Si2 0.921105 0.708643 0.083085
Si Si3 0.185164 0.423890 0.592871
Si Si4 0.366959 0.338108 0.907607
Si Si5 0.900961 0.125933 0.083632
Si Si6 0.602834 0.378285 0.411627
O O1 0.397482 0.020995 0.750000
O O2 0.518340 0.077647 0.920165
O O3 0.256696 0.044037 0.979494
O O4 0.500000 0.000000 0.000000
O O5 0.930956 0.717211 0.250000
O O6 0.750915 0.697066 0.040130
O O7 0.032006 0.671084 0.039141
O O8 0.972723 0.750000 0.000000
O O9 0.185015 0.444979 0.750000
O O10 0.280950 0.381817 0.600754
O O11 0.017931 0.411347 0.547338
O O12 0.428178 0.326925 0.750000
O O13 0.504847 0.341250 0.016027
O O14 0.861023 0.125411 0.250000
O O15 0.756690 0.116274 0.992520
O O16 0.632647 0.364685 0.250000
#
# Coordination Sequence:
#
# PCOD8232149 Si02
#       6
#     8   8   8   8   8   8
#     4  10  20  33  50  73  99 126 160 202 245 289
#     4   9  18  32  51  75  99 126 162 200 239 286
#     4   8  15  30  51  71  92 123 162 198 234 282
#     4   8  15  30  50  69  92 124 159 193 233 283
#     4   9  18  33  52  73  99 132 165 196 240 298
#     4  10  20  32  49  75 100 123 159 203 241 282
#
# _framework density 17.916955000000002
#
# number of rings (size 3 to 8) (size 9 to 14) (size 15 to 20)
#    0.000    3.000    0.000    3.000    0.000    4.000 
#    0.000    5.000    0.000    0.000    0.000    0.000 
#    0.000    0.000    0.000    0.000    0.000    0.000 
#
# Total GULP energy -595038.624496 kJ/mol
# GULP energy per Si atom -12396.638010 kJ/mol
# Density = 1.787617 g / cm^3
# Si number density = 17.916955 Si / 1000 Ang^3
#
#
#
# Elastic Constant Matrix: (Units=GPa)
#
#
# Indices 1 2 3 4 5 6 
#
# 1 88.9164 -5.7420 44.8661 0.0000 0.0000 0.0000
# 2 -5.7420 24.5466 13.9585 0.0000 0.0000 0.0000
# 3 44.8661 13.9585 93.4515 0.0000 0.0000 0.0000
# 4 0.0000 0.0000 0.0000 28.0422 0.0000 0.0000
# 5 0.0000 0.0000 0.0000 0.0000 30.3247 0.0000
# 6 0.0000 0.0000 0.0000 0.0000 0.0000 12.9990
#
#
#
# Elastic Compliance Matrix: (Units=1/GPa)
#
#
# Indices 1 2 3 4 5 6 
#
# 1 0.016534 0.009159 -0.009306 0.000000 0.000000 0.000000
# 2 0.009159 0.049595 -0.011805 0.000000 0.000000 0.000000
# 3 -0.009306 -0.011805 0.016932 0.000000 0.000000 0.000000
# 4 0.000000 0.000000 0.000000 0.035660 0.000000 0.000000
# 5 0.000000 0.000000 0.000000 0.000000 0.032976 0.000000
# 6 0.000000 0.000000 0.000000 0.000000 0.000000 0.076929
#
#
# Mechanical properties :
#
#
# Convention : Reuss Voigt Hill
#
# Bulk Modulus (GPa) = 16.90423 34.78662 25.84542
# Shear Modulus (GPa) = 18.36560 24.52866 21.44713
#
# Velocity S-wave (km/s) = 3.20510 3.70404 3.46357
# Velocity P-wave (km/s) = 4.81167 6.14417 5.51829
#
# Compressibility (1/GPa) = 0.05915678
#
# Stress axis : x y z
#
# Youngs Moduli (GPa) = 60.48253 20.16348 59.06034
#
# Poissons Ratio (x) = -0.18469 0.54961
# Poissons Ratio (y) = -0.55399 0.69722
# Poissons Ratio (z) = 0.56285 0.23803
#
# Static dielectric constant tensor:
#      x y z
#    x 3.337440 0.000000 0.000000 
#    y 0.000000 3.098580 0.000000 
#    z 0.000000 0.000000 3.597460 
# 
# 
# High freq. dielectric constant tensor:
#      x y z
#    x 1.689190 0.000000 0.000000 
#    y 0.000000 1.665460 0.000000 
#    z 0.000000 0.000000 1.696750 
# 
# From -- ./inp_files/1979.got.cif
#   From: 2010.03.12/outbox.cif.g09.slc.cpg/sg57_1_cif.got.tgz:1979.got - 2010.04.16 15:48:40.
