data_PCOD8232655
_publ_section_title
;
Structure prediction by ZEFSAII (Michael W. Deem and Ramdas Pophale) SiO2 
 PCOD8232655
Probable space group: P B C M
;
_chemical_formula_sum "Si O2"
_cell_formula_units_Z 56
_cell_length_a 17.336391
_cell_length_b 19.911838
_cell_length_c 8.864882
_cell_angle_alpha 90.000000
_cell_angle_beta 90.000000
_cell_angle_gamma 90.000000
_cell_volume 3060.152028
_symmetry_space_group_name_H-M "P B C M"
_symmetry_group_IT_number 57
_symmetry_cell_setting 'orthorhombic'
loop_
_space_group_symop_operation_xyz
x,y,z
-x,-y,1/2+z
x,1/2-y,-z
-x,1/2+y,1/2-z
-x,-y,-z
x,y,1/2-z
-x,1/2+y,z
x,1/2-y,1/2+z
loop_
_atom_site_type_symbol
_atom_site_label
_atom_site_fract_x
_atom_site_fract_y
_atom_site_fract_z
Si Si1 0.186690 0.821207 0.925057
Si Si2 0.383105 0.181053 0.072567
Si Si3 0.278825 0.438819 0.928899
Si Si4 0.560620 0.180252 0.427957
Si Si5 0.315404 0.911127 0.070970
Si Si6 0.947706 0.086180 0.423351
Si Si7 0.889916 0.954692 0.927084
O O1 0.209361 0.816608 0.750000
O O2 0.097512 0.843971 0.946998
O O3 0.198972 0.750000 0.000000
O O4 0.240712 0.874842 0.005238
O O5 0.372528 0.187566 0.250000
O O6 0.332871 0.119879 0.004236
O O7 0.471803 0.167628 0.029571
O O8 0.353161 0.250000 0.000000
O O9 0.279472 0.433684 0.750000
O O10 0.311824 0.511068 0.978281
O O11 0.191574 0.428490 0.993815
O O12 0.590210 0.250000 0.500000
O O13 0.574773 0.183407 0.250000
O O14 0.607298 0.118993 0.499509
O O15 0.316797 0.902220 0.250000
O O16 0.944217 0.062838 0.250000
O O17 0.037860 0.093461 0.473252
O O18 0.905480 0.029838 0.519429
O O19 0.879855 0.958811 0.750000
#
# Coordination Sequence:
#
# PCOD8232655 Si02
#       7
#     8   8   8   8   8   8   8
#     4  11  22  35  50  73 107 143 178 218 262 308
#     4   9  19  37  57  77 102 135 174 212 258 313
#     4   9  18  33  55  80 106 136 170 211 259 314
#     4  10  20  35  54  75 103 139 175 214 257 306
#     4  11  21  34  53  78 105 136 175 214 260 315
#     4   9  18  31  50  75 101 131 171 215 252 297
#     4   9  16  31  54  76 100 133 169 205 254 307
#
# _framework density 18.299745000000001
#
# number of rings (size 3 to 8) (size 9 to 14) (size 15 to 20)
#    0.000    2.286    1.429    1.714    0.000    1.714 
#    0.000    2.857    0.000    0.000    0.000    0.000 
#    0.000    0.000    0.000    0.000    0.000    0.000 
#
# Total GULP energy -694254.543874 kJ/mol
# GULP energy per Si atom -12397.402569 kJ/mol
# Density = 1.825809 g / cm^3
# Si number density = 18.299745 Si / 1000 Ang^3
#
#
#
# Elastic Constant Matrix: (Units=GPa)
#
#
# Indices 1 2 3 4 5 6 
#
# 1 132.5631 82.3396 34.1466 0.0000 0.0000 0.0000
# 2 82.3396 138.2882 36.7582 0.0000 0.0000 0.0000
# 3 34.1466 36.7582 51.6372 0.0000 0.0000 0.0000
# 4 0.0000 0.0000 0.0000 23.5903 0.0000 0.0000
# 5 0.0000 0.0000 0.0000 0.0000 19.4194 0.0000
# 6 0.0000 0.0000 0.0000 0.0000 0.0000 27.8019
#
#
#
# Elastic Compliance Matrix: (Units=1/GPa)
#
#
# Indices 1 2 3 4 5 6 
#
# 1 0.012508 -0.006474 -0.003663 0.000000 0.000000 0.000000
# 2 -0.006474 0.012270 -0.004453 0.000000 0.000000 0.000000
# 3 -0.003663 -0.004453 0.024958 0.000000 0.000000 0.000000
# 4 0.000000 0.000000 0.000000 0.042390 0.000000 0.000000
# 5 0.000000 0.000000 0.000000 0.000000 0.051495 0.000000
# 6 0.000000 0.000000 0.000000 0.000000 0.000000 0.035969
#
#
# Mechanical properties :
#
#
# Convention : Reuss Voigt Hill
#
# Bulk Modulus (GPa) = 48.64767 69.88636 59.26702
# Shear Modulus (GPa) = 23.18869 25.44527 24.31698
#
# Velocity S-wave (km/s) = 3.56358 3.73295 3.64925
# Velocity P-wave (km/s) = 6.60103 7.54006 7.08612
#
# Compressibility (1/GPa) = 0.02055597
#
# Stress axis : x y z
#
# Youngs Moduli (GPa) = 79.94629 81.50113 40.06722
#
# Poissons Ratio (x) = 0.52765 0.14676
# Poissons Ratio (y) = 0.51758 0.17842
# Poissons Ratio (z) = 0.29284 0.36293
#
# Static dielectric constant tensor:
#      x y z
#    x 3.830660 0.000000 0.000000 
#    y 0.000000 3.351030 0.000000 
#    z 0.000000 0.000000 3.295130 
# 
# 
# High freq. dielectric constant tensor:
#      x y z
#    x 1.722410 0.000000 0.000000 
#    y 0.000000 1.694480 0.000000 
#    z 0.000000 0.000000 1.699710 
# 
# From -- ./inp_files/5289.got.cif
#   From: 2010.03.12/outbox.cif.g09.slc.cpg/sg57_3_cif.got.tgz:5289.got - 2010.04.16 15:48:40.
