data_PCOD8232795
_publ_section_title
;
Structure prediction by ZEFSAII (Michael W. Deem and Ramdas Pophale) SiO2 
 PCOD8232795
Probable space group: P B C M
;
_chemical_formula_sum "Si O2"
_cell_formula_units_Z 64
_cell_length_a 11.743798
_cell_length_b 31.152421
_cell_length_c 8.704462
_cell_angle_alpha 90.000000
_cell_angle_beta 90.000000
_cell_angle_gamma 90.000000
_cell_volume 3184.507746
_symmetry_space_group_name_H-M "P B C M"
_symmetry_group_IT_number 57
_symmetry_cell_setting 'orthorhombic'
loop_
_space_group_symop_operation_xyz
x,y,z
-x,-y,1/2+z
x,1/2-y,-z
-x,1/2+y,1/2-z
-x,-y,-z
x,y,1/2-z
-x,1/2+y,z
x,1/2-y,1/2+z
loop_
_atom_site_type_symbol
_atom_site_label
_atom_site_fract_x
_atom_site_fract_y
_atom_site_fract_z
Si Si1 0.002791 0.205469 0.574523
Si Si2 0.989911 0.952543 0.430398
Si Si3 0.121531 0.874458 0.568910
Si Si4 0.355966 0.884809 0.068613
Si Si5 0.411255 0.132177 0.070901
Si Si6 0.727513 0.793849 0.074587
Si Si7 0.609202 0.020449 0.926133
Si Si8 0.243132 0.058315 0.426504
O O1 0.958970 0.250000 0.500000
O O2 0.960003 0.203704 0.750000
O O3 0.137726 0.202681 0.564921
O O4 0.956862 0.164832 0.482421
O O5 0.008369 0.956039 0.250000
O O6 0.083776 0.919760 0.494939
O O7 0.865996 0.932684 0.468007
O O8 0.000000 0.000000 0.500000
O O9 0.114535 0.879262 0.750000
O O10 0.249339 0.862945 0.515472
O O11 0.336549 0.882292 0.250000
O O12 0.363365 0.933304 0.002921
O O13 0.472669 0.861026 0.023689
O O14 0.440755 0.132827 0.250000
O O15 0.349420 0.087794 0.023218
O O16 0.324204 0.169262 0.029527
O O17 0.684935 0.797182 0.250000
O O18 0.683580 0.750000 0.000000
O O19 0.578148 0.026319 0.750000
O O20 0.720046 0.990951 0.949753
O O21 0.500000 0.000000 0.000000
O O22 0.209482 0.067858 0.250000
#
# Coordination Sequence:
#
# PCOD8232795 Si02
#       8
#     8   8   8   8   8   8   8   8
#     4  10  21  40  67  98 128 160 202 252 307 370
#     4  12  25  41  61  87 121 162 207 256 310 369
#     4  12  25  42  64  90 123 165 209 257 313 371
#     4  11  23  39  60  86 120 162 206 252 299 356
#     4  11  22  37  59  87 120 156 196 241 292 350
#     4  10  21  38  62  91 122 154 191 238 296 357
#     4  10  20  35  56  82 114 154 198 245 293 346
#     4  10  21  37  58  86 119 155 197 246 297 352
#
# _framework density 20.097299
#
# number of rings (size 3 to 8) (size 9 to 14) (size 15 to 20)
#    0.000    1.250    1.250    5.250    0.000    6.500 
#    0.000    0.625    0.000    0.000    0.000    0.000 
#    0.000    0.000    0.000    0.000    0.000    0.000 
#
# Total GULP energy -793895.358776 kJ/mol
# GULP energy per Si atom -12404.614981 kJ/mol
# Density = 2.005156 g / cm^3
# Si number density = 20.097299 Si / 1000 Ang^3
#
#
#
# Elastic Constant Matrix: (Units=GPa)
#
#
# Indices 1 2 3 4 5 6 
#
# 1 61.5302 7.7480 38.8582 0.0000 0.0000 0.0000
# 2 7.7480 94.8980 39.4630 0.0000 0.0000 0.0000
# 3 38.8582 39.4630 118.0848 0.0000 0.0000 0.0000
# 4 0.0000 0.0000 0.0000 34.5920 0.0000 0.0000
# 5 0.0000 0.0000 0.0000 0.0000 37.3166 0.0000
# 6 0.0000 0.0000 0.0000 0.0000 0.0000 21.7764
#
#
#
# Elastic Compliance Matrix: (Units=1/GPa)
#
#
# Indices 1 2 3 4 5 6 
#
# 1 0.020658 0.001324 -0.007241 0.000000 0.000000 0.000000
# 2 0.001324 0.012323 -0.004554 0.000000 0.000000 0.000000
# 3 -0.007241 -0.004554 0.012373 0.000000 0.000000 0.000000
# 4 0.000000 0.000000 0.000000 0.028908 0.000000 0.000000
# 5 0.000000 0.000000 0.000000 0.000000 0.026798 0.000000
# 6 0.000000 0.000000 0.000000 0.000000 0.000000 0.045921
#
#
# Mechanical properties :
#
#
# Convention : Reuss Voigt Hill
#
# Bulk Modulus (GPa) = 40.96055 49.62793 45.29424
# Shear Modulus (GPa) = 28.39933 31.29993 29.84963
#
# Velocity S-wave (km/s) = 3.76319 3.95070 3.85808
# Velocity P-wave (km/s) = 6.26957 6.74968 6.51405
#
# Compressibility (1/GPa) = 0.02441373
#
# Stress axis : x y z
#
# Youngs Moduli (GPa) = 48.40735 81.14687 80.82051
#
# Poissons Ratio (x) = -0.10746 0.58518
# Poissons Ratio (y) = -0.06411 0.36807
# Poissons Ratio (z) = 0.35049 0.36956
#
# Static dielectric constant tensor:
#      x y z
#    x 3.581810 0.000000 0.000000 
#    y 0.000000 3.729560 0.000000 
#    z 0.000000 0.000000 3.838580 
# 
# 
# High freq. dielectric constant tensor:
#      x y z
#    x 1.784840 0.000000 0.000000 
#    y 0.000000 1.782970 0.000000 
#    z 0.000000 0.000000 1.791620 
# 
# From -- ./inp_files/3892.got.cif
#   From: 2010.03.12/outbox.cif.g09.slc.cpg/sg57_2_cif.got.tgz:3892.got - 2010.04.16 15:48:40.
