data_PCOD8232959
_publ_section_title
;
Structure prediction by ZEFSAII (Michael W. Deem and Ramdas Pophale) SiO2 
 PCOD8232959
Probable space group: P B C M
;
_chemical_formula_sum "Si O2"
_cell_formula_units_Z 48
_cell_length_a 18.945794
_cell_length_b 8.383963
_cell_length_c 15.607122
_cell_angle_alpha 90.000000
_cell_angle_beta 90.000000
_cell_angle_gamma 90.000000
_cell_volume 2479.048304
_symmetry_space_group_name_H-M "P B C M"
_symmetry_group_IT_number 57
_symmetry_cell_setting 'orthorhombic'
loop_
_space_group_symop_operation_xyz
x,y,z
-x,-y,1/2+z
x,1/2-y,-z
-x,1/2+y,1/2-z
-x,-y,-z
x,y,1/2-z
-x,1/2+y,z
x,1/2-y,1/2+z
loop_
_atom_site_type_symbol
_atom_site_label
_atom_site_fract_x
_atom_site_fract_y
_atom_site_fract_z
Si Si1 0.078592 0.459037 0.845968
Si Si2 0.420627 0.552949 0.845951
Si Si3 0.328789 0.560461 0.497509
Si Si4 0.426412 0.569172 0.154140
Si Si5 0.169020 0.561451 0.993405
Si Si6 0.945898 0.858457 0.418413
O O1 0.084002 0.525659 0.750000
O O2 0.148358 0.510367 0.897116
O O3 0.072499 0.266277 0.842906
O O4 0.011735 0.533079 0.894555
O O5 0.399885 0.493298 0.750000
O O6 0.424498 0.741885 0.847555
O O7 0.496082 0.485132 0.873860
O O8 0.363564 0.491097 0.915263
O O9 0.331263 0.750000 0.500000
O O10 0.370575 0.497214 0.413759
O O11 0.248455 0.501583 0.490535
O O12 0.408178 0.505630 0.250000
O O13 0.160681 0.750000 0.000000
O O14 0.120203 0.474012 0.063459
O O15 0.965309 0.750000 0.500000
#
# Coordination Sequence:
#
# PCOD8232959 Si02
#       6
#     8   8   8   8   8   8
#     4  11  21  35  56  81 105 133 172 218 259 305
#     4   9  17  30  50  73  99 128 165 209 251 297
#     4   9  18  32  51  73  99 134 170 204 250 307
#     4   9  17  31  49  72  98 128 167 211 252 296
#     4  10  20  36  55  76 105 141 176 211 258 313
#     4  10  20  36  56  77 105 138 171 209 258 312
#
# _framework density 19.362269999999999
#
# number of rings (size 3 to 8) (size 9 to 14) (size 15 to 20)
#    0.000    2.333    0.000    4.500    0.000    0.667 
#    0.000   10.000    0.000    2.000    0.000    0.000 
#    0.000    0.000    0.000    0.000    0.000    0.000 
#
# Total GULP energy -595088.029317 kJ/mol
# GULP energy per Si atom -12397.667277 kJ/mol
# Density = 1.931820 g / cm^3
# Si number density = 19.362270 Si / 1000 Ang^3
#
#
#
# Elastic Constant Matrix: (Units=GPa)
#
#
# Indices 1 2 3 4 5 6 
#
# 1 120.8319 29.6944 56.4255 0.0000 0.0000 0.0000
# 2 29.6944 58.3098 17.7159 0.0000 0.0000 0.0000
# 3 56.4255 17.7159 103.3345 0.0000 0.0000 0.0000
# 4 0.0000 0.0000 0.0000 15.1537 0.0000 0.0000
# 5 0.0000 0.0000 0.0000 0.0000 11.1039 0.0000
# 6 0.0000 0.0000 0.0000 0.0000 0.0000 28.2832
#
#
#
# Elastic Compliance Matrix: (Units=1/GPa)
#
#
# Indices 1 2 3 4 5 6 
#
# 1 0.012082 -0.004376 -0.005847 0.000000 0.000000 0.000000
# 2 -0.004376 0.019677 -0.000984 0.000000 0.000000 0.000000
# 3 -0.005847 -0.000984 0.013039 0.000000 0.000000 0.000000
# 4 0.000000 0.000000 0.000000 0.065990 0.000000 0.000000
# 5 0.000000 0.000000 0.000000 0.000000 0.090058 0.000000
# 6 0.000000 0.000000 0.000000 0.000000 0.000000 0.035357
#
#
# Mechanical properties :
#
#
# Convention : Reuss Voigt Hill
#
# Bulk Modulus (GPa) = 44.67546 54.46085 49.56816
# Shear Modulus (GPa) = 18.79145 22.81753 20.80449
#
# Velocity S-wave (km/s) = 3.11870 3.43659 3.28149
# Velocity P-wave (km/s) = 6.00765 6.62836 6.32563
#
# Compressibility (1/GPa) = 0.02238365
#
# Stress axis : x y z
#
# Youngs Moduli (GPa) = 82.76904 50.81987 76.69473
#
# Poissons Ratio (x) = 0.22240 0.44843
# Poissons Ratio (y) = 0.36222 0.07546
# Poissons Ratio (z) = 0.48395 0.05000
#
# Static dielectric constant tensor:
#      x y z
#    x 3.516860 0.000000 0.000000 
#    y 0.000000 3.475760 0.000000 
#    z 0.000000 0.000000 3.857320 
# 
# 
# High freq. dielectric constant tensor:
#      x y z
#    x 1.746070 0.000000 0.000000 
#    y 0.000000 1.743140 0.000000 
#    z 0.000000 0.000000 1.755560 
# 
# From -- ./inp_files/18950.got.cif
#   From: 2010.03.12/outbox.cif.g09.slc.cpg/sg57_10_cif.got.tgz:18950.got - 2010.04.16 15:48:40.
