data_PCOD8232101
_publ_section_title
;
Structure prediction by ZEFSAII (Michael W. Deem and Ramdas Pophale) SiO2 
 PCOD8232101
Probable space group: P B C M
;
_chemical_formula_sum "Si O2"
_cell_formula_units_Z 28
_cell_length_a 12.952696
_cell_length_b 5.031537
_cell_length_c 19.815448
_cell_angle_alpha 90.000000
_cell_angle_beta 90.000000
_cell_angle_gamma 90.000000
_cell_volume 1291.411766
_symmetry_space_group_name_H-M "P B C M"
_symmetry_group_IT_number 57
_symmetry_cell_setting 'orthorhombic'
loop_
_space_group_symop_operation_xyz
x,y,z
-x,-y,1/2+z
x,1/2-y,-z
-x,1/2+y,1/2-z
-x,-y,-z
x,y,1/2-z
-x,1/2+y,z
x,1/2-y,1/2+z
loop_
_atom_site_type_symbol
_atom_site_label
_atom_site_fract_x
_atom_site_fract_y
_atom_site_fract_z
Si Si1 0.715079 0.006826 0.824968
Si Si2 0.569597 0.675906 0.750000
Si Si3 0.431962 0.772953 0.576788
Si Si4 0.938974 0.861052 0.669688
O O1 0.733149 0.138792 0.750000
O O2 0.665271 0.223107 0.874505
O O3 0.822919 0.909134 0.857172
O O4 0.637958 0.751998 0.815985
O O5 0.533237 0.369243 0.750000
O O6 0.392710 0.750000 0.500000
O O7 0.522842 0.562618 0.591776
O O8 0.936200 0.860269 0.750000
O O9 0.017249 0.084376 0.641932
#
# Coordination Sequence:
#
# PCOD8232101 Si02
#       4
#     8   4   8   8
#     4   9  20  34  53  80 100 140 167 215 255 298
#     4  10  20  30  44  72 102 124 158 202 242 288
#     4  10  21  36  53  75 106 140 170 204 251 310
#     4   9  18  32  48  71 100 129 167 209 253 300
#
# _framework density 21.681698999999998
#
# number of rings (size 3 to 8) (size 9 to 14) (size 15 to 20)
#    0.857    1.714    0.000    1.714    0.000    4.571 
#    0.000    0.000    0.000    1.714    0.000    0.000 
#    0.000    0.000    0.000    0.000    0.000    0.000 
#
# Total GULP energy -347005.499201 kJ/mol
# GULP energy per Si atom -12393.053543 kJ/mol
# Density = 2.163235 g / cm^3
# Si number density = 21.681699 Si / 1000 Ang^3
#
#
#
# Elastic Constant Matrix: (Units=GPa)
#
#
# Indices 1 2 3 4 5 6 
#
# 1 103.1795 -1.1326 16.6322 0.0000 0.0000 0.0000
# 2 -1.1326 67.7534 3.0739 0.0000 0.0000 0.0000
# 3 16.6322 3.0739 43.6031 0.0000 0.0000 0.0000
# 4 0.0000 0.0000 0.0000 9.3297 0.0000 0.0000
# 5 0.0000 0.0000 0.0000 0.0000 17.6916 0.0000
# 6 0.0000 0.0000 0.0000 0.0000 0.0000 14.4892
#
#
#
# Elastic Compliance Matrix: (Units=1/GPa)
#
#
# Indices 1 2 3 4 5 6 
#
# 1 0.010335 0.000353 -0.003967 0.000000 0.000000 0.000000
# 2 0.000353 0.014819 -0.001179 0.000000 0.000000 0.000000
# 3 -0.003967 -0.001179 0.024531 0.000000 0.000000 0.000000
# 4 0.000000 0.000000 0.000000 0.107184 0.000000 0.000000
# 5 0.000000 0.000000 0.000000 0.000000 0.056524 0.000000
# 6 0.000000 0.000000 0.000000 0.000000 0.000000 0.069017
#
#
# Mechanical properties :
#
#
# Convention : Reuss Voigt Hill
#
# Bulk Modulus (GPa) = 24.93937 27.96478 26.45208
# Shear Modulus (GPa) = 16.37394 21.36625 18.87010
#
# Velocity S-wave (km/s) = 2.75107 3.14260 2.95333
# Velocity P-wave (km/s) = 4.64958 5.10820 4.88428
#
# Compressibility (1/GPa) = 0.04009724
#
# Stress axis : x y z
#
# Youngs Moduli (GPa) = 96.75651 67.48182 40.76545
#
# Poissons Ratio (x) = -0.02380 0.16172
# Poissons Ratio (y) = -0.03413 0.04807
# Poissons Ratio (z) = 0.38385 0.07958
#
# Static dielectric constant tensor:
#      x y z
#    x 3.970490 0.000000 0.000000 
#    y 0.000000 3.795610 0.000000 
#    z 0.000000 0.000000 3.777710 
# 
# 
# High freq. dielectric constant tensor:
#      x y z
#    x 1.847910 0.000000 0.000000 
#    y 0.000000 1.851090 0.000000 
#    z 0.000000 0.000000 1.800810 
# 
# From -- ./inp_files/24760.got.cif
#   From: 2010.03.12/outbox.cif.g09.slc.cpg/sg57_13_cif.got.tgz:24760.got - 2010.04.16 15:48:40.
