data_PCOD8232711
_publ_section_title
;
Structure prediction by ZEFSAII (Michael W. Deem and Ramdas Pophale) SiO2 
 PCOD8232711
Probable space group: P B C M
;
_chemical_formula_sum "Si O2"
_cell_formula_units_Z 64
_cell_length_a 26.490027
_cell_length_b 14.344002
_cell_length_c 8.697596
_cell_angle_alpha 90.000000
_cell_angle_beta 90.000000
_cell_angle_gamma 90.000000
_cell_volume 3304.851647
_symmetry_space_group_name_H-M "P B C M"
_symmetry_group_IT_number 57
_symmetry_cell_setting 'orthorhombic'
loop_
_space_group_symop_operation_xyz
x,y,z
-x,-y,1/2+z
x,1/2-y,-z
-x,1/2+y,1/2-z
-x,-y,-z
x,y,1/2-z
-x,1/2+y,z
x,1/2-y,1/2+z
loop_
_atom_site_type_symbol
_atom_site_label
_atom_site_fract_x
_atom_site_fract_y
_atom_site_fract_z
Si Si1 0.361980 0.646686 0.566990
Si Si2 0.633628 0.851020 0.929286
Si Si3 0.816457 0.994673 0.931621
Si Si4 0.882172 0.147489 0.432133
Si Si5 0.445734 0.505416 0.573280
Si Si6 0.099693 0.148040 0.068175
Si Si7 0.990965 0.150006 0.071128
Si Si8 0.292206 0.004283 0.931135
O O1 0.362361 0.750000 0.500000
O O2 0.360026 0.651014 0.750000
O O3 0.411713 0.590764 0.507687
O O4 0.313040 0.589873 0.510318
O O5 0.647192 0.844185 0.750000
O O6 0.581936 0.907425 0.955870
O O7 0.625770 0.750000 0.000000
O O8 0.678635 0.903691 0.014633
O O9 0.806957 0.989065 0.750000
O O10 0.855911 0.917676 0.993710
O O11 0.838772 0.094272 0.976835
O O12 0.765096 0.979111 0.021988
O O13 0.880991 0.250000 0.500000
O O14 0.871199 0.147773 0.250000
O O15 0.937575 0.099914 0.469962
O O16 0.500000 0.500000 0.500000
O O17 0.454329 0.525178 0.750000
O O18 0.103584 0.155406 0.250000
O O19 0.044456 0.103615 0.018733
O O20 0.107650 0.250000 0.000000
O O21 0.993020 0.166396 0.250000
O O22 0.989148 0.250000 0.000000
O O23 0.297496 0.992602 0.750000
#
# Coordination Sequence:
#
# PCOD8232711 Si02
#       8
#     8   8   8   8   8   8   8   8
#     4  10  21  39  61  87 116 151 193 235 280 332
#     4  10  21  39  61  87 116 152 195 237 281 331
#     4  11  23  38  55  79 111 143 179 226 277 332
#     4  10  20  35  55  79 107 139 177 221 270 327
#     4   9  20  36  56  85 124 160 193 234 276 321
#     4   9  19  35  55  78 106 140 176 217 268 324
#     4   8  15  30  51  75 103 135 172 214 262 320
#     4  11  23  40  60  82 109 144 186 236 288 336
#
# _framework density 19.365468
#
# number of rings (size 3 to 8) (size 9 to 14) (size 15 to 20)
#    0.000    2.250    0.000    3.375    0.000    6.500 
#    0.000    6.250    0.000    0.000    0.000    0.000 
#    0.000    0.000    0.000    0.000    0.000    0.000 
#
# Total GULP energy -793144.769406 kJ/mol
# GULP energy per Si atom -12392.887022 kJ/mol
# Density = 1.932139 g / cm^3
# Si number density = 19.365468 Si / 1000 Ang^3
#
#
#
# Elastic Constant Matrix: (Units=GPa)
#
#
# Indices 1 2 3 4 5 6 
#
# 1 116.9393 17.8963 34.7376 0.0000 0.0000 0.0000
# 2 17.8963 78.0659 30.1740 0.0000 0.0000 0.0000
# 3 34.7376 30.1740 68.9174 0.0000 0.0000 0.0000
# 4 0.0000 0.0000 0.0000 32.0806 0.0000 0.0000
# 5 0.0000 0.0000 0.0000 0.0000 37.8492 0.0000
# 6 0.0000 0.0000 0.0000 0.0000 0.0000 20.3484
#
#
#
# Elastic Compliance Matrix: (Units=1/GPa)
#
#
# Indices 1 2 3 4 5 6 
#
# 1 0.010069 -0.000417 -0.004892 0.000000 0.000000 0.000000
# 2 -0.000417 0.015436 -0.006548 0.000000 0.000000 0.000000
# 3 -0.004892 -0.006548 0.019843 0.000000 0.000000 0.000000
# 4 0.000000 0.000000 0.000000 0.031172 0.000000 0.000000
# 5 0.000000 0.000000 0.000000 0.000000 0.026421 0.000000
# 6 0.000000 0.000000 0.000000 0.000000 0.000000 0.049144
#
#
# Mechanical properties :
#
#
# Convention : Reuss Voigt Hill
#
# Bulk Modulus (GPa) = 46.22673 47.72650 46.97662
# Shear Modulus (GPa) = 27.32083 30.12994 28.72538
#
# Velocity S-wave (km/s) = 3.76014 3.94872 3.85558
# Velocity P-wave (km/s) = 6.54019 6.74451 6.64314
#
# Compressibility (1/GPa) = 0.02163251
#
# Stress axis : x y z
#
# Youngs Moduli (GPa) = 99.31855 64.78219 50.39532
#
# Poissons Ratio (x) = 0.02703 0.24655
# Poissons Ratio (y) = 0.04143 0.33000
# Poissons Ratio (z) = 0.48591 0.42421
#
# Static dielectric constant tensor:
#      x y z
#    x 0.778170 0.000000 0.000000 
#    y 0.000000 3.071060 0.000000 
#    z 0.000000 0.000000 3.505880 
# 
# 
# High freq. dielectric constant tensor:
#      x y z
#    x 1.764480 0.000000 0.000000 
#    y 0.000000 1.746210 0.000000 
#    z 0.000000 0.000000 1.759150 
# 
# From -- ./inp_files/9259.got.cif
#   From: 2010.03.12/outbox.cif.g09.slc.cpg/sg57_5_cif.got.tgz:9259.got - 2010.04.16 15:48:40.
