data_PCOD8232936
_publ_section_title
;
Structure prediction by ZEFSAII (Michael W. Deem and Ramdas Pophale) SiO2 
 PCOD8232936
Probable space group: P B C M
;
_chemical_formula_sum "Si O2"
_cell_formula_units_Z 64
_cell_length_a 11.433904
_cell_length_b 14.375356
_cell_length_c 17.852564
_cell_angle_alpha 90.000000
_cell_angle_beta 90.000000
_cell_angle_gamma 90.000000
_cell_volume 2934.362398
_symmetry_space_group_name_H-M "P B C M"
_symmetry_group_IT_number 57
_symmetry_cell_setting 'orthorhombic'
loop_
_space_group_symop_operation_xyz
x,y,z
-x,-y,1/2+z
x,1/2-y,-z
-x,1/2+y,1/2-z
-x,-y,-z
x,y,1/2-z
-x,1/2+y,z
x,1/2-y,1/2+z
loop_
_atom_site_type_symbol
_atom_site_label
_atom_site_fract_x
_atom_site_fract_y
_atom_site_fract_z
Si Si1 0.565575 0.629586 0.161352
Si Si2 0.522361 0.962852 0.417962
Si Si3 0.674953 0.356799 0.166110
Si Si4 0.667593 0.711028 0.582850
Si Si5 0.902613 0.822673 0.339146
Si Si6 0.863895 0.220778 0.161368
Si Si7 0.947919 0.028221 0.339180
Si Si8 0.200114 0.458842 0.832600
O O1 0.555886 0.635317 0.250000
O O2 0.467225 0.554915 0.134808
O O3 0.560869 0.732536 0.125195
O O4 0.688962 0.589862 0.128095
O O5 0.420688 0.892833 0.391638
O O6 0.638654 0.899358 0.415799
O O7 0.500000 0.000000 0.500000
O O8 0.620820 0.339954 0.250000
O O9 0.741122 0.265245 0.133224
O O10 0.779000 0.431186 0.173500
O O11 0.678724 0.750000 0.500000
O O12 0.789607 0.727831 0.625819
O O13 0.891222 0.816648 0.250000
O O14 0.019314 0.771581 0.369476
O O15 0.902634 0.929383 0.368777
O O16 0.866474 0.231439 0.250000
O O17 0.861796 0.112113 0.137002
O O18 0.963134 0.021607 0.250000
O O19 0.075848 0.054363 0.373978
O O20 0.192763 0.413599 0.750000
#
# Coordination Sequence:
#
# PCOD8232936 Si02
#       8
#     8   8   8   8   8   8   8   8
#     4  10  21  39  68  98 117 156 220 270 318 384
#     4  11  23  43  65  87 122 166 215 269 328 381
#     4   9  17  32  59  91 121 157 210 264 313 376
#     4  12  25  43  63  87 128 174 214 263 324 390
#     4  10  20  35  60  94 129 162 206 262 316 376
#     4   9  16  30  55  92 131 162 198 256 321 380
#     4   9  15  26  49  87 129 161 190 242 316 370
#     4   8  13  26  52  86 121 152 193 249 300 361
#
# _framework density 21.810531000000001
#
# number of rings (size 3 to 8) (size 9 to 14) (size 15 to 20)
#    0.000    2.250    2.500    2.250    0.000    4.000 
#    2.250    0.000    0.000    7.500    0.000    0.000 
#    0.000    0.000    0.000    0.000    0.000    0.000 
#
# Total GULP energy -793005.272993 kJ/mol
# GULP energy per Si atom -12390.707391 kJ/mol
# Density = 2.176089 g / cm^3
# Si number density = 21.810531 Si / 1000 Ang^3
#
#
#
# Elastic Constant Matrix: (Units=GPa)
#
#
# Indices 1 2 3 4 5 6 
#
# 1 43.4983 5.5730 20.8832 0.0000 0.0000 0.0000
# 2 5.5730 112.0805 23.7881 0.0000 0.0000 0.0000
# 3 20.8832 23.7881 80.4411 0.0000 0.0000 0.0000
# 4 0.0000 0.0000 0.0000 20.5336 0.0000 0.0000
# 5 0.0000 0.0000 0.0000 0.0000 15.4620 0.0000
# 6 0.0000 0.0000 0.0000 0.0000 0.0000 30.4345
#
#
#
# Elastic Compliance Matrix: (Units=1/GPa)
#
#
# Indices 1 2 3 4 5 6 
#
# 1 0.026265 0.000151 -0.006863 0.000000 0.000000 0.000000
# 2 0.000151 0.009521 -0.002855 0.000000 0.000000 0.000000
# 3 -0.006863 -0.002855 0.015057 0.000000 0.000000 0.000000
# 4 0.000000 0.000000 0.000000 0.048701 0.000000 0.000000
# 5 0.000000 0.000000 0.000000 0.000000 0.064675 0.000000
# 6 0.000000 0.000000 0.000000 0.000000 0.000000 0.032857
#
#
# Mechanical properties :
#
#
# Convention : Reuss Voigt Hill
#
# Bulk Modulus (GPa) = 31.53698 37.38986 34.46342
# Shear Modulus (GPa) = 22.04785 25.67105 23.85945
#
# Velocity S-wave (km/s) = 3.18288 3.43447 3.31107
# Velocity P-wave (km/s) = 5.29137 5.73652 5.51844
#
# Compressibility (1/GPa) = 0.03170881
#
# Stress axis : x y z
#
# Youngs Moduli (GPa) = 38.07335 105.03634 66.41274
#
# Poissons Ratio (x) = -0.01583 0.45580
# Poissons Ratio (y) = -0.00574 0.18958
# Poissons Ratio (z) = 0.26131 0.29983
#
# Static dielectric constant tensor:
#      x y z
#    x 3.839640 0.000000 0.000000 
#    y 0.000000 4.440230 0.000000 
#    z 0.000000 0.000000 3.338030 
# 
# 
# High freq. dielectric constant tensor:
#      x y z
#    x 1.843090 0.000000 0.000000 
#    y 0.000000 1.880490 0.000000 
#    z 0.000000 0.000000 1.798100 
# 
# From -- ./inp_files/22037.got.cif
#   From: 2010.03.12/outbox.cif.g09.slc.cpg/sg57_12_cif.got.tgz:22037.got - 2010.04.16 15:48:40.
