data_PCOD8232379
_publ_section_title
;
Structure prediction by ZEFSAII (Michael W. Deem and Ramdas Pophale) SiO2 
 PCOD8232379
Probable space group: P B C M
;
_chemical_formula_sum "Si O2"
_cell_formula_units_Z 48
_cell_length_a 19.108792
_cell_length_b 14.321104
_cell_length_c 8.919340
_cell_angle_alpha 90.000000
_cell_angle_beta 90.000000
_cell_angle_gamma 90.000000
_cell_volume 2440.857643
_symmetry_space_group_name_H-M "P B C M"
_symmetry_group_IT_number 57
_symmetry_cell_setting 'orthorhombic'
loop_
_space_group_symop_operation_xyz
x,y,z
-x,-y,1/2+z
x,1/2-y,-z
-x,1/2+y,1/2-z
-x,-y,-z
x,y,1/2-z
-x,1/2+y,z
x,1/2-y,1/2+z
loop_
_atom_site_type_symbol
_atom_site_label
_atom_site_fract_x
_atom_site_fract_y
_atom_site_fract_z
Si Si1 0.629720 0.349484 0.573467
Si Si2 0.984022 0.851209 0.425975
Si Si3 0.896150 0.004470 0.574924
Si Si4 0.752119 0.015996 0.422259
Si Si5 0.476232 0.351151 0.926712
Si Si6 0.657126 0.847495 0.422357
O O1 0.641947 0.250000 0.500000
O O2 0.633368 0.335212 0.750000
O O3 0.690259 0.417762 0.516954
O O4 0.552797 0.392653 0.531623
O O5 0.988099 0.750000 0.500000
O O6 0.973587 0.838145 0.250000
O O7 0.918780 0.910464 0.488779
O O8 0.054381 0.908083 0.465624
O O9 0.898210 0.982244 0.750000
O O10 0.818979 0.033715 0.524905
O O11 0.770919 0.038977 0.250000
O O12 0.726173 0.910061 0.439176
O O13 0.465040 0.346419 0.750000
O O14 0.471406 0.250000 0.000000
O O15 0.409426 0.402650 0.002122
O O16 0.675370 0.750000 0.500000
O O17 0.638175 0.830450 0.250000
#
# Coordination Sequence:
#
# PCOD8232379 Si02
#       6
#     8   8   8   8   8   8
#     4   9  19  35  53  75 104 140 182 226 275 328
#     4  10  21  39  64  90 115 146 181 219 266 319
#     4  10  22  39  59  86 117 146 182 225 266 317
#     4  10  22  38  54  76 111 149 180 218 272 327
#     4   9  16  29  50  73  99 133 177 229 277 322
#     4  10  20  34  52  74 102 139 181 225 274 324
#
# _framework density 19.665217999999999
#
# number of rings (size 3 to 8) (size 9 to 14) (size 15 to 20)
#    0.000    2.333    0.000    3.000    0.000    6.667 
#    0.000    5.000    0.000    0.000    0.000    0.000 
#    0.000    0.000    0.000    0.000    0.000    0.000 
#
# Total GULP energy -595012.126815 kJ/mol
# GULP energy per Si atom -12396.085975 kJ/mol
# Density = 1.962046 g / cm^3
# Si number density = 19.665218 Si / 1000 Ang^3
#
#
#
# Elastic Constant Matrix: (Units=GPa)
#
#
# Indices 1 2 3 4 5 6 
#
# 1 87.6480 4.7019 25.2867 0.0000 0.0000 0.0000
# 2 4.7019 62.5063 22.1059 0.0000 0.0000 0.0000
# 3 25.2867 22.1059 81.1545 0.0000 0.0000 0.0000
# 4 0.0000 0.0000 0.0000 26.9472 0.0000 0.0000
# 5 0.0000 0.0000 0.0000 0.0000 -98.5262 0.0000
# 6 0.0000 0.0000 0.0000 0.0000 0.0000 18.8600
#
#
#
# Elastic Compliance Matrix: (Units=1/GPa)
#
#
# Indices 1 2 3 4 5 6 
#
# 1 0.012550 0.000486 -0.004043 0.000000 0.000000 0.000000
# 2 0.000486 0.017723 -0.004979 0.000000 0.000000 0.000000
# 3 -0.004043 -0.004979 0.014938 0.000000 0.000000 0.000000
# 4 0.000000 0.000000 0.000000 0.037110 0.000000 0.000000
# 5 0.000000 0.000000 0.000000 0.000000 -0.010150 0.000000
# 6 0.000000 0.000000 0.000000 0.000000 0.000000 0.053022
#
#
# Mechanical properties :
#
#
# Convention : Reuss Voigt Hill
#
# Bulk Modulus (GPa) = 35.53825 37.27753 36.40789
# Shear Modulus (GPa) = 32.97206 1.40382 17.18794
#
# Velocity S-wave (km/s) = 4.09916 0.84582 2.95960
# Velocity P-wave (km/s) = 6.36514 4.46667 5.49846
#
# Compressibility (1/GPa) = 0.02813869
#
# Stress axis : x y z
#
# Youngs Moduli (GPa) = 79.68438 56.42485 66.94343
#
# Poissons Ratio (x) = -0.02740 0.27062
# Poissons Ratio (y) = -0.03870 0.33330
# Poissons Ratio (z) = 0.32213 0.28093
#
# Static dielectric constant tensor:
#      x y z
#    x 3.885290 0.000000 0.000000 
#    y 0.000000 3.413520 0.000000 
#    z 0.000000 0.000000 3.619660 
# 
# 
# High freq. dielectric constant tensor:
#      x y z
#    x 1.772880 0.000000 0.000000 
#    y 0.000000 1.754000 0.000000 
#    z 0.000000 0.000000 1.771710 
# 
# From -- ./inp_files/6572.got.cif
#   From: 2010.03.12/outbox.cif.g09.slc.cpg/sg57_4_cif.got.tgz:6572.got - 2010.04.16 15:48:40.
