data_PCOD8232467
_publ_section_title
;
Structure prediction by ZEFSAII (Michael W. Deem and Ramdas Pophale) SiO2 
 PCOD8232467
Probable space group: P B C M
;
_chemical_formula_sum "Si O2"
_cell_formula_units_Z 48
_cell_length_a 19.982466
_cell_length_b 13.823635
_cell_length_c 8.962389
_cell_angle_alpha 90.000000
_cell_angle_beta 90.000000
_cell_angle_gamma 90.000000
_cell_volume 2475.683549
_symmetry_space_group_name_H-M "P B C M"
_symmetry_group_IT_number 57
_symmetry_cell_setting 'orthorhombic'
loop_
_space_group_symop_operation_xyz
x,y,z
-x,-y,1/2+z
x,1/2-y,-z
-x,1/2+y,1/2-z
-x,-y,-z
x,y,1/2-z
-x,1/2+y,z
x,1/2-y,1/2+z
loop_
_atom_site_type_symbol
_atom_site_label
_atom_site_fract_x
_atom_site_fract_y
_atom_site_fract_z
Si Si1 0.878020 0.347846 0.424920
Si Si2 0.715752 0.646893 0.575014
Si Si3 0.402994 0.453504 0.925137
Si Si4 0.153624 0.031393 0.577575
Si Si5 0.029801 0.346521 0.075673
Si Si6 0.525055 0.150183 0.925301
O O1 0.851681 0.250000 0.500000
O O2 0.870938 0.336305 0.250000
O O3 0.831816 0.435571 0.481386
O O4 0.954373 0.369936 0.476508
O O5 0.703636 0.750000 0.500000
O O6 0.700250 0.654843 0.750000
O O7 0.668162 0.566778 0.500500
O O8 0.791310 0.612724 0.543621
O O9 0.400909 0.430944 0.750000
O O10 0.420685 0.565863 0.955500
O O11 0.455598 0.380884 0.000166
O O12 0.154740 0.001658 0.750000
O O13 0.080548 0.069261 0.527893
O O14 0.032712 0.328243 0.250000
O O15 0.056661 0.250000 0.000000
O O16 0.513654 0.166284 0.750000
O O17 0.550586 0.250000 0.000000
#
# Coordination Sequence:
#
# PCOD8232467 Si02
#       6
#     8   8   8   8   8   8
#     4  10  20  34  54  77 102 135 174 220 271 322
#     4  11  23  38  57  80 109 144 179 218 263 314
#     4  10  21  37  57  82 113 148 184 221 263 313
#     4  10  21  36  53  76 106 139 177 220 265 315
#     4   9  18  32  51  77 106 135 171 217 269 321
#     4  10  20  35  58  86 114 144 179 222 268 313
#
# _framework density 19.388584999999999
#
# number of rings (size 3 to 8) (size 9 to 14) (size 15 to 20)
#    0.000    2.000    0.000    3.500    0.000    4.667 
#    0.000    0.833    0.000    2.000    0.000    0.000 
#    0.000    0.000    0.000    0.000    0.000    0.000 
#
# Total GULP energy -595310.948598 kJ/mol
# GULP energy per Si atom -12402.311429 kJ/mol
# Density = 1.934446 g / cm^3
# Si number density = 19.388585 Si / 1000 Ang^3
#
#
#
# Elastic Constant Matrix: (Units=GPa)
#
#
# Indices 1 2 3 4 5 6 
#
# 1 43.6865 28.6353 31.1603 0.0000 0.0000 0.0000
# 2 28.6353 131.8657 61.3907 0.0000 0.0000 0.0000
# 3 31.1603 61.3907 96.7258 0.0000 0.0000 0.0000
# 4 0.0000 0.0000 0.0000 40.9018 0.0000 0.0000
# 5 0.0000 0.0000 0.0000 0.0000 26.3399 0.0000
# 6 0.0000 0.0000 0.0000 0.0000 0.0000 27.5765
#
#
#
# Elastic Compliance Matrix: (Units=1/GPa)
#
#
# Indices 1 2 3 4 5 6 
#
# 1 0.030485 -0.002907 -0.007976 0.000000 0.000000 0.000000
# 2 -0.002907 0.011041 -0.006071 0.000000 0.000000 0.000000
# 3 -0.007976 -0.006071 0.016761 0.000000 0.000000 0.000000
# 4 0.000000 0.000000 0.000000 0.024449 0.000000 0.000000
# 5 0.000000 0.000000 0.000000 0.000000 0.037965 0.000000
# 6 0.000000 0.000000 0.000000 0.000000 0.000000 0.036263
#
#
# Mechanical properties :
#
#
# Convention : Reuss Voigt Hill
#
# Bulk Modulus (GPa) = 41.01817 57.18340 49.10078
# Shear Modulus (GPa) = 25.12590 29.03643 27.08117
#
# Velocity S-wave (km/s) = 3.60378 3.87409 3.74138
# Velocity P-wave (km/s) = 6.20629 7.04051 6.63652
#
# Compressibility (1/GPa) = 0.02437944
#
# Stress axis : x y z
#
# Youngs Moduli (GPa) = 32.80349 90.56975 59.66132
#
# Poissons Ratio (x) = 0.26326 0.47584
# Poissons Ratio (y) = 0.09535 0.36222
# Poissons Ratio (z) = 0.26163 0.54988
#
# Static dielectric constant tensor:
#      x y z
#    x 3.431670 0.000000 0.000000 
#    y 0.000000 3.195720 0.000000 
#    z 0.000000 0.000000 3.574750 
# 
# 
# High freq. dielectric constant tensor:
#      x y z
#    x 1.733080 0.000000 0.000000 
#    y 0.000000 1.762830 0.000000 
#    z 0.000000 0.000000 1.764010 
# 
# From -- ./inp_files/7875.got.cif
#   From: 2010.03.12/outbox.cif.g09.slc.cpg/sg57_4_cif.got.tgz:7875.got - 2010.04.16 15:48:40.
