data_PCOD8232979
_publ_section_title
;
Structure prediction by ZEFSAII (Michael W. Deem and Ramdas Pophale) SiO2 
 PCOD8232979
Probable space group: P B C M
;
_chemical_formula_sum "Si O2"
_cell_formula_units_Z 64
_cell_length_a 8.470921
_cell_length_b 12.026248
_cell_length_c 30.926554
_cell_angle_alpha 90.000000
_cell_angle_beta 90.000000
_cell_angle_gamma 90.000000
_cell_volume 3150.593105
_symmetry_space_group_name_H-M "P B C M"
_symmetry_group_IT_number 57
_symmetry_cell_setting 'orthorhombic'
loop_
_space_group_symop_operation_xyz
x,y,z
-x,-y,1/2+z
x,1/2-y,-z
-x,1/2+y,1/2-z
-x,-y,-z
x,y,1/2-z
-x,1/2+y,z
x,1/2-y,1/2+z
loop_
_atom_site_type_symbol
_atom_site_label
_atom_site_fract_x
_atom_site_fract_y
_atom_site_fract_z
Si Si1 0.584836 0.406077 0.345012
Si Si2 0.821148 0.953375 0.701104
Si Si3 0.416281 0.387126 0.591043
Si Si4 0.713635 0.767906 0.159782
Si Si5 0.050316 0.444516 0.366233
Si Si6 0.209250 0.822611 0.415496
Si Si7 0.674869 0.019010 0.516714
Si Si8 0.766841 0.412255 0.929521
O O1 0.690940 0.449607 0.305116
O O2 0.556626 0.511513 0.375902
O O3 0.426894 0.350815 0.325116
O O4 0.677417 0.313271 0.373165
O O5 0.883928 0.957930 0.750000
O O6 0.967074 0.975081 0.668686
O O7 0.743279 0.832312 0.693068
O O8 0.336437 0.280616 0.613035
O O9 0.295672 0.421006 0.551990
O O10 0.589128 0.362542 0.572305
O O11 0.875754 0.836959 0.156947
O O12 0.192289 0.509602 0.389410
O O13 0.928939 0.409237 0.403574
O O14 0.304452 0.865289 0.457527
O O15 0.132654 0.702053 0.426451
O O16 0.791123 0.021209 0.474932
O O17 0.500000 0.000000 0.500000
#
# Coordination Sequence:
#
# PCOD8232979 Si02
#       8
#     8   8   8   8   8   8   8   8
#     4   9  18  36  63  87 116 153 200 250 299 364
#     4  10  24  43  61  92 129 152 195 262 318 382
#     4   9  18  34  58  90 119 150 206 257 297 354
#     4  11  20  39  69  90 114 166 210 244 310 379
#     4  11  24  39  62  87 124 168 205 246 317 386
#     4  10  20  36  55  86 124 164 204 253 309 365
#     4   9  20  34  55  87 123 161 208 265 307 344
#     4  11  19  35  60  82 121 163 209 256 302 358
#
# _framework density 20.313635000000001
#
# number of rings (size 3 to 8) (size 9 to 14) (size 15 to 20)
#    0.000    2.000    2.500    1.875    0.000    1.500 
#    0.000    1.875    0.000    0.000    0.000    0.000 
#    0.000    0.000    0.000    0.000    0.000    0.000 
#
# Total GULP energy -793157.077957 kJ/mol
# GULP energy per Si atom -12393.079343 kJ/mol
# Density = 2.026740 g / cm^3
# Si number density = 20.313635 Si / 1000 Ang^3
#
#
#
# Elastic Constant Matrix: (Units=GPa)
#
#
# Indices 1 2 3 4 5 6 
#
# 1 71.4050 27.7147 30.6458 0.0000 0.0000 0.0000
# 2 27.7147 84.2475 35.0812 0.0000 0.0000 0.0000
# 3 30.6458 35.0812 112.0417 0.0000 0.0000 0.0000
# 4 0.0000 0.0000 0.0000 19.4526 0.0000 0.0000
# 5 0.0000 0.0000 0.0000 0.0000 21.8676 0.0000
# 6 0.0000 0.0000 0.0000 0.0000 0.0000 30.2078
#
#
#
# Elastic Compliance Matrix: (Units=1/GPa)
#
#
# Indices 1 2 3 4 5 6 
#
# 1 0.017082 -0.004225 -0.003349 0.000000 0.000000 0.000000
# 2 -0.004225 0.014694 -0.003445 0.000000 0.000000 0.000000
# 3 -0.003349 -0.003445 0.010920 0.000000 0.000000 0.000000
# 4 0.000000 0.000000 0.000000 0.051407 0.000000 0.000000
# 5 0.000000 0.000000 0.000000 0.000000 0.045730 0.000000
# 6 0.000000 0.000000 0.000000 0.000000 0.000000 0.033104
#
#
# Mechanical properties :
#
#
# Convention : Reuss Voigt Hill
#
# Bulk Modulus (GPa) = 48.40899 50.50861 49.45880
# Shear Modulus (GPa) = 24.76941 25.92243 25.34592
#
# Velocity S-wave (km/s) = 3.49571 3.57614 3.53615
# Velocity P-wave (km/s) = 6.33844 6.47843 6.40882
#
# Compressibility (1/GPa) = 0.02065732
#
# Stress axis : x y z
#
# Youngs Moduli (GPa) = 58.54157 68.05391 91.57361
#
# Poissons Ratio (x) = 0.28750 0.30672
# Poissons Ratio (y) = 0.24732 0.31550
# Poissons Ratio (z) = 0.19608 0.23447
#
# Static dielectric constant tensor:
#      x y z
#    x 3.543670 0.000000 0.000000 
#    y 0.000000 3.663720 0.000000 
#    z 0.000000 0.000000 3.585990 
# 
# 
# High freq. dielectric constant tensor:
#      x y z
#    x 1.778130 0.000000 0.000000 
#    y 0.000000 1.795920 0.000000 
#    z 0.000000 0.000000 1.773370 
# 
# From -- ./inp_files/29627.got.cif
#   From: 2010.03.12/outbox.cif.g09.slc.cpg/sg57_15_cif.got.tgz:29627.got - 2010.04.16 15:48:40.
