data_PCOD8232095
_publ_section_title
;
Structure prediction by ZEFSAII (Michael W. Deem and Ramdas Pophale) SiO2 
 PCOD8232095
Probable space group: P B C M
;
_chemical_formula_sum "Si O2"
_cell_formula_units_Z 44
_cell_length_a 9.268468
_cell_length_b 18.386121
_cell_length_c 13.406148
_cell_angle_alpha 90.000000
_cell_angle_beta 90.000000
_cell_angle_gamma 90.000000
_cell_volume 2284.557421
_symmetry_space_group_name_H-M "P B C M"
_symmetry_group_IT_number 57
_symmetry_cell_setting 'orthorhombic'
loop_
_space_group_symop_operation_xyz
x,y,z
-x,-y,1/2+z
x,1/2-y,-z
-x,1/2+y,1/2-z
-x,-y,-z
x,y,1/2-z
-x,1/2+y,z
x,1/2-y,1/2+z
loop_
_atom_site_type_symbol
_atom_site_label
_atom_site_fract_x
_atom_site_fract_y
_atom_site_fract_z
Si Si1 0.664241 0.275368 0.250000
Si Si2 0.892168 0.191273 0.917466
Si Si3 0.958477 0.132528 0.250000
Si Si4 0.897282 0.791461 0.250000
Si Si5 0.613338 0.122013 0.250000
Si Si6 0.599747 0.003068 0.404130
Si Si7 0.598888 0.876791 0.250000
Si Si8 0.903462 0.057467 0.447943
O O1 0.761395 0.279376 0.150249
O O2 0.556511 0.204559 0.250000
O O3 0.556212 0.341157 0.250000
O O4 0.031647 0.174592 0.849160
O O5 0.934884 0.250000 0.000000
O O6 0.849828 0.118619 0.975205
O O7 0.785075 0.143397 0.250000
O O8 0.990508 0.088161 0.351470
O O9 0.059643 0.204769 0.250000
O O10 0.729260 0.816658 0.250000
O O11 0.556257 0.076099 0.343837
O O12 0.767280 0.009930 0.421508
O O13 0.500000 0.000000 0.500000
O O14 0.593878 0.927213 0.346819
O O15 0.000000 0.000000 0.500000
#
# Coordination Sequence:
#
# PCOD8232095 Si02
#       8
#     4   8   4   4   4   8   4   8
#     4  11  22  38  60  92 115 157 212 257 303 370
#     4  11  20  37  66  89 114 156 213 257 300 370
#     4  10  19  40  62  84 120 164 194 266 308 358
#     4  11  21  40  61  88 132 156 197 262 330 361
#     4   9  18  39  65  84 115 159 211 251 305 360
#     4  10  21  41  61  84 124 165 201 252 310 369
#     4  11  24  39  58  92 128 166 194 254 330 371
#     4  11  22  37  62  91 116 159 212 246 309 377
#
# _framework density 19.259747999999998
#
# number of rings (size 3 to 8) (size 9 to 14) (size 15 to 20)
#    0.000    1.455    3.636    3.818    0.000    1.455 
#    3.273    1.818    0.000    0.000    0.000    0.000 
#    0.000    0.000    0.000    0.000    0.000    0.000 
#
# Total GULP energy -545124.870423 kJ/mol
# GULP energy per Si atom -12389.201601 kJ/mol
# Density = 1.921591 g / cm^3
# Si number density = 19.259748 Si / 1000 Ang^3
#
#
#
# Elastic Constant Matrix: (Units=GPa)
#
#
# Indices 1 2 3 4 5 6 
#
# 1 49.2107 22.6561 35.4554 0.0000 0.0000 0.0000
# 2 22.6561 114.5272 58.8272 0.0000 0.0000 0.0000
# 3 35.4554 58.8272 145.1055 0.0000 0.0000 0.0000
# 4 0.0000 0.0000 0.0000 10.3880 0.0000 0.0000
# 5 0.0000 0.0000 0.0000 0.0000 20.3641 0.0000
# 6 0.0000 0.0000 0.0000 0.0000 0.0000 32.9195
#
#
#
# Elastic Compliance Matrix: (Units=1/GPa)
#
#
# Indices 1 2 3 4 5 6 
#
# 1 0.025131 -0.002295 -0.005210 0.000000 0.000000 0.000000
# 2 -0.002295 0.011238 -0.003995 0.000000 0.000000 0.000000
# 3 -0.005210 -0.003995 0.009784 0.000000 0.000000 0.000000
# 4 0.000000 0.000000 0.000000 0.096265 0.000000 0.000000
# 5 0.000000 0.000000 0.000000 0.000000 0.049106 0.000000
# 6 0.000000 0.000000 0.000000 0.000000 0.000000 0.030377
#
#
# Mechanical properties :
#
#
# Convention : Reuss Voigt Hill
#
# Bulk Modulus (GPa) = 43.19233 60.30232 51.74732
# Shear Modulus (GPa) = 19.79263 25.52798 22.66030
#
# Velocity S-wave (km/s) = 3.20920 3.64463 3.43383
# Velocity P-wave (km/s) = 6.01722 7.00636 6.53054
#
# Compressibility (1/GPa) = 0.02315226
#
# Stress axis : x y z
#
# Youngs Moduli (GPa) = 39.79096 88.98639 102.20575
#
# Poissons Ratio (x) = 0.20426 0.53250
# Poissons Ratio (y) = 0.09134 0.40831
# Poissons Ratio (z) = 0.20731 0.35550
#
# Static dielectric constant tensor:
#      x y z
#    x 3.164620 0.000000 0.000000 
#    y 0.000000 3.650330 0.000000 
#    z 0.000000 0.000000 4.339420 
# 
# 
# High freq. dielectric constant tensor:
#      x y z
#    x 1.720100 0.000000 0.000000 
#    y 0.000000 1.766440 0.000000 
#    z 0.000000 0.000000 1.767080 
# 
# From -- ./inp_files/16285.got.cif
#   From: 2010.03.12/outbox.cif.g09.slc.cpg/sg57_9_cif.got.tgz:16285.got - 2010.04.16 15:48:40.
