data_PCOD8232985
_publ_section_title
;
Structure prediction by ZEFSAII (Michael W. Deem and Ramdas Pophale) SiO2 
 PCOD8232985
Probable space group: P B C M
;
_chemical_formula_sum "Si O2"
_cell_formula_units_Z 56
_cell_length_a 31.560935
_cell_length_b 5.158411
_cell_length_c 16.328412
_cell_angle_alpha 90.000000
_cell_angle_beta 90.000000
_cell_angle_gamma 90.000000
_cell_volume 2658.335266
_symmetry_space_group_name_H-M "P B C M"
_symmetry_group_IT_number 57
_symmetry_cell_setting 'orthorhombic'
loop_
_space_group_symop_operation_xyz
x,y,z
-x,-y,1/2+z
x,1/2-y,-z
-x,1/2+y,1/2-z
-x,-y,-z
x,y,1/2-z
-x,1/2+y,z
x,1/2-y,1/2+z
loop_
_atom_site_type_symbol
_atom_site_label
_atom_site_fract_x
_atom_site_fract_y
_atom_site_fract_z
Si Si1 0.253252 0.504311 0.552353
Si Si2 0.829580 0.561273 0.152715
Si Si3 0.388783 0.418236 0.155906
Si Si4 0.335379 0.910577 0.344555
Si Si5 0.024668 0.569548 0.152232
Si Si6 0.880004 0.438925 0.652644
Si Si7 0.521066 0.788441 0.094364
O O1 0.265082 0.250000 0.500000
O O2 0.216863 0.423826 0.615236
O O3 0.293525 0.607002 0.601946
O O4 0.237405 0.750000 0.500000
O O5 0.824598 0.562136 0.250000
O O6 0.855955 0.807257 0.120606
O O7 0.854602 0.310201 0.120789
O O8 0.403045 0.436565 0.250000
O O9 0.355229 0.191359 0.142152
O O10 0.429758 0.356257 0.102411
O O11 0.367915 0.687211 0.125885
O O12 0.323340 0.860934 0.250000
O O13 0.025501 0.568973 0.250000
O O14 0.072387 0.565550 0.117176
O O15 0.000695 0.822059 0.118650
O O16 0.881930 0.438868 0.750000
O O17 0.507573 0.515695 0.136001
O O18 0.509120 0.750000 0.000000
#
# Coordination Sequence:
#
# PCOD8232985 Si02
#       7
#     8   8   8   8   8   8   8
#     4  12  25  40  59  86 114 141 183 231 278 331
#     4  10  20  36  56  77 108 148 184 222 271 329
#     4  10  21  37  60  86 111 145 189 233 275 327
#     4  10  22  41  61  84 115 149 185 227 283 342
#     4   9  15  23  38  65 104 141 171 215 272 321
#     4   9  17  29  48  74 104 144 187 219 265 333
#     4  10  21  36  54  80 115 153 189 227 274 325
#
# _framework density 21.065815000000001
#
# number of rings (size 3 to 8) (size 9 to 14) (size 15 to 20)
#    0.000    2.000    0.000    3.857    0.000    5.714 
#    0.000    5.714    0.000    0.000    0.000    0.000 
#    0.000   40.000    0.000    0.000    0.000    0.000 
#
# Total GULP energy -694509.579219 kJ/mol
# GULP energy per Si atom -12401.956772 kJ/mol
# Density = 2.101787 g / cm^3
# Si number density = 21.065815 Si / 1000 Ang^3
#
#
#
# Elastic Constant Matrix: (Units=GPa)
#
#
# Indices 1 2 3 4 5 6 
#
# 1 137.1785 51.7471 30.7665 0.0000 0.0000 0.0000
# 2 51.7471 167.1284 28.8378 0.0000 0.0000 0.0000
# 3 30.7665 28.8378 26.5793 0.0000 0.0000 0.0000
# 4 0.0000 0.0000 0.0000 15.5676 0.0000 0.0000
# 5 0.0000 0.0000 0.0000 0.0000 3.1812 0.0000
# 6 0.0000 0.0000 0.0000 0.0000 0.0000 40.9955
#
#
#
# Elastic Compliance Matrix: (Units=1/GPa)
#
#
# Indices 1 2 3 4 5 6 
#
# 1 0.010093 -0.001365 -0.010202 0.000000 0.000000 0.000000
# 2 -0.001365 0.007546 -0.006608 0.000000 0.000000 0.000000
# 3 -0.010202 -0.006608 0.056602 0.000000 0.000000 0.000000
# 4 0.000000 0.000000 0.000000 0.064236 0.000000 0.000000
# 5 0.000000 0.000000 0.000000 0.000000 0.314349 0.000000
# 6 0.000000 0.000000 0.000000 0.000000 0.000000 0.024393
#
#
# Mechanical properties :
#
#
# Convention : Reuss Voigt Hill
#
# Bulk Modulus (GPa) = 26.39104 61.50988 43.95046
# Shear Modulus (GPa) = 9.50213 26.58452 18.04333
#
# Velocity S-wave (km/s) = 2.12614 3.55628 2.92981
# Velocity P-wave (km/s) = 4.31073 6.79155 5.68804
#
# Compressibility (1/GPa) = 0.03789164
#
# Stress axis : x y z
#
# Youngs Moduli (GPa) = 99.08197 132.51906 17.66733
#
# Poissons Ratio (x) = 0.18083 0.18024
# Poissons Ratio (y) = 0.13521 0.11674
# Poissons Ratio (z) = 1.01084 0.87565
#
# Static dielectric constant tensor:
#      x y z
#    x 3.739520 0.000000 0.000000 
#    y 0.000000 4.213280 0.000000 
#    z 0.000000 0.000000 3.394210 
# 
# 
# High freq. dielectric constant tensor:
#      x y z
#    x 1.833560 0.000000 0.000000 
#    y 0.000000 1.849120 0.000000 
#    z 0.000000 0.000000 1.786520 
# 
# From -- ./inp_files/19633.got.cif
#   From: 2010.03.12/outbox.cif.g09.slc.cpg/sg57_10_cif.got.tgz:19633.got - 2010.04.16 15:48:40.
