data_PCOD8232478
_publ_section_title
;
Structure prediction by ZEFSAII (Michael W. Deem and Ramdas Pophale) SiO2 
 PCOD8232478
Probable space group: P B C M
;
_chemical_formula_sum "Si O2"
_cell_formula_units_Z 56
_cell_length_a 16.468183
_cell_length_b 21.159585
_cell_length_c 8.751732
_cell_angle_alpha 90.000000
_cell_angle_beta 90.000000
_cell_angle_gamma 90.000000
_cell_volume 3049.627815
_symmetry_space_group_name_H-M "P B C M"
_symmetry_group_IT_number 57
_symmetry_cell_setting 'orthorhombic'
loop_
_space_group_symop_operation_xyz
x,y,z
-x,-y,1/2+z
x,1/2-y,-z
-x,1/2+y,1/2-z
-x,-y,-z
x,y,1/2-z
-x,1/2+y,z
x,1/2-y,1/2+z
loop_
_atom_site_type_symbol
_atom_site_label
_atom_site_fract_x
_atom_site_fract_y
_atom_site_fract_z
Si Si1 0.793527 0.008079 0.424298
Si Si2 0.466825 0.411449 0.426416
Si Si3 0.636253 0.684725 0.426123
Si Si4 0.037891 0.937540 0.573946
Si Si5 0.045533 0.316827 0.069625
Si Si6 0.805554 0.876593 0.574553
Si Si7 0.371751 0.975666 0.425731
O O1 0.784318 0.985141 0.250000
O O2 0.819749 0.948493 0.525758
O O3 0.864279 0.060010 0.440332
O O4 0.708955 0.039001 0.478377
O O5 0.444105 0.421695 0.250000
O O6 0.442175 0.342074 0.484409
O O7 0.414968 0.459753 0.526792
O O8 0.563412 0.419381 0.452338
O O9 0.662210 0.750000 0.500000
O O10 0.613926 0.693857 0.250000
O O11 0.711359 0.637803 0.451323
O O12 0.010264 0.934990 0.750000
O O13 0.009786 0.873913 0.491204
O O14 0.000000 0.000000 0.500000
O O15 0.037044 0.313120 0.250000
O O16 0.016452 0.250000 0.000000
O O17 0.139063 0.329647 0.024747
O O18 0.831210 0.867821 0.750000
O O19 0.346082 0.982241 0.250000
#
# Coordination Sequence:
#
# PCOD8232478 Si02
#       7
#     8   8   8   8   8   8   8
#     4  11  22  35  57  86 117 151 188 235 287 340
#     4  10  20  34  54  78 108 144 185 228 271 326
#     4  11  23  36  53  78 111 151 189 228 276 333
#     4  11  23  39  60  87 117 153 196 241 293 348
#     4  12  25  41  61  85 116 156 198 242 293 350
#     4  11  22  36  56  83 117 153 192 234 281 342
#     4  10  20  34  54  81 110 143 181 226 279 328
#
# _framework density 18.362895999999999
#
# number of rings (size 3 to 8) (size 9 to 14) (size 15 to 20)
#    0.000    1.143    2.857    4.286    0.000    6.286 
#    0.000    0.000    0.000    0.857    0.000    6.000 
#    0.000    0.000    0.000    0.000    0.000    0.000 
#
# Total GULP energy -694584.179654 kJ/mol
# GULP energy per Si atom -12403.288922 kJ/mol
# Density = 1.832110 g / cm^3
# Si number density = 18.362896 Si / 1000 Ang^3
#
#
#
# Elastic Constant Matrix: (Units=GPa)
#
#
# Indices 1 2 3 4 5 6 
#
# 1 95.3381 38.7934 49.0697 0.0000 0.0000 0.0000
# 2 38.7934 98.6773 52.6261 0.0000 0.0000 0.0000
# 3 49.0697 52.6261 120.8531 0.0000 0.0000 0.0000
# 4 0.0000 0.0000 0.0000 31.3022 0.0000 0.0000
# 5 0.0000 0.0000 0.0000 0.0000 32.3859 0.0000
# 6 0.0000 0.0000 0.0000 0.0000 0.0000 25.0225
#
#
#
# Elastic Compliance Matrix: (Units=1/GPa)
#
#
# Indices 1 2 3 4 5 6 
#
# 1 0.014004 -0.003221 -0.004283 0.000000 0.000000 0.000000
# 2 -0.003221 0.013940 -0.004762 0.000000 0.000000 0.000000
# 3 -0.004283 -0.004762 0.012088 0.000000 0.000000 0.000000
# 4 0.000000 0.000000 0.000000 0.031947 0.000000 0.000000
# 5 0.000000 0.000000 0.000000 0.000000 0.030878 0.000000
# 6 0.000000 0.000000 0.000000 0.000000 0.000000 0.039964
#
#
# Mechanical properties :
#
#
# Convention : Reuss Voigt Hill
#
# Bulk Modulus (GPa) = 64.52461 66.20522 65.36491
# Shear Modulus (GPa) = 28.98200 29.36739 29.17470
#
# Velocity S-wave (km/s) = 3.97708 4.00344 3.99028
# Velocity P-wave (km/s) = 7.50363 7.58301 7.54342
#
# Compressibility (1/GPa) = 0.01549796
#
# Stress axis : x y z
#
# Youngs Moduli (GPa) = 71.40637 71.73444 82.72961
#
# Poissons Ratio (x) = 0.23107 0.35437
# Poissons Ratio (y) = 0.23001 0.39400
# Poissons Ratio (z) = 0.30587 0.34164
#
# Static dielectric constant tensor:
#      x y z
#    x 3.552910 0.000000 0.000000 
#    y 0.000000 3.251920 0.000000 
#    z 0.000000 0.000000 3.575360 
# 
# 
# High freq. dielectric constant tensor:
#      x y z
#    x 1.711280 0.000000 0.000000 
#    y 0.000000 1.688300 0.000000 
#    z 0.000000 0.000000 1.733270 
# 
# From -- ./inp_files/5183.got.cif
#   From: 2010.03.12/outbox.cif.g09.slc.cpg/sg57_3_cif.got.tgz:5183.got - 2010.04.16 15:48:40.
