data_PCOD8232199
_publ_section_title
;
Structure prediction by ZEFSAII (Michael W. Deem and Ramdas Pophale) SiO2 
 PCOD8232199
Probable space group: P B C M
;
_chemical_formula_sum "Si O2"
_cell_formula_units_Z 64
_cell_length_a 16.561408
_cell_length_b 23.920130
_cell_length_c 8.916758
_cell_angle_alpha 90.000000
_cell_angle_beta 90.000000
_cell_angle_gamma 90.000000
_cell_volume 3532.382887
_symmetry_space_group_name_H-M "P B C M"
_symmetry_group_IT_number 57
_symmetry_cell_setting 'orthorhombic'
loop_
_space_group_symop_operation_xyz
x,y,z
-x,-y,1/2+z
x,1/2-y,-z
-x,1/2+y,1/2-z
-x,-y,-z
x,y,1/2-z
-x,1/2+y,z
x,1/2-y,1/2+z
loop_
_atom_site_type_symbol
_atom_site_label
_atom_site_fract_x
_atom_site_fract_y
_atom_site_fract_z
Si Si1 0.760871 0.809773 0.575116
Si Si2 0.714193 0.120929 0.420738
Si Si3 0.875126 0.192042 0.420305
Si Si4 0.575372 0.188644 0.928143
Si Si5 0.582300 0.809817 0.925630
Si Si6 0.966092 0.400935 0.425365
Si Si7 0.190971 0.530952 0.922813
Si Si8 0.867498 0.911999 0.574941
O O1 0.776852 0.750000 0.500000
O O2 0.772751 0.799472 0.750000
O O3 0.671084 0.835704 0.545474
O O4 0.823672 0.855955 0.514769
O O5 0.683164 0.116748 0.250000
O O6 0.791871 0.159527 0.434170
O O7 0.646008 0.146821 0.525818
O O8 0.738375 0.059214 0.479002
O O9 0.861467 0.250000 0.500000
O O10 0.900955 0.202144 0.250000
O O11 0.947069 0.158603 0.499623
O O12 0.573022 0.194898 0.750000
O O13 0.589012 0.250000 0.000000
O O14 0.492153 0.159829 0.989643
O O15 0.562045 0.805853 0.750000
O O16 0.586297 0.750000 0.000000
O O17 0.972976 0.391611 0.250000
O O18 0.897133 0.445493 0.468136
O O19 0.050551 0.423296 0.486541
O O20 0.208942 0.545035 0.750000
O O21 0.191504 0.464685 0.953769
O O22 0.888127 0.907125 0.750000
#
# Coordination Sequence:
#
# PCOD8232199 Si02
#       8
#     8   8   8   8   8   8   8   8
#     4   9  19  34  53  76 102 131 161 199 248 298
#     4  10  20  33  50  73 101 132 167 207 248 292
#     4  10  20  33  49  69  97 133 166 200 245 295
#     4  11  20  30  48  75 105 135 167 201 241 290
#     4   9  16  29  48  71  99 129 162 199 241 289
#     4  10  20  33  50  73  98 128 167 209 251 295
#     4   9  19  35  53  72  98 131 167 209 254 298
#     4  10  20  35  54  75  99 129 166 208 254 300
#
# _framework density 18.118081
#
# number of rings (size 3 to 8) (size 9 to 14) (size 15 to 20)
#    0.000    2.250    0.000    4.125    0.000    5.000 
#    0.000    1.250    0.000    0.750    0.000    0.000 
#    0.000    0.000    0.000    0.000    0.000    0.000 
#
# Total GULP energy -793425.465140 kJ/mol
# GULP energy per Si atom -12397.272893 kJ/mol
# Density = 1.807684 g / cm^3
# Si number density = 18.118081 Si / 1000 Ang^3
#
#
#
# Elastic Constant Matrix: (Units=GPa)
#
#
# Indices 1 2 3 4 5 6 
#
# 1 74.3639 29.0031 38.2119 0.0000 0.0000 0.0000
# 2 29.0031 86.5927 36.5115 0.0000 0.0000 0.0000
# 3 38.2119 36.5115 99.8092 0.0000 0.0000 0.0000
# 4 0.0000 0.0000 0.0000 24.4328 0.0000 0.0000
# 5 0.0000 0.0000 0.0000 0.0000 28.0695 0.0000
# 6 0.0000 0.0000 0.0000 0.0000 0.0000 17.4476
#
#
#
# Elastic Compliance Matrix: (Units=1/GPa)
#
#
# Indices 1 2 3 4 5 6 
#
# 1 0.017652 -0.003621 -0.005433 0.000000 0.000000 0.000000
# 2 -0.003621 0.014397 -0.003880 0.000000 0.000000 0.000000
# 3 -0.005433 -0.003880 0.013519 0.000000 0.000000 0.000000
# 4 0.000000 0.000000 0.000000 0.040929 0.000000 0.000000
# 5 0.000000 0.000000 0.000000 0.000000 0.035626 0.000000
# 6 0.000000 0.000000 0.000000 0.000000 0.000000 0.057315
#
#
# Mechanical properties :
#
#
# Convention : Reuss Voigt Hill
#
# Bulk Modulus (GPa) = 50.76652 52.02429 51.39540
# Shear Modulus (GPa) = 23.59912 24.45925 24.02918
#
# Velocity S-wave (km/s) = 3.61296 3.67821 3.64573
# Velocity P-wave (km/s) = 6.74427 6.84217 6.79340
#
# Compressibility (1/GPa) = 0.01969802
#
# Stress axis : x y z
#
# Youngs Moduli (GPa) = 56.65212 69.45723 73.97171
#
# Poissons Ratio (x) = 0.25152 0.40190
# Poissons Ratio (y) = 0.20515 0.28703
# Poissons Ratio (z) = 0.30780 0.26952
#
# Static dielectric constant tensor:
#      x y z
#    x 3.817710 0.000000 0.000000 
#    y 0.000000 3.199730 0.000000 
#    z 0.000000 0.000000 3.469570 
# 
# 
# High freq. dielectric constant tensor:
#      x y z
#    x 1.698810 0.000000 0.000000 
#    y 0.000000 1.678860 0.000000 
#    z 0.000000 0.000000 1.710990 
# 
# From -- ./inp_files/7441.got.cif
#   From: 2010.03.12/outbox.cif.g09.slc.cpg/sg57_4_cif.got.tgz:7441.got - 2010.04.16 15:48:40.
