data_PCOD8232844
_publ_section_title
;
Structure prediction by ZEFSAII (Michael W. Deem and Ramdas Pophale) SiO2 
 PCOD8232844
Probable space group: P B C M
;
_chemical_formula_sum "Si O2"
_cell_formula_units_Z 40
_cell_length_a 23.696912
_cell_length_b 9.418834
_cell_length_c 9.272440
_cell_angle_alpha 90.000000
_cell_angle_beta 90.000000
_cell_angle_gamma 90.000000
_cell_volume 2069.583391
_symmetry_space_group_name_H-M "P B C M"
_symmetry_group_IT_number 57
_symmetry_cell_setting 'orthorhombic'
loop_
_space_group_symop_operation_xyz
x,y,z
-x,-y,1/2+z
x,1/2-y,-z
-x,1/2+y,1/2-z
-x,-y,-z
x,y,1/2-z
-x,1/2+y,z
x,1/2-y,1/2+z
loop_
_atom_site_type_symbol
_atom_site_label
_atom_site_fract_x
_atom_site_fract_y
_atom_site_fract_z
Si Si1 0.957182 0.398953 0.080630
Si Si2 0.730022 0.394153 0.586667
Si Si3 0.370469 0.091149 0.975780
Si Si4 0.832091 0.398998 0.418107
Si Si5 0.538621 0.841791 0.250000
Si Si6 0.430952 0.476524 0.750000
O O1 0.972654 0.380523 0.250000
O O2 0.894350 0.467413 0.064785
O O3 0.960269 0.250000 0.000000
O O4 0.000000 0.500000 0.000000
O O5 0.714599 0.250000 0.500000
O O6 0.748621 0.356210 0.750000
O O7 0.677156 0.498755 0.600237
O O8 0.780978 0.479149 0.501863
O O9 0.428341 0.100562 0.887504
O O10 0.346328 0.250000 0.000000
O O11 0.387794 0.009591 0.119138
O O12 0.832851 0.250000 0.500000
O O13 0.817180 0.382653 0.250000
O O14 0.535202 0.671583 0.250000
O O15 0.474666 0.894682 0.250000
#
# Coordination Sequence:
#
# PCOD8232844 Si02
#       6
#     8   8   8   8   4   4
#     4  10  20  35  57  84 116 154 192 238 286 340
#     4  11  22  36  57  84 112 142 186 233 274 327
#     4  10  22  39  57  80 111 148 181 221 277 332
#     4   9  18  33  54  81 112 146 187 230 280 329
#     4  10  20  40  54  84 108 140 179 224 269 334
#     4  10  22  34  62  78 110 142 177 220 277 326
#
# _framework density 19.327559999999998
#
# number of rings (size 3 to 8) (size 9 to 14) (size 15 to 20)
#    0.000    2.000    1.000    3.600    2.800    4.000 
#    0.000    1.000    0.000    2.400    0.000    0.000 
#    0.000    0.000    0.000    0.000    0.000    0.000 
#
# Total GULP energy -495652.454467 kJ/mol
# GULP energy per Si atom -12391.311362 kJ/mol
# Density = 1.928357 g / cm^3
# Si number density = 19.327560 Si / 1000 Ang^3
#
#
#
# Elastic Constant Matrix: (Units=GPa)
#
#
# Indices 1 2 3 4 5 6 
#
# 1 96.1968 35.2552 35.7907 0.0000 0.0000 0.0000
# 2 35.2552 50.2875 22.1383 0.0000 0.0000 0.0000
# 3 35.7907 22.1383 148.2722 0.0000 0.0000 0.0000
# 4 0.0000 0.0000 0.0000 27.3355 0.0000 0.0000
# 5 0.0000 0.0000 0.0000 0.0000 44.0654 0.0000
# 6 0.0000 0.0000 0.0000 0.0000 0.0000 29.3826
#
#
#
# Elastic Compliance Matrix: (Units=1/GPa)
#
#
# Indices 1 2 3 4 5 6 
#
# 1 0.014595 -0.009292 -0.002136 0.000000 0.000000 0.000000
# 2 -0.009292 0.027201 -0.001818 0.000000 0.000000 0.000000
# 3 -0.002136 -0.001818 0.007531 0.000000 0.000000 0.000000
# 4 0.000000 0.000000 0.000000 0.036582 0.000000 0.000000
# 5 0.000000 0.000000 0.000000 0.000000 0.022694 0.000000
# 6 0.000000 0.000000 0.000000 0.000000 0.000000 0.034034
#
#
# Mechanical properties :
#
#
# Convention : Reuss Voigt Hill
#
# Bulk Modulus (GPa) = 43.79243 53.45832 48.62537
# Shear Modulus (GPa) = 28.28991 33.59488 30.94240
#
# Velocity S-wave (km/s) = 3.82999 4.17368 4.00552
# Velocity P-wave (km/s) = 6.50121 7.13760 6.82682
#
# Compressibility (1/GPa) = 0.02283500
#
# Stress axis : x y z
#
# Youngs Moduli (GPa) = 68.51428 36.76377 132.77800
#
# Poissons Ratio (x) = 0.34162 0.28358
# Poissons Ratio (y) = 0.63665 0.24143
# Poissons Ratio (z) = 0.14633 0.06685
#
# Static dielectric constant tensor:
#      x y z
#    x 3.947350 0.000000 0.000000 
#    y 0.000000 3.129320 0.000000 
#    z 0.000000 0.000000 3.873740 
# 
# 
# High freq. dielectric constant tensor:
#      x y z
#    x 1.760760 0.000000 0.000000 
#    y 0.000000 1.710370 0.000000 
#    z 0.000000 0.000000 1.779270 
# 
# From -- ./inp_files/9656.got.cif
#   From: 2010.03.12/outbox.cif.g09.slc.cpg/sg57_5_cif.got.tgz:9656.got - 2010.04.16 15:48:40.
