data_PCOD8232138
_publ_section_title
;
Structure prediction by ZEFSAII (Michael W. Deem and Ramdas Pophale) SiO2 
 PCOD8232138
Probable space group: P B C M
;
_chemical_formula_sum "Si O2"
_cell_formula_units_Z 64
_cell_length_a 16.079778
_cell_length_b 23.948989
_cell_length_c 9.054945
_cell_angle_alpha 90.000000
_cell_angle_beta 90.000000
_cell_angle_gamma 90.000000
_cell_volume 3487.008851
_symmetry_space_group_name_H-M "P B C M"
_symmetry_group_IT_number 57
_symmetry_cell_setting 'orthorhombic'
loop_
_space_group_symop_operation_xyz
x,y,z
-x,-y,1/2+z
x,1/2-y,-z
-x,1/2+y,1/2-z
-x,-y,-z
x,y,1/2-z
-x,1/2+y,z
x,1/2-y,1/2+z
loop_
_atom_site_type_symbol
_atom_site_label
_atom_site_fract_x
_atom_site_fract_y
_atom_site_fract_z
Si Si1 0.607410 0.036747 0.077269
Si Si2 0.939713 0.036214 0.591841
Si Si3 0.550281 0.585423 0.576113
Si Si4 0.170029 0.307192 0.577646
Si Si5 0.848281 0.195892 0.576115
Si Si6 0.768871 0.080267 0.924789
Si Si7 0.979383 0.654718 0.588436
Si Si8 0.639801 0.690230 0.074303
O O1 0.592294 0.047944 0.250000
O O2 0.604448 0.970243 0.043689
O O3 0.541125 0.072389 0.984671
O O4 0.695632 0.059011 0.026854
O O5 0.929839 0.006722 0.750000
O O6 0.847619 0.042900 0.524975
O O7 0.982367 0.094875 0.613037
O O8 0.000000 0.000000 0.500000
O O9 0.545791 0.598665 0.750000
O O10 0.586266 0.639784 0.493382
O O11 0.145340 0.250000 0.500000
O O12 0.159291 0.300360 0.750000
O O13 0.101441 0.350404 0.516894
O O14 0.264172 0.324827 0.538025
O O15 0.808032 0.250000 0.500000
O O16 0.850570 0.203546 0.750000
O O17 0.788880 0.144260 0.534899
O O18 0.943987 0.190017 0.518638
O O19 0.749715 0.073526 0.750000
O O20 0.952111 0.678112 0.750000
O O21 0.624099 0.694616 0.250000
O O22 0.616261 0.750000 0.000000
#
# Coordination Sequence:
#
# PCOD8232138 Si02
#       8
#     8   8   8   8   8   8   8   8
#     4  10  21  37  59  86 110 135 175 222 264 313
#     4   9  19  34  50  70 100 137 174 214 260 310
#     4  10  21  38  60  84 110 140 173 214 266 319
#     4  10  20  32  48  72 101 134 171 211 254 301
#     4   9  18  32  50  72  99 134 174 216 264 313
#     4   9  19  36  54  74 105 141 174 215 269 321
#     4   9  18  32  48  68  97 133 173 216 259 303
#     4  10  21  37  56  80 112 146 180 219 265 319
#
# _framework density 18.353839000000001
#
# number of rings (size 3 to 8) (size 9 to 14) (size 15 to 20)
#    0.000    2.500    0.000    3.375    0.000    7.000 
#    0.000    8.125    0.000    1.500    0.000    0.000 
#    0.000    0.000    0.000    0.000    0.000    0.000 
#
# Total GULP energy -793137.526556 kJ/mol
# GULP energy per Si atom -12392.773852 kJ/mol
# Density = 1.831207 g / cm^3
# Si number density = 18.353839 Si / 1000 Ang^3
#
#
#
# Elastic Constant Matrix: (Units=GPa)
#
#
# Indices 1 2 3 4 5 6 
#
# 1 111.9309 62.3682 52.7240 0.0000 0.0000 0.0000
# 2 62.3682 85.6854 48.4433 0.0000 0.0000 0.0000
# 3 52.7240 48.4433 82.2010 0.0000 0.0000 0.0000
# 4 0.0000 0.0000 0.0000 32.1556 0.0000 0.0000
# 5 0.0000 0.0000 0.0000 0.0000 27.5153 0.0000
# 6 0.0000 0.0000 0.0000 0.0000 0.0000 14.1067
#
#
#
# Elastic Compliance Matrix: (Units=1/GPa)
#
#
# Indices 1 2 3 4 5 6 
#
# 1 0.016401 -0.008984 -0.005225 0.000000 0.000000 0.000000
# 2 -0.008984 0.022423 -0.007452 0.000000 0.000000 0.000000
# 3 -0.005225 -0.007452 0.019909 0.000000 0.000000 0.000000
# 4 0.000000 0.000000 0.000000 0.031099 0.000000 0.000000
# 5 0.000000 0.000000 0.000000 0.000000 0.036343 0.000000
# 6 0.000000 0.000000 0.000000 0.000000 0.000000 0.070888
#
#
# Mechanical properties :
#
#
# Convention : Reuss Voigt Hill
#
# Bulk Modulus (GPa) = 64.89289 67.43204 66.16246
# Shear Modulus (GPa) = 20.36473 22.50766 21.43619
#
# Velocity S-wave (km/s) = 3.33462 3.50568 3.42122
# Velocity P-wave (km/s) = 7.08940 7.29426 7.19256
#
# Compressibility (1/GPa) = 0.01541001
#
# Stress axis : x y z
#
# Youngs Moduli (GPa) = 60.97098 44.59741 50.22936
#
# Poissons Ratio (x) = 0.40065 0.26247
# Poissons Ratio (y) = 0.54775 0.37432
# Poissons Ratio (z) = 0.31860 0.33235
#
# Static dielectric constant tensor:
#      x y z
#    x 3.326720 0.000000 0.000000 
#    y 0.000000 4.118090 0.000000 
#    z 0.000000 0.000000 3.362690 
# 
# 
# High freq. dielectric constant tensor:
#      x y z
#    x 1.707420 0.000000 0.000000 
#    y 0.000000 1.706360 0.000000 
#    z 0.000000 0.000000 1.716180 
# 
# From -- ./inp_files/5749.got.cif
#   From: 2010.03.12/outbox.cif.g09.slc.cpg/sg57_3_cif.got.tgz:5749.got - 2010.04.16 15:48:40.
