data_PCOD8232256
_publ_section_title
;
Structure prediction by ZEFSAII (Michael W. Deem and Ramdas Pophale) SiO2 
 PCOD8232256
Probable space group: P B C M
;
_chemical_formula_sum "Si O2"
_cell_formula_units_Z 64
_cell_length_a 21.187179
_cell_length_b 19.208472
_cell_length_c 8.551286
_cell_angle_alpha 90.000000
_cell_angle_beta 90.000000
_cell_angle_gamma 90.000000
_cell_volume 3480.145378
_symmetry_space_group_name_H-M "P B C M"
_symmetry_group_IT_number 57
_symmetry_cell_setting 'orthorhombic'
loop_
_space_group_symop_operation_xyz
x,y,z
-x,-y,1/2+z
x,1/2-y,-z
-x,1/2+y,1/2-z
-x,-y,-z
x,y,1/2-z
-x,1/2+y,z
x,1/2-y,1/2+z
loop_
_atom_site_type_symbol
_atom_site_label
_atom_site_fract_x
_atom_site_fract_y
_atom_site_fract_z
Si Si1 0.963279 0.676036 0.564386
Si Si2 0.602820 0.678602 0.568622
Si Si3 0.725370 0.639343 0.427818
Si Si4 0.183049 0.941364 0.927240
Si Si5 0.145012 0.086784 0.432917
Si Si6 0.688582 0.499414 0.569870
Si Si7 0.894707 0.321405 0.430766
Si Si8 0.435620 0.030139 0.064682
O O1 0.939691 0.750000 0.500000
O O2 0.955670 0.673371 0.750000
O O3 0.921777 0.616144 0.486392
O O4 0.034902 0.662155 0.505805
O O5 0.572844 0.750000 0.500000
O O6 0.586857 0.673546 0.750000
O O7 0.679078 0.682643 0.541335
O O8 0.573751 0.611092 0.483296
O O9 0.710908 0.661895 0.250000
O O10 0.800164 0.645026 0.467809
O O11 0.709864 0.558364 0.449022
O O12 0.163254 0.925097 0.750000
O O13 0.259676 0.937880 0.945529
O O14 0.152979 0.883630 0.036788
O O15 0.157281 0.017176 0.969861
O O16 0.144133 0.068123 0.250000
O O17 0.686699 0.526446 0.750000
O O18 0.618076 0.480073 0.513428
O O19 0.867289 0.250000 0.500000
O O20 0.900375 0.308856 0.250000
O O21 0.433704 0.023792 0.250000
O O22 0.500000 0.000000 0.000000
#
# Coordination Sequence:
#
# PCOD8232256 Si02
#       8
#     8   8   8   8   8   8   8   8
#     4  10  21  36  52  70  96 132 172 216 265 318
#     4  11  21  34  52  76 106 141 180 221 261 304
#     4   9  17  30  47  70  99 132 168 206 250 299
#     4  10  20  34  55  80 106 135 169 213 262 310
#     4  10  20  33  51  75 104 137 174 215 260 311
#     4   9  17  31  51  77 105 132 164 204 249 297
#     4  10  21  37  56  76  99 130 171 217 268 324
#     4  11  21  35  56  82 111 145 181 216 257 307
#
# _framework density 18.390037
#
# number of rings (size 3 to 8) (size 9 to 14) (size 15 to 20)
#    0.000    2.000    0.000    6.000    0.000    5.500 
#    0.000    0.000    0.000    0.750    0.000    1.750 
#    0.000    0.000    0.000    0.000    0.000    0.000 
#
# Total GULP energy -793263.833100 kJ/mol
# GULP energy per Si atom -12394.747392 kJ/mol
# Density = 1.834818 g / cm^3
# Si number density = 18.390037 Si / 1000 Ang^3
#
#
#
# Elastic Constant Matrix: (Units=GPa)
#
#
# Indices 1 2 3 4 5 6 
#
# 1 108.2078 47.5955 30.2417 0.0000 0.0000 0.0000
# 2 47.5955 71.6957 17.8078 0.0000 0.0000 0.0000
# 3 30.2417 17.8078 76.8632 0.0000 0.0000 0.0000
# 4 0.0000 0.0000 0.0000 30.6164 0.0000 0.0000
# 5 0.0000 0.0000 0.0000 0.0000 29.5444 0.0000
# 6 0.0000 0.0000 0.0000 0.0000 0.0000 18.5513
#
#
#
# Elastic Compliance Matrix: (Units=1/GPa)
#
#
# Indices 1 2 3 4 5 6 
#
# 1 0.013903 -0.008351 -0.003535 0.000000 0.000000 0.000000
# 2 -0.008351 0.019816 -0.001305 0.000000 0.000000 0.000000
# 3 -0.003535 -0.001305 0.014703 0.000000 0.000000 0.000000
# 4 0.000000 0.000000 0.000000 0.032662 0.000000 0.000000
# 5 0.000000 0.000000 0.000000 0.000000 0.033847 0.000000
# 6 0.000000 0.000000 0.000000 0.000000 0.000000 0.053905
#
#
# Mechanical properties :
#
#
# Convention : Reuss Voigt Hill
#
# Bulk Modulus (GPa) = 45.37439 49.78407 47.57923
# Shear Modulus (GPa) = 24.68325 26.48387 25.58356
#
# Velocity S-wave (km/s) = 3.66759 3.79901 3.73388
# Velocity P-wave (km/s) = 6.53161 6.80979 6.67215
#
# Compressibility (1/GPa) = 0.02203886
#
# Stress axis : x y z
#
# Youngs Moduli (GPa) = 71.92760 50.46398 68.01135
#
# Poissons Ratio (x) = 0.42144 0.24043
# Poissons Ratio (y) = 0.60070 0.08877
# Poissons Ratio (z) = 0.25428 0.06586
#
# Static dielectric constant tensor:
#      x y z
#    x 3.656650 0.000000 0.000000 
#    y 0.000000 2.975110 0.000000 
#    z 0.000000 0.000000 3.467170 
# 
# 
# High freq. dielectric constant tensor:
#      x y z
#    x 1.707480 0.000000 0.000000 
#    y 0.000000 1.683310 0.000000 
#    z 0.000000 0.000000 1.730910 
# 
# From -- ./inp_files/8474.got.cif
#   From: 2010.03.12/outbox.cif.g09.slc.cpg/sg57_5_cif.got.tgz:8474.got - 2010.04.16 15:48:40.
