data_PCOD8232971
_publ_section_title
;
Structure prediction by ZEFSAII (Michael W. Deem and Ramdas Pophale) SiO2 
 PCOD8232971
Probable space group: P B C M
;
_chemical_formula_sum "Si O2"
_cell_formula_units_Z 48
_cell_length_a 31.100010
_cell_length_b 9.498374
_cell_length_c 8.530541
_cell_angle_alpha 90.000000
_cell_angle_beta 90.000000
_cell_angle_gamma 90.000000
_cell_volume 2519.917771
_symmetry_space_group_name_H-M "P B C M"
_symmetry_group_IT_number 57
_symmetry_cell_setting 'orthorhombic'
loop_
_space_group_symop_operation_xyz
x,y,z
-x,-y,1/2+z
x,1/2-y,-z
-x,1/2+y,1/2-z
-x,-y,-z
x,y,1/2-z
-x,1/2+y,z
x,1/2-y,1/2+z
loop_
_atom_site_type_symbol
_atom_site_label
_atom_site_fract_x
_atom_site_fract_y
_atom_site_fract_z
Si Si1 0.794454 0.098796 0.063041
Si Si2 0.281812 0.404154 0.066152
Si Si3 0.537924 0.593029 0.066074
Si Si4 0.961289 0.907393 0.435882
Si Si5 0.886713 0.095077 0.935957
Si Si6 0.624523 0.594505 0.934136
O O1 0.799432 0.100264 0.250000
O O2 0.756541 0.999073 0.999931
O O3 0.781390 0.250000 0.000000
O O4 0.838949 0.049424 0.985812
O O5 0.277492 0.391448 0.250000
O O6 0.328744 0.473318 0.024838
O O7 0.276233 0.250000 0.000000
O O8 0.534076 0.598949 0.250000
O O9 0.534496 0.750000 0.000000
O O10 0.500000 0.500000 0.000000
O O11 0.583603 0.520200 0.016813
O O12 0.964915 0.750000 0.500000
O O13 0.963353 0.902924 0.250000
O O14 0.917159 0.977264 0.491375
O O15 0.000000 0.000000 0.500000
O O16 0.891407 0.097254 0.750000
O O17 0.898538 0.250000 0.000000
O O18 0.615729 0.596805 0.750000
O O19 0.626933 0.750000 0.000000
#
# Coordination Sequence:
#
# PCOD8232971 Si02
#       6
#     8   8   8   8   8   8
#     4  10  20  36  55  80 111 147 185 226 273 327
#     4   9  19  33  53  78 106 137 177 223 269 319
#     4  11  21  35  54  78 105 138 176 220 269 324
#     4  12  25  43  64  90 120 153 190 233 279 330
#     4  11  22  39  61  86 114 151 191 232 278 330
#     4   9  16  30  50  74 102 136 174 218 266 320
#
# _framework density 19.048241000000001
#
# number of rings (size 3 to 8) (size 9 to 14) (size 15 to 20)
#    0.000    1.667    0.000    8.000    0.000    2.667 
#    0.000    2.500    0.000    2.000    0.000    0.000 
#    0.000    0.000    0.000    0.000    0.000    0.000 
#
# Total GULP energy -595016.062310 kJ/mol
# GULP energy per Si atom -12396.167965 kJ/mol
# Density = 1.900489 g / cm^3
# Si number density = 19.048241 Si / 1000 Ang^3
#
#
#
# Elastic Constant Matrix: (Units=GPa)
#
#
# Indices 1 2 3 4 5 6 
#
# 1 180.1219 96.6526 64.2805 0.0000 0.0000 0.0000
# 2 96.6526 103.8758 50.5196 0.0000 0.0000 0.0000
# 3 64.2805 50.5196 146.4951 0.0000 0.0000 0.0000
# 4 0.0000 0.0000 0.0000 30.9116 0.0000 0.0000
# 5 0.0000 0.0000 0.0000 0.0000 34.8016 0.0000
# 6 0.0000 0.0000 0.0000 0.0000 0.0000 47.0886
#
#
#
# Elastic Compliance Matrix: (Units=1/GPa)
#
#
# Indices 1 2 3 4 5 6 
#
# 1 0.011397 -0.009819 -0.001615 0.000000 0.000000 0.000000
# 2 -0.009819 0.020027 -0.002598 0.000000 0.000000 0.000000
# 3 -0.001615 -0.002598 0.008431 0.000000 0.000000 0.000000
# 4 0.000000 0.000000 0.000000 0.032350 0.000000 0.000000
# 5 0.000000 0.000000 0.000000 0.000000 0.028734 0.000000
# 6 0.000000 0.000000 0.000000 0.000000 0.000000 0.021237
#
#
# Mechanical properties :
#
#
# Convention : Reuss Voigt Hill
#
# Bulk Modulus (GPa) = 84.81079 94.82202 89.81640
# Shear Modulus (GPa) = 32.43201 37.16304 34.79752
#
# Velocity S-wave (km/s) = 4.13076 4.42180 4.27876
# Velocity P-wave (km/s) = 8.20803 8.71537 8.46551
#
# Compressibility (1/GPa) = 0.01179095
#
# Stress axis : x y z
#
# Youngs Moduli (GPa) = 87.74286 49.93350 118.61665
#
# Poissons Ratio (x) = 0.49030 0.19153
# Poissons Ratio (y) = 0.86156 0.30814
# Poissons Ratio (z) = 0.14168 0.12972
#
# Static dielectric constant tensor:
#      x y z
#    x 4.402760 0.000000 0.000000 
#    y 0.000000 3.337900 0.000000 
#    z 0.000000 0.000000 3.640620 
# 
# 
# High freq. dielectric constant tensor:
#      x y z
#    x 1.767500 0.000000 0.000000 
#    y 0.000000 1.713240 0.000000 
#    z 0.000000 0.000000 1.758720 
# 
# From -- ./inp_files/10037.got.cif
#   From: 2010.03.12/outbox.cif.g09.slc.cpg/sg57_6_cif.got.tgz:10037.got - 2010.04.16 15:48:40.
