data_PCOD8232688
_publ_section_title
;
Structure prediction by ZEFSAII (Michael W. Deem and Ramdas Pophale) SiO2 
 PCOD8232688
Probable space group: P B C M
;
_chemical_formula_sum "Si O2"
_cell_formula_units_Z 64
_cell_length_a 25.063487
_cell_length_b 14.459340
_cell_length_c 8.913288
_cell_angle_alpha 90.000000
_cell_angle_beta 90.000000
_cell_angle_gamma 90.000000
_cell_volume 3230.188764
_symmetry_space_group_name_H-M "P B C M"
_symmetry_group_IT_number 57
_symmetry_cell_setting 'orthorhombic'
loop_
_space_group_symop_operation_xyz
x,y,z
-x,-y,1/2+z
x,1/2-y,-z
-x,1/2+y,1/2-z
-x,-y,-z
x,y,1/2-z
-x,1/2+y,z
x,1/2-y,1/2+z
loop_
_atom_site_type_symbol
_atom_site_label
_atom_site_fract_x
_atom_site_fract_y
_atom_site_fract_z
Si Si1 0.124062 0.452774 0.571142
Si Si2 0.368574 0.844424 0.928250
Si Si3 0.090419 0.658478 0.579120
Si Si4 0.021838 0.409791 0.423406
Si Si5 0.324047 0.469040 0.073253
Si Si6 0.475829 0.910982 0.422016
Si Si7 0.588154 0.662121 0.582069
Si Si8 0.776291 0.852206 0.429902
O O1 0.128380 0.444349 0.750000
O O2 0.113879 0.559952 0.519338
O O3 0.075953 0.385548 0.513663
O O4 0.176011 0.414760 0.490524
O O5 0.372671 0.834527 0.750000
O O6 0.326256 0.923693 0.979107
O O7 0.347223 0.750000 0.000000
O O8 0.427471 0.867176 0.987543
O O9 0.114791 0.750000 0.500000
O O10 0.107801 0.666407 0.750000
O O11 0.025873 0.664426 0.561402
O O12 0.035943 0.427841 0.250000
O O13 0.000000 0.500000 0.500000
O O14 0.318844 0.469372 0.250000
O O15 0.381295 0.428132 0.017522
O O16 0.275670 0.407804 0.009532
O O17 0.459322 0.931980 0.250000
O O18 0.524504 0.838931 0.428576
O O19 0.500000 0.000000 0.500000
O O20 0.611903 0.750000 0.500000
O O21 0.608232 0.673060 0.750000
O O22 0.777164 0.750000 0.500000
O O23 0.778914 0.844175 0.250000
#
# Coordination Sequence:
#
# PCOD8232688 Si02
#       8
#     8   8   8   8   8   8   8   8
#     4  10  21  38  57  83 118 154 196 247 294 346
#     4  11  22  40  61  85 118 154 194 239 286 347
#     4   9  19  33  53  82 117 155 193 235 281 334
#     4   9  17  31  51  79 114 154 197 239 287 340
#     4   9  20  40  61  81 112 147 184 234 288 341
#     4  11  21  35  56  83 117 156 192 231 284 339
#     4  10  20  35  54  80 111 146 181 224 276 332
#     4  11  23  41  65  88 111 146 188 237 297 353
#
# _framework density 19.813085000000001
#
# number of rings (size 3 to 8) (size 9 to 14) (size 15 to 20)
#    0.000    2.000    1.250    3.375    0.000    5.500 
#    0.000    5.000    0.000    3.000    0.000    0.000 
#    0.000    0.000    0.000    0.000    0.000    0.000 
#
# Total GULP energy -792966.566089 kJ/mol
# GULP energy per Si atom -12390.102595 kJ/mol
# Density = 1.976799 g / cm^3
# Si number density = 19.813085 Si / 1000 Ang^3
#
#
#
# Elastic Constant Matrix: (Units=GPa)
#
#
# Indices 1 2 3 4 5 6 
#
# 1 99.1177 49.6747 33.6172 0.0000 0.0000 0.0000
# 2 49.6747 146.9858 52.9452 0.0000 0.0000 0.0000
# 3 33.6172 52.9452 91.2371 0.0000 0.0000 0.0000
# 4 0.0000 0.0000 0.0000 35.1299 0.0000 0.0000
# 5 0.0000 0.0000 0.0000 0.0000 22.6075 0.0000
# 6 0.0000 0.0000 0.0000 0.0000 0.0000 25.9906
#
#
#
# Elastic Compliance Matrix: (Units=1/GPa)
#
#
# Indices 1 2 3 4 5 6 
#
# 1 0.012674 -0.003288 -0.002761 0.000000 0.000000 0.000000
# 2 -0.003288 0.009455 -0.004275 0.000000 0.000000 0.000000
# 3 -0.002761 -0.004275 0.014459 0.000000 0.000000 0.000000
# 4 0.000000 0.000000 0.000000 0.028466 0.000000 0.000000
# 5 0.000000 0.000000 0.000000 0.000000 0.044233 0.000000
# 6 0.000000 0.000000 0.000000 0.000000 0.000000 0.038476
#
#
# Mechanical properties :
#
#
# Convention : Reuss Voigt Hill
#
# Bulk Modulus (GPa) = 62.74552 67.75720 65.25136
# Shear Modulus (GPa) = 28.78142 30.15249 29.46696
#
# Velocity S-wave (km/s) = 3.81550 3.90532 3.86067
# Velocity P-wave (km/s) = 7.15179 7.38971 7.27172
#
# Compressibility (1/GPa) = 0.01593739
#
# Stress axis : x y z
#
# Youngs Moduli (GPa) = 78.90374 105.76910 69.16278
#
# Poissons Ratio (x) = 0.34782 0.19099
# Poissons Ratio (y) = 0.25947 0.29566
# Poissons Ratio (z) = 0.21789 0.45215
#
# Static dielectric constant tensor:
#      x y z
#    x 3.913310 0.000000 0.000000 
#    y 0.000000 3.755610 0.000000 
#    z 0.000000 0.000000 3.696610 
# 
# 
# High freq. dielectric constant tensor:
#      x y z
#    x 1.758340 0.000000 0.000000 
#    y 0.000000 1.776030 0.000000 
#    z 0.000000 0.000000 1.768630 
# 
# From -- ./inp_files/9313.got.cif
#   From: 2010.03.12/outbox.cif.g09.slc.cpg/sg57_5_cif.got.tgz:9313.got - 2010.04.16 15:48:40.
