data_PCOD8232833
_publ_section_title
;
Structure prediction by ZEFSAII (Michael W. Deem and Ramdas Pophale) SiO2 
 PCOD8232833
Probable space group: P B C M
;
_chemical_formula_sum "Si O2"
_cell_formula_units_Z 48
_cell_length_a 9.342579
_cell_length_b 30.237288
_cell_length_c 8.933973
_cell_angle_alpha 90.000000
_cell_angle_beta 90.000000
_cell_angle_gamma 90.000000
_cell_volume 2523.796019
_symmetry_space_group_name_H-M "P B C M"
_symmetry_group_IT_number 57
_symmetry_cell_setting 'orthorhombic'
loop_
_space_group_symop_operation_xyz
x,y,z
-x,-y,1/2+z
x,1/2-y,-z
-x,1/2+y,1/2-z
-x,-y,-z
x,y,1/2-z
-x,1/2+y,z
x,1/2-y,1/2+z
loop_
_atom_site_type_symbol
_atom_site_label
_atom_site_fract_x
_atom_site_fract_y
_atom_site_fract_z
Si Si1 0.660590 0.795504 0.926542
Si Si2 0.161254 0.628844 0.921960
Si Si3 0.829301 0.625436 0.574833
Si Si4 0.655026 0.551494 0.076239
Si Si5 0.333125 0.794976 0.574929
Si Si6 0.363518 0.549519 0.578383
O O1 0.679698 0.791678 0.750000
O O2 0.496503 0.804962 0.972742
O O3 0.714589 0.750000 0.000000
O O4 0.755837 0.834956 0.987016
O O5 0.184364 0.642585 0.750000
O O6 0.230238 0.581168 0.955490
O O7 0.995992 0.625779 0.963966
O O8 0.234057 0.665096 0.025113
O O9 0.799501 0.630996 0.750000
O O10 0.768299 0.578832 0.519612
O O11 0.671662 0.563643 0.250000
O O12 0.686931 0.500180 0.042488
O O13 0.494386 0.563958 0.026834
O O14 0.277555 0.750000 0.500000
O O15 0.319095 0.788492 0.750000
O O16 0.415497 0.553091 0.750000
#
# Coordination Sequence:
#
# PCOD8232833 Si02
#       6
#     8   8   8   8   8   8
#     4  10  21  38  60  85 110 140 181 226 272 323
#     4  10  22  38  55  78 110 147 184 221 267 323
#     4  11  23  37  54  79 112 149 184 221 269 322
#     4  10  20  35  57  84 110 140 182 228 273 323
#     4  10  21  37  59  84 108 138 178 223 270 320
#     4   9  19  37  59  81 108 143 182 226 274 324
#
# _framework density 19.018969999999999
#
# number of rings (size 3 to 8) (size 9 to 14) (size 15 to 20)
#    0.000    2.000    0.000    3.000    0.000    8.667 
#    0.000    0.000    0.000    0.000    0.000    0.000 
#    0.000    0.000    0.000    0.000    0.000    0.000 
#
# Total GULP energy -595459.757250 kJ/mol
# GULP energy per Si atom -12405.411609 kJ/mol
# Density = 1.897568 g / cm^3
# Si number density = 19.018970 Si / 1000 Ang^3
#
#
#
# Elastic Constant Matrix: (Units=GPa)
#
#
# Indices 1 2 3 4 5 6 
#
# 1 105.0203 68.3001 46.0577 0.0000 0.0000 0.0000
# 2 68.3001 123.0355 46.6826 0.0000 0.0000 0.0000
# 3 46.0577 46.6826 74.3227 0.0000 0.0000 0.0000
# 4 0.0000 0.0000 0.0000 38.0629 0.0000 0.0000
# 5 0.0000 0.0000 0.0000 0.0000 28.2230 0.0000
# 6 0.0000 0.0000 0.0000 0.0000 0.0000 -1.5057
#
#
#
# Elastic Compliance Matrix: (Units=1/GPa)
#
#
# Indices 1 2 3 4 5 6 
#
# 1 0.016684 -0.007009 -0.005936 0.000000 0.000000 0.000000
# 2 -0.007009 0.013615 -0.004208 0.000000 0.000000 0.000000
# 3 -0.005936 -0.004208 0.019777 0.000000 0.000000 0.000000
# 4 0.000000 0.000000 0.000000 0.026272 0.000000 0.000000
# 5 0.000000 0.000000 0.000000 0.000000 0.035432 0.000000
# 6 0.000000 0.000000 0.000000 0.000000 0.000000 -0.664141
#
#
# Mechanical properties :
#
#
# Convention : Reuss Voigt Hill
#
# Bulk Modulus (GPa) = 63.41856 69.38435 66.40145
# Shear Modulus (GPa) = -9.75046 22.37858 6.31406
#
# Velocity S-wave (km/s) = -2.26668 3.43395 1.82403
# Velocity P-wave (km/s) = 5.15430 7.23073 6.27895
#
# Compressibility (1/GPa) = 0.01576825
#
# Stress axis : x y z
#
# Youngs Moduli (GPa) = 59.93791 73.44572 50.56386
#
# Poissons Ratio (x) = 0.51480 0.30017
# Poissons Ratio (y) = 0.42012 0.21279
# Poissons Ratio (z) = 0.35582 0.30909
#
# Static dielectric constant tensor:
#      x y z
#    x 3.427700 0.000000 0.000000 
#    y 0.000000 3.603060 0.000000 
#    z 0.000000 0.000000 3.564130 
# 
# 
# High freq. dielectric constant tensor:
#      x y z
#    x 1.731540 0.000000 0.000000 
#    y 0.000000 1.752030 0.000000 
#    z 0.000000 0.000000 1.748720 
# 
# From -- ./inp_files/2017.got.cif
#   From: 2010.03.12/outbox.cif.g09.slc.cpg/sg57_2_cif.got.tgz:2017.got - 2010.04.16 15:48:40.
