data_PCOD8232535
_publ_section_title
;
Structure prediction by ZEFSAII (Michael W. Deem and Ramdas Pophale) SiO2 
 PCOD8232535
Probable space group: P B C M
;
_chemical_formula_sum "Si O2"
_cell_formula_units_Z 64
_cell_length_a 14.277687
_cell_length_b 25.745030
_cell_length_c 8.997688
_cell_angle_alpha 90.000000
_cell_angle_beta 90.000000
_cell_angle_gamma 90.000000
_cell_volume 3307.365478
_symmetry_space_group_name_H-M "P B C M"
_symmetry_group_IT_number 57
_symmetry_cell_setting 'orthorhombic'
loop_
_space_group_symop_operation_xyz
x,y,z
-x,-y,1/2+z
x,1/2-y,-z
-x,1/2+y,1/2-z
-x,-y,-z
x,y,1/2-z
-x,1/2+y,z
x,1/2-y,1/2+z
loop_
_atom_site_type_symbol
_atom_site_label
_atom_site_fract_x
_atom_site_fract_y
_atom_site_fract_z
Si Si1 0.423844 0.303507 0.924545
Si Si2 0.882723 0.099172 0.076066
Si Si3 0.207767 0.197175 0.076787
Si Si4 0.756022 0.196360 0.425454
Si Si5 0.206216 0.500731 0.574864
Si Si6 0.904771 0.598897 0.073140
Si Si7 0.589654 0.477088 0.078606
Si Si8 0.584257 0.141566 0.925288
O O1 0.445481 0.301233 0.750000
O O2 0.315670 0.315416 0.957272
O O3 0.455153 0.250000 0.000000
O O4 0.482496 0.348706 0.003438
O O5 0.880333 0.087690 0.250000
O O6 0.835936 0.154247 0.038018
O O7 0.988929 0.099750 0.015868
O O8 0.827247 0.053848 0.996526
O O9 0.189736 0.204485 0.250000
O O10 0.147232 0.149855 0.010566
O O11 0.174431 0.250000 0.000000
O O12 0.789073 0.250000 0.500000
O O13 0.742325 0.203832 0.250000
O O14 0.658171 0.179252 0.496628
O O15 0.192590 0.506604 0.750000
O O16 0.146999 0.452422 0.510664
O O17 0.315876 0.491558 0.536027
O O18 0.898770 0.599023 0.250000
O O19 0.566454 0.482359 0.250000
O O20 0.609277 0.417505 0.036022
O O21 0.500000 0.500000 0.000000
O O22 0.583277 0.152618 0.750000
#
# Coordination Sequence:
#
# PCOD8232535 Si02
#       8
#     8   8   8   8   8   8   8   8
#     4  10  20  34  55  81 109 146 186 226 275 333
#     4  10  21  38  59  85 115 147 187 236 287 335
#     4   9  19  36  57  81 113 149 185 229 279 333
#     4  11  23  38  58  84 115 153 194 238 288 344
#     4  10  20  38  62  85 114 150 188 231 282 339
#     4   9  19  36  60  86 112 147 189 232 280 340
#     4  10  23  38  57  85 116 151 187 230 281 337
#     4  11  22  38  57  81 114 148 187 235 283 336
#
# _framework density 19.350749
#
# number of rings (size 3 to 8) (size 9 to 14) (size 15 to 20)
#    0.000    2.000    1.250    1.875    1.750    3.000 
#    0.000    1.250    0.000    0.000    0.000    0.000 
#    0.000    0.000    0.000    0.000    0.000    0.000 
#
# Total GULP energy -793764.727561 kJ/mol
# GULP energy per Si atom -12402.573868 kJ/mol
# Density = 1.930671 g / cm^3
# Si number density = 19.350749 Si / 1000 Ang^3
#
#
#
# Elastic Constant Matrix: (Units=GPa)
#
#
# Indices 1 2 3 4 5 6 
#
# 1 123.2753 76.6338 41.8243 0.0000 0.0000 0.0000
# 2 76.6338 131.6087 53.4921 0.0000 0.0000 0.0000
# 3 41.8243 53.4921 60.5806 0.0000 0.0000 0.0000
# 4 0.0000 0.0000 0.0000 31.3385 0.0000 0.0000
# 5 0.0000 0.0000 0.0000 0.0000 22.5643 0.0000
# 6 0.0000 0.0000 0.0000 0.0000 0.0000 35.6370
#
#
#
# Elastic Compliance Matrix: (Units=1/GPa)
#
#
# Indices 1 2 3 4 5 6 
#
# 1 0.013207 -0.006215 -0.003631 0.000000 0.000000 0.000000
# 2 -0.006215 0.014776 -0.008757 0.000000 0.000000 0.000000
# 3 -0.003631 -0.008757 0.026745 0.000000 0.000000 0.000000
# 4 0.000000 0.000000 0.000000 0.031910 0.000000 0.000000
# 5 0.000000 0.000000 0.000000 0.000000 0.044318 0.000000
# 6 0.000000 0.000000 0.000000 0.000000 0.000000 0.028061
#
#
# Mechanical properties :
#
#
# Convention : Reuss Voigt Hill
#
# Bulk Modulus (GPa) = 57.06150 73.26277 65.16214
# Shear Modulus (GPa) = 24.74490 27.47558 26.11024
#
# Velocity S-wave (km/s) = 3.57985 3.77221 3.67729
# Velocity P-wave (km/s) = 6.82928 7.54423 7.19564
#
# Compressibility (1/GPa) = 0.01752495
#
# Stress axis : x y z
#
# Youngs Moduli (GPa) = 75.71763 67.67702 37.38955
#
# Poissons Ratio (x) = 0.42059 0.13574
# Poissons Ratio (y) = 0.47055 0.32741
# Poissons Ratio (z) = 0.27490 0.59262
#
# Static dielectric constant tensor:
#      x y z
#    x 2.037510 0.000000 0.000000 
#    y 0.000000 3.672850 0.000000 
#    z 0.000000 0.000000 3.393390 
# 
# 
# High freq. dielectric constant tensor:
#      x y z
#    x 1.762790 0.000000 0.000000 
#    y 0.000000 1.760420 0.000000 
#    z 0.000000 0.000000 1.739190 
# 
# From -- ./inp_files/5617.got.cif
#   From: 2010.03.12/outbox.cif.g09.slc.cpg/sg57_3_cif.got.tgz:5617.got - 2010.04.16 15:48:40.
