data_PCOD8232767
_publ_section_title
;
Structure prediction by ZEFSAII (Michael W. Deem and Ramdas Pophale) SiO2 
 PCOD8232767
Probable space group: P B C M
;
_chemical_formula_sum "Si O2"
_cell_formula_units_Z 48
_cell_length_a 9.542977
_cell_length_b 30.692444
_cell_length_c 8.792643
_cell_angle_alpha 90.000000
_cell_angle_beta 90.000000
_cell_angle_gamma 90.000000
_cell_volume 2575.341282
_symmetry_space_group_name_H-M "P B C M"
_symmetry_group_IT_number 57
_symmetry_cell_setting 'orthorhombic'
loop_
_space_group_symop_operation_xyz
x,y,z
-x,-y,1/2+z
x,1/2-y,-z
-x,1/2+y,1/2-z
-x,-y,-z
x,y,1/2-z
-x,1/2+y,z
x,1/2-y,1/2+z
loop_
_atom_site_type_symbol
_atom_site_label
_atom_site_fract_x
_atom_site_fract_y
_atom_site_fract_z
Si Si1 0.352337 0.013727 0.570660
Si Si2 0.201482 0.703288 0.073236
Si Si3 0.581089 0.368406 0.922296
Si Si4 0.000328 0.135402 0.570902
Si Si5 0.278177 0.395122 0.925508
Si Si6 0.227084 0.934470 0.426371
O O1 0.368768 0.015287 0.750000
O O2 0.300464 0.059885 0.511998
O O3 0.500000 0.000000 0.500000
O O4 0.233734 0.978649 0.523820
O O5 0.168251 0.708269 0.250000
O O6 0.347226 0.677914 0.042906
O O7 0.219037 0.750000 0.000000
O O8 0.073012 0.677899 0.997182
O O9 0.617506 0.383434 0.750000
O O10 0.414645 0.364472 0.944393
O O11 0.637813 0.404939 0.036792
O O12 0.012245 0.141528 0.750000
O O13 0.152678 0.131821 0.498715
O O14 0.912995 0.091868 0.529309
O O15 0.246192 0.405215 0.750000
O O16 0.230743 0.946793 0.250000
#
# Coordination Sequence:
#
# PCOD8232767 Si02
#       6
#     8   8   8   8   8   8
#     4  12  23  35  54  81 113 151 196 242 286 334
#     4  10  20  38  63  89 113 143 183 229 281 342
#     4   9  19  35  57  82 111 145 185 231 279 333
#     4  10  22  39  58  84 116 152 191 234 286 343
#     4  11  22  37  57  83 115 153 192 236 287 337
#     4  10  20  35  56  80 109 149 195 238 282 332
#
# _framework density 18.638306
#
# number of rings (size 3 to 8) (size 9 to 14) (size 15 to 20)
#    0.000    1.667    1.667    3.500    0.000    4.000 
#    0.000    0.833    0.000    2.000    0.000    0.000 
#    0.000    0.000    0.000    0.000    0.000    0.000 
#
# Total GULP energy -595365.598918 kJ/mol
# GULP energy per Si atom -12403.449977 kJ/mol
# Density = 1.859588 g / cm^3
# Si number density = 18.638306 Si / 1000 Ang^3
#
#
#
# Elastic Constant Matrix: (Units=GPa)
#
#
# Indices 1 2 3 4 5 6 
#
# 1 121.0871 55.7520 52.5055 0.0000 0.0000 0.0000
# 2 55.7520 121.2163 57.2590 0.0000 0.0000 0.0000
# 3 52.5055 57.2590 120.2846 0.0000 0.0000 0.0000
# 4 0.0000 0.0000 0.0000 33.0560 0.0000 0.0000
# 5 0.0000 0.0000 0.0000 0.0000 31.0693 0.0000
# 6 0.0000 0.0000 0.0000 0.0000 0.0000 21.5636
#
#
#
# Elastic Compliance Matrix: (Units=1/GPa)
#
#
# Indices 1 2 3 4 5 6 
#
# 1 0.011351 -0.003716 -0.003186 0.000000 0.000000 0.000000
# 2 -0.003716 0.011859 -0.004023 0.000000 0.000000 0.000000
# 3 -0.003186 -0.004023 0.011620 0.000000 0.000000 0.000000
# 4 0.000000 0.000000 0.000000 0.030252 0.000000 0.000000
# 5 0.000000 0.000000 0.000000 0.000000 0.032186 0.000000
# 6 0.000000 0.000000 0.000000 0.000000 0.000000 0.046374
#
#
# Mechanical properties :
#
#
# Convention : Reuss Voigt Hill
#
# Bulk Modulus (GPa) = 77.04461 77.06897 77.05679
# Shear Modulus (GPa) = 29.44318 30.27588 29.85953
#
# Velocity S-wave (km/s) = 3.97887 4.03474 4.00691
# Velocity P-wave (km/s) = 7.90791 7.94639 7.92717
#
# Compressibility (1/GPa) = 0.01297949
#
# Stress axis : x y z
#
# Youngs Moduli (GPa) = 88.09925 84.32236 86.06166
#
# Poissons Ratio (x) = 0.31332 0.27419
# Poissons Ratio (y) = 0.32735 0.34626
# Poissons Ratio (z) = 0.28068 0.33926
#
# Static dielectric constant tensor:
#      x y z
#    x 3.513650 0.000000 0.000000 
#    y 0.000000 3.373490 0.000000 
#    z 0.000000 0.000000 3.591370 
# 
# 
# High freq. dielectric constant tensor:
#      x y z
#    x 1.720370 0.000000 0.000000 
#    y 0.000000 1.711050 0.000000 
#    z 0.000000 0.000000 1.740350 
# 
# From -- ./inp_files/1992.got.cif
#   From: 2010.03.12/outbox.cif.g09.slc.cpg/sg57_1_cif.got.tgz:1992.got - 2010.04.16 15:48:40.
