data_PCOD8232156
_publ_section_title
;
Structure prediction by ZEFSAII (Michael W. Deem and Ramdas Pophale) SiO2 
 PCOD8232156
Probable space group: P B C M
;
_chemical_formula_sum "Si O2"
_cell_formula_units_Z 56
_cell_length_a 17.062493
_cell_length_b 18.053594
_cell_length_c 9.592178
_cell_angle_alpha 90.000000
_cell_angle_beta 90.000000
_cell_angle_gamma 90.000000
_cell_volume 2954.768000
_symmetry_space_group_name_H-M "P B C M"
_symmetry_group_IT_number 57
_symmetry_cell_setting 'orthorhombic'
loop_
_space_group_symop_operation_xyz
x,y,z
-x,-y,1/2+z
x,1/2-y,-z
-x,1/2+y,1/2-z
-x,-y,-z
x,y,1/2-z
-x,1/2+y,z
x,1/2-y,1/2+z
loop_
_atom_site_type_symbol
_atom_site_label
_atom_site_fract_x
_atom_site_fract_y
_atom_site_fract_z
Si Si1 0.662280 0.044128 0.911941
Si Si2 0.755056 0.819813 0.091673
Si Si3 0.158539 0.952394 0.090653
Si Si4 0.551227 0.323637 0.410618
Si Si5 0.902896 0.921789 0.409737
Si Si6 0.604445 0.910265 0.086254
Si Si7 0.953417 0.322427 0.090648
O O1 0.655517 0.021484 0.750000
O O2 0.752175 0.045572 0.963470
O O3 0.627555 0.125949 0.935698
O O4 0.612257 0.986214 0.001494
O O5 0.749491 0.792275 0.250000
O O6 0.820950 0.880884 0.071796
O O7 0.673555 0.854793 0.041610
O O8 0.777451 0.750000 0.000000
O O9 0.154029 0.979525 0.250000
O O10 0.126434 0.869116 0.076391
O O11 0.101465 0.004338 0.001069
O O12 0.559547 0.250000 0.500000
O O13 0.542988 0.299835 0.250000
O O14 0.475845 0.370912 0.457277
O O15 0.918581 0.944717 0.250000
O O16 0.972958 0.870108 0.464624
O O17 0.607875 0.929362 0.250000
O O18 0.968711 0.298625 0.250000
O O19 0.943577 0.250000 0.000000
#
# Coordination Sequence:
#
# PCOD8232156 Si02
#       7
#     8   8   8   8   8   8   8
#     4  10  21  37  57  82 111 144 184 227 272 325
#     4  10  20  32  50  78 109 140 175 216 265 320
#     4  10  21  37  57  82 111 144 184 227 272 325
#     4  10  22  38  56  81 112 145 183 228 274 323
#     4  10  20  36  56  80 110 142 182 227 271 325
#     4  10  20  36  56  80 110 142 182 227 271 325
#     4  10  22  38  56  81 112 145 183 228 274 323
#
# _framework density 18.952418999999999
#
# number of rings (size 3 to 8) (size 9 to 14) (size 15 to 20)
#    0.000    2.000    1.429    1.714    0.000    4.000 
#    0.000    0.000    0.000    0.000    0.000    0.000 
#    0.000    0.000    0.000    0.000    0.000    0.000 
#
# Total GULP energy -694648.335107 kJ/mol
# GULP energy per Si atom -12404.434555 kJ/mol
# Density = 1.890928 g / cm^3
# Si number density = 18.952419 Si / 1000 Ang^3
#
#
#
# Elastic Constant Matrix: (Units=GPa)
#
#
# Indices 1 2 3 4 5 6 
#
# 1 59.6594 30.4620 21.7071 0.0000 0.0000 0.0000
# 2 30.4620 114.8582 63.6896 0.0000 0.0000 0.0000
# 3 21.7071 63.6896 67.5492 0.0000 0.0000 0.0000
# 4 0.0000 0.0000 0.0000 42.5914 0.0000 0.0000
# 5 0.0000 0.0000 0.0000 0.0000 18.9049 0.0000
# 6 0.0000 0.0000 0.0000 0.0000 0.0000 21.0422
#
#
#
# Elastic Compliance Matrix: (Units=1/GPa)
#
#
# Indices 1 2 3 4 5 6 
#
# 1 0.019661 -0.003586 -0.002938 0.000000 0.000000 0.000000
# 2 -0.003586 0.018900 -0.016667 0.000000 0.000000 0.000000
# 3 -0.002938 -0.016667 0.031463 0.000000 0.000000 0.000000
# 4 0.000000 0.000000 0.000000 0.023479 0.000000 0.000000
# 5 0.000000 0.000000 0.000000 0.000000 0.052896 0.000000
# 6 0.000000 0.000000 0.000000 0.000000 0.000000 0.047524
#
#
# Mechanical properties :
#
#
# Convention : Reuss Voigt Hill
#
# Bulk Modulus (GPa) = 42.29588 52.64270 47.46929
# Shear Modulus (GPa) = 20.14628 24.92158 22.53393
#
# Velocity S-wave (km/s) = 3.26389 3.63017 3.45189
# Velocity P-wave (km/s) = 6.04726 6.73850 6.40221
#
# Compressibility (1/GPa) = 0.02364296
#
# Stress axis : x y z
#
# Youngs Moduli (GPa) = 50.86093 52.91136 31.78329
#
# Poissons Ratio (x) = 0.18972 0.09336
# Poissons Ratio (y) = 0.18237 0.52975
# Poissons Ratio (z) = 0.14940 0.88189
#
# Static dielectric constant tensor:
#      x y z
#    x 3.637210 0.000000 0.000000 
#    y 0.000000 3.259020 0.000000 
#    z 0.000000 0.000000 3.382930 
# 
# 
# High freq. dielectric constant tensor:
#      x y z
#    x 1.751530 0.000000 0.000000 
#    y 0.000000 1.731410 0.000000 
#    z 0.000000 0.000000 1.729800 
# 
# From -- ./inp_files/13800.got.cif
#   From: 2010.03.12/outbox.cif.g09.slc.cpg/sg57_7_cif.got.tgz:13800.got - 2010.04.16 15:48:40.
