data_PCOD8232656
_publ_section_title
;
Structure prediction by ZEFSAII (Michael W. Deem and Ramdas Pophale) SiO2 
 PCOD8232656
Probable space group: P B C M
;
_chemical_formula_sum "Si O2"
_cell_formula_units_Z 48
_cell_length_a 28.620801
_cell_length_b 10.260662
_cell_length_c 8.921829
_cell_angle_alpha 90.000000
_cell_angle_beta 90.000000
_cell_angle_gamma 90.000000
_cell_volume 2620.058937
_symmetry_space_group_name_H-M "P B C M"
_symmetry_group_IT_number 57
_symmetry_cell_setting 'orthorhombic'
loop_
_space_group_symop_operation_xyz
x,y,z
-x,-y,1/2+z
x,1/2-y,-z
-x,1/2+y,1/2-z
-x,-y,-z
x,y,1/2-z
-x,1/2+y,z
x,1/2-y,1/2+z
loop_
_atom_site_type_symbol
_atom_site_label
_atom_site_fract_x
_atom_site_fract_y
_atom_site_fract_z
Si Si1 0.699536 0.382877 0.074535
Si Si2 0.972727 0.883787 0.423527
Si Si3 0.471120 0.385132 0.926510
Si Si4 0.136633 0.384307 0.076025
Si Si5 0.636682 0.882670 0.925100
Si Si6 0.192945 0.884905 0.073523
O O1 0.692146 0.366764 0.250000
O O2 0.667934 0.499819 0.010258
O O3 0.753142 0.412231 0.033562
O O4 0.681966 0.250000 0.000000
O O5 0.988904 0.750000 0.500000
O O6 0.986272 0.876745 0.250000
O O7 0.918068 0.907693 0.447660
O O8 0.000000 0.000000 0.500000
O O9 0.480643 0.379309 0.750000
O O10 0.417045 0.411394 0.964255
O O11 0.487734 0.250000 0.000000
O O12 0.500000 0.500000 0.000000
O O13 0.150344 0.379628 0.250000
O O14 0.152740 0.250000 0.000000
O O15 0.162873 0.500468 0.995205
O O16 0.644694 0.866392 0.750000
O O17 0.654253 0.750000 0.000000
O O18 0.184296 0.876899 0.250000
O O19 0.176242 0.750000 0.000000
#
# Coordination Sequence:
#
# PCOD8232656 Si02
#       6
#     8   8   8   8   8   8
#     4   9  19  35  53  76 104 134 171 212 255 304
#     4  10  21  37  57  80 107 139 175 216 260 308
#     4  10  20  35  54  76 104 137 173 214 259 308
#     4  10  21  37  56  79 107 139 175 215 260 309
#     4   9  19  35  53  75 103 134 170 211 255 305
#     4  10  20  35  55  78 106 139 175 216 259 306
#
# _framework density 18.3202
#
# number of rings (size 3 to 8) (size 9 to 14) (size 15 to 20)
#    0.000    2.333    0.000    2.000    0.000    6.000 
#    0.000    3.333    0.000    0.000    0.000    0.000 
#    0.000    0.000    0.000    0.000    0.000    0.000 
#
# Total GULP energy -595382.454468 kJ/mol
# GULP energy per Si atom -12403.801135 kJ/mol
# Density = 1.827850 g / cm^3
# Si number density = 18.320200 Si / 1000 Ang^3
#
#
#
# Elastic Constant Matrix: (Units=GPa)
#
#
# Indices 1 2 3 4 5 6 
#
# 1 63.5133 85.8477 50.9520 0.0000 0.0000 0.0000
# 2 85.8477 205.5086 88.3765 0.0000 0.0000 0.0000
# 3 50.9520 88.3765 102.9983 0.0000 0.0000 0.0000
# 4 0.0000 0.0000 0.0000 42.7903 0.0000 0.0000
# 5 0.0000 0.0000 0.0000 0.0000 22.2688 0.0000
# 6 0.0000 0.0000 0.0000 0.0000 0.0000 44.8795
#
#
#
# Elastic Compliance Matrix: (Units=1/GPa)
#
#
# Indices 1 2 3 4 5 6 
#
# 1 0.040615 -0.013195 -0.008770 0.000000 0.000000 0.000000
# 2 -0.013195 0.011998 -0.003767 0.000000 0.000000 0.000000
# 3 -0.008770 -0.003767 0.017280 0.000000 0.000000 0.000000
# 4 0.000000 0.000000 0.000000 0.023370 0.000000 0.000000
# 5 0.000000 0.000000 0.000000 0.000000 0.044906 0.000000
# 6 0.000000 0.000000 0.000000 0.000000 0.000000 0.022282
#
#
# Mechanical properties :
#
#
# Convention : Reuss Voigt Hill
#
# Bulk Modulus (GPa) = 54.26436 91.37472 72.81954
# Shear Modulus (GPa) = 22.92969 31.77732 27.35351
#
# Velocity S-wave (km/s) = 3.54164 4.16931 3.86823
# Velocity P-wave (km/s) = 6.81238 8.55350 7.73211
#
# Compressibility (1/GPa) = 0.01842830
#
# Stress axis : x y z
#
# Youngs Moduli (GPa) = 24.62149 83.34722 57.87026
#
# Poissons Ratio (x) = 1.09974 0.50753
# Poissons Ratio (y) = 0.32487 0.21803
# Poissons Ratio (z) = 0.21593 0.31401
#
# Static dielectric constant tensor:
#      x y z
#    x 3.374010 0.000000 0.000000 
#    y 0.000000 3.525930 0.000000 
#    z 0.000000 0.000000 3.471690 
# 
# 
# High freq. dielectric constant tensor:
#      x y z
#    x 1.703680 0.000000 0.000000 
#    y 0.000000 1.723330 0.000000 
#    z 0.000000 0.000000 1.720820 
# 
# From -- ./inp_files/9912.got.cif
#   From: 2010.03.12/outbox.cif.g09.slc.cpg/sg57_5_cif.got.tgz:9912.got - 2010.04.16 15:48:40.
