data_PCOD8232895
_publ_section_title
;
Structure prediction by ZEFSAII (Michael W. Deem and Ramdas Pophale) SiO2 
 PCOD8232895
Probable space group: P B C M
;
_chemical_formula_sum "Si O2"
_cell_formula_units_Z 56
_cell_length_a 22.801762
_cell_length_b 14.237150
_cell_length_c 8.718935
_cell_angle_alpha 90.000000
_cell_angle_beta 90.000000
_cell_angle_gamma 90.000000
_cell_volume 2830.446230
_symmetry_space_group_name_H-M "P B C M"
_symmetry_group_IT_number 57
_symmetry_cell_setting 'orthorhombic'
loop_
_space_group_symop_operation_xyz
x,y,z
-x,-y,1/2+z
x,1/2-y,-z
-x,1/2+y,1/2-z
-x,-y,-z
x,y,1/2-z
-x,1/2+y,z
x,1/2-y,1/2+z
loop_
_atom_site_type_symbol
_atom_site_label
_atom_site_fract_x
_atom_site_fract_y
_atom_site_fract_z
Si Si1 0.907164 0.162314 0.571829
Si Si2 0.307448 0.853510 0.432068
Si Si3 0.197500 0.533855 0.928663
Si Si4 0.852944 0.846457 0.567944
Si Si5 0.019430 0.097231 0.430006
Si Si6 0.531783 0.645440 0.429722
Si Si7 0.586665 0.034020 0.429190
O O1 0.871094 0.250000 0.500000
O O2 0.920438 0.173786 0.750000
O O3 0.867827 0.071841 0.538182
O O4 0.967892 0.166858 0.478076
O O5 0.314738 0.750000 0.500000
O O6 0.305341 0.843190 0.250000
O O7 0.248966 0.903484 0.503180
O O8 0.360303 0.920768 0.478388
O O9 0.210984 0.535782 0.750000
O O10 0.193379 0.426477 0.987726
O O11 0.828703 0.750000 0.500000
O O12 0.854593 0.841294 0.750000
O O13 0.918399 0.866895 0.503338
O O14 0.024930 0.084801 0.250000
O O15 0.000000 0.000000 0.500000
O O16 0.537440 0.750000 0.500000
O O17 0.546155 0.651355 0.250000
O O18 0.576471 0.571911 0.508860
O O19 0.467447 0.603840 0.460127
O O20 0.601414 0.027719 0.250000
#
# Coordination Sequence:
#
# PCOD8232895 Si02
#       7
#     8   8   8   8   8   8   8
#     4  11  21  36  55  79 110 142 179 224 277 338
#     4  11  22  38  61  85 114 152 193 238 290 343
#     4   9  20  39  58  77 109 147 184 232 283 332
#     4  10  21  39  58  79 106 141 181 226 280 338
#     4  11  21  35  56  80 109 142 177 223 281 343
#     4  10  20  35  58  88 123 162 200 242 292 343
#     4  10  21  37  58  87 123 159 200 244 288 344
#
# _framework density 19.784865
#
# number of rings (size 3 to 8) (size 9 to 14) (size 15 to 20)
#    0.000    1.714    1.429    3.429    0.000    5.143 
#    0.000    4.286    0.000    1.714    0.000    0.000 
#    0.000    0.000    0.000    0.000    0.000    0.000 
#
# Total GULP energy -694100.472739 kJ/mol
# GULP energy per Si atom -12394.651299 kJ/mol
# Density = 1.973983 g / cm^3
# Si number density = 19.784865 Si / 1000 Ang^3
#
#
#
# Elastic Constant Matrix: (Units=GPa)
#
#
# Indices 1 2 3 4 5 6 
#
# 1 81.5346 44.0064 29.5346 0.0000 0.0000 0.0000
# 2 44.0064 168.3605 43.5434 0.0000 0.0000 0.0000
# 3 29.5346 43.5434 67.2566 0.0000 0.0000 0.0000
# 4 0.0000 0.0000 0.0000 38.5633 0.0000 0.0000
# 5 0.0000 0.0000 0.0000 0.0000 21.8921 0.0000
# 6 0.0000 0.0000 0.0000 0.0000 0.0000 7.5817
#
#
#
# Elastic Compliance Matrix: (Units=1/GPa)
#
#
# Indices 1 2 3 4 5 6 
#
# 1 0.015589 -0.002768 -0.005054 0.000000 0.000000 0.000000
# 2 -0.002768 0.007626 -0.003722 0.000000 0.000000 0.000000
# 3 -0.005054 -0.003722 0.019497 0.000000 0.000000 0.000000
# 4 0.000000 0.000000 0.000000 0.025931 0.000000 0.000000
# 5 0.000000 0.000000 0.000000 0.000000 0.045679 0.000000
# 6 0.000000 0.000000 0.000000 0.000000 0.000000 0.131896
#
#
# Mechanical properties :
#
#
# Convention : Reuss Voigt Hill
#
# Bulk Modulus (GPa) = 50.95361 61.25782 56.10572
# Shear Modulus (GPa) = 18.12605 26.94524 22.53565
#
# Velocity S-wave (km/s) = 3.03009 3.69441 3.37862
# Velocity P-wave (km/s) = 6.16861 7.01623 6.60602
#
# Compressibility (1/GPa) = 0.01962569
#
# Stress axis : x y z
#
# Youngs Moduli (GPa) = 64.14699 131.13777 51.28941
#
# Poissons Ratio (x) = 0.36294 0.25921
# Poissons Ratio (y) = 0.17754 0.19088
# Poissons Ratio (z) = 0.32419 0.48804
#
# Static dielectric constant tensor:
#      x y z
#    x 3.356230 0.000000 0.000000 
#    y 0.000000 3.620850 0.000000 
#    z 0.000000 0.000000 3.317810 
# 
# 
# High freq. dielectric constant tensor:
#      x y z
#    x 1.754250 0.000000 0.000000 
#    y 0.000000 1.794050 0.000000 
#    z 0.000000 0.000000 1.762140 
# 
# From -- ./inp_files/8036.got.cif
#   From: 2010.03.12/outbox.cif.g09.slc.cpg/sg57_5_cif.got.tgz:8036.got - 2010.04.16 15:48:40.
