data_PCOD8232949
_publ_section_title
;
Structure prediction by ZEFSAII (Michael W. Deem and Ramdas Pophale) SiO2 
 PCOD8232949
Probable space group: P B C M
;
_chemical_formula_sum "Si O2"
_cell_formula_units_Z 64
_cell_length_a 5.219908
_cell_length_b 21.497543
_cell_length_c 28.272168
_cell_angle_alpha 90.000000
_cell_angle_beta 90.000000
_cell_angle_gamma 90.000000
_cell_volume 3172.566893
_symmetry_space_group_name_H-M "P B C M"
_symmetry_group_IT_number 57
_symmetry_cell_setting 'orthorhombic'
loop_
_space_group_symop_operation_xyz
x,y,z
-x,-y,1/2+z
x,1/2-y,-z
-x,1/2+y,1/2-z
-x,-y,-z
x,y,1/2-z
-x,1/2+y,z
x,1/2-y,1/2+z
loop_
_atom_site_type_symbol
_atom_site_label
_atom_site_fract_x
_atom_site_fract_y
_atom_site_fract_z
Si Si1 0.495100 0.222590 0.847412
Si Si2 0.171950 0.318194 0.008063
Si Si3 0.197642 0.924573 0.012259
Si Si4 0.010814 0.122945 0.382685
Si Si5 0.156473 0.995479 0.924800
Si Si6 0.414819 0.119367 0.912420
Si Si7 0.991724 0.221321 0.304785
Si Si8 0.487466 0.676435 0.422830
O O1 0.510291 0.149709 0.863203
O O2 0.739582 0.238185 0.815513
O O3 0.494415 0.257365 0.897460
O O4 0.238066 0.237812 0.818638
O O5 0.438645 0.316771 0.977909
O O6 0.040827 0.250000 0.000000
O O7 0.204775 0.333715 0.064161
O O8 0.003758 0.375904 0.989211
O O9 0.389807 0.885658 0.044232
O O10 0.081512 0.977014 0.046322
O O11 0.322087 0.957862 0.965359
O O12 0.977872 0.154805 0.331356
O O13 0.804381 0.154041 0.418242
O O14 0.304315 0.130908 0.398439
O O15 0.945004 0.049270 0.382622
O O16 0.313405 0.050583 0.899914
O O17 0.002956 0.204916 0.250000
#
# Coordination Sequence:
#
# PCOD8232949 Si02
#       8
#     8   8   8   8   8   8   8   8
#     4  10  22  38  63  90 124 147 191 247 305 374
#     4  11  21  32  50  77 122 160 206 252 283 331
#     4  10  22  35  52  76 120 173 214 240 282 324
#     4  10  21  36  62  83 114 147 198 245 293 354
#     4  10  21  36  52  80 117 170 209 244 273 338
#     4  11  23  34  53  83 121 167 208 238 284 347
#     4  10  22  42  68  94 114 143 185 253 327 379
#     4  10  20  36  52  85 114 158 195 240 296 327
#
# _framework density 20.172940000000001
#
# number of rings (size 3 to 8) (size 9 to 14) (size 15 to 20)
#    0.000    1.750    2.500    1.500    5.250    1.500 
#    0.000    0.000    0.000    1.500    0.000    0.000 
#    0.000    0.000    0.000    0.000    0.000    0.000 
#
# Total GULP energy -792950.216535 kJ/mol
# GULP energy per Si atom -12389.847133 kJ/mol
# Density = 2.012703 g / cm^3
# Si number density = 20.172940 Si / 1000 Ang^3
#
#
#
# Elastic Constant Matrix: (Units=GPa)
#
#
# Indices 1 2 3 4 5 6 
#
# 1 72.3394 19.1827 21.1595 0.0000 0.0000 0.0000
# 2 19.1827 117.3781 50.9080 0.0000 0.0000 0.0000
# 3 21.1595 50.9080 94.9086 0.0000 0.0000 0.0000
# 4 0.0000 0.0000 0.0000 24.7744 0.0000 0.0000
# 5 0.0000 0.0000 0.0000 0.0000 22.3967 0.0000
# 6 0.0000 0.0000 0.0000 0.0000 0.0000 13.5794
#
#
#
# Elastic Compliance Matrix: (Units=1/GPa)
#
#
# Indices 1 2 3 4 5 6 
#
# 1 0.014939 -0.001299 -0.002634 0.000000 0.000000 0.000000
# 2 -0.001299 0.011215 -0.005726 0.000000 0.000000 0.000000
# 3 -0.002634 -0.005726 0.014195 0.000000 0.000000 0.000000
# 4 0.000000 0.000000 0.000000 0.040364 0.000000 0.000000
# 5 0.000000 0.000000 0.000000 0.000000 0.044649 0.000000
# 6 0.000000 0.000000 0.000000 0.000000 0.000000 0.073641
#
#
# Mechanical properties :
#
#
# Convention : Reuss Voigt Hill
#
# Bulk Modulus (GPa) = 47.54867 51.90295 49.72581
# Shear Modulus (GPa) = 22.18949 25.04182 23.61565
#
# Velocity S-wave (km/s) = 3.32017 3.52711 3.42520
# Velocity P-wave (km/s) = 6.19029 6.50939 6.35185
#
# Compressibility (1/GPa) = 0.02103108
#
# Stress axis : x y z
#
# Youngs Moduli (GPa) = 66.94083 89.16417 70.44701
#
# Poissons Ratio (x) = 0.11583 0.18553
# Poissons Ratio (y) = 0.08696 0.40339
# Poissons Ratio (z) = 0.17630 0.51057
#
# Static dielectric constant tensor:
#      x y z
#    x 3.740700 0.000000 0.000000 
#    y 0.000000 3.972000 0.000000 
#    z 0.000000 0.000000 3.278960 
# 
# 
# High freq. dielectric constant tensor:
#      x y z
#    x 1.789650 0.000000 0.000000 
#    y 0.000000 1.793930 0.000000 
#    z 0.000000 0.000000 1.739280 
# 
# From -- ./inp_files/28142.got.cif
#   From: 2010.03.12/outbox.cif.g09.slc.cpg/sg57_15_cif.got.tgz:28142.got - 2010.04.16 15:48:40.
