data_PCOD8232362
_publ_section_title
;
Structure prediction by ZEFSAII (Michael W. Deem and Ramdas Pophale) SiO2 
 PCOD8232362
Probable space group: P B C M
;
_chemical_formula_sum "Si O2"
_cell_formula_units_Z 48
_cell_length_a 15.978977
_cell_length_b 18.560711
_cell_length_c 8.769175
_cell_angle_alpha 90.000000
_cell_angle_beta 90.000000
_cell_angle_gamma 90.000000
_cell_volume 2600.772218
_symmetry_space_group_name_H-M "P B C M"
_symmetry_group_IT_number 57
_symmetry_cell_setting 'orthorhombic'
loop_
_space_group_symop_operation_xyz
x,y,z
-x,-y,1/2+z
x,1/2-y,-z
-x,1/2+y,1/2-z
-x,-y,-z
x,y,1/2-z
-x,1/2+y,z
x,1/2-y,1/2+z
loop_
_atom_site_type_symbol
_atom_site_label
_atom_site_fract_x
_atom_site_fract_y
_atom_site_fract_z
Si Si1 0.671751 0.174136 0.931666
Si Si2 0.976861 0.173415 0.927318
Si Si3 0.827425 0.400588 0.570321
Si Si4 0.581156 0.032476 0.924496
Si Si5 0.754341 0.962074 0.926581
Si Si6 0.830585 0.826596 0.427442
O O1 0.674934 0.177982 0.750000
O O2 0.608030 0.111397 0.988533
O O3 0.641033 0.250000 0.000000
O O4 0.764397 0.155527 0.990698
O O5 0.953897 0.176290 0.750000
O O6 0.073041 0.151723 0.953624
O O7 0.956475 0.250000 0.000000
O O8 0.921111 0.114365 0.012768
O O9 0.821020 0.390582 0.750000
O O10 0.807989 0.482426 0.525950
O O11 0.558788 0.042209 0.750000
O O12 0.656265 0.976526 0.950497
O O13 0.500000 0.000000 0.000000
O O14 0.779421 0.970944 0.750000
O O15 0.771903 0.882440 0.985390
O O16 0.810472 0.750000 0.500000
O O17 0.807562 0.824845 0.250000
#
# Coordination Sequence:
#
# PCOD8232362 Si02
#       6
#     8   8   8   8   8   8
#     4  10  20  35  54  80 111 142 176 216 264 316
#     4  10  20  34  51  74 106 142 181 223 265 310
#     4  11  21  33  52  78 107 142 180 218 264 315
#     4   9  20  37  58  82 108 138 172 214 264 317
#     4  10  21  38  57  79 107 138 174 217 265 317
#     4  10  21  37  57  79 104 140 182 223 267 311
#
# _framework density 18.456057000000001
#
# number of rings (size 3 to 8) (size 9 to 14) (size 15 to 20)
#    0.000    2.000    0.000    5.000    0.000    6.667 
#    0.000    0.833    0.000    2.000    0.000    0.000 
#    0.000    0.000    0.000    0.000    0.000    0.000 
#
# Total GULP energy -595336.767295 kJ/mol
# GULP energy per Si atom -12402.849319 kJ/mol
# Density = 1.841405 g / cm^3
# Si number density = 18.456057 Si / 1000 Ang^3
#
#
#
# Elastic Constant Matrix: (Units=GPa)
#
#
# Indices 1 2 3 4 5 6 
#
# 1 78.7812 63.0228 48.6918 0.0000 0.0000 0.0000
# 2 63.0228 120.5611 53.5641 0.0000 0.0000 0.0000
# 3 48.6918 53.5641 110.2772 0.0000 0.0000 0.0000
# 4 0.0000 0.0000 0.0000 37.4211 0.0000 0.0000
# 5 0.0000 0.0000 0.0000 0.0000 32.1625 0.0000
# 6 0.0000 0.0000 0.0000 0.0000 0.0000 22.4820
#
#
#
# Elastic Compliance Matrix: (Units=1/GPa)
#
#
# Indices 1 2 3 4 5 6 
#
# 1 0.024458 -0.010186 -0.005852 0.000000 0.000000 0.000000
# 2 -0.010186 0.014819 -0.002701 0.000000 0.000000 0.000000
# 3 -0.005852 -0.002701 0.012964 0.000000 0.000000 0.000000
# 4 0.000000 0.000000 0.000000 0.026723 0.000000 0.000000
# 5 0.000000 0.000000 0.000000 0.000000 0.031092 0.000000
# 6 0.000000 0.000000 0.000000 0.000000 0.000000 0.044480
#
#
# Mechanical properties :
#
#
# Convention : Reuss Voigt Hill
#
# Bulk Modulus (GPa) = 67.72888 71.13078 69.42983
# Shear Modulus (GPa) = 25.38926 28.03585 26.71256
#
# Velocity S-wave (km/s) = 3.71301 3.90174 3.80855
# Velocity P-wave (km/s) = 7.42691 7.67609 7.55253
#
# Compressibility (1/GPa) = 0.01476475
#
# Stress axis : x y z
#
# Youngs Moduli (GPa) = 40.88564 67.48185 77.13865
#
# Poissons Ratio (x) = 0.68734 0.45142
# Poissons Ratio (y) = 0.41644 0.20831
# Poissons Ratio (z) = 0.23926 0.18223
#
# Static dielectric constant tensor:
#      x y z
#    x 3.291680 0.000000 0.000000 
#    y 0.000000 3.020490 0.000000 
#    z 0.000000 0.000000 3.489740 
# 
# 
# High freq. dielectric constant tensor:
#      x y z
#    x 1.700480 0.000000 0.000000 
#    y 0.000000 1.718170 0.000000 
#    z 0.000000 0.000000 1.730480 
# 
# From -- ./inp_files/4548.got.cif
#   From: 2010.03.12/outbox.cif.g09.slc.cpg/sg57_3_cif.got.tgz:4548.got - 2010.04.16 15:48:40.
