data_PCOD8232021
_publ_section_title
;
Structure prediction by ZEFSAII (Michael W. Deem and Ramdas Pophale) SiO2 
 PCOD8232021
Probable space group: P B C M
;
_chemical_formula_sum "Si O2"
_cell_formula_units_Z 56
_cell_length_a 5.464299
_cell_length_b 13.597954
_cell_length_c 30.212748
_cell_angle_alpha 90.000000
_cell_angle_beta 90.000000
_cell_angle_gamma 90.000000
_cell_volume 2244.906469
_symmetry_space_group_name_H-M "P B C M"
_symmetry_group_IT_number 57
_symmetry_cell_setting 'orthorhombic'
loop_
_space_group_symop_operation_xyz
x,y,z
-x,-y,1/2+z
x,1/2-y,-z
-x,1/2+y,1/2-z
-x,-y,-z
x,y,1/2-z
-x,1/2+y,z
x,1/2-y,1/2+z
loop_
_atom_site_type_symbol
_atom_site_label
_atom_site_fract_x
_atom_site_fract_y
_atom_site_fract_z
Si Si1 0.177945 0.345909 0.468766
Si Si2 0.977445 0.800168 0.124041
Si Si3 0.121706 0.119636 0.750000
Si Si4 0.980114 0.008745 0.668031
Si Si5 0.356751 0.161617 0.327198
Si Si6 0.289802 0.878775 0.897616
Si Si7 0.387498 0.755079 0.250000
Si Si8 0.324080 0.868154 0.997410
O O1 0.165983 0.250000 0.500000
O O2 0.206140 0.324251 0.416488
O O3 0.420232 0.409389 0.481731
O O4 0.920672 0.404338 0.476743
O O5 0.829632 0.752815 0.165823
O O6 0.125117 0.894255 0.143259
O O7 0.177158 0.729294 0.103572
O O8 0.143771 0.047818 0.708171
O O9 0.864880 0.184029 0.750000
O O10 0.361615 0.184869 0.750000
O O11 0.780617 0.936270 0.690063
O O12 0.137297 0.955480 0.630789
O O13 0.443511 0.130811 0.376149
O O14 0.584932 0.188090 0.294574
O O15 0.308786 0.911872 0.947995
O O16 0.342799 0.750000 0.000000
#
# Coordination Sequence:
#
# PCOD8232021 Si02
#       8
#     8   8   4   8   8   8   4   8
#     4  10  19  36  66  97 134 191 242 295 357 425
#     4  11  22  44  69 103 144 195 247 302 375 447
#     4  12  27  53  76 109 148 190 244 292 375 444
#     4  11  27  45  73 110 150 189 245 318 371 450
#     4  11  25  44  73 105 146 194 242 308 368 452
#     4  11  24  42  72 104 147 193 252 301 379 437
#     4  12  27  49  82 107 140 198 242 290 377 446
#     4  10  19  37  65  97 137 193 239 297 354 429
#
# _framework density 24.945359
#
# number of rings (size 3 to 8) (size 9 to 14) (size 15 to 20)
#    0.000    1.143    4.286    3.000    6.000    1.714 
#    0.000    1.429    0.000    0.000    0.000    0.000 
#    0.000    0.000    0.000    0.000    0.000    0.000 
#
# Total GULP energy -694082.749058 kJ/mol
# GULP energy per Si atom -12394.334805 kJ/mol
# Density = 2.488858 g / cm^3
# Si number density = 24.945359 Si / 1000 Ang^3
#
#
#
# Elastic Constant Matrix: (Units=GPa)
#
#
# Indices 1 2 3 4 5 6 
#
# 1 131.1647 22.1340 -6.9438 0.0000 0.0000 0.0000
# 2 22.1340 86.9722 28.2909 0.0000 0.0000 0.0000
# 3 -6.9438 28.2909 87.5351 0.0000 0.0000 0.0000
# 4 0.0000 0.0000 0.0000 29.7988 0.0000 0.0000
# 5 0.0000 0.0000 0.0000 0.0000 37.8848 0.0000
# 6 0.0000 0.0000 0.0000 0.0000 0.0000 -0.2614
#
#
#
# Elastic Compliance Matrix: (Units=1/GPa)
#
#
# Indices 1 2 3 4 5 6 
#
# 1 0.008132 -0.002547 0.001468 0.000000 0.000000 0.000000
# 2 -0.002547 0.013647 -0.004613 0.000000 0.000000 0.000000
# 3 0.001468 -0.004613 0.013031 0.000000 0.000000 0.000000
# 4 0.000000 0.000000 0.000000 0.033558 0.000000 0.000000
# 5 0.000000 0.000000 0.000000 0.000000 0.026396 0.000000
# 6 0.000000 0.000000 0.000000 0.000000 0.000000 -3.825500
#
#
# Mechanical properties :
#
#
# Convention : Reuss Voigt Hill
#
# Bulk Modulus (GPa) = 42.68653 43.62604 43.15629
# Shear Modulus (GPa) = -1.34715 30.96383 14.80834
#
# Velocity S-wave (km/s) = -0.73567 3.52698 2.43910
# Velocity P-wave (km/s) = 4.05309 5.84061 5.02694
#
# Compressibility (1/GPa) = 0.02342659
#
# Stress axis : x y z
#
# Youngs Moduli (GPa) = 122.97789 73.27868 76.73881
#
# Poissons Ratio (x) = 0.18664 -0.11267
# Poissons Ratio (y) = 0.31323 0.35396
# Poissons Ratio (z) = -0.18056 0.33800
#
# Static dielectric constant tensor:
#      x y z
#    x 4.913770 0.000000 0.000000 
#    y 0.000000 4.473540 0.000000 
#    z 0.000000 0.000000 4.762680 
# 
# 
# High freq. dielectric constant tensor:
#      x y z
#    x 1.984570 0.000000 0.000000 
#    y 0.000000 1.986860 0.000000 
#    z 0.000000 0.000000 2.006780 
# 
# From -- ./inp_files/29209.got.cif
#   From: 2010.03.12/outbox.cif.g09.slc.cpg/sg57_15_cif.got.tgz:29209.got - 2010.04.16 15:48:40.
