data_PCOD8232315
_publ_section_title
;
Structure prediction by ZEFSAII (Michael W. Deem and Ramdas Pophale) SiO2 
 PCOD8232315
Probable space group: P B C M
;
_chemical_formula_sum "Si O2"
_cell_formula_units_Z 64
_cell_length_a 17.253486
_cell_length_b 19.748701
_cell_length_c 9.149564
_cell_angle_alpha 90.000000
_cell_angle_beta 90.000000
_cell_angle_gamma 90.000000
_cell_volume 3117.566956
_symmetry_space_group_name_H-M "P B C M"
_symmetry_group_IT_number 57
_symmetry_cell_setting 'orthorhombic'
loop_
_space_group_symop_operation_xyz
x,y,z
-x,-y,1/2+z
x,1/2-y,-z
-x,1/2+y,1/2-z
-x,-y,-z
x,y,1/2-z
-x,1/2+y,z
x,1/2-y,1/2+z
loop_
_atom_site_type_symbol
_atom_site_label
_atom_site_fract_x
_atom_site_fract_y
_atom_site_fract_z
Si Si1 0.722329 0.319934 0.917284
Si Si2 0.072697 0.465749 0.923584
Si Si3 0.872478 0.817669 0.578357
Si Si4 0.545842 0.814120 0.076910
Si Si5 0.433071 0.905550 0.583687
Si Si6 0.695825 0.844935 0.580026
Si Si7 0.198446 0.573032 0.909987
Si Si8 0.648759 0.507444 0.091789
O O1 0.741924 0.305639 0.750000
O O2 0.640080 0.356621 0.935354
O O3 0.716694 0.250000 0.000000
O O4 0.795153 0.363505 0.979938
O O5 0.062039 0.466388 0.750000
O O6 0.086044 0.387550 0.975626
O O7 0.145070 0.512496 0.971715
O O8 0.000000 0.500000 0.000000
O O9 0.906787 0.750000 0.500000
O O10 0.885477 0.809232 0.750000
O O11 0.781759 0.821663 0.539311
O O12 0.536377 0.810581 0.250000
O O13 0.503561 0.750000 0.000000
O O14 0.505931 0.881086 0.012649
O O15 0.635809 0.809314 0.029446
O O16 0.460593 0.909913 0.750000
O O17 0.412622 0.981122 0.527711
O O18 0.675997 0.829278 0.750000
O O19 0.689624 0.923921 0.543179
O O20 0.167597 0.596805 0.750000
O O21 0.285092 0.547705 0.891786
O O22 0.607132 0.515840 0.250000
#
# Coordination Sequence:
#
# PCOD8232315 Si02
#       8
#     8   8   8   8   8   8   8   8
#     4  10  20  33  53  82 112 146 192 244 295 349
#     4  10  21  39  63  92 123 157 194 234 284 344
#     4  10  21  39  63  92 124 158 198 241 289 348
#     4  12  25  39  54  75 106 147 194 245 300 358
#     4  10  21  36  54  78 110 148 193 246 297 351
#     4  10  20  37  60  84 114 150 191 241 294 348
#     4   9  17  34  58  82 112 150 190 234 285 341
#     4   9  17  33  58  83 108 146 189 234 290 346
#
# _framework density 20.528828000000001
#
# number of rings (size 3 to 8) (size 9 to 14) (size 15 to 20)
#    0.000    2.000    1.250    2.625    0.000    6.000 
#    0.000    0.625    0.000    1.500    0.000    0.000 
#    0.000    0.000    0.000    0.000    0.000    0.000 
#
# Total GULP energy -793272.225571 kJ/mol
# GULP energy per Si atom -12394.878525 kJ/mol
# Density = 2.048210 g / cm^3
# Si number density = 20.528828 Si / 1000 Ang^3
#
#
#
# Elastic Constant Matrix: (Units=GPa)
#
#
# Indices 1 2 3 4 5 6 
#
# 1 65.6808 20.5461 33.1243 0.0000 0.0000 0.0000
# 2 20.5461 94.3941 50.6160 0.0000 0.0000 0.0000
# 3 33.1243 50.6160 113.6671 0.0000 0.0000 0.0000
# 4 0.0000 0.0000 0.0000 35.9844 0.0000 0.0000
# 5 0.0000 0.0000 0.0000 0.0000 26.5933 0.0000
# 6 0.0000 0.0000 0.0000 0.0000 0.0000 16.6446
#
#
#
# Elastic Compliance Matrix: (Units=1/GPa)
#
#
# Indices 1 2 3 4 5 6 
#
# 1 0.017998 -0.001452 -0.004599 0.000000 0.000000 0.000000
# 2 -0.001452 0.014034 -0.005826 0.000000 0.000000 0.000000
# 3 -0.004599 -0.005826 0.012732 0.000000 0.000000 0.000000
# 4 0.000000 0.000000 0.000000 0.027790 0.000000 0.000000
# 5 0.000000 0.000000 0.000000 0.000000 0.037603 0.000000
# 6 0.000000 0.000000 0.000000 0.000000 0.000000 0.060079
#
#
# Mechanical properties :
#
#
# Convention : Reuss Voigt Hill
#
# Bulk Modulus (GPa) = 47.59313 53.59054 50.59183
# Shear Modulus (GPa) = 24.87633 27.14152 26.00892
#
# Velocity S-wave (km/s) = 3.48483 3.64004 3.56328
# Velocity P-wave (km/s) = 6.27901 6.62029 6.45190
#
# Compressibility (1/GPa) = 0.02101143
#
# Stress axis : x y z
#
# Youngs Moduli (GPa) = 55.56037 71.25522 78.54127
#
# Poissons Ratio (x) = 0.10345 0.36118
# Poissons Ratio (y) = 0.08066 0.45761
# Poissons Ratio (z) = 0.25550 0.41515
#
# Static dielectric constant tensor:
#      x y z
#    x 3.490900 0.000000 0.000000 
#    y 0.000000 3.969710 0.000000 
#    z 0.000000 0.000000 3.813120 
# 
# 
# High freq. dielectric constant tensor:
#      x y z
#    x 1.775630 0.000000 0.000000 
#    y 0.000000 1.818180 0.000000 
#    z 0.000000 0.000000 1.794920 
# 
# From -- ./inp_files/7126.got.cif
#   From: 2010.03.12/outbox.cif.g09.slc.cpg/sg57_4_cif.got.tgz:7126.got - 2010.04.16 15:48:40.
