data_PCOD8232520
_publ_section_title
;
Structure prediction by ZEFSAII (Michael W. Deem and Ramdas Pophale) SiO2 
 PCOD8232520
Probable space group: P B C M
;
_chemical_formula_sum "Si O2"
_cell_formula_units_Z 56
_cell_length_a 14.523317
_cell_length_b 22.294750
_cell_length_c 9.008598
_cell_angle_alpha 90.000000
_cell_angle_beta 90.000000
_cell_angle_gamma 90.000000
_cell_volume 2916.927474
_symmetry_space_group_name_H-M "P B C M"
_symmetry_group_IT_number 57
_symmetry_cell_setting 'orthorhombic'
loop_
_space_group_symop_operation_xyz
x,y,z
-x,-y,1/2+z
x,1/2-y,-z
-x,1/2+y,1/2-z
-x,-y,-z
x,y,1/2-z
-x,1/2+y,z
x,1/2-y,1/2+z
loop_
_atom_site_type_symbol
_atom_site_label
_atom_site_fract_x
_atom_site_fract_y
_atom_site_fract_z
Si Si1 0.582674 0.189504 0.923380
Si Si2 0.195870 0.308922 0.575162
Si Si3 0.589607 0.978209 0.418609
Si Si4 0.707162 0.407580 0.579412
Si Si5 0.073886 0.422394 0.922831
Si Si6 0.113772 0.942637 0.076899
Si Si7 0.375852 0.346594 0.076929
O O1 0.604261 0.192311 0.750000
O O2 0.474765 0.182174 0.955621
O O3 0.618328 0.250000 0.000000
O O4 0.637382 0.134307 0.991828
O O5 0.149767 0.250000 0.500000
O O6 0.195079 0.300209 0.750000
O O7 0.141326 0.368833 0.527585
O O8 0.300745 0.311985 0.519331
O O9 0.558700 0.968504 0.250000
O O10 0.672257 0.024593 0.435588
O O11 0.500000 0.000000 0.500000
O O12 0.623950 0.914933 0.482307
O O13 0.712215 0.386773 0.750000
O O14 0.807895 0.405676 0.508302
O O15 0.047043 0.417743 0.750000
O O16 0.122252 0.486207 0.956198
O O17 0.982609 0.416573 0.020354
O O18 0.123257 0.929042 0.250000
O O19 0.349250 0.342343 0.250000
#
# Coordination Sequence:
#
# PCOD8232520 Si02
#       7
#     8   8   8   8   8   8   8
#     4  11  23  39  57  77 109 150 195 240 280 330
#     4  11  23  38  58  84 116 154 193 236 284 340
#     4  10  20  34  54  83 115 149 186 231 283 332
#     4  11  22  36  57  85 117 151 188 231 282 338
#     4   9  20  39  60  86 117 148 185 232 289 348
#     4  10  20  36  62  90 115 146 185 233 290 346
#     4  10  21  37  57  83 115 151 192 235 282 337
#
# _framework density 19.198281999999999
#
# number of rings (size 3 to 8) (size 9 to 14) (size 15 to 20)
#    0.000    1.714    1.429    3.000    0.000    5.143 
#    0.000    0.714    0.000    1.714    0.000    0.000 
#    0.000    0.000    0.000    0.000    0.000    0.000 
#
# Total GULP energy -694617.282242 kJ/mol
# GULP energy per Si atom -12403.880040 kJ/mol
# Density = 1.915459 g / cm^3
# Si number density = 19.198282 Si / 1000 Ang^3
#
#
#
# Elastic Constant Matrix: (Units=GPa)
#
#
# Indices 1 2 3 4 5 6 
#
# 1 87.7438 24.2757 52.1802 0.0000 0.0000 0.0000
# 2 24.2757 93.2738 40.8974 0.0000 0.0000 0.0000
# 3 52.1802 40.8974 98.6876 0.0000 0.0000 0.0000
# 4 0.0000 0.0000 0.0000 32.5942 0.0000 0.0000
# 5 0.0000 0.0000 0.0000 0.0000 34.5329 0.0000
# 6 0.0000 0.0000 0.0000 0.0000 0.0000 22.5534
#
#
#
# Elastic Compliance Matrix: (Units=1/GPa)
#
#
# Indices 1 2 3 4 5 6 
#
# 1 0.016649 -0.000578 -0.008564 0.000000 0.000000 0.000000
# 2 -0.000578 0.013122 -0.005132 0.000000 0.000000 0.000000
# 3 -0.008564 -0.005132 0.016788 0.000000 0.000000 0.000000
# 4 0.000000 0.000000 0.000000 0.030680 0.000000 0.000000
# 5 0.000000 0.000000 0.000000 0.000000 0.028958 0.000000
# 6 0.000000 0.000000 0.000000 0.000000 0.000000 0.044339
#
#
# Mechanical properties :
#
#
# Convention : Reuss Voigt Hill
#
# Bulk Modulus (GPa) = 55.52162 57.15688 56.33925
# Shear Modulus (GPa) = 27.01413 28.75954 27.88684
#
# Velocity S-wave (km/s) = 3.75522 3.87463 3.81539
# Velocity P-wave (km/s) = 6.91268 7.06071 6.98708
#
# Compressibility (1/GPa) = 0.01801100
#
# Stress axis : x y z
#
# Youngs Moduli (GPa) = 60.06192 76.20850 59.56750
#
# Poissons Ratio (x) = 0.04408 0.51011
# Poissons Ratio (y) = 0.03474 0.30570
# Poissons Ratio (z) = 0.51434 0.39111
#
# Static dielectric constant tensor:
#      x y z
#    x 3.355740 0.000000 0.000000 
#    y 0.000000 3.389610 0.000000 
#    z 0.000000 0.000000 3.539530 
# 
# 
# High freq. dielectric constant tensor:
#      x y z
#    x 1.738690 0.000000 0.000000 
#    y 0.000000 1.751390 0.000000 
#    z 0.000000 0.000000 1.752870 
# 
# From -- ./inp_files/5254.got.cif
#   From: 2010.03.12/outbox.cif.g09.slc.cpg/sg57_3_cif.got.tgz:5254.got - 2010.04.16 15:48:40.
