data_PCOD8232843
_publ_section_title
;
Structure prediction by ZEFSAII (Michael W. Deem and Ramdas Pophale) SiO2 
 PCOD8232843
Probable space group: P B C M
;
_chemical_formula_sum "Si O2"
_cell_formula_units_Z 64
_cell_length_a 23.382903
_cell_length_b 15.229867
_cell_length_c 8.726010
_cell_angle_alpha 90.000000
_cell_angle_beta 90.000000
_cell_angle_gamma 90.000000
_cell_volume 3107.493616
_symmetry_space_group_name_H-M "P B C M"
_symmetry_group_IT_number 57
_symmetry_cell_setting 'orthorhombic'
loop_
_space_group_symop_operation_xyz
x,y,z
-x,-y,1/2+z
x,1/2-y,-z
-x,1/2+y,1/2-z
-x,-y,-z
x,y,1/2-z
-x,1/2+y,z
x,1/2-y,1/2+z
loop_
_atom_site_type_symbol
_atom_site_label
_atom_site_fract_x
_atom_site_fract_y
_atom_site_fract_z
Si Si1 0.920228 0.338180 0.430718
Si Si2 0.369985 0.480711 0.925977
Si Si3 0.810314 0.154609 0.068401
Si Si4 0.760177 0.992020 0.572724
Si Si5 0.851261 0.653840 0.431616
Si Si6 0.973991 0.587712 0.070205
Si Si7 0.551007 0.660734 0.570822
Si Si8 0.577804 0.160633 0.570224
O O1 0.892258 0.250000 0.500000
O O2 0.930750 0.343747 0.250000
O O3 0.866514 0.396088 0.487145
O O4 0.979743 0.340671 0.521370
O O5 0.388817 0.468702 0.750000
O O6 0.303812 0.456203 0.948949
O O7 0.381699 0.580451 0.979839
O O8 0.408017 0.418551 0.029210
O O9 0.819827 0.164442 0.250000
O O10 0.791614 0.250000 0.000000
O O11 0.763410 0.080827 0.028809
O O12 0.772771 0.015453 0.750000
O O13 0.802154 0.913749 0.515779
O O14 0.839539 0.750000 0.500000
O O15 0.853727 0.664065 0.250000
O O16 0.912223 0.615781 0.493680
O O17 0.970561 0.573922 0.250000
O O18 0.000000 0.500000 0.000000
O O19 0.576062 0.750000 0.500000
O O20 0.550478 0.672663 0.750000
O O21 0.486724 0.642943 0.508857
O O22 0.603238 0.250000 0.500000
O O23 0.577672 0.172986 0.750000
#
# Coordination Sequence:
#
# PCOD8232843 Si02
#       8
#     8   8   8   8   8   8   8   8
#     4  11  21  35  55  80 109 139 174 221 277 341
#     4  10  21  37  58  84 117 153 193 242 295 346
#     4  11  22  38  61  87 116 153 194 240 295 358
#     4  10  22  41  60  83 116 154 197 247 295 344
#     4  10  23  41  61  83 113 154 198 243 293 344
#     4  11  22  36  56  84 113 144 183 232 291 353
#     4  10  20  35  57  84 116 151 192 238 289 348
#     4   9  19  35  56  85 118 154 190 233 289 350
#
# _framework density 20.595376999999999
#
# number of rings (size 3 to 8) (size 9 to 14) (size 15 to 20)
#    0.000    1.750    0.000    5.250    0.000    6.000 
#    0.000    2.500    0.000    0.000    0.000    0.000 
#    0.000    0.000    0.000    0.000    0.000    0.000 
#
# Total GULP energy -793196.431165 kJ/mol
# GULP energy per Si atom -12393.694237 kJ/mol
# Density = 2.054850 g / cm^3
# Si number density = 20.595377 Si / 1000 Ang^3
#
#
#
# Elastic Constant Matrix: (Units=GPa)
#
#
# Indices 1 2 3 4 5 6 
#
# 1 78.5506 38.4888 25.3060 0.0000 0.0000 0.0000
# 2 38.4888 121.9184 35.0469 0.0000 0.0000 0.0000
# 3 25.3060 35.0469 69.3438 0.0000 0.0000 0.0000
# 4 0.0000 0.0000 0.0000 39.1672 0.0000 0.0000
# 5 0.0000 0.0000 0.0000 0.0000 20.7347 0.0000
# 6 0.0000 0.0000 0.0000 0.0000 0.0000 7.4200
#
#
#
# Elastic Compliance Matrix: (Units=1/GPa)
#
#
# Indices 1 2 3 4 5 6 
#
# 1 0.015879 -0.003916 -0.003816 0.000000 0.000000 0.000000
# 2 -0.003916 0.010562 -0.003909 0.000000 0.000000 0.000000
# 3 -0.003816 -0.003909 0.017789 0.000000 0.000000 0.000000
# 4 0.000000 0.000000 0.000000 0.025532 0.000000 0.000000
# 5 0.000000 0.000000 0.000000 0.000000 0.048228 0.000000
# 6 0.000000 0.000000 0.000000 0.000000 0.000000 0.134770
#
#
# Mechanical properties :
#
#
# Convention : Reuss Voigt Hill
#
# Bulk Modulus (GPa) = 47.73586 51.94403 49.83995
# Shear Modulus (GPa) = 17.66635 24.86245 21.26440
#
# Velocity S-wave (km/s) = 2.93197 3.47823 3.21671
# Velocity P-wave (km/s) = 5.88984 6.43481 6.16834
#
# Compressibility (1/GPa) = 0.02094861
#
# Stress axis : x y z
#
# Youngs Moduli (GPa) = 62.97775 94.67748 56.21445
#
# Poissons Ratio (x) = 0.37075 0.21449
# Poissons Ratio (y) = 0.24662 0.21975
# Poissons Ratio (z) = 0.24029 0.37011
#
# Static dielectric constant tensor:
#      x y z
#    x 2.293170 0.000000 0.000000 
#    y 0.000000 3.539280 0.000000 
#    z 0.000000 0.000000 3.519680 
# 
# 
# High freq. dielectric constant tensor:
#      x y z
#    x 1.808110 0.000000 0.000000 
#    y 0.000000 1.810420 0.000000 
#    z 0.000000 0.000000 1.796960 
# 
# From -- ./inp_files/9440.got.cif
#   From: 2010.03.12/outbox.cif.g09.slc.cpg/sg57_5_cif.got.tgz:9440.got - 2010.04.16 15:48:40.
