data_PCOD8232705
_publ_section_title
;
Structure prediction by ZEFSAII (Michael W. Deem and Ramdas Pophale) SiO2 
 PCOD8232705
Probable space group: P B C M
;
_chemical_formula_sum "Si O2"
_cell_formula_units_Z 48
_cell_length_a 10.051010
_cell_length_b 29.366806
_cell_length_c 8.940166
_cell_angle_alpha 90.000000
_cell_angle_beta 90.000000
_cell_angle_gamma 90.000000
_cell_volume 2638.833581
_symmetry_space_group_name_H-M "P B C M"
_symmetry_group_IT_number 57
_symmetry_cell_setting 'orthorhombic'
loop_
_space_group_symop_operation_xyz
x,y,z
-x,-y,1/2+z
x,1/2-y,-z
-x,1/2+y,1/2-z
-x,-y,-z
x,y,1/2-z
-x,1/2+y,z
x,1/2-y,1/2+z
loop_
_atom_site_type_symbol
_atom_site_label
_atom_site_fract_x
_atom_site_fract_y
_atom_site_fract_z
Si Si1 0.608528 0.864545 0.923555
Si Si2 0.407489 0.797183 0.426721
Si Si3 0.895329 0.203674 0.574704
Si Si4 0.387409 0.029445 0.075720
Si Si5 0.886806 0.970888 0.075536
Si Si6 0.118424 0.134058 0.923674
O O1 0.599287 0.851873 0.750000
O O2 0.582606 0.917651 0.953103
O O3 0.496125 0.838150 0.013707
O O4 0.753798 0.850246 0.982207
O O5 0.455478 0.750000 0.500000
O O6 0.423999 0.793122 0.250000
O O7 0.255420 0.807926 0.474253
O O8 0.945861 0.250000 0.500000
O O9 0.903326 0.211043 0.750000
O O10 0.991605 0.163065 0.522164
O O11 0.379055 0.017970 0.250000
O O12 0.250653 0.014582 0.999572
O O13 0.500000 0.000000 0.000000
O O14 0.879394 0.982103 0.250000
O O15 0.918061 0.918126 0.044727
O O16 0.000000 0.000000 0.000000
O O17 0.151439 0.142204 0.750000
#
# Coordination Sequence:
#
# PCOD8232705 Si02
#       6
#     8   8   8   8   8   8
#     4  10  21  36  54  79 108 138 175 218 263 313
#     4  10  20  35  55  78 106 140 176 217 263 312
#     4   9  19  35  54  77 103 133 171 212 256 306
#     4  10  21  37  56  79 108 141 179 223 269 321
#     4  10  20  35  55  79 108 142 179 220 266 317
#     4   9  19  36  55  76 105 140 175 212 259 315
#
# _framework density 18.189855999999999
#
# number of rings (size 3 to 8) (size 9 to 14) (size 15 to 20)
#    0.000    2.333    0.000    2.000    0.000    6.000 
#    0.000    3.333    0.000    0.000    0.000    0.000 
#    0.000    0.000    0.000    0.000    0.000    0.000 
#
# Total GULP energy -595378.927897 kJ/mol
# GULP energy per Si atom -12403.727665 kJ/mol
# Density = 1.814845 g / cm^3
# Si number density = 18.189856 Si / 1000 Ang^3
#
#
#
# Elastic Constant Matrix: (Units=GPa)
#
#
# Indices 1 2 3 4 5 6 
#
# 1 143.3081 87.3951 71.6623 0.0000 0.0000 0.0000
# 2 87.3951 90.8760 57.3992 0.0000 0.0000 0.0000
# 3 71.6623 57.3992 99.4482 0.0000 0.0000 0.0000
# 4 0.0000 0.0000 0.0000 33.4114 0.0000 0.0000
# 5 0.0000 0.0000 0.0000 0.0000 34.4626 0.0000
# 6 0.0000 0.0000 0.0000 0.0000 0.0000 40.6537
#
#
#
# Elastic Compliance Matrix: (Units=1/GPa)
#
#
# Indices 1 2 3 4 5 6 
#
# 1 0.018191 -0.014501 -0.004739 0.000000 0.000000 0.000000
# 2 -0.014501 0.028877 -0.006218 0.000000 0.000000 0.000000
# 3 -0.004739 -0.006218 0.017059 0.000000 0.000000 0.000000
# 4 0.000000 0.000000 0.000000 0.029930 0.000000 0.000000
# 5 0.000000 0.000000 0.000000 0.000000 0.029017 0.000000
# 6 0.000000 0.000000 0.000000 0.000000 0.000000 0.024598
#
#
# Mechanical properties :
#
#
# Convention : Reuss Voigt Hill
#
# Bulk Modulus (GPa) = 75.68939 85.17173 80.43056
# Shear Modulus (GPa) = 24.63175 29.51725 27.07450
#
# Velocity S-wave (km/s) = 3.68387 4.03268 3.86222
# Velocity P-wave (km/s) = 7.73276 8.28304 8.01263
#
# Compressibility (1/GPa) = 0.01321189
#
# Stress axis : x y z
#
# Youngs Moduli (GPa) = 54.97233 34.62988 58.62084
#
# Poissons Ratio (x) = 0.50217 0.27779
# Poissons Ratio (y) = 0.79716 0.36448
# Poissons Ratio (z) = 0.26050 0.21531
#
# Static dielectric constant tensor:
#      x y z
#    x 3.495310 0.000000 0.000000 
#    y 0.000000 3.363720 0.000000 
#    z 0.000000 0.000000 3.468390 
# 
# 
# High freq. dielectric constant tensor:
#      x y z
#    x 1.711020 0.000000 0.000000 
#    y 0.000000 1.703150 0.000000 
#    z 0.000000 0.000000 1.715850 
# 
# From -- ./inp_files/2041.got.cif
#   From: 2010.03.12/outbox.cif.g09.slc.cpg/sg57_2_cif.got.tgz:2041.got - 2010.04.16 15:48:40.
