data_PCOD8232425
_publ_section_title
;
Structure prediction by ZEFSAII (Michael W. Deem and Ramdas Pophale) SiO2 
 PCOD8232425
Probable space group: P B C M
;
_chemical_formula_sum "Si O2"
_cell_formula_units_Z 48
_cell_length_a 21.025903
_cell_length_b 13.868095
_cell_length_c 9.000605
_cell_angle_alpha 90.000000
_cell_angle_beta 90.000000
_cell_angle_gamma 90.000000
_cell_volume 2624.479394
_symmetry_space_group_name_H-M "P B C M"
_symmetry_group_IT_number 57
_symmetry_cell_setting 'orthorhombic'
loop_
_space_group_symop_operation_xyz
x,y,z
-x,-y,1/2+z
x,1/2-y,-z
-x,1/2+y,1/2-z
-x,-y,-z
x,y,1/2-z
-x,1/2+y,z
x,1/2-y,1/2+z
loop_
_atom_site_type_symbol
_atom_site_label
_atom_site_fract_x
_atom_site_fract_y
_atom_site_fract_z
Si Si1 0.238978 0.016896 0.922089
Si Si2 0.337323 0.650051 0.423590
Si Si3 0.997558 0.150146 0.922978
Si Si4 0.566916 0.484442 0.076390
Si Si5 0.333005 0.150448 0.077907
Si Si6 0.904013 0.015907 0.077044
O O1 0.240359 0.046027 0.750000
O O2 0.167529 0.000696 0.979050
O O3 0.277688 0.919402 0.952066
O O4 0.268435 0.105724 0.012364
O O5 0.319256 0.750000 0.500000
O O6 0.351078 0.664877 0.250000
O O7 0.400223 0.607410 0.500165
O O8 0.987565 0.167612 0.750000
O O9 0.056457 0.080227 0.957630
O O10 0.014254 0.250000 0.000000
O O11 0.932647 0.105897 0.987848
O O12 0.558137 0.462750 0.250000
O O13 0.608378 0.579462 0.047875
O O14 0.500000 0.500000 0.000000
O O15 0.321717 0.169746 0.250000
O O16 0.350414 0.250000 0.000000
O O17 0.906008 0.042744 0.250000
#
# Coordination Sequence:
#
# PCOD8232425 Si02
#       6
#     8   8   8   8   8   8
#     4   9  19  36  56  78 106 138 173 216 263 311
#     4  10  20  35  55  78 106 139 174 215 262 312
#     4  10  20  34  53  76 105 139 175 217 262 311
#     4  10  21  37  56  79 107 139 176 217 261 310
#     4  10  21  36  55  79 107 139 175 215 259 309
#     4   9  19  36  55  77 105 137 175 217 262 311
#
# _framework density 18.289342000000001
#
# number of rings (size 3 to 8) (size 9 to 14) (size 15 to 20)
#    0.000    2.333    0.000    2.000    0.000    6.000 
#    0.000    5.000    0.000    0.000    0.000    0.000 
#    0.000    0.000    0.000    0.000    0.000    0.000 
#
# Total GULP energy -595433.362945 kJ/mol
# GULP energy per Si atom -12404.861728 kJ/mol
# Density = 1.824772 g / cm^3
# Si number density = 18.289342 Si / 1000 Ang^3
#
#
#
# Elastic Constant Matrix: (Units=GPa)
#
#
# Indices 1 2 3 4 5 6 
#
# 1 128.1792 30.3286 49.3351 0.0000 0.0000 0.0000
# 2 30.3286 99.8535 56.3192 0.0000 0.0000 0.0000
# 3 49.3351 56.3192 102.8417 0.0000 0.0000 0.0000
# 4 0.0000 0.0000 0.0000 39.3454 0.0000 0.0000
# 5 0.0000 0.0000 0.0000 0.0000 29.9233 0.0000
# 6 0.0000 0.0000 0.0000 0.0000 0.0000 13.9363
#
#
#
# Elastic Compliance Matrix: (Units=1/GPa)
#
#
# Indices 1 2 3 4 5 6 
#
# 1 0.009583 -0.000460 -0.004345 0.000000 0.000000 0.000000
# 2 -0.000460 0.014512 -0.007727 0.000000 0.000000 0.000000
# 3 -0.004345 -0.007727 0.016040 0.000000 0.000000 0.000000
# 4 0.000000 0.000000 0.000000 0.025416 0.000000 0.000000
# 5 0.000000 0.000000 0.000000 0.000000 0.033419 0.000000
# 6 0.000000 0.000000 0.000000 0.000000 0.000000 0.071755
#
#
# Mechanical properties :
#
#
# Convention : Reuss Voigt Hill
#
# Bulk Modulus (GPa) = 66.35238 66.98225 66.66732
# Shear Modulus (GPa) = 24.89889 29.63376 27.26633
#
# Velocity S-wave (km/s) = 3.69370 4.02963 3.86532
# Velocity P-wave (km/s) = 7.38575 7.63896 7.51342
#
# Compressibility (1/GPa) = 0.01507105
#
# Stress axis : x y z
#
# Youngs Moduli (GPa) = 104.35328 68.90650 62.34549
#
# Poissons Ratio (x) = 0.03168 0.27091
# Poissons Ratio (y) = 0.04798 0.48174
# Poissons Ratio (z) = 0.45344 0.53243
#
# Static dielectric constant tensor:
#      x y z
#    x 3.395060 0.000000 0.000000 
#    y 0.000000 3.350340 0.000000 
#    z 0.000000 0.000000 3.482170 
# 
# 
# High freq. dielectric constant tensor:
#      x y z
#    x 1.709350 0.000000 0.000000 
#    y 0.000000 1.710610 0.000000 
#    z 0.000000 0.000000 1.720010 
# 
# From -- ./inp_files/7868.got.cif
#   From: 2010.03.12/outbox.cif.g09.slc.cpg/sg57_4_cif.got.tgz:7868.got - 2010.04.16 15:48:40.
