data_PCOD8232015
_publ_section_title
;
Structure prediction by ZEFSAII (Michael W. Deem and Ramdas Pophale) SiO2 
 PCOD8232015
Probable space group: P B C M
;
_chemical_formula_sum "Si O2"
_cell_formula_units_Z 64
_cell_length_a 12.531803
_cell_length_b 14.637747
_cell_length_c 16.254014
_cell_angle_alpha 90.000000
_cell_angle_beta 90.000000
_cell_angle_gamma 90.000000
_cell_volume 2981.593446
_symmetry_space_group_name_H-M "P B C M"
_symmetry_group_IT_number 57
_symmetry_cell_setting 'orthorhombic'
loop_
_space_group_symop_operation_xyz
x,y,z
-x,-y,1/2+z
x,1/2-y,-z
-x,1/2+y,1/2-z
-x,-y,-z
x,y,1/2-z
-x,1/2+y,z
x,1/2-y,1/2+z
loop_
_atom_site_type_symbol
_atom_site_label
_atom_site_fract_x
_atom_site_fract_y
_atom_site_fract_z
Si Si1 0.298767 0.002208 0.021862
Si Si2 0.502020 0.268393 0.904627
Si Si3 0.074713 0.084640 0.013950
Si Si4 0.068338 0.619772 0.157804
Si Si5 0.556430 0.538139 0.159840
Si Si6 0.621344 0.594439 0.873652
Si Si7 0.135095 0.090304 0.660801
Si Si8 0.735109 0.314678 0.572454
O O1 0.364870 0.976936 0.103451
O O2 0.285764 0.914102 0.965395
O O3 0.187121 0.047425 0.046914
O O4 0.367213 0.076863 0.971185
O O5 0.446131 0.360675 0.876464
O O6 0.446895 0.185555 0.855133
O O7 0.628543 0.274220 0.885431
O O8 0.483961 0.250000 0.000000
O O9 0.089521 0.137173 0.924247
O O10 0.021935 0.143803 0.088233
O O11 0.000000 0.000000 0.000000
O O12 0.025607 0.642390 0.250000
O O13 0.104840 0.515259 0.152051
O O14 0.172248 0.681659 0.140525
O O15 0.607227 0.543114 0.250000
O O16 0.440384 0.491839 0.165184
O O17 0.737780 0.601896 0.833672
O O18 0.090121 0.127743 0.750000
O O19 0.776824 0.250000 0.500000
#
# Coordination Sequence:
#
# PCOD8232015 Si02
#       8
#     8   8   8   8   8   8   8   8
#     4  11  20  39  63  85 124 164 216 262 315 384
#     4  11  22  37  61  88 119 168 213 253 313 384
#     4   9  17  34  62  89 112 152 207 257 313 377
#     4  10  19  36  63  92 121 161 209 258 319 387
#     4  12  24  36  55  89 127 164 205 260 319 377
#     4  11  20  38  63  85 123 173 214 251 314 386
#     4   9  17  31  58  93 120 153 204 256 306 372
#     4  11  21  36  61  93 122 168 216 263 315 385
#
# _framework density 21.465032000000001
#
# number of rings (size 3 to 8) (size 9 to 14) (size 15 to 20)
#    0.000    1.500    6.250    2.250    0.000    3.000 
#    0.000    1.875    5.500    0.750    0.000    0.000 
#    0.000    0.000    0.000    0.000    0.000    0.000 
#
# Total GULP energy -793002.337713 kJ/mol
# GULP energy per Si atom -12390.661527 kJ/mol
# Density = 2.141618 g / cm^3
# Si number density = 21.465032 Si / 1000 Ang^3
#
#
#
# Elastic Constant Matrix: (Units=GPa)
#
#
# Indices 1 2 3 4 5 6 
#
# 1 99.0250 23.1245 66.8573 0.0000 0.0000 0.0000
# 2 23.1245 62.3371 13.6816 0.0000 0.0000 0.0000
# 3 66.8573 13.6816 172.1003 0.0000 0.0000 0.0000
# 4 0.0000 0.0000 0.0000 13.7318 0.0000 0.0000
# 5 0.0000 0.0000 0.0000 0.0000 24.0773 0.0000
# 6 0.0000 0.0000 0.0000 0.0000 0.0000 27.6141
#
#
#
# Elastic Compliance Matrix: (Units=1/GPa)
#
#
# Indices 1 2 3 4 5 6 
#
# 1 0.014733 -0.004284 -0.005383 0.000000 0.000000 0.000000
# 2 -0.004284 0.017572 0.000267 0.000000 0.000000 0.000000
# 3 -0.005383 0.000267 0.007880 0.000000 0.000000 0.000000
# 4 0.000000 0.000000 0.000000 0.072824 0.000000 0.000000
# 5 0.000000 0.000000 0.000000 0.000000 0.041533 0.000000
# 6 0.000000 0.000000 0.000000 0.000000 0.000000 0.036213
#
#
# Mechanical properties :
#
#
# Convention : Reuss Voigt Hill
#
# Bulk Modulus (GPa) = 46.75810 60.08770 53.42290
# Shear Modulus (GPa) = 23.07506 28.40457 25.73982
#
# Velocity S-wave (km/s) = 3.28229 3.64166 3.46663
# Velocity P-wave (km/s) = 6.01625 6.76286 6.40045
#
# Compressibility (1/GPa) = 0.02138667
#
# Stress axis : x y z
#
# Youngs Moduli (GPa) = 67.87392 56.90764 126.89571
#
# Poissons Ratio (x) = 0.24379 0.68308
# Poissons Ratio (y) = 0.29077 -0.03391
# Poissons Ratio (z) = 0.36536 -0.01521
#
# Static dielectric constant tensor:
#      x y z
#    x 3.853930 0.000000 0.000000 
#    y 0.000000 3.610420 0.000000 
#    z 0.000000 0.000000 4.823230 
# 
# 
# High freq. dielectric constant tensor:
#      x y z
#    x 1.837060 0.000000 0.000000 
#    y 0.000000 1.809740 0.000000 
#    z 0.000000 0.000000 1.846440 
# 
# From -- ./inp_files/22061.got.cif
#   From: 2010.03.12/outbox.cif.g09.slc.cpg/sg57_12_cif.got.tgz:22061.got - 2010.04.16 15:48:40.
