data_PCOD8232259
_publ_section_title
;
Structure prediction by ZEFSAII (Michael W. Deem and Ramdas Pophale) SiO2 
 PCOD8232259
Probable space group: P B C M
;
_chemical_formula_sum "Si O2"
_cell_formula_units_Z 48
_cell_length_a 18.065827
_cell_length_b 16.386584
_cell_length_c 9.100171
_cell_angle_alpha 90.000000
_cell_angle_beta 90.000000
_cell_angle_gamma 90.000000
_cell_volume 2693.989067
_symmetry_space_group_name_H-M "P B C M"
_symmetry_group_IT_number 57
_symmetry_cell_setting 'orthorhombic'
loop_
_space_group_symop_operation_xyz
x,y,z
-x,-y,1/2+z
x,1/2-y,-z
-x,1/2+y,1/2-z
-x,-y,-z
x,y,1/2-z
-x,1/2+y,z
x,1/2-y,1/2+z
loop_
_atom_site_type_symbol
_atom_site_label
_atom_site_fract_x
_atom_site_fract_y
_atom_site_fract_z
Si Si1 0.034053 0.076640 0.579935
Si Si2 0.453136 0.931696 0.579441
Si Si3 0.410995 0.168303 0.081666
Si Si4 0.822349 0.488828 0.583735
Si Si5 0.080483 0.670405 0.078118
Si Si6 0.327886 0.005323 0.076841
O O1 0.009751 0.077771 0.750000
O O2 0.000395 0.155258 0.496931
O O3 0.122956 0.067027 0.566706
O O4 0.000000 0.000000 0.500000
O O5 0.443620 0.953472 0.750000
O O6 0.500643 0.848484 0.560089
O O7 0.500000 0.000000 0.500000
O O8 0.372594 0.930708 0.501889
O O9 0.391829 0.182954 0.250000
O O10 0.362247 0.091810 0.024266
O O11 0.386994 0.250000 0.000000
O O12 0.791248 0.485492 0.750000
O O13 0.864862 0.404875 0.547507
O O14 0.757094 0.500506 0.468510
O O15 0.068871 0.685698 0.250000
O O16 0.115333 0.750000 0.000000
O O17 0.335868 0.993807 0.250000
#
# Coordination Sequence:
#
# PCOD8232259 Si02
#       6
#     8   8   8   8   8   8
#     4   9  17  31  51  74  99 129 167 206 248 300
#     4   9  17  31  50  72  97 125 162 203 242 292
#     4   9  19  33  50  74  99 126 163 205 248 294
#     4   9  19  34  52  75 102 134 169 206 251 302
#     4  10  20  34  53  77 103 132 170 214 260 307
#     4  10  20  33  51  76 102 132 170 206 247 301
#
# _framework density 17.817443999999998
#
# number of rings (size 3 to 8) (size 9 to 14) (size 15 to 20)
#    0.000    2.667    0.000    4.000    0.000    8.000 
#    0.000    1.667    0.000    2.000    0.000    0.000 
#    0.000    0.000    0.000    0.000    0.000    0.000 
#
# Total GULP energy -594842.751344 kJ/mol
# GULP energy per Si atom -12392.557320 kJ/mol
# Density = 1.777689 g / cm^3
# Si number density = 17.817444 Si / 1000 Ang^3
#
#
#
# Elastic Constant Matrix: (Units=GPa)
#
#
# Indices 1 2 3 4 5 6 
#
# 1 95.9206 30.9728 51.0397 0.0000 0.0000 0.0000
# 2 30.9728 71.0056 40.0915 0.0000 0.0000 0.0000
# 3 51.0397 40.0915 110.3111 0.0000 0.0000 0.0000
# 4 0.0000 0.0000 0.0000 31.0048 0.0000 0.0000
# 5 0.0000 0.0000 0.0000 0.0000 35.1903 0.0000
# 6 0.0000 0.0000 0.0000 0.0000 0.0000 16.4738
#
#
#
# Elastic Compliance Matrix: (Units=1/GPa)
#
#
# Indices 1 2 3 4 5 6 
#
# 1 0.014374 -0.003164 -0.005501 0.000000 0.000000 0.000000
# 2 -0.003164 0.018416 -0.005229 0.000000 0.000000 0.000000
# 3 -0.005501 -0.005229 0.013511 0.000000 0.000000 0.000000
# 4 0.000000 0.000000 0.000000 0.032253 0.000000 0.000000
# 5 0.000000 0.000000 0.000000 0.000000 0.028417 0.000000
# 6 0.000000 0.000000 0.000000 0.000000 0.000000 0.060703
#
#
# Mechanical properties :
#
#
# Convention : Reuss Voigt Hill
#
# Bulk Modulus (GPa) = 54.01615 57.93836 55.97725
# Shear Modulus (GPa) = 24.79762 26.87600 25.83681
#
# Velocity S-wave (km/s) = 3.73468 3.88804 3.81213
# Velocity P-wave (km/s) = 6.99852 7.26252 7.13174
#
# Compressibility (1/GPa) = 0.01851298
#
# Stress axis : x y z
#
# Youngs Moduli (GPa) = 69.57046 54.30035 74.01456
#
# Poissons Ratio (x) = 0.17181 0.40713
# Poissons Ratio (y) = 0.22013 0.38703
# Poissons Ratio (z) = 0.38269 0.28394
#
# Static dielectric constant tensor:
#      x y z
#    x 3.257160 0.000000 0.000000 
#    y 0.000000 3.248870 0.000000 
#    z 0.000000 0.000000 3.485410 
# 
# 
# High freq. dielectric constant tensor:
#      x y z
#    x 1.678080 0.000000 0.000000 
#    y 0.000000 1.664280 0.000000 
#    z 0.000000 0.000000 1.704110 
# 
# From -- ./inp_files/6670.got.cif
#   From: 2010.03.12/outbox.cif.g09.slc.cpg/sg57_4_cif.got.tgz:6670.got - 2010.04.16 15:48:40.
