data_PCOD8232421
_publ_section_title
;
Structure prediction by ZEFSAII (Michael W. Deem and Ramdas Pophale) SiO2 
 PCOD8232421
Probable space group: P B C M
;
_chemical_formula_sum "Si O2"
_cell_formula_units_Z 48
_cell_length_a 7.579220
_cell_length_b 37.550592
_cell_length_c 9.226748
_cell_angle_alpha 90.000000
_cell_angle_beta 90.000000
_cell_angle_gamma 90.000000
_cell_volume 2625.971214
_symmetry_space_group_name_H-M "P B C M"
_symmetry_group_IT_number 57
_symmetry_cell_setting 'orthorhombic'
loop_
_space_group_symop_operation_xyz
x,y,z
-x,-y,1/2+z
x,1/2-y,-z
-x,1/2+y,1/2-z
-x,-y,-z
x,y,1/2-z
-x,1/2+y,z
x,1/2-y,1/2+z
loop_
_atom_site_type_symbol
_atom_site_label
_atom_site_fract_x
_atom_site_fract_y
_atom_site_fract_z
Si Si1 0.697679 0.461324 0.918955
Si Si2 0.351895 0.456886 0.416250
Si Si3 0.674319 0.214131 0.580465
Si Si4 0.994251 0.418278 0.079899
Si Si5 0.025497 0.838374 0.421496
Si Si6 0.273176 0.214077 0.919864
O O1 0.701762 0.452466 0.750000
O O2 0.711713 0.503238 0.951129
O O3 0.516644 0.445727 0.984568
O O4 0.864001 0.443731 0.994583
O O5 0.412870 0.453711 0.250000
O O6 0.193885 0.430084 0.451667
O O7 0.731579 0.250000 0.500000
O O8 0.700092 0.221219 0.750000
O O9 0.473919 0.203372 0.542655
O O10 0.798675 0.182081 0.526087
O O11 0.950317 0.420969 0.250000
O O12 0.972627 0.378365 0.017048
O O13 0.018749 0.840702 0.250000
O O14 0.851902 0.817565 0.477052
O O15 0.247290 0.220845 0.750000
O O16 0.216839 0.250000 0.000000
#
# Coordination Sequence:
#
# PCOD8232421 Si02
#       6
#     8   8   8   8   8   8
#     4  10  20  34  53  77 104 133 167 210 257 303
#     4   9  19  35  55  77 100 132 173 212 251 299
#     4   9  17  30  49  71  94 122 157 198 240 284
#     4  10  20  34  53  76 102 134 171 209 250 299
#     4   9  18  31  48  71  96 124 159 197 239 288
#     4   9  17  30  48  69  92 120 156 196 236 280
#
# _framework density 18.278949999999998
#
# number of rings (size 3 to 8) (size 9 to 14) (size 15 to 20)
#    0.000    2.667    0.000    1.500    0.000    2.667 
#    0.000    6.667    0.000    4.000    0.000    0.000 
#    0.000    0.000    0.000    0.000    0.000    0.000 
#
# Total GULP energy -595260.396928 kJ/mol
# GULP energy per Si atom -12401.258269 kJ/mol
# Density = 1.823735 g / cm^3
# Si number density = 18.278950 Si / 1000 Ang^3
#
#
#
# Elastic Constant Matrix: (Units=GPa)
#
#
# Indices 1 2 3 4 5 6 
#
# 1 68.0789 19.9694 25.4461 0.0000 0.0000 0.0000
# 2 19.9694 57.0532 18.7996 0.0000 0.0000 0.0000
# 3 25.4461 18.7996 46.4123 0.0000 0.0000 0.0000
# 4 0.0000 0.0000 0.0000 19.0307 0.0000 0.0000
# 5 0.0000 0.0000 0.0000 0.0000 25.1711 0.0000
# 6 0.0000 0.0000 0.0000 0.0000 0.0000 17.7014
#
#
#
# Elastic Compliance Matrix: (Units=1/GPa)
#
#
# Indices 1 2 3 4 5 6 
#
# 1 0.019143 -0.003741 -0.008980 0.000000 0.000000 0.000000
# 2 -0.003741 0.020958 -0.006438 0.000000 0.000000 0.000000
# 3 -0.008980 -0.006438 0.029077 0.000000 0.000000 0.000000
# 4 0.000000 0.000000 0.000000 0.052547 0.000000 0.000000
# 5 0.000000 0.000000 0.000000 0.000000 0.039728 0.000000
# 6 0.000000 0.000000 0.000000 0.000000 0.000000 0.056493
#
#
# Mechanical properties :
#
#
# Convention : Reuss Voigt Hill
#
# Bulk Modulus (GPa) = 32.40461 33.33052 32.86757
# Shear Modulus (GPa) = 18.75816 19.53593 19.14705
#
# Velocity S-wave (km/s) = 3.20694 3.27275 3.24001
# Velocity P-wave (km/s) = 5.61061 5.70571 5.65836
#
# Compressibility (1/GPa) = 0.03085980
#
# Stress axis : x y z
#
# Youngs Moduli (GPa) = 52.23942 47.71352 34.39133
#
# Poissons Ratio (x) = 0.17851 0.30883
# Poissons Ratio (y) = 0.19544 0.22142
# Poissons Ratio (z) = 0.46910 0.30719
#
# Static dielectric constant tensor:
#      x y z
#    x 3.490490 0.000000 0.000000 
#    y 0.000000 3.506120 0.000000 
#    z 0.000000 0.000000 3.201200 
# 
# 
# High freq. dielectric constant tensor:
#      x y z
#    x 1.721580 0.000000 0.000000 
#    y 0.000000 1.703240 0.000000 
#    z 0.000000 0.000000 1.686390 
# 
# From -- ./inp_files/2134.got.cif
#   From: 2010.03.12/outbox.cif.g09.slc.cpg/sg57_2_cif.got.tgz:2134.got - 2010.04.16 15:48:40.
