data_PCOD8232134
_publ_section_title
;
Structure prediction by ZEFSAII (Michael W. Deem and Ramdas Pophale) SiO2 
 PCOD8232134
Probable space group: P B C M
;
_chemical_formula_sum "Si O2"
_cell_formula_units_Z 64
_cell_length_a 22.662244
_cell_length_b 17.206870
_cell_length_c 9.015727
_cell_angle_alpha 90.000000
_cell_angle_beta 90.000000
_cell_angle_gamma 90.000000
_cell_volume 3515.649263
_symmetry_space_group_name_H-M "P B C M"
_symmetry_group_IT_number 57
_symmetry_cell_setting 'orthorhombic'
loop_
_space_group_symop_operation_xyz
x,y,z
-x,-y,1/2+z
x,1/2-y,-z
-x,1/2+y,1/2-z
-x,-y,-z
x,y,1/2-z
-x,1/2+y,z
x,1/2-y,1/2+z
loop_
_atom_site_type_symbol
_atom_site_label
_atom_site_fract_x
_atom_site_fract_y
_atom_site_fract_z
Si Si1 0.365050 0.440387 0.576507
Si Si2 0.677676 0.325834 0.577573
Si Si3 0.941621 0.329448 0.424772
Si Si4 0.740283 0.483725 0.923294
Si Si5 0.549327 0.830468 0.422882
Si Si6 0.574379 0.100128 0.919768
Si Si7 0.860962 0.022350 0.581805
Si Si8 0.028908 0.427950 0.920583
O O1 0.359802 0.423557 0.750000
O O2 0.299884 0.455037 0.511889
O O3 0.392063 0.365570 0.496186
O O4 0.408177 0.512255 0.540075
O O5 0.704909 0.250000 0.500000
O O6 0.674726 0.310040 0.750000
O O7 0.719895 0.397016 0.535570
O O8 0.611401 0.340917 0.520840
O O9 0.918490 0.250000 0.500000
O O10 0.948878 0.317468 0.250000
O O11 0.896058 0.398933 0.462332
O O12 0.006062 0.350681 0.494831
O O13 0.733373 0.500953 0.750000
O O14 0.807749 0.491838 0.970080
O O15 0.533480 0.750000 0.500000
O O16 0.561053 0.816936 0.250000
O O17 0.494691 0.888667 0.451065
O O18 0.590449 0.119051 0.750000
O O19 0.837597 0.031199 0.750000
O O20 0.901035 0.944322 0.568936
O O21 0.008449 0.423654 0.750000
O O22 0.000000 0.500000 0.000000
#
# Coordination Sequence:
#
# PCOD8232134 Si02
#       8
#     8   8   8   8   8   8   8   8
#     4  10  20  36  56  76 101 134 170 211 259 306
#     4  10  20  32  47  69  99 134 170 208 251 301
#     4  10  20  33  51  78 111 143 173 209 255 302
#     4  10  21  35  52  74  99 133 175 215 254 298
#     4  11  22  35  52  77 105 131 165 208 257 312
#     4   9  19  34  53  76 101 131 166 206 253 307
#     4   9  19  34  52  75 102 135 174 213 252 298
#     4   9  17  31  51  75 103 135 171 208 248 294
#
# _framework density 18.204318000000001
#
# number of rings (size 3 to 8) (size 9 to 14) (size 15 to 20)
#    0.000    2.250    0.000    3.750    0.000    7.500 
#    0.000    2.500    0.000    0.750    0.000    1.750 
#    0.000    0.000    0.000    0.000    0.000    0.000 
#
# Total GULP energy -793611.154817 kJ/mol
# GULP energy per Si atom -12400.174294 kJ/mol
# Density = 1.816288 g / cm^3
# Si number density = 18.204318 Si / 1000 Ang^3
#
#
#
# Elastic Constant Matrix: (Units=GPa)
#
#
# Indices 1 2 3 4 5 6 
#
# 1 90.4925 26.7407 46.0249 0.0000 0.0000 0.0000
# 2 26.7407 42.8666 25.7690 0.0000 0.0000 0.0000
# 3 46.0249 25.7690 96.7114 0.0000 0.0000 0.0000
# 4 0.0000 0.0000 0.0000 33.2117 0.0000 0.0000
# 5 0.0000 0.0000 0.0000 0.0000 32.1702 0.0000
# 6 0.0000 0.0000 0.0000 0.0000 0.0000 16.8726
#
#
#
# Elastic Compliance Matrix: (Units=1/GPa)
#
#
# Indices 1 2 3 4 5 6 
#
# 1 0.015932 -0.006407 -0.005875 0.000000 0.000000 0.000000
# 2 -0.006407 0.030354 -0.005039 0.000000 0.000000 0.000000
# 3 -0.005875 -0.005039 0.014478 0.000000 0.000000 0.000000
# 4 0.000000 0.000000 0.000000 0.030110 0.000000 0.000000
# 5 0.000000 0.000000 0.000000 0.000000 0.031085 0.000000
# 6 0.000000 0.000000 0.000000 0.000000 0.000000 0.059268
#
#
# Mechanical properties :
#
#
# Convention : Reuss Voigt Hill
#
# Bulk Modulus (GPa) = 38.28019 47.45997 42.87008
# Shear Modulus (GPa) = 22.26422 25.21994 23.74208
#
# Velocity S-wave (km/s) = 3.50096 3.72611 3.61529
# Velocity P-wave (km/s) = 6.11687 6.68126 6.40528
#
# Compressibility (1/GPa) = 0.02612317
#
# Stress axis : x y z
#
# Youngs Moduli (GPa) = 62.76736 32.94461 69.06794
#
# Poissons Ratio (x) = 0.21107 0.40576
# Poissons Ratio (y) = 0.40214 0.34803
# Poissons Ratio (z) = 0.36875 0.16600
#
# Static dielectric constant tensor:
#      x y z
#    x 3.279790 0.000000 0.000000 
#    y 0.000000 3.333970 0.000000 
#    z 0.000000 0.000000 3.485590 
# 
# 
# High freq. dielectric constant tensor:
#      x y z
#    x 1.689450 0.000000 0.000000 
#    y 0.000000 1.687630 0.000000 
#    z 0.000000 0.000000 1.720920 
# 
# From -- ./inp_files/8453.got.cif
#   From: 2010.03.12/outbox.cif.g09.slc.cpg/sg57_5_cif.got.tgz:8453.got - 2010.04.16 15:48:40.
