data_PCOD8232933
_publ_section_title
;
Structure prediction by ZEFSAII (Michael W. Deem and Ramdas Pophale) SiO2 
 PCOD8232933
Probable space group: P B C M
;
_chemical_formula_sum "Si O2"
_cell_formula_units_Z 40
_cell_length_a 14.243468
_cell_length_b 15.642649
_cell_length_c 8.631892
_cell_angle_alpha 90.000000
_cell_angle_beta 90.000000
_cell_angle_gamma 90.000000
_cell_volume 1923.233621
_symmetry_space_group_name_H-M "P B C M"
_symmetry_group_IT_number 57
_symmetry_cell_setting 'orthorhombic'
loop_
_space_group_symop_operation_xyz
x,y,z
-x,-y,1/2+z
x,1/2-y,-z
-x,1/2+y,1/2-z
-x,-y,-z
x,y,1/2-z
-x,1/2+y,z
x,1/2-y,1/2+z
loop_
_atom_site_type_symbol
_atom_site_label
_atom_site_fract_x
_atom_site_fract_y
_atom_site_fract_z
Si Si1 0.896958 0.002124 0.932576
Si Si2 0.607333 0.096208 0.928394
Si Si3 0.604018 0.586684 0.569627
Si Si4 0.786655 0.161430 0.069040
Si Si5 0.780316 0.663136 0.066710
O O1 0.902662 0.007884 0.750000
O O2 0.844411 0.916031 0.985972
O O3 0.841463 0.083408 0.993761
O O4 0.000000 0.000000 0.000000
O O5 0.635557 0.109702 0.750000
O O6 0.500136 0.123810 0.961354
O O7 0.675664 0.153758 0.032754
O O8 0.621740 0.997084 0.967774
O O9 0.616932 0.563540 0.750000
O O10 0.678272 0.656563 0.513556
O O11 0.805050 0.160784 0.250000
O O12 0.825748 0.250000 0.000000
O O13 0.769385 0.668197 0.250000
O O14 0.826764 0.750000 0.000000
#
# Coordination Sequence:
#
# PCOD8232933 Si02
#       5
#     8   8   8   8   8
#     4  11  25  46  70  96 127 165 209 263 323 385
#     4  10  20  36  59  91 129 169 214 260 309 373
#     4  10  20  35  60  91 127 171 214 257 311 372
#     4  12  25  42  67  96 129 170 214 264 320 380
#     4  11  24  41  65  94 129 167 211 261 313 374
#
# _framework density 20.798304999999999
#
# number of rings (size 3 to 8) (size 9 to 14) (size 15 to 20)
#    0.000    1.200    2.000    4.200    0.000    6.400 
#    0.000    2.000    0.000    0.000    0.000    0.000 
#    0.000    0.000    0.000    0.000    0.000    0.000 
#
# Total GULP energy -496208.776188 kJ/mol
# GULP energy per Si atom -12405.219405 kJ/mol
# Density = 2.075097 g / cm^3
# Si number density = 20.798305 Si / 1000 Ang^3
#
#
#
# Elastic Constant Matrix: (Units=GPa)
#
#
# Indices 1 2 3 4 5 6 
#
# 1 125.8456 68.6621 45.8186 0.0000 0.0000 0.0000
# 2 68.6621 154.5329 48.4275 0.0000 0.0000 0.0000
# 3 45.8186 48.4275 75.3788 0.0000 0.0000 0.0000
# 4 0.0000 0.0000 0.0000 37.3529 0.0000 0.0000
# 5 0.0000 0.0000 0.0000 0.0000 33.7348 0.0000
# 6 0.0000 0.0000 0.0000 0.0000 0.0000 8.8758
#
#
#
# Elastic Compliance Matrix: (Units=1/GPa)
#
#
# Indices 1 2 3 4 5 6 
#
# 1 0.011692 -0.003716 -0.004720 0.000000 0.000000 0.000000
# 2 -0.003716 0.009283 -0.003705 0.000000 0.000000 0.000000
# 3 -0.004720 -0.003705 0.018516 0.000000 0.000000 0.000000
# 4 0.000000 0.000000 0.000000 0.026772 0.000000 0.000000
# 5 0.000000 0.000000 0.000000 0.000000 0.029643 0.000000
# 6 0.000000 0.000000 0.000000 0.000000 0.000000 0.112666
#
#
# Mechanical properties :
#
#
# Convention : Reuss Voigt Hill
#
# Bulk Modulus (GPa) = 65.75005 75.73040 70.74023
# Shear Modulus (GPa) = 21.01518 28.84931 24.93224
#
# Velocity S-wave (km/s) = 3.18217 3.72842 3.46607
# Velocity P-wave (km/s) = 6.72186 7.41793 7.07846
#
# Compressibility (1/GPa) = 0.01520911
#
# Stress axis : x y z
#
# Youngs Moduli (GPa) = 85.52819 107.71900 54.00834
#
# Poissons Ratio (x) = 0.40028 0.25490
# Poissons Ratio (y) = 0.31782 0.20012
# Poissons Ratio (z) = 0.40366 0.39914
#
# Static dielectric constant tensor:
#      x y z
#    x 3.884900 0.000000 0.000000 
#    y 0.000000 3.775640 0.000000 
#    z 0.000000 0.000000 4.095260 
# 
# 
# High freq. dielectric constant tensor:
#      x y z
#    x 1.813030 0.000000 0.000000 
#    y 0.000000 1.815070 0.000000 
#    z 0.000000 0.000000 1.827240 
# 
# From -- ./inp_files/2687.got.cif
#   From: 2010.03.12/outbox.cif.g09.slc.cpg/sg57_2_cif.got.tgz:2687.got - 2010.04.16 15:48:40.
