data_PCOD8232777
_publ_section_title
;
Structure prediction by ZEFSAII (Michael W. Deem and Ramdas Pophale) SiO2 
 PCOD8232777
Probable space group: P B C M
;
_chemical_formula_sum "Si O2"
_cell_formula_units_Z 56
_cell_length_a 17.230034
_cell_length_b 19.885877
_cell_length_c 8.696150
_cell_angle_alpha 90.000000
_cell_angle_beta 90.000000
_cell_angle_gamma 90.000000
_cell_volume 2979.599588
_symmetry_space_group_name_H-M "P B C M"
_symmetry_group_IT_number 57
_symmetry_cell_setting 'orthorhombic'
loop_
_space_group_symop_operation_xyz
x,y,z
-x,-y,1/2+z
x,1/2-y,-z
-x,1/2+y,1/2-z
-x,-y,-z
x,y,1/2-z
-x,1/2+y,z
x,1/2-y,1/2+z
loop_
_atom_site_type_symbol
_atom_site_label
_atom_site_fract_x
_atom_site_fract_y
_atom_site_fract_z
Si Si1 0.376954 0.179455 0.931367
Si Si2 0.447311 0.820362 0.068205
Si Si3 0.274410 0.062508 0.068383
Si Si4 0.890380 0.549268 0.570413
Si Si5 0.042922 0.595548 0.069615
Si Si6 0.173933 0.678606 0.932817
Si Si7 0.686961 0.084736 0.567690
O O1 0.371424 0.184229 0.750000
O O2 0.465033 0.164315 0.986178
O O3 0.347790 0.250000 0.000000
O O4 0.322964 0.120611 0.989986
O O5 0.441564 0.814458 0.250000
O O6 0.391922 0.880194 0.006389
O O7 0.417549 0.750000 0.000000
O O8 0.283248 0.068099 0.250000
O O9 0.307319 0.991307 0.004888
O O10 0.184966 0.070791 0.023903
O O11 0.875129 0.559808 0.750000
O O12 0.910955 0.472542 0.529666
O O13 0.960432 0.596807 0.515890
O O14 0.028799 0.603546 0.250000
O O15 0.091544 0.657726 0.004202
O O16 0.167807 0.681532 0.750000
O O17 0.238830 0.626264 0.990802
O O18 0.198568 0.750000 0.000000
O O19 0.687284 0.083640 0.750000
#
# Coordination Sequence:
#
# PCOD8232777 Si02
#       7
#     8   8   8   8   8   8   8
#     4  10  21  38  59  82 109 144 187 234 286 340
#     4   9  18  35  56  79 110 149 191 233 278 332
#     4  11  21  36  58  84 115 149 186 230 283 337
#     4  10  20  35  57  83 111 142 183 230 275 327
#     4  10  20  35  56  81 109 145 187 227 274 330
#     4  11  21  35  54  80 116 155 193 234 282 332
#     4   9  19  34  54  81 114 150 188 231 279 331
#
# _framework density 18.794471000000001
#
# number of rings (size 3 to 8) (size 9 to 14) (size 15 to 20)
#    0.000    2.000    1.429    2.571    0.000    2.286 
#    0.000    2.857    0.000    0.000    0.000    0.000 
#    0.000    0.000    0.000    0.000    0.000    0.000 
#
# Total GULP energy -694569.208584 kJ/mol
# GULP energy per Si atom -12403.021582 kJ/mol
# Density = 1.875169 g / cm^3
# Si number density = 18.794471 Si / 1000 Ang^3
#
#
#
# Elastic Constant Matrix: (Units=GPa)
#
#
# Indices 1 2 3 4 5 6 
#
# 1 105.2101 66.8817 16.0874 0.0000 0.0000 0.0000
# 2 66.8817 131.5110 24.6990 0.0000 0.0000 0.0000
# 3 16.0874 24.6990 44.3525 0.0000 0.0000 0.0000
# 4 0.0000 0.0000 0.0000 30.7704 0.0000 0.0000
# 5 0.0000 0.0000 0.0000 0.0000 24.4733 0.0000
# 6 0.0000 0.0000 0.0000 0.0000 0.0000 25.9909
#
#
#
# Elastic Compliance Matrix: (Units=1/GPa)
#
#
# Indices 1 2 3 4 5 6 
#
# 1 0.014108 -0.006939 -0.001253 0.000000 0.000000 0.000000
# 2 -0.006939 0.011905 -0.004113 0.000000 0.000000 0.000000
# 3 -0.001253 -0.004113 0.025291 0.000000 0.000000 0.000000
# 4 0.000000 0.000000 0.000000 0.032499 0.000000 0.000000
# 5 0.000000 0.000000 0.000000 0.000000 0.040861 0.000000
# 6 0.000000 0.000000 0.000000 0.000000 0.000000 0.038475
#
#
# Mechanical properties :
#
#
# Convention : Reuss Voigt Hill
#
# Bulk Modulus (GPa) = 37.46072 55.15664 46.30868
# Shear Modulus (GPa) = 25.42622 27.80728 26.61675
#
# Velocity S-wave (km/s) = 3.68211 3.85066 3.76733
# Velocity P-wave (km/s) = 6.16865 7.01292 6.60429
#
# Compressibility (1/GPa) = 0.02669463
#
# Stress axis : x y z
#
# Youngs Moduli (GPa) = 70.88337 83.99501 39.53913
#
# Poissons Ratio (x) = 0.58287 0.04953
# Poissons Ratio (y) = 0.49189 0.16262
# Poissons Ratio (z) = 0.08880 0.34546
#
# Static dielectric constant tensor:
#      x y z
#    x 3.574670 0.000000 0.000000 
#    y 0.000000 3.388820 0.000000 
#    z 0.000000 0.000000 3.338750 
# 
# 
# High freq. dielectric constant tensor:
#      x y z
#    x 1.736260 0.000000 0.000000 
#    y 0.000000 1.721620 0.000000 
#    z 0.000000 0.000000 1.727150 
# 
# From -- ./inp_files/5231.got.cif
#   From: 2010.03.12/outbox.cif.g09.slc.cpg/sg57_3_cif.got.tgz:5231.got - 2010.04.16 15:48:40.
