data_PCOD8232969
_publ_section_title
;
Structure prediction by ZEFSAII (Michael W. Deem and Ramdas Pophale) SiO2 
 PCOD8232969
Probable space group: P B C M
;
_chemical_formula_sum "Si O2"
_cell_formula_units_Z 40
_cell_length_a 25.299725
_cell_length_b 9.612199
_cell_length_c 8.542031
_cell_angle_alpha 90.000000
_cell_angle_beta 90.000000
_cell_angle_gamma 90.000000
_cell_volume 2077.302277
_symmetry_space_group_name_H-M "P B C M"
_symmetry_group_IT_number 57
_symmetry_cell_setting 'orthorhombic'
loop_
_space_group_symop_operation_xyz
x,y,z
-x,-y,1/2+z
x,1/2-y,-z
-x,1/2+y,1/2-z
-x,-y,-z
x,y,1/2-z
-x,1/2+y,z
x,1/2-y,1/2+z
loop_
_atom_site_type_symbol
_atom_site_label
_atom_site_fract_x
_atom_site_fract_y
_atom_site_fract_z
Si Si1 0.633955 0.100471 0.564050
Si Si2 0.246228 0.895028 0.065786
Si Si3 0.954432 0.903713 0.064712
Si Si4 0.546814 0.905648 0.064611
Si Si5 0.155913 0.401827 0.935888
O O1 0.614113 0.250000 0.500000
O O2 0.626923 0.098948 0.750000
O O3 0.694187 0.073405 0.509084
O O4 0.601586 0.974725 0.488486
O O5 0.245055 0.887237 0.250000
O O6 0.205815 0.010328 0.003344
O O7 0.225651 0.750000 0.000000
O O8 0.955950 0.900538 0.250000
O O9 0.963264 0.750000 0.000000
O O10 0.898146 0.964054 0.006960
O O11 0.000000 0.000000 0.000000
O O12 0.543318 0.899637 0.250000
O O13 0.542428 0.750000 0.000000
O O14 0.500000 0.000000 0.000000
O O15 0.150913 0.400240 0.750000
O O16 0.166340 0.250000 0.000000
#
# Coordination Sequence:
#
# PCOD8232969 Si02
#       5
#     8   8   8   8   8
#     4  10  20  38  60  86 117 152 190 233 280 332
#     4   9  20  36  57  83 114 148 187 229 275 328
#     4  11  22  38  58  82 110 145 185 231 281 335
#     4  12  25  42  62  87 116 151 190 234 282 335
#     4  10  20  36  55  80 111 146 185 229 277 332
#
# _framework density 19.255744
#
# number of rings (size 3 to 8) (size 9 to 14) (size 15 to 20)
#    0.000    1.600    0.000    6.600    0.000    4.000 
#    0.000    4.000    0.000    0.000    0.000    0.000 
#    0.000    0.000    0.000    0.000    0.000    0.000 
#
# Total GULP energy -496089.847641 kJ/mol
# GULP energy per Si atom -12402.246191 kJ/mol
# Density = 1.921192 g / cm^3
# Si number density = 19.255744 Si / 1000 Ang^3
#
#
#
# Elastic Constant Matrix: (Units=GPa)
#
#
# Indices 1 2 3 4 5 6 
#
# 1 144.3117 95.9989 53.6481 0.0000 0.0000 0.0000
# 2 95.9989 137.1128 55.8753 0.0000 0.0000 0.0000
# 3 53.6481 55.8753 128.3629 0.0000 0.0000 0.0000
# 4 0.0000 0.0000 0.0000 37.4015 0.0000 0.0000
# 5 0.0000 0.0000 0.0000 0.0000 31.0128 0.0000
# 6 0.0000 0.0000 0.0000 0.0000 0.0000 46.3787
#
#
#
# Elastic Compliance Matrix: (Units=1/GPa)
#
#
# Indices 1 2 3 4 5 6 
#
# 1 0.013316 -0.008576 -0.001832 0.000000 0.000000 0.000000
# 2 -0.008576 0.014390 -0.002679 0.000000 0.000000 0.000000
# 3 -0.001832 -0.002679 0.009722 0.000000 0.000000 0.000000
# 4 0.000000 0.000000 0.000000 0.026737 0.000000 0.000000
# 5 0.000000 0.000000 0.000000 0.000000 0.032245 0.000000
# 6 0.000000 0.000000 0.000000 0.000000 0.000000 0.021562
#
#
# Mechanical properties :
#
#
# Convention : Reuss Voigt Hill
#
# Bulk Modulus (GPa) = 88.86892 91.20356 90.03624
# Shear Modulus (GPa) = 33.80729 36.57627 35.19178
#
# Velocity S-wave (km/s) = 4.19465 4.36305 4.27968
# Velocity P-wave (km/s) = 8.34939 8.53515 8.44278
#
# Compressibility (1/GPa) = 0.01125253
#
# Stress axis : x y z
#
# Youngs Moduli (GPa) = 75.09993 69.49362 102.85563
#
# Poissons Ratio (x) = 0.59600 0.18843
# Poissons Ratio (y) = 0.64408 0.27559
# Poissons Ratio (z) = 0.13758 0.18620
#
# Static dielectric constant tensor:
#      x y z
#    x 3.988620 0.000000 0.000000 
#    y 0.000000 3.583130 0.000000 
#    z 0.000000 0.000000 3.635100 
# 
# 
# High freq. dielectric constant tensor:
#      x y z
#    x 1.763890 0.000000 0.000000 
#    y 0.000000 1.749060 0.000000 
#    z 0.000000 0.000000 1.764370 
# 
# From -- ./inp_files/8904.got.cif
#   From: 2010.03.12/outbox.cif.g09.slc.cpg/sg57_5_cif.got.tgz:8904.got - 2010.04.16 15:48:40.
