data_PCOD8232477
_publ_section_title
;
Structure prediction by ZEFSAII (Michael W. Deem and Ramdas Pophale) SiO2 
 PCOD8232477
Probable space group: P B C M
;
_chemical_formula_sum "Si O2"
_cell_formula_units_Z 40
_cell_length_a 25.669448
_cell_length_b 9.817166
_cell_length_c 8.548984
_cell_angle_alpha 90.000000
_cell_angle_beta 90.000000
_cell_angle_gamma 90.000000
_cell_volume 2154.354502
_symmetry_space_group_name_H-M "P B C M"
_symmetry_group_IT_number 57
_symmetry_cell_setting 'orthorhombic'
loop_
_space_group_symop_operation_xyz
x,y,z
-x,-y,1/2+z
x,1/2-y,-z
-x,1/2+y,1/2-z
-x,-y,-z
x,y,1/2-z
-x,1/2+y,z
x,1/2-y,1/2+z
loop_
_atom_site_type_symbol
_atom_site_label
_atom_site_fract_x
_atom_site_fract_y
_atom_site_fract_z
Si Si1 0.238694 0.902947 0.434293
Si Si2 0.042024 0.397218 0.564681
Si Si3 0.542088 0.399672 0.568608
Si Si4 0.656508 0.101108 0.067542
Si Si5 0.846194 0.603578 0.565190
O O1 0.236034 0.750000 0.500000
O O2 0.229272 0.904502 0.250000
O O3 0.295307 0.969774 0.476221
O O4 0.195298 0.990604 0.519591
O O5 0.027127 0.250000 0.500000
O O6 0.041114 0.395282 0.750000
O O7 0.098889 0.442341 0.506821
O O8 0.000000 0.500000 0.500000
O O9 0.535598 0.250000 0.500000
O O10 0.500000 0.500000 0.500000
O O11 0.531897 0.384210 0.750000
O O12 0.599717 0.466009 0.537493
O O13 0.670816 0.105828 0.250000
O O14 0.650573 0.250000 0.000000
O O15 0.828385 0.750000 0.500000
O O16 0.851879 0.614286 0.750000
#
# Coordination Sequence:
#
# PCOD8232477 Si02
#       5
#     8   8   8   8   8
#     4  11  21  35  56  83 110 141 180 225 268 316
#     4  11  22  39  60  85 113 146 184 224 269 320
#     4  10  20  34  54  78 107 140 178 220 268 320
#     4   9  17  31  51  76 104 138 176 219 267 319
#     4  11  22  39  59  82 112 147 181 220 270 325
#
# _framework density 18.567046999999999
#
# number of rings (size 3 to 8) (size 9 to 14) (size 15 to 20)
#    0.000    1.600    0.000    9.000    0.000    3.200 
#    0.000    5.000    0.000    4.800    0.000    0.000 
#    0.000    0.000    0.000    0.000    0.000    0.000 
#
# Total GULP energy -495867.829998 kJ/mol
# GULP energy per Si atom -12396.695750 kJ/mol
# Density = 1.852479 g / cm^3
# Si number density = 18.567047 Si / 1000 Ang^3
#
#
#
# Elastic Constant Matrix: (Units=GPa)
#
#
# Indices 1 2 3 4 5 6 
#
# 1 152.6409 77.9828 61.7379 0.0000 0.0000 0.0000
# 2 77.9828 77.7927 40.7220 0.0000 0.0000 0.0000
# 3 61.7379 40.7220 156.5351 0.0000 0.0000 0.0000
# 4 0.0000 0.0000 0.0000 31.9692 0.0000 0.0000
# 5 0.0000 0.0000 0.0000 0.0000 37.0816 0.0000
# 6 0.0000 0.0000 0.0000 0.0000 0.0000 23.1455
#
#
#
# Elastic Compliance Matrix: (Units=1/GPa)
#
#
# Indices 1 2 3 4 5 6 
#
# 1 0.014039 -0.012936 -0.002172 0.000000 0.000000 0.000000
# 2 -0.012936 0.026801 -0.001870 0.000000 0.000000 0.000000
# 3 -0.002172 -0.001870 0.007731 0.000000 0.000000 0.000000
# 4 0.000000 0.000000 0.000000 0.031280 0.000000 0.000000
# 5 0.000000 0.000000 0.000000 0.000000 0.026968 0.000000
# 6 0.000000 0.000000 0.000000 0.000000 0.000000 0.043205
#
#
# Mechanical properties :
#
#
# Convention : Reuss Voigt Hill
#
# Bulk Modulus (GPa) = 68.42066 83.09489 75.75777
# Shear Modulus (GPa) = 26.47581 32.20768 29.34175
#
# Velocity S-wave (km/s) = 3.78028 4.16945 3.97963
# Velocity P-wave (km/s) = 7.48229 8.24805 7.87448
#
# Compressibility (1/GPa) = 0.01461547
#
# Stress axis : x y z
#
# Youngs Moduli (GPa) = 71.23218 37.31145 129.34347
#
# Poissons Ratio (x) = 0.48267 0.28088
# Poissons Ratio (y) = 0.92147 0.24190
# Poissons Ratio (z) = 0.15469 0.06978
#
# Static dielectric constant tensor:
#      x y z
#    x 4.102630 0.000000 0.000000 
#    y 0.000000 3.273640 0.000000 
#    z 0.000000 0.000000 3.669510 
# 
# 
# High freq. dielectric constant tensor:
#      x y z
#    x 1.741800 0.000000 0.000000 
#    y 0.000000 1.690350 0.000000 
#    z 0.000000 0.000000 1.747150 
# 
# From -- ./inp_files/7808.got.cif
#   From: 2010.03.12/outbox.cif.g09.slc.cpg/sg57_4_cif.got.tgz:7808.got - 2010.04.16 15:48:40.
