data_PCOD8232868
_publ_section_title
;
Structure prediction by ZEFSAII (Michael W. Deem and Ramdas Pophale) SiO2 
 PCOD8232868
Probable space group: P B C M
;
_chemical_formula_sum "Si O2"
_cell_formula_units_Z 40
_cell_length_a 25.831049
_cell_length_b 9.132657
_cell_length_c 8.733125
_cell_angle_alpha 90.000000
_cell_angle_beta 90.000000
_cell_angle_gamma 90.000000
_cell_volume 2060.197551
_symmetry_space_group_name_H-M "P B C M"
_symmetry_group_IT_number 57
_symmetry_cell_setting 'orthorhombic'
loop_
_space_group_symop_operation_xyz
x,y,z
-x,-y,1/2+z
x,1/2-y,-z
-x,1/2+y,1/2-z
-x,-y,-z
x,y,1/2-z
-x,1/2+y,z
x,1/2-y,1/2+z
loop_
_atom_site_type_symbol
_atom_site_label
_atom_site_fract_x
_atom_site_fract_y
_atom_site_fract_z
Si Si1 0.047134 0.911915 0.068659
Si Si2 0.736751 0.090012 0.427571
Si Si3 0.352928 0.092826 0.070396
Si Si4 0.453411 0.590324 0.930123
Si Si5 0.851356 0.407558 0.927263
O O1 0.042853 0.908421 0.250000
O O2 0.045775 0.750000 0.000000
O O3 0.101521 0.989224 0.016336
O O4 0.000000 0.000000 0.000000
O O5 0.730130 0.250000 0.500000
O O6 0.722777 0.106564 0.250000
O O7 0.794619 0.020998 0.448594
O O8 0.699680 0.973333 0.505280
O O9 0.346936 0.111115 0.250000
O O10 0.399919 0.987175 0.025506
O O11 0.364512 0.250000 0.000000
O O12 0.461437 0.601357 0.750000
O O13 0.452533 0.750000 0.000000
O O14 0.500000 0.500000 0.000000
O O15 0.866886 0.395221 0.750000
O O16 0.845508 0.250000 0.000000
#
# Coordination Sequence:
#
# PCOD8232868 Si02
#       5
#     8   8   8   8   8
#     4  11  21  35  55  80 110 145 184 229 279 333
#     4  10  20  35  58  85 113 145 185 231 278 330
#     4  11  24  40  59  84 116 152 190 232 281 334
#     4  11  24  41  63  90 119 153 191 235 282 333
#     4   9  17  31  52  79 108 141 182 227 275 330
#
# _framework density 19.415614000000001
#
# number of rings (size 3 to 8) (size 9 to 14) (size 15 to 20)
#    0.000    1.600    0.000    6.600    0.000    8.800 
#    0.000    1.000    0.000    4.800    0.000    0.000 
#    0.000    0.000    0.000    0.000    0.000    0.000 
#
# Total GULP energy -495923.211253 kJ/mol
# GULP energy per Si atom -12398.080281 kJ/mol
# Density = 1.937142 g / cm^3
# Si number density = 19.415614 Si / 1000 Ang^3
#
#
#
# Elastic Constant Matrix: (Units=GPa)
#
#
# Indices 1 2 3 4 5 6 
#
# 1 166.4423 67.6687 86.8744 0.0000 0.0000 0.0000
# 2 67.6687 110.7865 58.6262 0.0000 0.0000 0.0000
# 3 86.8744 58.6262 142.6182 0.0000 0.0000 0.0000
# 4 0.0000 0.0000 0.0000 34.3094 0.0000 0.0000
# 5 0.0000 0.0000 0.0000 0.0000 36.4441 0.0000
# 6 0.0000 0.0000 0.0000 0.0000 0.0000 30.3044
#
#
#
# Elastic Compliance Matrix: (Units=1/GPa)
#
#
# Indices 1 2 3 4 5 6 
#
# 1 0.009829 -0.003623 -0.004498 0.000000 0.000000 0.000000
# 2 -0.003623 0.012872 -0.003084 0.000000 0.000000 0.000000
# 3 -0.004498 -0.003084 0.011019 0.000000 0.000000 0.000000
# 4 0.000000 0.000000 0.000000 0.029146 0.000000 0.000000
# 5 0.000000 0.000000 0.000000 0.000000 0.027439 0.000000
# 6 0.000000 0.000000 0.000000 0.000000 0.000000 0.032999
#
#
# Mechanical properties :
#
#
# Convention : Reuss Voigt Hill
#
# Bulk Modulus (GPa) = 88.42132 94.02061 91.22096
# Shear Modulus (GPa) = 33.44853 33.99009 33.71931
#
# Velocity S-wave (km/s) = 4.15512 4.18863 4.17191
# Velocity P-wave (km/s) = 8.28615 8.48075 8.38402
#
# Compressibility (1/GPa) = 0.01130949
#
# Stress axis : x y z
#
# Youngs Moduli (GPa) = 101.74263 77.69098 90.75123
#
# Poissons Ratio (x) = 0.28150 0.40816
# Poissons Ratio (y) = 0.36865 0.27987
# Poissons Ratio (z) = 0.45760 0.23960
#
# Static dielectric constant tensor:
#      x y z
#    x 4.582300 0.000000 0.000000 
#    y 0.000000 3.294630 0.000000 
#    z 0.000000 0.000000 3.781930 
# 
# 
# High freq. dielectric constant tensor:
#      x y z
#    x 1.784110 0.000000 0.000000 
#    y 0.000000 1.726980 0.000000 
#    z 0.000000 0.000000 1.778180 
# 
# From -- ./inp_files/8881.got.cif
#   From: 2010.03.12/outbox.cif.g09.slc.cpg/sg57_5_cif.got.tgz:8881.got - 2010.04.16 15:48:40.
