data_PCOD8232007
_publ_section_title
;
Structure prediction by ZEFSAII (Michael W. Deem and Ramdas Pophale) SiO2 
 PCOD8232007
Probable space group: P B C M
;
_chemical_formula_sum "Si O2"
_cell_formula_units_Z 64
_cell_length_a 9.727947
_cell_length_b 18.783061
_cell_length_c 18.413128
_cell_angle_alpha 90.000000
_cell_angle_beta 90.000000
_cell_angle_gamma 90.000000
_cell_volume 3364.458199
_symmetry_space_group_name_H-M "P B C M"
_symmetry_group_IT_number 57
_symmetry_cell_setting 'orthorhombic'
loop_
_space_group_symop_operation_xyz
x,y,z
-x,-y,1/2+z
x,1/2-y,-z
-x,1/2+y,1/2-z
-x,-y,-z
x,y,1/2-z
-x,1/2+y,z
x,1/2-y,1/2+z
loop_
_atom_site_type_symbol
_atom_site_label
_atom_site_fract_x
_atom_site_fract_y
_atom_site_fract_z
Si Si1 0.880497 0.511380 0.667421
Si Si2 0.827213 0.555736 0.166878
Si Si3 0.760671 0.788239 0.665085
Si Si4 0.455434 0.813839 0.666226
Si Si5 0.369787 0.549510 0.584399
Si Si6 0.730591 0.182370 0.665271
Si Si7 0.625150 0.453368 0.584007
Si Si8 0.041770 0.166666 0.663429
O O1 0.828932 0.518428 0.750000
O O2 0.766614 0.471357 0.622074
O O3 0.911409 0.589458 0.634458
O O4 0.013419 0.462120 0.662860
O O5 0.773077 0.549858 0.250000
O O6 0.806271 0.634834 0.134824
O O7 0.744799 0.501656 0.117237
O O8 0.790523 0.787069 0.750000
O O9 0.600117 0.775144 0.647716
O O10 0.854172 0.725707 0.630126
O O11 0.454585 0.838682 0.750000
O O12 0.331580 0.760002 0.650191
O O13 0.441169 0.882385 0.616355
O O14 0.361836 0.625721 0.622748
O O15 0.521318 0.518450 0.597270
O O16 0.341729 0.559469 0.499702
O O17 0.723995 0.162335 0.750000
O O18 0.887062 0.182538 0.636342
O O19 0.043364 0.166531 0.750000
#
# Coordination Sequence:
#
# PCOD8232007 Si02
#       8
#     8   8   8   8   8   8   8   8
#     4  10  21  36  60  90 116 146 191 246 295 336
#     4  10  19  36  62  87 113 151 195 241 296 346
#     4   9  18  32  55  85 116 145 182 236 292 344
#     4  10  21  37  59  88 115 147 192 240 290 341
#     4  11  23  41  59  81 117 161 197 231 290 346
#     4  10  21  37  62  88 114 148 192 242 291 345
#     4  11  25  39  57  85 119 158 196 240 285 345
#     4   9  18  34  55  86 118 143 181 236 294 347
#
# _framework density 19.022379000000001
#
# number of rings (size 3 to 8) (size 9 to 14) (size 15 to 20)
#    0.000    2.000    2.500    0.750    3.500    2.500 
#    0.000    0.000    0.000    0.750    0.000    0.000 
#    0.000    0.000    0.000    0.000    0.000    0.000 
#
# Total GULP energy -793738.948194 kJ/mol
# GULP energy per Si atom -12402.171066 kJ/mol
# Density = 1.897908 g / cm^3
# Si number density = 19.022379 Si / 1000 Ang^3
#
#
#
# Elastic Constant Matrix: (Units=GPa)
#
#
# Indices 1 2 3 4 5 6 
#
# 1 85.4088 31.0574 35.0220 0.0000 0.0000 0.0000
# 2 31.0574 78.5288 26.1973 0.0000 0.0000 0.0000
# 3 35.0220 26.1973 63.4051 0.0000 0.0000 0.0000
# 4 0.0000 0.0000 0.0000 11.2980 0.0000 0.0000
# 5 0.0000 0.0000 0.0000 0.0000 18.8759 0.0000
# 6 0.0000 0.0000 0.0000 0.0000 0.0000 38.0674
#
#
#
# Elastic Compliance Matrix: (Units=1/GPa)
#
#
# Indices 1 2 3 4 5 6 
#
# 1 0.016129 -0.003951 -0.007276 0.000000 0.000000 0.000000
# 2 -0.003951 0.015738 -0.004320 0.000000 0.000000 0.000000
# 3 -0.007276 -0.004320 0.021575 0.000000 0.000000 0.000000
# 4 0.000000 0.000000 0.000000 0.088511 0.000000 0.000000
# 5 0.000000 0.000000 0.000000 0.000000 0.052978 0.000000
# 6 0.000000 0.000000 0.000000 0.000000 0.000000 0.026269
#
#
# Mechanical properties :
#
#
# Convention : Reuss Voigt Hill
#
# Bulk Modulus (GPa) = 44.74822 45.76623 45.25722
# Shear Modulus (GPa) = 19.24968 22.65267 20.95117
#
# Velocity S-wave (km/s) = 3.18457 3.45460 3.32233
# Velocity P-wave (km/s) = 6.09073 6.32643 6.20970
#
# Compressibility (1/GPa) = 0.02234726
#
# Stress axis : x y z
#
# Youngs Moduli (GPa) = 62.00053 63.54007 46.34889
#
# Poissons Ratio (x) = 0.25108 0.33724
# Poissons Ratio (y) = 0.24499 0.20022
# Poissons Ratio (z) = 0.45113 0.27449
#
# Static dielectric constant tensor:
#      x y z
#    x 3.570130 0.000000 0.000000 
#    y 0.000000 3.674540 0.000000 
#    z 0.000000 0.000000 3.230220 
# 
# 
# High freq. dielectric constant tensor:
#      x y z
#    x 1.751680 0.000000 0.000000 
#    y 0.000000 1.749420 0.000000 
#    z 0.000000 0.000000 1.702200 
# 
# From -- ./inp_files/21384.got.cif
#   From: 2010.03.12/outbox.cif.g09.slc.cpg/sg57_11_cif.got.tgz:21384.got - 2010.04.16 15:48:40.
