data_PCOD8232696
_publ_section_title
;
Structure prediction by ZEFSAII (Michael W. Deem and Ramdas Pophale) SiO2 
 PCOD8232696
Probable space group: P B C M
;
_chemical_formula_sum "Si O2"
_cell_formula_units_Z 56
_cell_length_a 18.929601
_cell_length_b 8.970876
_cell_length_c 16.393030
_cell_angle_alpha 90.000000
_cell_angle_beta 90.000000
_cell_angle_gamma 90.000000
_cell_volume 2783.784083
_symmetry_space_group_name_H-M "P B C M"
_symmetry_group_IT_number 57
_symmetry_cell_setting 'orthorhombic'
loop_
_space_group_symop_operation_xyz
x,y,z
-x,-y,1/2+z
x,1/2-y,-z
-x,1/2+y,1/2-z
-x,-y,-z
x,y,1/2-z
-x,1/2+y,z
x,1/2-y,1/2+z
loop_
_atom_site_type_symbol
_atom_site_label
_atom_site_fract_x
_atom_site_fract_y
_atom_site_fract_z
Si Si1 0.387536 0.260870 0.659931
Si Si2 0.345605 0.524199 0.565005
Si Si3 0.764896 0.210145 0.658516
Si Si4 0.454955 0.710694 0.658322
Si Si5 0.075239 0.848891 0.153815
Si Si6 0.969529 0.626670 0.058538
Si Si7 0.658134 0.050258 0.373629
O O1 0.390431 0.335513 0.750000
O O2 0.342311 0.355533 0.595733
O O3 0.466537 0.239393 0.624603
O O4 0.344711 0.108446 0.668513
O O5 0.275764 0.606566 0.595281
O O6 0.417983 0.590597 0.600799
O O7 0.348300 0.536400 0.469652
O O8 0.753458 0.148074 0.750000
O O9 0.846906 0.214063 0.636491
O O10 0.732446 0.375819 0.651675
O O11 0.459877 0.646038 0.750000
O O12 0.409079 0.860128 0.659446
O O13 0.056321 0.848555 0.250000
O O14 0.025853 0.729829 0.106978
O O15 0.073673 0.023341 0.122876
O O16 0.928301 0.750000 0.000000
O O17 0.000000 0.500000 0.000000
#
# Coordination Sequence:
#
# PCOD8232696 Si02
#       7
#     8   8   8   8   8   8   8
#     4  11  22  36  53  74 104 140 181 231 282 334
#     4  11  22  35  53  78 107 138 177 229 280 329
#     4  10  21  39  60  79 107 149 186 220 269 329
#     4  10  20  35  55  75 100 140 182 223 279 341
#     4  10  20  37  63  90 118 154 195 234 273 328
#     4   9  19  35  58  90 124 154 184 227 280 329
#     4  11  22  35  54  80 107 139 182 231 278 333
#
# _framework density 20.116503000000002
#
# number of rings (size 3 to 8) (size 9 to 14) (size 15 to 20)
#    0.000    1.714    0.000    6.857    0.000    9.143 
#    0.000    4.286    0.000    8.571    0.000    0.000 
#    0.000    0.000    0.000    0.000    0.000    0.000 
#
# Total GULP energy -693959.830550 kJ/mol
# GULP energy per Si atom -12392.139831 kJ/mol
# Density = 2.007072 g / cm^3
# Si number density = 20.116503 Si / 1000 Ang^3
#
#
#
# Elastic Constant Matrix: (Units=GPa)
#
#
# Indices 1 2 3 4 5 6 
#
# 1 91.6296 37.7185 26.2404 0.0000 0.0000 0.0000
# 2 37.7185 116.2942 19.4314 0.0000 0.0000 0.0000
# 3 26.2404 19.4314 112.0474 0.0000 0.0000 0.0000
# 4 0.0000 0.0000 0.0000 20.7718 0.0000 0.0000
# 5 0.0000 0.0000 0.0000 0.0000 3.3058 0.0000
# 6 0.0000 0.0000 0.0000 0.0000 0.0000 8.2060
#
#
#
# Elastic Compliance Matrix: (Units=1/GPa)
#
#
# Indices 1 2 3 4 5 6 
#
# 1 0.013203 -0.003878 -0.002419 0.000000 0.000000 0.000000
# 2 -0.003878 0.009994 -0.000825 0.000000 0.000000 0.000000
# 3 -0.002419 -0.000825 0.009634 0.000000 0.000000 0.000000
# 4 0.000000 0.000000 0.000000 0.048142 0.000000 0.000000
# 5 0.000000 0.000000 0.000000 0.000000 0.302497 0.000000
# 6 0.000000 0.000000 0.000000 0.000000 0.000000 0.121861
#
#
# Mechanical properties :
#
#
# Convention : Reuss Voigt Hill
#
# Bulk Modulus (GPa) = 53.80146 54.08355 53.94251
# Shear Modulus (GPa) = 9.50982 22.22878 15.86930
#
# Velocity S-wave (km/s) = 2.17661 3.32776 2.81173
# Velocity P-wave (km/s) = 5.75498 6.45824 6.11673
#
# Compressibility (1/GPa) = 0.01858685
#
# Stress axis : x y z
#
# Youngs Moduli (GPa) = 75.74229 100.05519 103.79371
#
# Poissons Ratio (x) = 0.38800 0.25112
# Poissons Ratio (y) = 0.29372 0.08564
# Poissons Ratio (z) = 0.18325 0.08256
#
# Static dielectric constant tensor:
#      x y z
#    x 3.432430 0.000000 0.000000 
#    y 0.000000 3.989960 0.000000 
#    z 0.000000 0.000000 3.876940 
# 
# 
# High freq. dielectric constant tensor:
#      x y z
#    x 1.749590 0.000000 0.000000 
#    y 0.000000 1.792600 0.000000 
#    z 0.000000 0.000000 1.807910 
# 
# From -- ./inp_files/19343.got.cif
#   From: 2010.03.12/outbox.cif.g09.slc.cpg/sg57_10_cif.got.tgz:19343.got - 2010.04.16 15:48:40.
