data_PCOD8232499
_publ_section_title
;
Structure prediction by ZEFSAII (Michael W. Deem and Ramdas Pophale) SiO2 
 PCOD8232499
Probable space group: P B C M
;
_chemical_formula_sum "Si O2"
_cell_formula_units_Z 64
_cell_length_a 20.079697
_cell_length_b 19.730130
_cell_length_c 8.694824
_cell_angle_alpha 90.000000
_cell_angle_beta 90.000000
_cell_angle_gamma 90.000000
_cell_volume 3444.672178
_symmetry_space_group_name_H-M "P B C M"
_symmetry_group_IT_number 57
_symmetry_cell_setting 'orthorhombic'
loop_
_space_group_symop_operation_xyz
x,y,z
-x,-y,1/2+z
x,1/2-y,-z
-x,1/2+y,1/2-z
-x,-y,-z
x,y,1/2-z
-x,1/2+y,z
x,1/2-y,1/2+z
loop_
_atom_site_type_symbol
_atom_site_label
_atom_site_fract_x
_atom_site_fract_y
_atom_site_fract_z
Si Si1 0.019819 0.321206 0.067396
Si Si2 0.819641 0.037690 0.428563
Si Si3 0.445556 0.047488 0.429125
Si Si4 0.286585 0.317656 0.078135
Si Si5 0.124505 0.818570 0.570480
Si Si6 0.705154 0.541922 0.432128
Si Si7 0.555611 0.815936 0.420936
Si Si8 0.939334 0.542204 0.068576
O O1 0.024251 0.319636 0.250000
O O2 0.046708 0.250000 0.000000
O O3 0.064342 0.382611 0.003084
O O4 0.944228 0.334134 0.015555
O O5 0.831389 0.020461 0.250000
O O6 0.826455 0.118248 0.457519
O O7 0.746093 0.016650 0.482092
O O8 0.871224 0.995859 0.531001
O O9 0.446936 0.038051 0.250000
O O10 0.370900 0.032291 0.489783
O O11 0.467310 0.122679 0.473201
O O12 0.500000 0.000000 0.500000
O O13 0.256874 0.324909 0.250000
O O14 0.365381 0.309689 0.086375
O O15 0.255917 0.250000 0.000000
O O16 0.267221 0.383980 0.979975
O O17 0.157062 0.750000 0.500000
O O18 0.109298 0.807514 0.750000
O O19 0.711941 0.534541 0.250000
O O20 0.524171 0.750000 0.500000
O O21 0.526101 0.824710 0.250000
O O22 0.949235 0.547909 0.250000
O O23 0.000000 0.500000 0.000000
#
# Coordination Sequence:
#
# PCOD8232499 Si02
#       8
#     8   8   8   8   8   8   8   8
#     4  11  21  35  56  81 112 147 185 231 278 327
#     4  11  23  38  57  82 112 146 183 226 277 331
#     4  10  20  34  54  80 109 142 181 226 276 330
#     4   9  16  28  48  73 102 137 176 217 260 310
#     4  10  20  34  55  81 109 139 181 228 274 325
#     4  10  21  36  54  79 110 144 183 226 274 328
#     4   9  16  27  46  73 104 136 172 215 261 312
#     4  12  23  37  57  82 111 145 184 226 275 326
#
# _framework density 18.579415999999998
#
# number of rings (size 3 to 8) (size 9 to 14) (size 15 to 20)
#    0.000    1.750    1.250    5.250    0.000    6.000 
#    0.000    0.625    0.000    0.750    0.000    1.750 
#    0.000    0.000    0.000    0.000    0.000    0.000 
#
# Total GULP energy -793656.858286 kJ/mol
# GULP energy per Si atom -12400.888411 kJ/mol
# Density = 1.853713 g / cm^3
# Si number density = 18.579416 Si / 1000 Ang^3
#
#
#
# Elastic Constant Matrix: (Units=GPa)
#
#
# Indices 1 2 3 4 5 6 
#
# 1 59.5698 51.5495 28.9800 0.0000 0.0000 0.0000
# 2 51.5495 146.4899 52.7668 0.0000 0.0000 0.0000
# 3 28.9800 52.7668 121.4308 0.0000 0.0000 0.0000
# 4 0.0000 0.0000 0.0000 38.4511 0.0000 0.0000
# 5 0.0000 0.0000 0.0000 0.0000 24.2350 0.0000
# 6 0.0000 0.0000 0.0000 0.0000 0.0000 19.2150
#
#
#
# Elastic Compliance Matrix: (Units=1/GPa)
#
#
# Indices 1 2 3 4 5 6 
#
# 1 0.024770 -0.007810 -0.002518 0.000000 0.000000 0.000000
# 2 -0.007810 0.010555 -0.002723 0.000000 0.000000 0.000000
# 3 -0.002518 -0.002723 0.010019 0.000000 0.000000 0.000000
# 4 0.000000 0.000000 0.000000 0.026007 0.000000 0.000000
# 5 0.000000 0.000000 0.000000 0.000000 0.041263 0.000000
# 6 0.000000 0.000000 0.000000 0.000000 0.000000 0.052043
#
#
# Mechanical properties :
#
#
# Convention : Reuss Voigt Hill
#
# Bulk Modulus (GPa) = 51.96453 66.00924 58.98688
# Shear Modulus (GPa) = 25.35848 29.32650 27.34249
#
# Velocity S-wave (km/s) = 3.69842 3.97727 3.84038
# Velocity P-wave (km/s) = 6.80201 7.52973 7.17510
#
# Compressibility (1/GPa) = 0.01924390
#
# Stress axis : x y z
#
# Youngs Moduli (GPa) = 40.37124 94.73795 99.80730
#
# Poissons Ratio (x) = 0.73986 0.25130
# Poissons Ratio (y) = 0.31528 0.27177
# Poissons Ratio (z) = 0.10165 0.25797
#
# Static dielectric constant tensor:
#      x y z
#    x 3.102980 0.000000 0.000000 
#    y 0.000000 3.816630 0.000000 
#    z 0.000000 0.000000 3.603820 
# 
# 
# High freq. dielectric constant tensor:
#      x y z
#    x 1.671770 0.000000 0.000000 
#    y 0.000000 1.733440 0.000000 
#    z 0.000000 0.000000 1.741630 
# 
# From -- ./inp_files/8631.got.cif
#   From: 2010.03.12/outbox.cif.g09.slc.cpg/sg57_5_cif.got.tgz:8631.got - 2010.04.16 15:48:40.
