data_PCOD8232386
_publ_section_title
;
Structure prediction by ZEFSAII (Michael W. Deem and Ramdas Pophale) SiO2 
 PCOD8232386
Probable space group: P B C M
;
_chemical_formula_sum "Si O2"
_cell_formula_units_Z 48
_cell_length_a 16.115259
_cell_length_b 18.443134
_cell_length_c 9.162423
_cell_angle_alpha 90.000000
_cell_angle_beta 90.000000
_cell_angle_gamma 90.000000
_cell_volume 2723.217626
_symmetry_space_group_name_H-M "P B C M"
_symmetry_group_IT_number 57
_symmetry_cell_setting 'orthorhombic'
loop_
_space_group_symop_operation_xyz
x,y,z
-x,-y,1/2+z
x,1/2-y,-z
-x,1/2+y,1/2-z
-x,-y,-z
x,y,1/2-z
-x,1/2+y,z
x,1/2-y,1/2+z
loop_
_atom_site_type_symbol
_atom_site_label
_atom_site_fract_x
_atom_site_fract_y
_atom_site_fract_z
Si Si1 0.082647 0.526524 0.423156
Si Si2 0.836332 0.176464 0.081920
Si Si3 0.238523 0.034327 0.421679
Si Si4 0.666778 0.678264 0.080518
Si Si5 0.675889 0.088889 0.419496
Si Si6 0.519537 0.321440 0.580649
O O1 0.077018 0.514883 0.250000
O O2 0.101191 0.610829 0.461199
O O3 0.155283 0.476553 0.486839
O O4 0.000000 0.500000 0.500000
O O5 0.845943 0.195244 0.250000
O O6 0.742386 0.152142 0.044647
O O7 0.860796 0.250000 0.000000
O O8 0.222316 0.022960 0.250000
O O9 0.270358 0.114442 0.457948
O O10 0.308891 0.979034 0.475828
O O11 0.666896 0.696050 0.250000
O O12 0.573282 0.656506 0.030286
O O13 0.698372 0.750000 0.000000
O O14 0.686121 0.065807 0.250000
O O15 0.583124 0.114333 0.457101
O O16 0.550588 0.250000 0.500000
O O17 0.522989 0.303211 0.750000
#
# Coordination Sequence:
#
# PCOD8232386 Si02
#       6
#     8   8   8   8   8   8
#     4  10  21  38  58  80 104 131 164 203 250 303
#     4   9  18  31  49  75 104 131 162 199 241 293
#     4  10  20  34  52  75 101 130 167 208 251 302
#     4   9  19  34  51  72  99 133 174 217 256 295
#     4   9  18  31  47  71 103 136 169 208 252 298
#     4   9  17  30  47  69 100 136 174 215 255 294
#
# _framework density 17.626208999999999
#
# number of rings (size 3 to 8) (size 9 to 14) (size 15 to 20)
#    0.000    2.667    0.000    2.500    0.000    6.000 
#    0.000    0.833    0.000    0.000    0.000    0.000 
#    0.000    0.000    0.000    0.000    0.000    0.000 
#
# Total GULP energy -595145.828051 kJ/mol
# GULP energy per Si atom -12398.871418 kJ/mol
# Density = 1.758609 g / cm^3
# Si number density = 17.626209 Si / 1000 Ang^3
#
#
#
# Elastic Constant Matrix: (Units=GPa)
#
#
# Indices 1 2 3 4 5 6 
#
# 1 94.6014 72.7278 53.9893 0.0000 0.0000 0.0000
# 2 72.7278 132.2690 68.2056 0.0000 0.0000 0.0000
# 3 53.9893 68.2056 75.2578 0.0000 0.0000 0.0000
# 4 0.0000 0.0000 0.0000 35.6024 0.0000 0.0000
# 5 0.0000 0.0000 0.0000 0.0000 28.3622 0.0000
# 6 0.0000 0.0000 0.0000 0.0000 0.0000 17.0141
#
#
#
# Elastic Compliance Matrix: (Units=1/GPa)
#
#
# Indices 1 2 3 4 5 6 
#
# 1 0.020907 -0.007062 -0.008598 0.000000 0.000000 0.000000
# 2 -0.007062 0.016579 -0.009959 0.000000 0.000000 0.000000
# 3 -0.008598 -0.009959 0.028482 0.000000 0.000000 0.000000
# 4 0.000000 0.000000 0.000000 0.028088 0.000000 0.000000
# 5 0.000000 0.000000 0.000000 0.000000 0.035258 0.000000
# 6 0.000000 0.000000 0.000000 0.000000 0.000000 0.058775
#
#
# Mechanical properties :
#
#
# Convention : Reuss Voigt Hill
#
# Bulk Modulus (GPa) = 67.89337 76.88596 72.38966
# Shear Modulus (GPa) = 20.47196 23.34276 21.90736
#
# Velocity S-wave (km/s) = 3.41170 3.64307 3.52928
# Velocity P-wave (km/s) = 7.35674 7.83651 7.60041
#
# Compressibility (1/GPa) = 0.01472898
#
# Stress axis : x y z
#
# Youngs Moduli (GPa) = 47.83162 60.31816 35.10995
#
# Poissons Ratio (x) = 0.42595 0.30189
# Poissons Ratio (y) = 0.33777 0.34967
# Poissons Ratio (z) = 0.41127 0.60072
#
# Static dielectric constant tensor:
#      x y z
#    x 3.305940 0.000000 0.000000 
#    y 0.000000 3.185440 0.000000 
#    z 0.000000 0.000000 3.300660 
# 
# 
# High freq. dielectric constant tensor:
#      x y z
#    x 1.674860 0.000000 0.000000 
#    y 0.000000 1.674250 0.000000 
#    z 0.000000 0.000000 1.685580 
# 
# From -- ./inp_files/6540.got.cif
#   From: 2010.03.12/outbox.cif.g09.slc.cpg/sg57_4_cif.got.tgz:6540.got - 2010.04.16 15:48:40.
