data_PCOD8232464
_publ_section_title
;
Structure prediction by ZEFSAII (Michael W. Deem and Ramdas Pophale) SiO2 
 PCOD8232464
Probable space group: P B C M
;
_chemical_formula_sum "Si O2"
_cell_formula_units_Z 60
_cell_length_a 8.563050
_cell_length_b 28.422687
_cell_length_c 12.365126
_cell_angle_alpha 90.000000
_cell_angle_beta 90.000000
_cell_angle_gamma 90.000000
_cell_volume 3009.484830
_symmetry_space_group_name_H-M "P B C M"
_symmetry_group_IT_number 57
_symmetry_cell_setting 'orthorhombic'
loop_
_space_group_symop_operation_xyz
x,y,z
-x,-y,1/2+z
x,1/2-y,-z
-x,1/2+y,1/2-z
-x,-y,-z
x,y,1/2-z
-x,1/2+y,z
x,1/2-y,1/2+z
loop_
_atom_site_type_symbol
_atom_site_label
_atom_site_fract_x
_atom_site_fract_y
_atom_site_fract_z
Si Si1 0.246589 0.490800 0.969193
Si Si2 0.538723 0.327340 0.879562
Si Si3 0.368701 0.393908 0.033301
Si Si4 0.949076 0.446726 0.627630
Si Si5 0.131093 0.177364 0.880011
Si Si6 0.332915 0.580304 0.868815
Si Si7 0.347662 0.250000 0.000000
Si Si8 0.859798 0.357374 0.518192
O O1 0.355992 0.525481 0.899735
O O2 0.119582 0.467212 0.891788
O O3 0.349105 0.449036 0.016235
O O4 0.175803 0.522136 0.064345
O O5 0.541982 0.328217 0.750000
O O6 0.428698 0.369831 0.921940
O O7 0.460363 0.279840 0.922821
O O8 0.716550 0.329985 0.924611
O O9 0.216271 0.371251 0.087644
O O10 0.508759 0.389700 0.119344
O O11 0.899283 0.453195 0.750000
O O12 0.952151 0.390178 0.603881
O O13 0.100420 0.180590 0.750000
O O14 0.970841 0.178718 0.950934
O O15 0.239990 0.220042 0.918822
O O16 0.268791 0.584357 0.750000
O O17 0.195342 0.603182 0.935809
#
# Coordination Sequence:
#
# PCOD8232464 Si02
#       8
#     8   8   8   8   8   8   4   8
#     4  10  20  35  50  83 120 155 208 253 281 348
#     4  10  22  42  66  88 120 159 190 244 308 360
#     4  10  21  38  57  87 119 154 208 253 287 358
#     4  10  20  34  53  80 121 162 197 249 299 335
#     4  11  22  41  66  89 120 155 190 247 307 356
#     4  10  20  34  54  81 118 161 200 243 293 337
#     4  10  24  44  64  96 122 142 194 240 296 386
#     4  10  21  39  59  89 119 149 205 240 284 362
#
# _framework density 19.936969000000001
#
# number of rings (size 3 to 8) (size 9 to 14) (size 15 to 20)
#    0.000    1.867    1.333    2.400    0.000    2.667 
#    0.000    5.333    0.000    0.000    0.000    0.000 
#    0.000    0.000    0.000    0.000    0.000    0.000 
#
# Total GULP energy -743633.721867 kJ/mol
# GULP energy per Si atom -12393.895364 kJ/mol
# Density = 1.989159 g / cm^3
# Si number density = 19.936969 Si / 1000 Ang^3
#
#
#
# Elastic Constant Matrix: (Units=GPa)
#
#
# Indices 1 2 3 4 5 6 
#
# 1 91.5539 37.7632 45.9078 0.0000 0.0000 0.0000
# 2 37.7632 95.4415 40.7543 0.0000 0.0000 0.0000
# 3 45.9078 40.7543 135.4995 0.0000 0.0000 0.0000
# 4 0.0000 0.0000 0.0000 20.1567 0.0000 0.0000
# 5 0.0000 0.0000 0.0000 0.0000 12.4141 0.0000
# 6 0.0000 0.0000 0.0000 0.0000 0.0000 23.6124
#
#
#
# Elastic Compliance Matrix: (Units=1/GPa)
#
#
# Indices 1 2 3 4 5 6 
#
# 1 0.014472 -0.004168 -0.003650 0.000000 0.000000 0.000000
# 2 -0.004168 0.013222 -0.002565 0.000000 0.000000 0.000000
# 3 -0.003650 -0.002565 0.009388 0.000000 0.000000 0.000000
# 4 0.000000 0.000000 0.000000 0.049611 0.000000 0.000000
# 5 0.000000 0.000000 0.000000 0.000000 0.080554 0.000000
# 6 0.000000 0.000000 0.000000 0.000000 0.000000 0.042351
#
#
# Mechanical properties :
#
#
# Convention : Reuss Voigt Hill
#
# Bulk Modulus (GPa) = 61.28349 63.48283 62.38316
# Shear Modulus (GPa) = 21.20444 24.44128 22.82286
#
# Velocity S-wave (km/s) = 3.26479 3.50512 3.38709
# Velocity P-wave (km/s) = 6.70948 6.94925 6.83042
#
# Compressibility (1/GPa) = 0.01631761
#
# Stress axis : x y z
#
# Youngs Moduli (GPa) = 69.10133 75.63294 106.51924
#
# Poissons Ratio (x) = 0.31520 0.38874
# Poissons Ratio (y) = 0.28798 0.27319
# Poissons Ratio (z) = 0.25219 0.19398
#
# Static dielectric constant tensor:
#      x y z
#    x 3.662740 0.000000 0.000000 
#    y 0.000000 3.673440 0.000000 
#    z 0.000000 0.000000 3.556440 
# 
# 
# High freq. dielectric constant tensor:
#      x y z
#    x 1.782110 0.000000 0.000000 
#    y 0.000000 1.774950 0.000000 
#    z 0.000000 0.000000 1.775100 
# 
# From -- ./inp_files/12179.got.cif
#   From: 2010.03.12/outbox.cif.g09.slc.cpg/sg57_7_cif.got.tgz:12179.got - 2010.04.16 15:48:40.
