data_PCOD8232697
_publ_section_title
;
Structure prediction by ZEFSAII (Michael W. Deem and Ramdas Pophale) SiO2 
 PCOD8232697
Probable space group: P B C M
;
_chemical_formula_sum "Si O2"
_cell_formula_units_Z 56
_cell_length_a 23.634892
_cell_length_b 13.614358
_cell_length_c 8.879204
_cell_angle_alpha 90.000000
_cell_angle_beta 90.000000
_cell_angle_gamma 90.000000
_cell_volume 2857.095931
_symmetry_space_group_name_H-M "P B C M"
_symmetry_group_IT_number 57
_symmetry_cell_setting 'orthorhombic'
loop_
_space_group_symop_operation_xyz
x,y,z
-x,-y,1/2+z
x,1/2-y,-z
-x,1/2+y,1/2-z
-x,-y,-z
x,y,1/2-z
-x,1/2+y,z
x,1/2-y,1/2+z
loop_
_atom_site_type_symbol
_atom_site_label
_atom_site_fract_x
_atom_site_fract_y
_atom_site_fract_z
Si Si1 0.467700 0.354357 0.425748
Si Si2 0.083272 0.549046 0.073715
Si Si3 0.187694 0.644083 0.928055
Si Si4 0.411197 0.855816 0.072643
Si Si5 0.301151 0.965025 0.072815
Si Si6 0.344277 0.144360 0.572624
Si Si7 0.978615 0.850242 0.073660
O O1 0.472854 0.250000 0.500000
O O2 0.465632 0.335413 0.250000
O O3 0.527602 0.409375 0.466566
O O4 0.406988 0.400123 0.473856
O O5 0.087716 0.571640 0.250000
O O6 0.066744 0.436005 0.042589
O O7 0.142761 0.567192 0.993466
O O8 0.037787 0.622998 0.003516
O O9 0.180431 0.652410 0.750000
O O10 0.249080 0.603515 0.974524
O O11 0.178242 0.750000 0.000000
O O12 0.404048 0.842873 0.250000
O O13 0.358674 0.917017 0.008946
O O14 0.408451 0.750000 0.000000
O O15 0.302417 0.982633 0.250000
O O16 0.296908 0.070879 0.992437
O O17 0.334539 0.250000 0.500000
O O18 0.336719 0.154314 0.750000
O O19 0.989066 0.835058 0.250000
O O20 0.955073 0.750000 0.000000
#
# Coordination Sequence:
#
# PCOD8232697 Si02
#       7
#     8   8   8   8   8   8   8
#     4   8  15  28  47  72  99 129 165 208 263 323
#     4  10  21  37  58  85 117 154 194 230 270 321
#     4  11  23  39  59  82 111 146 184 226 269 316
#     4   9  17  31  50  73 104 136 169 213 265 322
#     4  10  22  37  53  76 105 139 178 221 269 318
#     4  10  20  35  55  76 100 132 172 219 270 326
#     4  10  20  35  58  88 121 154 187 228 275 321
#
# _framework density 19.600321000000001
#
# number of rings (size 3 to 8) (size 9 to 14) (size 15 to 20)
#    0.000    2.286    0.000    2.571    0.000    4.571 
#    0.000    0.714    0.000    1.714    0.000    0.000 
#    0.000    0.000    0.000    0.000    0.000    0.000 
#
# Total GULP energy -694036.873842 kJ/mol
# GULP energy per Si atom -12393.515604 kJ/mol
# Density = 1.955571 g / cm^3
# Si number density = 19.600321 Si / 1000 Ang^3
#
#
#
# Elastic Constant Matrix: (Units=GPa)
#
#
# Indices 1 2 3 4 5 6 
#
# 1 91.1800 52.8238 47.8462 0.0000 0.0000 0.0000
# 2 52.8238 98.8046 41.8607 0.0000 0.0000 0.0000
# 3 47.8462 41.8607 67.1344 0.0000 0.0000 0.0000
# 4 0.0000 0.0000 0.0000 33.1328 0.0000 0.0000
# 5 0.0000 0.0000 0.0000 0.0000 28.9364 0.0000
# 6 0.0000 0.0000 0.0000 0.0000 0.0000 27.1805
#
#
#
# Elastic Compliance Matrix: (Units=1/GPa)
#
#
# Indices 1 2 3 4 5 6 
#
# 1 0.020076 -0.006348 -0.010350 0.000000 0.000000 0.000000
# 2 -0.006348 0.015762 -0.005304 0.000000 0.000000 0.000000
# 3 -0.010350 -0.005304 0.025579 0.000000 0.000000 0.000000
# 4 0.000000 0.000000 0.000000 0.030182 0.000000 0.000000
# 5 0.000000 0.000000 0.000000 0.000000 0.034559 0.000000
# 6 0.000000 0.000000 0.000000 0.000000 0.000000 0.036791
#
#
# Mechanical properties :
#
#
# Convention : Reuss Voigt Hill
#
# Bulk Modulus (GPa) = 57.42748 60.24227 58.83488
# Shear Modulus (GPa) = 23.50110 25.48916 24.49513
#
# Velocity S-wave (km/s) = 3.46644 3.61008 3.53899
# Velocity P-wave (km/s) = 6.73680 6.94111 6.83972
#
# Compressibility (1/GPa) = 0.01741327
#
# Stress axis : x y z
#
# Youngs Moduli (GPa) = 49.81052 63.44340 39.09514
#
# Poissons Ratio (x) = 0.40277 0.40462
# Poissons Ratio (y) = 0.31622 0.20735
# Poissons Ratio (z) = 0.51552 0.33649
#
# Static dielectric constant tensor:
#      x y z
#    x 3.780240 0.000000 0.000000 
#    y 0.000000 3.412940 0.000000 
#    z 0.000000 0.000000 3.400520 
# 
# 
# High freq. dielectric constant tensor:
#      x y z
#    x 1.758800 0.000000 0.000000 
#    y 0.000000 1.758700 0.000000 
#    z 0.000000 0.000000 1.768770 
# 
# From -- ./inp_files/8040.got.cif
#   From: 2010.03.12/outbox.cif.g09.slc.cpg/sg57_5_cif.got.tgz:8040.got - 2010.04.16 15:48:40.
