data_PCOD8232013
_publ_section_title
;
Structure prediction by ZEFSAII (Michael W. Deem and Ramdas Pophale) SiO2 
 PCOD8232013
Probable space group: P B C M
;
_chemical_formula_sum "Si O2"
_cell_formula_units_Z 64
_cell_length_a 16.152608
_cell_length_b 9.452592
_cell_length_c 20.441656
_cell_angle_alpha 90.000000
_cell_angle_beta 90.000000
_cell_angle_gamma 90.000000
_cell_volume 3121.114074
_symmetry_space_group_name_H-M "P B C M"
_symmetry_group_IT_number 57
_symmetry_cell_setting 'orthorhombic'
loop_
_space_group_symop_operation_xyz
x,y,z
-x,-y,1/2+z
x,1/2-y,-z
-x,1/2+y,1/2-z
-x,-y,-z
x,y,1/2-z
-x,1/2+y,z
x,1/2-y,1/2+z
loop_
_atom_site_type_symbol
_atom_site_label
_atom_site_fract_x
_atom_site_fract_y
_atom_site_fract_z
Si Si1 0.609643 0.401779 0.473876
Si Si2 0.315418 0.278648 0.326848
Si Si3 0.189800 0.003594 0.878879
Si Si4 0.790637 0.090355 0.518076
Si Si5 0.437510 0.142603 0.939038
Si Si6 0.871688 0.268144 0.321040
Si Si7 0.944543 0.802131 0.174053
Si Si8 0.176742 0.443833 0.856838
O O1 0.590570 0.250000 0.500000
O O2 0.701525 0.404376 0.443996
O O3 0.612442 0.506739 0.536053
O O4 0.531173 0.419614 0.424222
O O5 0.340487 0.266657 0.250000
O O6 0.259474 0.418122 0.336034
O O7 0.396957 0.291154 0.373143
O O8 0.263232 0.141169 0.349718
O O9 0.185306 0.837710 0.862231
O O10 0.100948 0.075521 0.866861
O O11 0.212173 0.011139 0.955156
O O12 0.821497 0.250000 0.500000
O O13 0.845296 0.005837 0.570715
O O14 0.433819 0.250000 0.000000
O O15 0.884776 0.198919 0.250000
O O16 0.823111 0.416300 0.312192
O O17 0.962253 0.290022 0.353404
O O18 0.943882 0.846289 0.250000
O O19 0.899016 0.653339 0.164832
#
# Coordination Sequence:
#
# PCOD8232013 Si02
#       8
#     8   8   8   8   8   8   8   8
#     4   9  19  35  61  86 114 149 201 241 283 360
#     4  11  23  37  59  93 128 157 202 262 314 367
#     4  11  21  37  58  86 121 158 203 256 312 361
#     4  11  21  38  58  91 117 154 201 260 298 371
#     4  10  19  36  62  93 116 160 205 243 301 361
#     4  11  21  38  61  83 115 162 209 254 308 372
#     4  10  22  39  59  86 117 159 210 252 302 379
#     4  11  22  37  60  87 124 156 204 255 318 367
#
# _framework density 20.505496999999998
#
# number of rings (size 3 to 8) (size 9 to 14) (size 15 to 20)
#    0.000    1.500    2.500    4.500    0.000    3.500 
#    0.000    3.750    0.000   13.500    0.000    0.000 
#    0.000    0.000    0.000    0.000    0.000    0.000 
#
# Total GULP energy -792870.210270 kJ/mol
# GULP energy per Si atom -12388.597035 kJ/mol
# Density = 2.045883 g / cm^3
# Si number density = 20.505497 Si / 1000 Ang^3
#
#
#
# Elastic Constant Matrix: (Units=GPa)
#
#
# Indices 1 2 3 4 5 6 
#
# 1 76.1560 18.2730 37.9487 0.0000 0.0000 0.0000
# 2 18.2730 109.9829 27.8897 0.0000 0.0000 0.0000
# 3 37.9487 27.8897 118.2298 0.0000 0.0000 0.0000
# 4 0.0000 0.0000 0.0000 29.9140 0.0000 0.0000
# 5 0.0000 0.0000 0.0000 0.0000 24.2502 0.0000
# 6 0.0000 0.0000 0.0000 0.0000 0.0000 20.1468
#
#
#
# Elastic Compliance Matrix: (Units=1/GPa)
#
#
# Indices 1 2 3 4 5 6 
#
# 1 0.015839 -0.001428 -0.004747 0.000000 0.000000 0.000000
# 2 -0.001428 0.009800 -0.001853 0.000000 0.000000 0.000000
# 3 -0.004747 -0.001853 0.010419 0.000000 0.000000 0.000000
# 4 0.000000 0.000000 0.000000 0.033429 0.000000 0.000000
# 5 0.000000 0.000000 0.000000 0.000000 0.041237 0.000000
# 6 0.000000 0.000000 0.000000 0.000000 0.000000 0.049636
#
#
# Mechanical properties :
#
#
# Convention : Reuss Voigt Hill
#
# Bulk Modulus (GPa) = 49.99744 52.51018 51.25381
# Shear Modulus (GPa) = 27.31003 29.54599 28.42801
#
# Velocity S-wave (km/s) = 3.65340 3.80001 3.72743
# Velocity P-wave (km/s) = 6.49860 6.70201 6.60109
#
# Compressibility (1/GPa) = 0.02000102
#
# Stress axis : x y z
#
# Youngs Moduli (GPa) = 63.13526 102.04577 95.97846
#
# Poissons Ratio (x) = 0.14570 0.45562
# Poissons Ratio (y) = 0.09014 0.17788
# Poissons Ratio (z) = 0.29971 0.18913
#
# Static dielectric constant tensor:
#      x y z
#    x 3.950290 0.000000 0.000000 
#    y 0.000000 3.853190 0.000000 
#    z 0.000000 0.000000 3.618990 
# 
# 
# High freq. dielectric constant tensor:
#      x y z
#    x 1.792920 0.000000 0.000000 
#    y 0.000000 1.819350 0.000000 
#    z 0.000000 0.000000 1.777790 
# 
# From -- ./inp_files/25639.got.cif
#   From: 2010.03.12/outbox.cif.g09.slc.cpg/sg57_13_cif.got.tgz:25639.got - 2010.04.16 15:48:40.
