data_PCOD8232447
_publ_section_title
;
Structure prediction by ZEFSAII (Michael W. Deem and Ramdas Pophale) SiO2 
 PCOD8232447
Probable space group: P B C M
;
_chemical_formula_sum "Si O2"
_cell_formula_units_Z 48
_cell_length_a 31.163624
_cell_length_b 9.050580
_cell_length_c 8.634742
_cell_angle_alpha 90.000000
_cell_angle_beta 90.000000
_cell_angle_gamma 90.000000
_cell_volume 2435.419242
_symmetry_space_group_name_H-M "P B C M"
_symmetry_group_IT_number 57
_symmetry_cell_setting 'orthorhombic'
loop_
_space_group_symop_operation_xyz
x,y,z
-x,-y,1/2+z
x,1/2-y,-z
-x,1/2+y,1/2-z
-x,-y,-z
x,y,1/2-z
-x,1/2+y,z
x,1/2-y,1/2+z
loop_
_atom_site_type_symbol
_atom_site_label
_atom_site_fract_x
_atom_site_fract_y
_atom_site_fract_z
Si Si1 0.717303 0.912312 0.569338
Si Si2 0.538575 0.910492 0.430339
Si Si3 0.959909 0.087175 0.565658
Si Si4 0.880229 0.586851 0.565828
Si Si5 0.198174 0.913242 0.433193
Si Si6 0.631902 0.911782 0.069213
O O1 0.725557 0.750000 0.500000
O O2 0.713819 0.889937 0.750000
O O3 0.673143 0.990204 0.508469
O O4 0.755071 0.024230 0.524628
O O5 0.537540 0.750000 0.500000
O O6 0.530922 0.896352 0.250000
O O7 0.585304 0.986947 0.465314
O O8 0.500000 0.000000 0.500000
O O9 0.962204 0.250000 0.500000
O O10 0.961445 0.089339 0.750000
O O11 0.916310 0.014512 0.508753
O O12 0.000000 0.000000 0.500000
O O13 0.885314 0.750000 0.500000
O O14 0.884976 0.589367 0.750000
O O15 0.834618 0.521780 0.517569
O O16 0.193222 0.750000 0.500000
O O17 0.189375 0.912113 0.250000
O O18 0.640582 0.902431 0.250000
O O19 0.630080 0.750000 0.000000
#
# Coordination Sequence:
#
# PCOD8232447 Si02
#       6
#     8   8   8   8   8   8
#     4  10  20  34  56  83 110 142 184 230 280 334
#     4  10  20  34  53  78 107 142 182 228 278 334
#     4  12  25  44  67  95 129 166 206 250 299 352
#     4  12  25  43  66  93 123 159 201 247 295 347
#     4  11  24  41  60  86 118 155 194 237 289 345
#     4   9  17  30  51  77 105 138 179 224 275 330
#
# _framework density 19.709133000000001
#
# number of rings (size 3 to 8) (size 9 to 14) (size 15 to 20)
#    0.000    1.333    0.000    7.500    0.000    6.000 
#    0.000    0.833    0.000    2.000    0.000    0.000 
#    0.000    0.000    0.000    0.000    0.000    0.000 
#
# Total GULP energy -595079.511458 kJ/mol
# GULP energy per Si atom -12397.489822 kJ/mol
# Density = 1.966427 g / cm^3
# Si number density = 19.709133 Si / 1000 Ang^3
#
#
#
# Elastic Constant Matrix: (Units=GPa)
#
#
# Indices 1 2 3 4 5 6 
#
# 1 156.5730 53.3396 76.3203 0.0000 0.0000 0.0000
# 2 53.3396 103.7652 52.0536 0.0000 0.0000 0.0000
# 3 76.3203 52.0536 155.2440 0.0000 0.0000 0.0000
# 4 0.0000 0.0000 0.0000 33.9734 0.0000 0.0000
# 5 0.0000 0.0000 0.0000 0.0000 37.6492 0.0000
# 6 0.0000 0.0000 0.0000 0.0000 0.0000 31.1533
#
#
#
# Elastic Compliance Matrix: (Units=1/GPa)
#
#
# Indices 1 2 3 4 5 6 
#
# 1 0.009080 -0.002919 -0.003485 0.000000 0.000000 0.000000
# 2 -0.002919 0.012524 -0.002764 0.000000 0.000000 0.000000
# 3 -0.003485 -0.002764 0.009082 0.000000 0.000000 0.000000
# 4 0.000000 0.000000 0.000000 0.029435 0.000000 0.000000
# 5 0.000000 0.000000 0.000000 0.000000 0.026561 0.000000
# 6 0.000000 0.000000 0.000000 0.000000 0.000000 0.032099
#
#
# Mechanical properties :
#
#
# Convention : Reuss Voigt Hill
#
# Bulk Modulus (GPa) = 80.97879 86.55657 83.76768
# Shear Modulus (GPa) = 35.40200 36.14642 35.77421
#
# Velocity S-wave (km/s) = 4.24279 4.28716 4.26503
# Velocity P-wave (km/s) = 8.07327 8.27760 8.17608
#
# Compressibility (1/GPa) = 0.01234891
#
# Stress axis : x y z
#
# Youngs Moduli (GPa) = 110.13142 79.84360 110.11193
#
# Poissons Ratio (x) = 0.23308 0.38375
# Poissons Ratio (y) = 0.32150 0.30439
# Poissons Ratio (z) = 0.38381 0.22071
#
# Static dielectric constant tensor:
#      x y z
#    x 4.675350 0.000000 0.000000 
#    y 0.000000 3.385210 0.000000 
#    z 0.000000 0.000000 3.846590 
# 
# 
# High freq. dielectric constant tensor:
#      x y z
#    x 1.798590 0.000000 0.000000 
#    y 0.000000 1.746680 0.000000 
#    z 0.000000 0.000000 1.791150 
# 
# From -- ./inp_files/9960.got.cif
#   From: 2010.03.12/outbox.cif.g09.slc.cpg/sg57_5_cif.got.tgz:9960.got - 2010.04.16 15:48:40.
