data_PCOD8232240
_publ_section_title
;
Structure prediction by ZEFSAII (Michael W. Deem and Ramdas Pophale) SiO2 
 PCOD8232240
Probable space group: P B C M
;
_chemical_formula_sum "Si O2"
_cell_formula_units_Z 64
_cell_length_a 22.871393
_cell_length_b 15.267433
_cell_length_c 8.985049
_cell_angle_alpha 90.000000
_cell_angle_beta 90.000000
_cell_angle_gamma 90.000000
_cell_volume 3137.466440
_symmetry_space_group_name_H-M "P B C M"
_symmetry_group_IT_number 57
_symmetry_cell_setting 'orthorhombic'
loop_
_space_group_symop_operation_xyz
x,y,z
-x,-y,1/2+z
x,1/2-y,-z
-x,1/2+y,1/2-z
-x,-y,-z
x,y,1/2-z
-x,1/2+y,z
x,1/2-y,1/2+z
loop_
_atom_site_type_symbol
_atom_site_label
_atom_site_fract_x
_atom_site_fract_y
_atom_site_fract_z
Si Si1 0.352444 0.167423 0.576290
Si Si2 0.689031 0.023152 0.425871
Si Si3 0.809455 0.020649 0.574487
Si Si4 0.987566 0.909871 0.579918
Si Si5 0.887906 0.338853 0.578020
Si Si6 0.134378 0.338780 0.924081
Si Si7 0.424315 0.577932 0.917017
Si Si8 0.466158 0.120049 0.416727
O O1 0.319321 0.250000 0.500000
O O2 0.353767 0.182408 0.750000
O O3 0.418514 0.168374 0.516506
O O4 0.319605 0.078662 0.532798
O O5 0.689480 0.039100 0.250000
O O6 0.749761 0.052402 0.497916
O O7 0.637375 0.080632 0.496982
O O8 0.805799 0.036992 0.750000
O O9 0.861243 0.078136 0.506413
O O10 0.821998 0.918802 0.537772
O O11 0.974522 0.934393 0.750000
O O12 0.930228 0.862486 0.512936
O O13 0.042147 0.844678 0.563769
O O14 0.000000 0.000000 0.500000
O O15 0.866108 0.250000 0.500000
O O16 0.867945 0.338859 0.750000
O O17 0.132048 0.320560 0.750000
O O18 0.157640 0.250000 0.000000
O O19 0.415497 0.614915 0.750000
O O20 0.450674 0.481610 0.909396
O O21 0.470678 0.636786 0.007766
O O22 0.466869 0.159301 0.250000
#
# Coordination Sequence:
#
# PCOD8232240 Si02
#       8
#     8   8   8   8   8   8   8   8
#     4  10  20  33  50  74 107 146 187 233 282 338
#     4  10  21  36  54  77 106 143 190 237 284 337
#     4  11  23  40  60  83 116 154 199 250 296 348
#     4  10  20  36  59  88 120 154 191 236 292 351
#     4  11  23  39  63  91 118 152 193 241 297 354
#     4  10  22  38  57  84 118 156 196 238 290 349
#     4   9  16  28  48  74 101 131 170 215 268 324
#     4   9  16  27  46  72 102 133 168 214 266 321
#
# _framework density 20.398623000000001
#
# number of rings (size 3 to 8) (size 9 to 14) (size 15 to 20)
#    0.000    2.000    1.250    2.625    0.000    7.000 
#    0.000    2.500    0.000    0.750    0.000    5.250 
#    0.000    0.000    0.000    0.000    0.000    0.000 
#
# Total GULP energy -793668.557173 kJ/mol
# GULP energy per Si atom -12401.071206 kJ/mol
# Density = 2.035220 g / cm^3
# Si number density = 20.398623 Si / 1000 Ang^3
#
#
#
# Elastic Constant Matrix: (Units=GPa)
#
#
# Indices 1 2 3 4 5 6 
#
# 1 90.2191 -7.9054 29.6341 0.0000 0.0000 0.0000
# 2 -7.9054 53.6219 19.3264 0.0000 0.0000 0.0000
# 3 29.6341 19.3264 91.6925 0.0000 0.0000 0.0000
# 4 0.0000 0.0000 0.0000 32.0936 0.0000 0.0000
# 5 0.0000 0.0000 0.0000 0.0000 31.0071 0.0000
# 6 0.0000 0.0000 0.0000 0.0000 0.0000 10.7589
#
#
#
# Elastic Compliance Matrix: (Units=1/GPa)
#
#
# Indices 1 2 3 4 5 6 
#
# 1 0.013055 0.003729 -0.005005 0.000000 0.000000 0.000000
# 2 0.003729 0.021247 -0.005683 0.000000 0.000000 0.000000
# 3 -0.005005 -0.005683 0.013722 0.000000 0.000000 0.000000
# 4 0.000000 0.000000 0.000000 0.031159 0.000000 0.000000
# 5 0.000000 0.000000 0.000000 0.000000 0.032251 0.000000
# 6 0.000000 0.000000 0.000000 0.000000 0.000000 0.092946
#
#
# Mechanical properties :
#
#
# Convention : Reuss Voigt Hill
#
# Bulk Modulus (GPa) = 29.32226 35.29377 32.30802
# Shear Modulus (GPa) = 21.77067 27.73715 24.75391
#
# Velocity S-wave (km/s) = 3.27044 3.69149 3.48732
# Velocity P-wave (km/s) = 5.35415 5.95895 5.66462
#
# Compressibility (1/GPa) = 0.03410378
#
# Stress axis : x y z
#
# Youngs Moduli (GPa) = 76.59985 47.06495 72.87817
#
# Poissons Ratio (x) = -0.17549 0.36476
# Poissons Ratio (y) = -0.28561 0.41420
# Poissons Ratio (z) = 0.38339 0.26749
#
# Static dielectric constant tensor:
#      x y z
#    x 3.688620 0.000000 0.000000 
#    y 0.000000 3.504580 0.000000 
#    z 0.000000 0.000000 3.790640 
# 
# 
# High freq. dielectric constant tensor:
#      x y z
#    x 1.792360 0.000000 0.000000 
#    y 0.000000 1.776020 0.000000 
#    z 0.000000 0.000000 1.806030 
# 
# From -- ./inp_files/9482.got.cif
#   From: 2010.03.12/outbox.cif.g09.slc.cpg/sg57_5_cif.got.tgz:9482.got - 2010.04.16 15:48:40.
