data_PCOD8232880
_publ_section_title
;
Structure prediction by ZEFSAII (Michael W. Deem and Ramdas Pophale) SiO2 
 PCOD8232880
Probable space group: P B C M
;
_chemical_formula_sum "Si O2"
_cell_formula_units_Z 48
_cell_length_a 15.224813
_cell_length_b 17.743917
_cell_length_c 8.857778
_cell_angle_alpha 90.000000
_cell_angle_beta 90.000000
_cell_angle_gamma 90.000000
_cell_volume 2392.909401
_symmetry_space_group_name_H-M "P B C M"
_symmetry_group_IT_number 57
_symmetry_cell_setting 'orthorhombic'
loop_
_space_group_symop_operation_xyz
x,y,z
-x,-y,1/2+z
x,1/2-y,-z
-x,1/2+y,1/2-z
-x,-y,-z
x,y,1/2-z
-x,1/2+y,z
x,1/2-y,1/2+z
loop_
_atom_site_type_symbol
_atom_site_label
_atom_site_fract_x
_atom_site_fract_y
_atom_site_fract_z
Si Si1 0.519159 0.420523 0.927129
Si Si2 0.173853 0.599649 0.421664
Si Si3 0.669180 0.328729 0.072599
Si Si4 0.655230 0.668895 0.073291
Si Si5 0.190904 0.077226 0.574189
Si Si6 0.981484 0.921129 0.924506
O O1 0.533927 0.430919 0.750000
O O2 0.441585 0.361874 0.962841
O O3 0.500000 0.500000 0.000000
O O4 0.608247 0.392676 0.002679
O O5 0.204233 0.615270 0.250000
O O6 0.230420 0.650470 0.534626
O O7 0.187307 0.511660 0.459690
O O8 0.072179 0.625696 0.442628
O O9 0.655308 0.323782 0.250000
O O10 0.641902 0.250000 0.000000
O O11 0.672149 0.676136 0.250000
O O12 0.667387 0.750000 0.000000
O O13 0.724216 0.610322 0.006029
O O14 0.195463 0.095659 0.750000
O O15 0.102424 0.116657 0.507008
O O16 0.958057 0.933223 0.750000
O O17 0.000000 0.000000 0.000000
#
# Coordination Sequence:
#
# PCOD8232880 Si02
#       6
#     8   8   8   8   8   8
#     4  11  24  42  65  91 117 148 190 237 285 340
#     4   9  19  36  58  85 116 151 192 238 286 338
#     4  12  25  40  60  85 117 155 192 236 288 343
#     4  11  24  40  59  84 115 152 191 233 283 339
#     4  10  20  35  58  86 117 152 190 237 288 340
#     4   9  17  31  54  83 115 150 191 239 287 336
#
# _framework density 20.059263000000001
#
# number of rings (size 3 to 8) (size 9 to 14) (size 15 to 20)
#    0.000    1.667    0.000    6.000    0.000   10.667 
#    0.000    0.833    0.000    4.000    0.000    0.000 
#    0.000    0.000    0.000    0.000    0.000    0.000 
#
# Total GULP energy -595273.684198 kJ/mol
# GULP energy per Si atom -12401.535087 kJ/mol
# Density = 2.001361 g / cm^3
# Si number density = 20.059263 Si / 1000 Ang^3
#
#
#
# Elastic Constant Matrix: (Units=GPa)
#
#
# Indices 1 2 3 4 5 6 
#
# 1 91.8481 8.7981 52.2802 0.0000 0.0000 0.0000
# 2 8.7981 58.4581 31.9665 0.0000 0.0000 0.0000
# 3 52.2802 31.9665 126.0984 0.0000 0.0000 0.0000
# 4 0.0000 0.0000 0.0000 33.8309 0.0000 0.0000
# 5 0.0000 0.0000 0.0000 0.0000 38.9834 0.0000
# 6 0.0000 0.0000 0.0000 0.0000 0.0000 16.7539
#
#
#
# Elastic Compliance Matrix: (Units=1/GPa)
#
#
# Indices 1 2 3 4 5 6 
#
# 1 0.014331 0.001268 -0.006263 0.000000 0.000000 0.000000
# 2 0.001268 0.019971 -0.005589 0.000000 0.000000 0.000000
# 3 -0.006263 -0.005589 0.011944 0.000000 0.000000 0.000000
# 4 0.000000 0.000000 0.000000 0.029559 0.000000 0.000000
# 5 0.000000 0.000000 0.000000 0.000000 0.025652 0.000000
# 6 0.000000 0.000000 0.000000 0.000000 0.000000 0.059688
#
#
# Mechanical properties :
#
#
# Convention : Reuss Voigt Hill
#
# Bulk Modulus (GPa) = 39.87422 51.38824 45.63123
# Shear Modulus (GPa) = 26.22311 30.13761 28.18036
#
# Velocity S-wave (km/s) = 3.61956 3.88032 3.75221
# Velocity P-wave (km/s) = 6.11471 6.76385 6.44745
#
# Compressibility (1/GPa) = 0.02507886
#
# Stress axis : x y z
#
# Youngs Moduli (GPa) = 69.77864 50.07155 83.72624
#
# Poissons Ratio (x) = -0.06349 0.52438
# Poissons Ratio (y) = -0.08848 0.46791
# Poissons Ratio (z) = 0.43703 0.27983
#
# Static dielectric constant tensor:
#      x y z
#    x 4.165420 0.000000 0.000000 
#    y 0.000000 3.387000 0.000000 
#    z 0.000000 0.000000 3.892380 
# 
# 
# High freq. dielectric constant tensor:
#      x y z
#    x 1.803710 0.000000 0.000000 
#    y 0.000000 1.757790 0.000000 
#    z 0.000000 0.000000 1.796830 
# 
# From -- ./inp_files/4649.got.cif
#   From: 2010.03.12/outbox.cif.g09.slc.cpg/sg57_3_cif.got.tgz:4649.got - 2010.04.16 15:48:40.
