data_PCOD8232972
_publ_section_title
;
Structure prediction by ZEFSAII (Michael W. Deem and Ramdas Pophale) SiO2 
 PCOD8232972
Probable space group: P B C M
;
_chemical_formula_sum "Si O2"
_cell_formula_units_Z 64
_cell_length_a 21.051314
_cell_length_b 8.995692
_cell_length_c 17.239068
_cell_angle_alpha 90.000000
_cell_angle_beta 90.000000
_cell_angle_gamma 90.000000
_cell_volume 3264.581907
_symmetry_space_group_name_H-M "P B C M"
_symmetry_group_IT_number 57
_symmetry_cell_setting 'orthorhombic'
loop_
_space_group_symop_operation_xyz
x,y,z
-x,-y,1/2+z
x,1/2-y,-z
-x,1/2+y,1/2-z
-x,-y,-z
x,y,1/2-z
-x,1/2+y,z
x,1/2-y,1/2+z
loop_
_atom_site_type_symbol
_atom_site_label
_atom_site_fract_x
_atom_site_fract_y
_atom_site_fract_z
Si Si1 0.194957 0.126574 0.659331
Si Si2 0.429840 0.217020 0.160654
Si Si3 0.935708 0.206106 0.157809
Si Si4 0.554300 0.129074 0.838502
Si Si5 0.194625 0.696671 0.410709
Si Si6 0.699108 0.687807 0.417028
Si Si7 0.318006 0.835586 0.419160
Si Si8 0.944456 0.624019 0.659684
O O1 0.201007 0.078538 0.750000
O O2 0.245578 0.255201 0.640414
O O3 0.124689 0.198222 0.644851
O O4 0.201251 0.980825 0.604386
O O5 0.416691 0.259211 0.250000
O O6 0.488959 0.308377 0.124818
O O7 0.367216 0.257425 0.112239
O O8 0.446945 0.045833 0.151557
O O9 0.934455 0.211884 0.250000
O O10 0.868314 0.268085 0.127568
O O11 0.996213 0.290951 0.120851
O O12 0.942644 0.040537 0.125016
O O13 0.556611 0.180863 0.750000
O O14 0.616064 0.200994 0.877205
O O15 0.194019 0.750000 0.500000
O O16 0.257901 0.768595 0.372112
O O17 0.716585 0.750000 0.500000
O O18 0.694432 0.511201 0.423576
O O19 0.322562 0.750000 0.500000
O O20 0.959796 0.616991 0.750000
#
# Coordination Sequence:
#
# PCOD8232972 Si02
#       8
#     8   8   8   8   8   8   8   8
#     4  10  21  39  60  83 113 153 195 236 283 341
#     4   9  19  36  55  79 108 140 179 227 277 331
#     4   9  17  32  52  75 104 142 186 232 278 334
#     4   9  19  35  56  79 105 137 180 228 272 322
#     4  10  20  36  55  80 114 150 188 234 286 338
#     4  11  22  37  57  82 112 147 187 233 283 337
#     4  10  22  38  54  77 112 147 182 226 280 339
#     4   8  16  31  52  77 107 142 185 232 279 332
#
# _framework density 19.604348000000002
#
# number of rings (size 3 to 8) (size 9 to 14) (size 15 to 20)
#    0.000    2.500    0.000    3.000    0.000    5.000 
#    0.000    8.125    0.000    0.000    0.000    0.000 
#    0.000    0.000    0.000    0.000    0.000    0.000 
#
# Total GULP energy -793086.093627 kJ/mol
# GULP energy per Si atom -12391.970213 kJ/mol
# Density = 1.955973 g / cm^3
# Si number density = 19.604348 Si / 1000 Ang^3
#
#
#
# Elastic Constant Matrix: (Units=GPa)
#
#
# Indices 1 2 3 4 5 6 
#
# 1 144.8490 33.6761 31.0557 0.0000 0.0000 0.0000
# 2 33.6761 51.3197 24.1657 0.0000 0.0000 0.0000
# 3 31.0557 24.1657 49.5787 0.0000 0.0000 0.0000
# 4 0.0000 0.0000 0.0000 21.1750 0.0000 0.0000
# 5 0.0000 0.0000 0.0000 0.0000 22.3831 0.0000
# 6 0.0000 0.0000 0.0000 0.0000 0.0000 40.5903
#
#
#
# Elastic Compliance Matrix: (Units=1/GPa)
#
#
# Indices 1 2 3 4 5 6 
#
# 1 0.008569 -0.004017 -0.003409 0.000000 0.000000 0.000000
# 2 -0.004017 0.027174 -0.010729 0.000000 0.000000 0.000000
# 3 -0.003409 -0.010729 0.027535 0.000000 0.000000 0.000000
# 4 0.000000 0.000000 0.000000 0.047226 0.000000 0.000000
# 5 0.000000 0.000000 0.000000 0.000000 0.044677 0.000000
# 6 0.000000 0.000000 0.000000 0.000000 0.000000 0.024636
#
#
# Mechanical properties :
#
#
# Convention : Reuss Voigt Hill
#
# Bulk Modulus (GPa) = 37.08255 47.06029 42.07142
# Shear Modulus (GPa) = 22.21081 27.28631 24.74856
#
# Velocity S-wave (km/s) = 3.36959 3.73480 3.55688
# Velocity P-wave (km/s) = 5.83912 6.53111 6.19479
#
# Compressibility (1/GPa) = 0.02696686
#
# Stress axis : x y z
#
# Youngs Moduli (GPa) = 116.70382 36.80001 36.31767
#
# Poissons Ratio (x) = 0.14784 0.12381
# Poissons Ratio (y) = 0.46885 0.38964
# Poissons Ratio (z) = 0.39786 0.39481
#
# Static dielectric constant tensor:
#      x y z
#    x 4.222290 0.000000 0.000000 
#    y 0.000000 3.543290 0.000000 
#    z 0.000000 0.000000 3.327280 
# 
# 
# High freq. dielectric constant tensor:
#      x y z
#    x 1.792640 0.000000 0.000000 
#    y 0.000000 1.751470 0.000000 
#    z 0.000000 0.000000 1.736520 
# 
# From -- ./inp_files/23030.got.cif
#   From: 2010.03.12/outbox.cif.g09.slc.cpg/sg57_12_cif.got.tgz:23030.got - 2010.04.16 15:48:40.
