data_PCOD8232669
_publ_section_title
;
Structure prediction by ZEFSAII (Michael W. Deem and Ramdas Pophale) SiO2 
 PCOD8232669
Probable space group: P B C M
;
_chemical_formula_sum "Si O2"
_cell_formula_units_Z 48
_cell_length_a 18.085937
_cell_length_b 15.219481
_cell_length_c 9.334713
_cell_angle_alpha 90.000000
_cell_angle_beta 90.000000
_cell_angle_gamma 90.000000
_cell_volume 2569.459794
_symmetry_space_group_name_H-M "P B C M"
_symmetry_group_IT_number 57
_symmetry_cell_setting 'orthorhombic'
loop_
_space_group_symop_operation_xyz
x,y,z
-x,-y,1/2+z
x,1/2-y,-z
-x,1/2+y,1/2-z
-x,-y,-z
x,y,1/2-z
-x,1/2+y,z
x,1/2-y,1/2+z
loop_
_atom_site_type_symbol
_atom_site_label
_atom_site_fract_x
_atom_site_fract_y
_atom_site_fract_z
Si Si1 0.162430 0.980599 0.915616
Si Si2 0.605365 0.833260 0.412188
Si Si3 0.666458 0.480378 0.915783
Si Si4 0.460243 0.576409 0.914587
Si Si5 0.098454 0.165782 0.585307
Si Si6 0.072713 0.837003 0.418322
O O1 0.139742 0.963903 0.750000
O O2 0.248115 0.960338 0.941289
O O3 0.146250 0.081182 0.958267
O O4 0.116231 0.919630 0.020419
O O5 0.633901 0.750000 0.500000
O O6 0.629888 0.816754 0.250000
O O7 0.515664 0.840592 0.424334
O O8 0.646083 0.921210 0.468746
O O9 0.643919 0.470183 0.750000
O O10 0.619290 0.409168 0.008419
O O11 0.447221 0.549328 0.750000
O O12 0.500000 0.500000 0.000000
O O13 0.128326 0.250000 0.500000
O O14 0.108870 0.189451 0.750000
O O15 0.013171 0.146085 0.549080
O O16 0.100466 0.750000 0.500000
O O17 0.088897 0.826639 0.250000
#
# Coordination Sequence:
#
# PCOD8232669 Si02
#       6
#     8   8   8   8   8   8
#     4  10  20  35  54  77 108 143 175 215 269 320
#     4   9  18  31  48  72  98 125 159 199 242 291
#     4   9  19  34  50  71 101 133 164 202 251 304
#     4   9  17  31  50  70  93 123 161 200 238 285
#     4   9  19  34  53  78 108 141 177 220 267 315
#     4  10  20  35  55  78 103 135 179 226 269 317
#
# _framework density 18.680969999999999
#
# number of rings (size 3 to 8) (size 9 to 14) (size 15 to 20)
#    0.000    2.667    0.000    2.500    0.000    6.000 
#    0.000    0.833    0.000    2.000    0.000    0.000 
#    0.000    0.000    0.000    0.000    0.000    0.000 
#
# Total GULP energy -595082.364423 kJ/mol
# GULP energy per Si atom -12397.549259 kJ/mol
# Density = 1.863845 g / cm^3
# Si number density = 18.680970 Si / 1000 Ang^3
#
#
#
# Elastic Constant Matrix: (Units=GPa)
#
#
# Indices 1 2 3 4 5 6 
#
# 1 49.1481 2.6787 23.2609 0.0000 0.0000 0.0000
# 2 2.6787 37.5983 22.3377 0.0000 0.0000 0.0000
# 3 23.2609 22.3377 76.8777 0.0000 0.0000 0.0000
# 4 0.0000 0.0000 0.0000 36.1168 0.0000 0.0000
# 5 0.0000 0.0000 0.0000 0.0000 22.8407 0.0000
# 6 0.0000 0.0000 0.0000 0.0000 0.0000 13.0719
#
#
#
# Elastic Compliance Matrix: (Units=1/GPa)
#
#
# Indices 1 2 3 4 5 6 
#
# 1 0.024053 0.003155 -0.008194 0.000000 0.000000 0.000000
# 2 0.003155 0.032560 -0.010415 0.000000 0.000000 0.000000
# 3 -0.008194 -0.010415 0.018513 0.000000 0.000000 0.000000
# 4 0.000000 0.000000 0.000000 0.027688 0.000000 0.000000
# 5 0.000000 0.000000 0.000000 0.000000 0.043781 0.000000
# 6 0.000000 0.000000 0.000000 0.000000 0.000000 0.076500
#
#
# Mechanical properties :
#
#
# Convention : Reuss Voigt Hill
#
# Bulk Modulus (GPa) = 22.61595 28.90873 25.76234
# Shear Modulus (GPa) = 18.60506 22.09567 20.35036
#
# Velocity S-wave (km/s) = 3.15927 3.44290 3.30413
# Velocity P-wave (km/s) = 5.04387 5.59583 5.32701
#
# Compressibility (1/GPa) = 0.04421657
#
# Stress axis : x y z
#
# Youngs Moduli (GPa) = 41.57499 30.71256 54.01526
#
# Poissons Ratio (x) = -0.09689 0.44262
# Poissons Ratio (y) = -0.13116 0.56258
# Poissons Ratio (z) = 0.34068 0.31988
#
# Static dielectric constant tensor:
#      x y z
#    x 3.626730 0.000000 0.000000 
#    y 0.000000 3.301780 0.000000 
#    z 0.000000 0.000000 3.555180 
# 
# 
# High freq. dielectric constant tensor:
#      x y z
#    x 1.720660 0.000000 0.000000 
#    y 0.000000 1.705000 0.000000 
#    z 0.000000 0.000000 1.727540 
# 
# From -- ./inp_files/6562.got.cif
#   From: 2010.03.12/outbox.cif.g09.slc.cpg/sg57_4_cif.got.tgz:6562.got - 2010.04.16 15:48:40.
