data_PCOD8233033
_publ_section_title
;
Structure prediction by ZEFSAII (Michael W. Deem and Ramdas Pophale) SiO2 
 PCOD8233033
Probable space group: P B C M
;
_chemical_formula_sum "Si O2"
_cell_formula_units_Z 48
_cell_length_a 10.001182
_cell_length_b 29.677729
_cell_length_c 8.736514
_cell_angle_alpha 90.000000
_cell_angle_beta 90.000000
_cell_angle_gamma 90.000000
_cell_volume 2593.105418
_symmetry_space_group_name_H-M "P B C M"
_symmetry_group_IT_number 57
_symmetry_cell_setting 'orthorhombic'
loop_
_space_group_symop_operation_xyz
x,y,z
-x,-y,1/2+z
x,1/2-y,-z
-x,1/2+y,1/2-z
-x,-y,-z
x,y,1/2-z
-x,1/2+y,z
x,1/2-y,1/2+z
loop_
_atom_site_type_symbol
_atom_site_label
_atom_site_fract_x
_atom_site_fract_y
_atom_site_fract_z
Si Si1 0.900056 0.364428 0.924787
Si Si2 0.394572 0.966262 0.069997
Si Si3 0.404385 0.628262 0.072193
Si Si4 0.618977 0.702256 0.069113
Si Si5 0.900086 0.797591 0.070409
Si Si6 0.109899 0.968133 0.928509
O O1 0.935789 0.352105 0.750000
O O2 0.745034 0.353967 0.959453
O O3 0.931796 0.416563 0.958543
O O4 0.987608 0.334576 0.038165
O O5 0.393066 0.971737 0.250000
O O6 0.436290 0.915676 0.026418
O O7 0.249999 0.979313 0.006340
O O8 0.500000 0.000000 0.000000
O O9 0.420069 0.615166 0.250000
O O10 0.506887 0.666616 0.020420
O O11 0.631437 0.706786 0.250000
O O12 0.575769 0.750000 0.000000
O O13 0.760610 0.686061 0.002355
O O14 0.880728 0.791563 0.250000
O O15 0.945566 0.750000 0.000000
O O16 0.124633 0.978017 0.750000
O O17 0.000000 0.000000 0.000000
#
# Coordination Sequence:
#
# PCOD8233033 Si02
#       6
#     8   8   8   8   8   8
#     4   9  19  37  57  79 109 142 176 219 269 319
#     4  11  22  37  58  82 111 146 185 229 274 324
#     4   9  20  38  58  81 110 142 178 223 274 325
#     4  10  20  36  57  80 109 142 177 221 270 321
#     4  11  22  36  55  79 108 142 181 223 266 318
#     4  10  21  38  59  83 113 146 182 225 273 327
#
# _framework density 18.510625999999998
#
# number of rings (size 3 to 8) (size 9 to 14) (size 15 to 20)
#    0.000    2.000    0.000    6.000    0.000    6.667 
#    0.000    3.333    0.000    0.000    0.000    0.000 
#    0.000    0.000    0.000    0.000    0.000    0.000 
#
# Total GULP energy -595389.317494 kJ/mol
# GULP energy per Si atom -12403.944114 kJ/mol
# Density = 1.846849 g / cm^3
# Si number density = 18.510626 Si / 1000 Ang^3
#
#
#
# Elastic Constant Matrix: (Units=GPa)
#
#
# Indices 1 2 3 4 5 6 
#
# 1 133.2700 98.8995 68.4434 0.0000 0.0000 0.0000
# 2 98.8995 111.9576 66.7507 0.0000 0.0000 0.0000
# 3 68.4434 66.7507 131.1729 0.0000 0.0000 0.0000
# 4 0.0000 0.0000 0.0000 35.3418 0.0000 0.0000
# 5 0.0000 0.0000 0.0000 0.0000 33.1773 0.0000
# 6 0.0000 0.0000 0.0000 0.0000 0.0000 43.7374
#
#
#
# Elastic Compliance Matrix: (Units=1/GPa)
#
#
# Indices 1 2 3 4 5 6 
#
# 1 0.022261 -0.018288 -0.002309 0.000000 0.000000 0.000000
# 2 -0.018288 0.027846 -0.004628 0.000000 0.000000 0.000000
# 3 -0.002309 -0.004628 0.011183 0.000000 0.000000 0.000000
# 4 0.000000 0.000000 0.000000 0.028295 0.000000 0.000000
# 5 0.000000 0.000000 0.000000 0.000000 0.030141 0.000000
# 6 0.000000 0.000000 0.000000 0.000000 0.000000 0.022864
#
#
# Mechanical properties :
#
#
# Convention : Reuss Voigt Hill
#
# Bulk Modulus (GPa) = 92.24527 93.84306 93.04416
# Shear Modulus (GPa) = 25.42558 31.93844 28.68201
#
# Velocity S-wave (km/s) = 3.71019 4.15831 3.94063
# Velocity P-wave (km/s) = 8.26413 8.59432 8.43084
#
# Compressibility (1/GPa) = 0.01084066
#
# Stress axis : x y z
#
# Youngs Moduli (GPa) = 44.92246 35.91203 89.41829
#
# Poissons Ratio (x) = 0.65674 0.20647
# Poissons Ratio (y) = 0.82152 0.41383
# Poissons Ratio (z) = 0.10373 0.16620
#
# Static dielectric constant tensor:
#      x y z
#    x 3.527280 0.000000 0.000000 
#    y 0.000000 3.418180 0.000000 
#    z 0.000000 0.000000 3.474010 
# 
# 
# High freq. dielectric constant tensor:
#      x y z
#    x 1.724080 0.000000 0.000000 
#    y 0.000000 1.718930 0.000000 
#    z 0.000000 0.000000 1.729060 
# 
# From -- ./inp_files/3090.got.cif
#   From: 2010.03.12/outbox.cif.g09.slc.cpg/sg57_2_cif.got.tgz:3090.got - 2010.04.16 15:48:40.
