data_PCOD8233812
_publ_section_title
;
Structure prediction by ZEFSAII (Michael W. Deem and Ramdas Pophale) SiO2 
 PCOD8233812
Probable space group: P B C M
;
_chemical_formula_sum "Si O2"
_cell_formula_units_Z 56
_cell_length_a 20.843536
_cell_length_b 15.407039
_cell_length_c 9.052344
_cell_angle_alpha 90.000000
_cell_angle_beta 90.000000
_cell_angle_gamma 90.000000
_cell_volume 2907.044153
_symmetry_space_group_name_H-M "P B C M"
_symmetry_group_IT_number 57
_symmetry_cell_setting 'orthorhombic'
loop_
_space_group_symop_operation_xyz
x,y,z
-x,-y,1/2+z
x,1/2-y,-z
-x,1/2+y,1/2-z
-x,-y,-z
x,y,1/2-z
-x,1/2+y,z
x,1/2-y,1/2+z
loop_
_atom_site_type_symbol
_atom_site_label
_atom_site_fract_x
_atom_site_fract_y
_atom_site_fract_z
Si Si1 0.137209 0.662597 0.424264
Si Si2 0.987764 0.409025 0.077027
Si Si3 0.588333 0.165303 0.581971
Si Si4 0.874968 0.836128 0.080799
Si Si5 0.215289 0.008525 0.577759
Si Si6 0.651094 0.513360 0.075095
Si Si7 0.536998 0.923740 0.079542
O O1 0.164356 0.750000 0.500000
O O2 0.126581 0.676241 0.250000
O O3 0.188020 0.586829 0.456192
O O4 0.069757 0.640415 0.498501
O O5 0.973205 0.423908 0.250000
O O6 0.049864 0.349533 0.053634
O O7 0.000000 0.500000 0.000000
O O8 0.614089 0.250000 0.500000
O O9 0.608455 0.177107 0.750000
O O10 0.624670 0.080151 0.520455
O O11 0.510657 0.158715 0.564911
O O12 0.858929 0.821090 0.250000
O O13 0.837165 0.921258 0.025192
O O14 0.850490 0.750000 0.000000
O O15 0.232248 0.018102 0.750000
O O16 0.277291 0.026184 0.479998
O O17 0.647496 0.523813 0.250000
O O18 0.605669 0.587985 0.001740
O O19 0.548831 0.947326 0.250000
O O20 0.500000 0.000000 0.000000
#
# Coordination Sequence:
#
# PCOD8233812 Si02
#       7
#     8   8   8   8   8   8   8
#     4  11  23  40  59  85 119 155 197 243 296 357
#     4  11  21  37  61  88 118 151 190 242 299 356
#     4   9  19  33  52  81 113 140 176 223 269 326
#     4  10  22  40  60  85 113 146 190 239 294 351
#     4  10  22  41  59  79 115 156 194 239 290 346
#     4  10  21  36  55  81 109 143 190 231 273 334
#     4   9  17  32  53  78 106 138 175 218 266 315
#
# _framework density 19.263553999999999
#
# number of rings (size 3 to 8) (size 9 to 14) (size 15 to 20)
#    0.000    2.000    1.429    3.000    0.000    8.000 
#    0.000    3.571    0.000    0.000    0.000    0.000 
#    0.000    0.000    0.000    0.000    0.000    0.000 
#
# Total GULP energy -694320.917600 kJ/mol
# GULP energy per Si atom -12398.587814 kJ/mol
# Density = 1.921971 g / cm^3
# Si number density = 19.263554 Si / 1000 Ang^3
#
#
#
# Elastic Constant Matrix: (Units=GPa)
#
#
# Indices 1 2 3 4 5 6 
#
# 1 84.8379 0.6615 35.5685 0.0000 0.0000 0.0000
# 2 0.6615 71.7356 27.0959 0.0000 0.0000 0.0000
# 3 35.5685 27.0959 86.8213 0.0000 0.0000 0.0000
# 4 0.0000 0.0000 0.0000 34.8039 0.0000 0.0000
# 5 0.0000 0.0000 0.0000 0.0000 34.9849 0.0000
# 6 0.0000 0.0000 0.0000 0.0000 0.0000 16.1234
#
#
#
# Elastic Compliance Matrix: (Units=1/GPa)
#
#
# Indices 1 2 3 4 5 6 
#
# 1 0.014589 0.002407 -0.006728 0.000000 0.000000 0.000000
# 2 0.002407 0.016200 -0.006042 0.000000 0.000000 0.000000
# 3 -0.006728 -0.006042 0.016160 0.000000 0.000000 0.000000
# 4 0.000000 0.000000 0.000000 0.028732 0.000000 0.000000
# 5 0.000000 0.000000 0.000000 0.000000 0.028584 0.000000
# 6 0.000000 0.000000 0.000000 0.000000 0.000000 0.062022
#
#
# Mechanical properties :
#
#
# Convention : Reuss Voigt Hill
#
# Bulk Modulus (GPa) = 38.13463 41.11628 39.62545
# Shear Modulus (GPa) = 25.54231 29.18703 27.36467
#
# Velocity S-wave (km/s) = 3.64530 3.89671 3.77310
# Velocity P-wave (km/s) = 6.12836 6.45261 6.29257
#
# Compressibility (1/GPa) = 0.02622289
#
# Stress axis : x y z
#
# Youngs Moduli (GPa) = 68.54433 61.72840 61.88217
#
# Poissons Ratio (x) = -0.14856 0.41634
# Poissons Ratio (y) = -0.16497 0.37388
# Poissons Ratio (z) = 0.46116 0.37295
#
# Static dielectric constant tensor:
#      x y z
#    x 3.582700 0.000000 0.000000 
#    y 0.000000 3.380540 0.000000 
#    z 0.000000 0.000000 3.609740 
# 
# 
# High freq. dielectric constant tensor:
#      x y z
#    x 1.746480 0.000000 0.000000 
#    y 0.000000 1.738390 0.000000 
#    z 0.000000 0.000000 1.756530 
# 
# From -- ./inp_files/8008.got.cif
#   From: 2010.03.12/outbox.cif.g09.slc.cpg/sg57_5_cif.got.tgz:8008.got - 2010.04.16 15:48:40.
