data_PCOD8233255
_publ_section_title
;
Structure prediction by ZEFSAII (Michael W. Deem and Ramdas Pophale) SiO2 
 PCOD8233255
Probable space group: P B C M
;
_chemical_formula_sum "Si O2"
_cell_formula_units_Z 64
_cell_length_a 20.470215
_cell_length_b 19.532098
_cell_length_c 8.717022
_cell_angle_alpha 90.000000
_cell_angle_beta 90.000000
_cell_angle_gamma 90.000000
_cell_volume 3485.294178
_symmetry_space_group_name_H-M "P B C M"
_symmetry_group_IT_number 57
_symmetry_cell_setting 'orthorhombic'
loop_
_space_group_symop_operation_xyz
x,y,z
-x,-y,1/2+z
x,1/2-y,-z
-x,1/2+y,1/2-z
-x,-y,-z
x,y,1/2-z
-x,1/2+y,z
x,1/2-y,1/2+z
loop_
_atom_site_type_symbol
_atom_site_label
_atom_site_fract_x
_atom_site_fract_y
_atom_site_fract_z
Si Si1 0.359258 0.425337 0.931400
Si Si2 0.500000 0.073652 0.429195
Si Si3 0.000000 0.423834 0.067156
Si Si4 0.896130 0.323162 0.568283
Si Si5 0.103870 0.176838 0.068283
Si Si6 0.253165 0.321159 0.569827
Si Si7 0.359258 0.925337 0.568600
Si Si8 0.746835 0.178841 0.430173
O O1 0.352428 0.431488 0.750000
O O2 0.430585 0.391552 0.977106
O O3 0.301535 0.378413 0.998987
O O4 0.350553 0.500000 1.000000
O O5 0.500000 0.063200 0.250000
O O6 0.569415 0.108448 0.477106
O O7 0.500000 0.000000 0.500000
O O8 0.000000 0.427428 0.250000
O O9 0.936281 0.384071 0.008560
O O10 0.000000 0.500000 0.000000
O O11 0.063719 0.384071 0.008560
O O12 0.918334 0.250000 0.500000
O O13 0.908340 0.322097 0.750000
O O14 0.821154 0.338510 0.524365
O O15 0.091660 0.177903 0.250000
O O16 0.178846 0.161490 0.024365
O O17 0.081666 0.250000 0.000000
O O18 0.275971 0.250000 0.500000
O O19 0.260815 0.315422 0.750000
O O20 0.352428 0.931488 0.750000
O O21 0.301535 0.878413 0.501013
O O22 0.724029 0.250000 0.500000
O O23 0.739185 0.184578 0.250000
#
# Coordination Sequence:
#
# PCOD8233255 Si02
#       8
#     8   8   8   8   8   8   8   8
#     4   9  17  30  48  72  98 129 167 208 251 297
#     4   8  14  26  45  66  94 128 164 204 247 294
#     4  12  25  40  57  80 108 136 166 208 255 300
#     4  10  20  37  58  79 103 136 174 210 249 302
#     4  10  20  37  58  79 103 136 174 210 249 302
#     4   9  19  34  52  74 102 133 168 206 247 294
#     4   9  17  30  48  72  98 129 167 208 251 297
#     4   9  19  34  52  74 102 133 168 206 247 294
#
# _framework density 18.362870000000001
#
# number of rings (size 3 to 8) (size 9 to 14) (size 15 to 20)
#    0.000    2.500    0.000    2.250    0.000    3.000 
#    0.000    3.125    0.000    0.000    0.000    0.000 
#    0.000    0.000    0.000    0.000    0.000    0.000 
#
# Total GULP energy -793092.624299 kJ/mol
# GULP energy per Si atom -12392.072255 kJ/mol
# Density = 1.832107 g / cm^3
# Si number density = 18.362870 Si / 1000 Ang^3
#
#
#
# Elastic Constant Matrix: (Units=GPa)
#
#
# Indices 1 2 3 4 5 6 
#
# 1 151.6318 96.6188 39.0044 0.0000 0.0000 0.0000
# 2 96.6188 139.0226 43.5808 0.0000 0.0000 0.0000
# 3 39.0044 43.5808 54.3154 0.0000 0.0000 0.0000
# 4 0.0000 0.0000 0.0000 30.3774 0.0000 0.0000
# 5 0.0000 0.0000 0.0000 0.0000 28.2678 0.0000
# 6 0.0000 0.0000 0.0000 0.0000 0.0000 51.8057
#
#
#
# Elastic Compliance Matrix: (Units=1/GPa)
#
#
# Indices 1 2 3 4 5 6 
#
# 1 0.012104 -0.007599 -0.002595 0.000000 0.000000 0.000000
# 2 -0.007599 0.014381 -0.006082 0.000000 0.000000 0.000000
# 3 -0.002595 -0.006082 0.025154 0.000000 0.000000 0.000000
# 4 0.000000 0.000000 0.000000 0.032919 0.000000 0.000000
# 5 0.000000 0.000000 0.000000 0.000000 0.035376 0.000000
# 6 0.000000 0.000000 0.000000 0.000000 0.000000 0.019303
#
#
# Mechanical properties :
#
#
# Convention : Reuss Voigt Hill
#
# Bulk Modulus (GPa) = 52.38933 78.15308 65.27120
# Shear Modulus (GPa) = 28.06593 33.14124 30.60359
#
# Velocity S-wave (km/s) = 3.91373 4.25290 4.08683
# Velocity P-wave (km/s) = 7.00107 8.17123 7.60868
#
# Compressibility (1/GPa) = 0.01908786
#
# Stress axis : x y z
#
# Youngs Moduli (GPa) = 82.61411 69.53764 39.75440
#
# Poissons Ratio (x) = 0.52841 0.10317
# Poissons Ratio (y) = 0.62778 0.24178
# Poissons Ratio (z) = 0.21440 0.42291
#
# Static dielectric constant tensor:
#      x y z
#    x 4.075670 0.000000 0.000000 
#    y 0.000000 3.372010 0.000000 
#    z 0.000000 0.000000 3.342610 
# 
# 
# High freq. dielectric constant tensor:
#      x y z
#    x 1.735150 0.000000 0.000000 
#    y 0.000000 1.690230 0.000000 
#    z 0.000000 0.000000 1.711500 
# 
# From -- ./inp_files/8664.got.cif
#   From: 2010.03.12/outbox.cif.g09.slc.cpg/sg57_5_cif.got.tgz:8664.got - 2010.04.16 15:48:40.
