data_PCOD8233716
_publ_section_title
;
Structure prediction by ZEFSAII (Michael W. Deem and Ramdas Pophale) SiO2 
 PCOD8233716
Probable space group: P B C M
;
_chemical_formula_sum "Si O2"
_cell_formula_units_Z 56
_cell_length_a 13.850171
_cell_length_b 14.154711
_cell_length_c 14.294409
_cell_angle_alpha 90.000000
_cell_angle_beta 90.000000
_cell_angle_gamma 90.000000
_cell_volume 2802.349811
_symmetry_space_group_name_H-M "P B C M"
_symmetry_group_IT_number 57
_symmetry_cell_setting 'orthorhombic'
loop_
_space_group_symop_operation_xyz
x,y,z
-x,-y,1/2+z
x,1/2-y,-z
-x,1/2+y,1/2-z
-x,-y,-z
x,y,1/2-z
-x,1/2+y,z
x,1/2-y,1/2+z
loop_
_atom_site_type_symbol
_atom_site_label
_atom_site_fract_x
_atom_site_fract_y
_atom_site_fract_z
Si Si1 0.783246 0.021950 0.983645
Si Si2 0.800874 0.212825 0.598374
Si Si3 0.572678 0.088012 0.003746
Si Si4 0.403492 0.747894 0.646078
Si Si5 0.987664 0.793432 0.358102
Si Si6 0.930378 0.993808 0.142415
Si Si7 0.122088 0.385498 0.856315
O O1 0.798761 0.922861 0.929650
O O2 0.813456 0.099787 0.906099
O O3 0.844821 0.034324 0.078446
O O4 0.673722 0.034419 0.012942
O O5 0.761364 0.250000 0.500000
O O6 0.713351 0.245917 0.664415
O O7 0.907281 0.252986 0.619920
O O8 0.559636 0.157180 0.093474
O O9 0.565642 0.153249 0.910672
O O10 0.500000 0.000000 0.000000
O O11 0.450695 0.746268 0.750000
O O12 0.989110 0.815426 0.250000
O O13 0.961646 0.893429 0.404807
O O14 0.903533 0.721241 0.386267
O O15 0.893392 0.986896 0.250000
O O16 0.023045 0.058396 0.135700
O O17 0.162368 0.389614 0.750000
#
# Coordination Sequence:
#
# PCOD8233716 Si02
#       7
#     8   8   8   8   8   8   8
#     4  11  21  36  57  82 112 156 194 237 294 348
#     4  11  19  33  55  87 115 149 191 248 298 344
#     4  10  23  44  64  92 125 152 201 258 309 365
#     4  10  21  40  66  95 121 150 194 252 315 367
#     4  10  21  33  49  77 119 162 198 242 286 336
#     4  10  21  35  50  78 119 157 194 237 283 345
#     4  10  21  34  52  81 116 154 195 236 282 347
#
# _framework density 19.983229999999999
#
# number of rings (size 3 to 8) (size 9 to 14) (size 15 to 20)
#    0.000    1.714    4.286    1.714    2.000    3.429 
#    0.000    2.857    0.000    1.714    0.000    0.000 
#    0.000    0.000    0.000    0.000    0.000    0.000 
#
# Total GULP energy -693941.624713 kJ/mol
# GULP energy per Si atom -12391.814727 kJ/mol
# Density = 1.993775 g / cm^3
# Si number density = 19.983230 Si / 1000 Ang^3
#
#
#
# Elastic Constant Matrix: (Units=GPa)
#
#
# Indices 1 2 3 4 5 6 
#
# 1 63.7487 38.1887 20.4001 0.0000 0.0000 0.0000
# 2 38.1887 74.1896 43.9214 0.0000 0.0000 0.0000
# 3 20.4001 43.9214 79.2735 0.0000 0.0000 0.0000
# 4 0.0000 0.0000 0.0000 21.2929 0.0000 0.0000
# 5 0.0000 0.0000 0.0000 0.0000 11.1361 0.0000
# 6 0.0000 0.0000 0.0000 0.0000 0.0000 55.0981
#
#
#
# Elastic Compliance Matrix: (Units=1/GPa)
#
#
# Indices 1 2 3 4 5 6 
#
# 1 0.022727 -0.012257 0.000942 0.000000 0.000000 0.000000
# 2 -0.012257 0.026668 -0.011621 0.000000 0.000000 0.000000
# 3 0.000942 -0.011621 0.018811 0.000000 0.000000 0.000000
# 4 0.000000 0.000000 0.000000 0.046964 0.000000 0.000000
# 5 0.000000 0.000000 0.000000 0.000000 0.089798 0.000000
# 6 0.000000 0.000000 0.000000 0.000000 0.000000 0.018149
#
#
# Mechanical properties :
#
#
# Convention : Reuss Voigt Hill
#
# Bulk Modulus (GPa) = 44.77323 46.91471 45.84397
# Shear Modulus (GPa) = 18.08749 25.15218 21.61984
#
# Velocity S-wave (km/s) = 3.01181 3.55161 3.29279
# Velocity P-wave (km/s) = 5.87781 6.35190 6.11945
#
# Compressibility (1/GPa) = 0.02233478
#
# Stress axis : x y z
#
# Youngs Moduli (GPa) = 43.99965 37.49814 53.16074
#
# Poissons Ratio (x) = 0.45960 -0.05008
# Poissons Ratio (y) = 0.53929 0.61780
# Poissons Ratio (z) = -0.04145 0.43578
#
# Static dielectric constant tensor:
#      x y z
#    x 3.405670 0.000000 0.000000 
#    y 0.000000 3.831770 0.000000 
#    z 0.000000 0.000000 3.714660 
# 
# 
# High freq. dielectric constant tensor:
#      x y z
#    x 1.735630 0.000000 0.000000 
#    y 0.000000 1.789740 0.000000 
#    z 0.000000 0.000000 1.783180 
# 
# From -- ./inp_files/18606.got.cif
#   From: 2010.03.12/outbox.cif.g09.slc.cpg/sg57_10_cif.got.tgz:18606.got - 2010.04.16 15:48:40.
