data_PCOD8233220
_publ_section_title
;
Structure prediction by ZEFSAII (Michael W. Deem and Ramdas Pophale) SiO2 
 PCOD8233220
Probable space group: P B C M
;
_chemical_formula_sum "Si O2"
_cell_formula_units_Z 64
_cell_length_a 7.747201
_cell_length_b 23.339520
_cell_length_c 14.571662
_cell_angle_alpha 90.000000
_cell_angle_beta 90.000000
_cell_angle_gamma 90.000000
_cell_volume 2634.788947
_symmetry_space_group_name_H-M "P B C M"
_symmetry_group_IT_number 57
_symmetry_cell_setting 'orthorhombic'
loop_
_space_group_symop_operation_xyz
x,y,z
-x,-y,1/2+z
x,1/2-y,-z
-x,1/2+y,1/2-z
-x,-y,-z
x,y,1/2-z
-x,1/2+y,z
x,1/2-y,1/2+z
loop_
_atom_site_type_symbol
_atom_site_label
_atom_site_fract_x
_atom_site_fract_y
_atom_site_fract_z
Si Si1 0.960962 0.883074 0.143374
Si Si2 0.981070 0.743557 0.604794
Si Si3 0.185452 0.088214 0.358046
Si Si4 0.353676 0.203881 0.148613
Si Si5 0.434104 0.118052 0.858384
Si Si6 0.261271 0.964126 0.141716
Si Si7 0.836265 0.142626 0.147402
Si Si8 0.616936 0.191237 0.494610
O O1 0.946656 0.894413 0.250000
O O2 0.047682 0.821137 0.122644
O O3 0.763827 0.890386 0.104464
O O4 0.100578 0.927135 0.100051
O O5 0.932195 0.750000 0.500000
O O6 0.798488 0.749941 0.657602
O O7 0.101996 0.791585 0.649655
O O8 0.206793 0.088037 0.250000
O O9 0.292230 0.142455 0.394297
O O10 0.984426 0.098221 0.382337
O O11 0.251349 0.028244 0.400920
O O12 0.437197 0.196455 0.250000
O O13 0.487483 0.224944 0.073722
O O14 0.436936 0.133367 0.750000
O O15 0.548664 0.061418 0.879162
O O16 0.531320 0.169421 0.911659
O O17 0.232590 0.967104 0.250000
O O18 0.765184 0.127369 0.250000
O O19 0.696233 0.138617 0.064979
O O20 0.744725 0.250000 0.500000
#
# Coordination Sequence:
#
# PCOD8233220 Si02
#       8
#     8   8   8   8   8   8   8   8
#     4  10  20  36  61  91 122 163 207 250 314 383
#     4  11  21  35  58  87 123 164 203 257 313 381
#     4   8  17  39  65  89 118 161 209 259 310 373
#     4  10  20  38  63  87 121 165 209 256 315 373
#     4  10  23  42  62  91 127 163 208 261 316 384
#     4   9  19  38  65  91 122 165 211 256 315 378
#     4  10  22  39  61  88 123 163 213 260 311 380
#     4  12  25  39  57  92 127 163 208 263 320 379
#
# _framework density 24.290368999999998
#
# number of rings (size 3 to 8) (size 9 to 14) (size 15 to 20)
#    0.000    2.000    0.000    4.500    3.500    2.000 
#    2.250    1.250    0.000    0.000    0.000    0.000 
#    0.000    0.000    0.000    0.000    0.000    0.000 
#
# Total GULP energy -792856.075909 kJ/mol
# GULP energy per Si atom -12388.376186 kJ/mol
# Density = 2.423508 g / cm^3
# Si number density = 24.290369 Si / 1000 Ang^3
#
#
#
# Elastic Constant Matrix: (Units=GPa)
#
#
# Indices 1 2 3 4 5 6 
#
# 1 45.7511 -13.7178 -0.2450 0.0000 0.0000 0.0000
# 2 -13.7178 94.2830 -13.4171 0.0000 0.0000 0.0000
# 3 -0.2450 -13.4171 66.3227 0.0000 0.0000 0.0000
# 4 0.0000 0.0000 0.0000 17.0989 0.0000 0.0000
# 5 0.0000 0.0000 0.0000 0.0000 -38.5913 0.0000
# 6 0.0000 0.0000 0.0000 0.0000 0.0000 24.0143
#
#
#
# Elastic Compliance Matrix: (Units=1/GPa)
#
#
# Indices 1 2 3 4 5 6 
#
# 1 0.022894 0.003442 0.000781 0.000000 0.000000 0.000000
# 2 0.003442 0.011438 0.002327 0.000000 0.000000 0.000000
# 3 0.000781 0.002327 0.015551 0.000000 0.000000 0.000000
# 4 0.000000 0.000000 0.000000 0.058483 0.000000 0.000000
# 5 0.000000 0.000000 0.000000 0.000000 -0.025913 0.000000
# 6 0.000000 0.000000 0.000000 0.000000 0.000000 0.041642
#
#
# Mechanical properties :
#
#
# Convention : Reuss Voigt Hill
#
# Bulk Modulus (GPa) = 15.87742 16.84412 16.36077
# Shear Modulus (GPa) = 37.88142 16.08683 26.98413
#
# Velocity S-wave (km/s) = 3.95337 2.57626 3.33663
# Velocity P-wave (km/s) = 5.23350 3.97480 4.64696
#
# Compressibility (1/GPa) = 0.06298253
#
# Stress axis : x y z
#
# Youngs Moduli (GPa) = 43.68025 87.42579 64.30306
#
# Poissons Ratio (x) = -0.30093 -0.05021
# Poissons Ratio (y) = -0.15035 -0.14961
# Poissons Ratio (z) = -0.03411 -0.20341
#
# Static dielectric constant tensor:
#      x y z
#    x 4.666950 0.000000 0.000000 
#    y 0.000000 4.472090 0.000000 
#    z 0.000000 0.000000 4.206950 
# 
# 
# High freq. dielectric constant tensor:
#      x y z
#    x 1.967090 0.000000 0.000000 
#    y 0.000000 1.948260 0.000000 
#    z 0.000000 0.000000 1.959050 
# 
# From -- ./inp_files/16978.got.cif
#   From: 2010.03.12/outbox.cif.g09.slc.cpg/sg57_9_cif.got.tgz:16978.got - 2010.04.16 15:48:40.
