data_PCOD8233129
_publ_section_title
;
Structure prediction by ZEFSAII (Michael W. Deem and Ramdas Pophale) SiO2 
 PCOD8233129
Probable space group: P B C M
;
_chemical_formula_sum "Si O2"
_cell_formula_units_Z 64
_cell_length_a 9.841254
_cell_length_b 27.046999
_cell_length_c 12.035829
_cell_angle_alpha 90.000000
_cell_angle_beta 90.000000
_cell_angle_gamma 90.000000
_cell_volume 3203.653479
_symmetry_space_group_name_H-M "P B C M"
_symmetry_group_IT_number 57
_symmetry_cell_setting 'orthorhombic'
loop_
_space_group_symop_operation_xyz
x,y,z
-x,-y,1/2+z
x,1/2-y,-z
-x,1/2+y,1/2-z
-x,-y,-z
x,y,1/2-z
-x,1/2+y,z
x,1/2-y,1/2+z
loop_
_atom_site_type_symbol
_atom_site_label
_atom_site_fract_x
_atom_site_fract_y
_atom_site_fract_z
Si Si1 0.853638 0.304760 0.983719
Si Si2 0.423794 0.678993 0.374978
Si Si3 0.917626 0.635245 0.126015
Si Si4 0.063360 0.049604 0.953591
Si Si5 0.712994 0.778103 0.881804
Si Si6 0.641871 0.527640 0.626010
Si Si7 0.819122 0.107101 0.628012
Si Si8 0.423909 0.574643 0.474460
O O1 0.698449 0.299194 0.946495
O O2 0.944499 0.334106 0.895265
O O3 0.915582 0.250000 0.000000
O O4 0.855696 0.336212 0.097425
O O5 0.372631 0.679748 0.250000
O O6 0.552662 0.714139 0.391825
O O7 0.461681 0.622987 0.405719
O O8 0.924845 0.614848 0.250000
O O9 0.901906 0.586867 0.052562
O O10 0.788040 0.669896 0.108072
O O11 0.199146 0.037271 0.887648
O O12 0.956052 0.074916 0.871229
O O13 0.000000 0.000000 0.000000
O O14 0.742171 0.757105 0.750000
O O15 0.755243 0.750000 0.000000
O O16 0.599100 0.541334 0.750000
O O17 0.555274 0.563125 0.547672
O O18 0.607596 0.470324 0.607235
O O19 0.755214 0.107009 0.750000
O O20 0.711028 0.083192 0.545798
#
# Coordination Sequence:
#
# PCOD8233129 Si02
#       8
#     8   8   8   8   8   8   8   8
#     4  10  21  37  58  86 118 149 195 242 291 355
#     4  10  20  36  59  84 116 152 194 243 292 353
#     4  10  22  39  61  85 115 154 199 247 297 355
#     4  11  22  40  57  88 116 152 197 245 295 354
#     4  10  21  40  63  90 120 156 200 249 303 361
#     4  11  22  37  59  83 114 153 195 242 295 351
#     4  10  21  38  57  82 119 155 190 240 299 353
#     4  10  21  38  56  84 116 150 198 241 291 350
#
# _framework density 19.977191999999999
#
# number of rings (size 3 to 8) (size 9 to 14) (size 15 to 20)
#    0.000    1.750    1.250    3.000    0.000    2.000 
#    0.000   10.625    0.000    0.000    0.000    0.000 
#    0.000    0.000    0.000    0.000    0.000    0.000 
#
# Total GULP energy -793181.545972 kJ/mol
# GULP energy per Si atom -12393.461656 kJ/mol
# Density = 1.993172 g / cm^3
# Si number density = 19.977192 Si / 1000 Ang^3
#
#
#
# Elastic Constant Matrix: (Units=GPa)
#
#
# Indices 1 2 3 4 5 6 
#
# 1 76.2032 3.3832 8.6156 0.0000 0.0000 0.0000
# 2 3.3832 82.4406 30.8887 0.0000 0.0000 0.0000
# 3 8.6156 30.8887 94.1274 0.0000 0.0000 0.0000
# 4 0.0000 0.0000 0.0000 1.5037 0.0000 0.0000
# 5 0.0000 0.0000 0.0000 0.0000 59.2387 0.0000
# 6 0.0000 0.0000 0.0000 0.0000 0.0000 25.6586
#
#
#
# Elastic Compliance Matrix: (Units=1/GPa)
#
#
# Indices 1 2 3 4 5 6 
#
# 1 0.013261 -0.000102 -0.001180 0.000000 0.000000 0.000000
# 2 -0.000102 0.013831 -0.004530 0.000000 0.000000 0.000000
# 3 -0.001180 -0.004530 0.012218 0.000000 0.000000 0.000000
# 4 0.000000 0.000000 0.000000 0.665047 0.000000 0.000000
# 5 0.000000 0.000000 0.000000 0.000000 0.016881 0.000000
# 6 0.000000 0.000000 0.000000 0.000000 0.000000 0.038973
#
#
# Mechanical properties :
#
#
# Convention : Reuss Voigt Hill
#
# Bulk Modulus (GPa) = 36.11829 37.61624 36.86726
# Shear Modulus (GPa) = 6.40153 31.27244 18.83698
#
# Velocity S-wave (km/s) = 1.79203 3.96082 3.07404
# Velocity P-wave (km/s) = 4.73295 6.30776 5.57623
#
# Compressibility (1/GPa) = 0.02768680
#
# Stress axis : x y z
#
# Youngs Moduli (GPa) = 75.41030 72.30009 81.84426
#
# Poissons Ratio (x) = 0.00737 0.09660
# Poissons Ratio (y) = 0.00769 0.37071
# Poissons Ratio (z) = 0.08901 0.32748
#
# Static dielectric constant tensor:
#      x y z
#    x 3.700940 0.000000 0.000000 
#    y 0.000000 3.642870 0.000000 
#    z 0.000000 0.000000 3.927480 
# 
# 
# High freq. dielectric constant tensor:
#      x y z
#    x 1.792670 0.000000 0.000000 
#    y 0.000000 1.774680 0.000000 
#    z 0.000000 0.000000 1.782190 
# 
# From -- ./inp_files/12293.got.cif
#   From: 2010.03.12/outbox.cif.g09.slc.cpg/sg57_7_cif.got.tgz:12293.got - 2010.04.16 15:48:40.
