data_PCOD8233848
_publ_section_title
;
Structure prediction by ZEFSAII (Michael W. Deem and Ramdas Pophale) SiO2 
 PCOD8233848
Probable space group: P B C M
;
_chemical_formula_sum "Si O2"
_cell_formula_units_Z 48
_cell_length_a 12.048523
_cell_length_b 11.790401
_cell_length_c 16.656406
_cell_angle_alpha 90.000000
_cell_angle_beta 90.000000
_cell_angle_gamma 90.000000
_cell_volume 2366.157695
_symmetry_space_group_name_H-M "P B C M"
_symmetry_group_IT_number 57
_symmetry_cell_setting 'orthorhombic'
loop_
_space_group_symop_operation_xyz
x,y,z
-x,-y,1/2+z
x,1/2-y,-z
-x,1/2+y,1/2-z
-x,-y,-z
x,y,1/2-z
-x,1/2+y,z
x,1/2-y,1/2+z
loop_
_atom_site_type_symbol
_atom_site_label
_atom_site_fract_x
_atom_site_fract_y
_atom_site_fract_z
Si Si1 0.792453 0.471108 0.656443
Si Si2 0.729147 0.116686 0.845192
Si Si3 0.413172 0.677594 0.156249
Si Si4 0.170753 0.286744 0.091100
Si Si5 0.652709 0.877049 0.843390
Si Si6 0.921516 0.243553 0.094818
O O1 0.811619 0.500438 0.750000
O O2 0.666659 0.429786 0.641272
O O3 0.812522 0.579219 0.600586
O O4 0.878145 0.374242 0.630328
O O5 0.723964 0.116411 0.750000
O O6 0.642716 0.209264 0.881370
O O7 0.853736 0.149942 0.870143
O O8 0.698930 0.993895 0.881950
O O9 0.428099 0.700329 0.250000
O O10 0.533625 0.654365 0.116704
O O11 0.260729 0.223796 0.145486
O O12 0.048778 0.254060 0.121962
O O13 0.190171 0.250000 0.000000
O O14 0.633393 0.898442 0.750000
O O15 0.910244 0.250000 0.000000
#
# Coordination Sequence:
#
# PCOD8233848 Si02
#       6
#     8   8   8   8   8   8
#     4  10  22  41  65  90 119 158 203 251 299 357
#     4   9  19  36  60  88 115 149 200 248 289 356
#     4   8  17  36  60  87 116 151 193 242 305 354
#     4  11  26  40  58  87 125 160 199 244 303 359
#     4  10  21  36  61  88 115 154 199 247 293 354
#     4  10  23  40  63  84 119 161 196 242 307 360
#
# _framework density 20.286052999999999
#
# number of rings (size 3 to 8) (size 9 to 14) (size 15 to 20)
#    0.000    2.333    0.000    2.000    7.000    4.000 
#    0.000    4.167    0.000    0.000    0.000    0.000 
#    0.000    0.000    0.000    0.000    0.000    0.000 
#
# Total GULP energy -595203.909362 kJ/mol
# GULP energy per Si atom -12400.081445 kJ/mol
# Density = 2.023988 g / cm^3
# Si number density = 20.286053 Si / 1000 Ang^3
#
#
#
# Elastic Constant Matrix: (Units=GPa)
#
#
# Indices 1 2 3 4 5 6 
#
# 1 161.3282 49.8288 20.2215 0.0000 0.0000 0.0000
# 2 49.8288 92.1544 8.1707 0.0000 0.0000 0.0000
# 3 20.2215 8.1707 30.8298 0.0000 0.0000 0.0000
# 4 0.0000 0.0000 0.0000 29.0442 0.0000 0.0000
# 5 0.0000 0.0000 0.0000 0.0000 7.9806 0.0000
# 6 0.0000 0.0000 0.0000 0.0000 0.0000 23.4223
#
#
#
# Elastic Compliance Matrix: (Units=1/GPa)
#
#
# Indices 1 2 3 4 5 6 
#
# 1 0.007931 -0.003919 -0.004163 0.000000 0.000000 0.000000
# 2 -0.003919 0.013049 -0.000888 0.000000 0.000000 0.000000
# 3 -0.004163 -0.000888 0.035402 0.000000 0.000000 0.000000
# 4 0.000000 0.000000 0.000000 0.034430 0.000000 0.000000
# 5 0.000000 0.000000 0.000000 0.000000 0.125304 0.000000
# 6 0.000000 0.000000 0.000000 0.000000 0.000000 0.042694
#
#
# Mechanical properties :
#
#
# Convention : Reuss Voigt Hill
#
# Bulk Modulus (GPa) = 26.01327 48.97270 37.49299
# Shear Modulus (GPa) = 17.26729 25.82884 21.54806
#
# Velocity S-wave (km/s) = 2.92068 3.57211 3.26269
# Velocity P-wave (km/s) = 4.92188 6.41925 5.71978
#
# Compressibility (1/GPa) = 0.03844192
#
# Stress axis : x y z
#
# Youngs Moduli (GPa) = 126.08936 76.63299 28.24684
#
# Poissons Ratio (x) = 0.30034 0.11760
# Poissons Ratio (y) = 0.49417 0.02508
# Poissons Ratio (z) = 0.52494 0.06803
#
# Static dielectric constant tensor:
#      x y z
#    x 3.975620 0.000000 0.000000 
#    y 0.000000 3.872970 0.000000 
#    z 0.000000 0.000000 3.340190 
# 
# 
# High freq. dielectric constant tensor:
#      x y z
#    x 1.804380 0.000000 0.000000 
#    y 0.000000 1.799450 0.000000 
#    z 0.000000 0.000000 1.764240 
# 
# From -- ./inp_files/21796.got.cif
#   From: 2010.03.12/outbox.cif.g09.slc.cpg/sg57_11_cif.got.tgz:21796.got - 2010.04.16 15:48:40.
