data_PCOD8233099
_publ_section_title
;
Structure prediction by ZEFSAII (Michael W. Deem and Ramdas Pophale) SiO2 
 PCOD8233099
Probable space group: P B C M
;
_chemical_formula_sum "Si O2"
_cell_formula_units_Z 48
_cell_length_a 14.834755
_cell_length_b 19.148069
_cell_length_c 9.159876
_cell_angle_alpha 90.000000
_cell_angle_beta 90.000000
_cell_angle_gamma 90.000000
_cell_volume 2601.926094
_symmetry_space_group_name_H-M "P B C M"
_symmetry_group_IT_number 57
_symmetry_cell_setting 'orthorhombic'
loop_
_space_group_symop_operation_xyz
x,y,z
-x,-y,1/2+z
x,1/2-y,-z
-x,1/2+y,1/2-z
-x,-y,-z
x,y,1/2-z
-x,1/2+y,z
x,1/2-y,1/2+z
loop_
_atom_site_type_symbol
_atom_site_label
_atom_site_fract_x
_atom_site_fract_y
_atom_site_fract_z
Si Si1 0.361264 0.320912 0.077541
Si Si2 0.732579 0.408508 0.418338
Si Si3 0.565578 0.318044 0.417766
Si Si4 0.759993 0.931035 0.919597
Si Si5 0.115938 0.823460 0.921542
Si Si6 0.034758 0.067633 0.418917
O O1 0.348655 0.312622 0.250000
O O2 0.464500 0.337714 0.032660
O O3 0.328725 0.250000 0.000000
O O4 0.301893 0.384323 0.021275
O O5 0.760378 0.395741 0.250000
O O6 0.630694 0.383273 0.449638
O O7 0.737186 0.489396 0.458406
O O8 0.798851 0.366041 0.521488
O O9 0.602605 0.250000 0.500000
O O10 0.566075 0.296946 0.250000
O O11 0.740831 0.914696 0.750000
O O12 0.862993 0.914847 0.962408
O O13 0.127785 0.811367 0.750000
O O14 0.025163 0.865556 0.959446
O O15 0.108634 0.750000 0.000000
O O16 0.028154 0.048640 0.250000
O O17 0.000000 0.000000 0.500000
#
# Coordination Sequence:
#
# PCOD8233099 Si02
#       6
#     8   8   8   8   8   8
#     4  10  21  38  58  81 111 146 189 236 280 332
#     4  10  20  36  58  83 115 150 184 228 281 336
#     4   9  19  35  55  80 110 148 188 229 280 332
#     4  10  21  37  58  84 114 148 185 228 283 337
#     4  11  23  37  56  84 115 147 189 233 278 333
#     4  10  21  38  59  82 111 148 188 228 278 335
#
# _framework density 18.447873000000001
#
# number of rings (size 3 to 8) (size 9 to 14) (size 15 to 20)
#    0.000    2.000    1.667    1.500    0.000    6.000 
#    0.000    1.667    0.000    0.000    0.000    0.000 
#    0.000    0.000    0.000    0.000    0.000    0.000 
#
# Total GULP energy -595366.079334 kJ/mol
# GULP energy per Si atom -12403.459986 kJ/mol
# Density = 1.840589 g / cm^3
# Si number density = 18.447873 Si / 1000 Ang^3
#
#
#
# Elastic Constant Matrix: (Units=GPa)
#
#
# Indices 1 2 3 4 5 6 
#
# 1 118.3307 79.4556 54.8305 0.0000 0.0000 0.0000
# 2 79.4556 145.3829 70.4642 0.0000 0.0000 0.0000
# 3 54.8305 70.4642 81.4672 0.0000 0.0000 0.0000
# 4 0.0000 0.0000 0.0000 36.1373 0.0000 0.0000
# 5 0.0000 0.0000 0.0000 0.0000 14.5260 0.0000
# 6 0.0000 0.0000 0.0000 0.0000 0.0000 26.1150
#
#
#
# Elastic Compliance Matrix: (Units=1/GPa)
#
#
# Indices 1 2 3 4 5 6 
#
# 1 0.014435 -0.005476 -0.004979 0.000000 0.000000 0.000000
# 2 -0.005476 0.013921 -0.008355 0.000000 0.000000 0.000000
# 3 -0.004979 -0.008355 0.022852 0.000000 0.000000 0.000000
# 4 0.000000 0.000000 0.000000 0.027672 0.000000 0.000000
# 5 0.000000 0.000000 0.000000 0.000000 0.068842 0.000000
# 6 0.000000 0.000000 0.000000 0.000000 0.000000 0.038292
#
#
# Mechanical properties :
#
#
# Convention : Reuss Voigt Hill
#
# Bulk Modulus (GPa) = 73.59253 83.85349 78.72301
# Shear Modulus (GPa) = 21.91411 24.71770 23.31591
#
# Velocity S-wave (km/s) = 3.45032 3.66439 3.55897
# Velocity P-wave (km/s) = 7.47340 7.96597 7.72361
#
# Compressibility (1/GPa) = 0.01358834
#
# Stress axis : x y z
#
# Youngs Moduli (GPa) = 69.27701 71.83601 43.75894
#
# Poissons Ratio (x) = 0.39336 0.21787
# Poissons Ratio (y) = 0.37935 0.36561
# Poissons Ratio (z) = 0.34492 0.60019
#
# Static dielectric constant tensor:
#      x y z
#    x 3.725620 0.000000 0.000000 
#    y 0.000000 3.512930 0.000000 
#    z 0.000000 0.000000 3.421480 
# 
# 
# High freq. dielectric constant tensor:
#      x y z
#    x 1.725140 0.000000 0.000000 
#    y 0.000000 1.717580 0.000000 
#    z 0.000000 0.000000 1.718170 
# 
# From -- ./inp_files/4655.got.cif
#   From: 2010.03.12/outbox.cif.g09.slc.cpg/sg57_3_cif.got.tgz:4655.got - 2010.04.16 15:48:40.
