data_PCOD8233758
_publ_section_title
;
Structure prediction by ZEFSAII (Michael W. Deem and Ramdas Pophale) SiO2 
 PCOD8233758
Probable space group: P B C M
;
_chemical_formula_sum "Si O2"
_cell_formula_units_Z 64
_cell_length_a 29.630263
_cell_length_b 5.382287
_cell_length_c 18.564760
_cell_angle_alpha 90.000000
_cell_angle_beta 90.000000
_cell_angle_gamma 90.000000
_cell_volume 2960.681551
_symmetry_space_group_name_H-M "P B C M"
_symmetry_group_IT_number 57
_symmetry_cell_setting 'orthorhombic'
loop_
_space_group_symop_operation_xyz
x,y,z
-x,-y,1/2+z
x,1/2-y,-z
-x,1/2+y,1/2-z
-x,-y,-z
x,y,1/2-z
-x,1/2+y,z
x,1/2-y,1/2+z
loop_
_atom_site_type_symbol
_atom_site_label
_atom_site_fract_x
_atom_site_fract_y
_atom_site_fract_z
Si Si1 0.125726 0.559680 0.665095
Si Si2 0.386522 0.784595 0.671122
Si Si3 0.249293 0.664941 0.073536
Si Si4 0.338561 0.400926 0.430748
Si Si5 0.975637 0.443965 0.335949
Si Si6 0.296097 0.483590 0.829095
Si Si7 0.177163 0.062072 0.835546
Si Si8 0.478299 0.946205 0.166100
O O1 0.122259 0.552778 0.750000
O O2 0.075235 0.556385 0.633116
O O3 0.149815 0.814553 0.640922
O O4 0.151539 0.311024 0.639192
O O5 0.398783 0.905818 0.750000
O O6 0.337078 0.674050 0.677405
O O7 0.424555 0.580432 0.651937
O O8 0.383493 0.977806 0.604686
O O9 0.298899 0.585023 0.044395
O O10 0.223133 0.447977 0.117204
O O11 0.254251 0.896508 0.128209
O O12 0.223498 0.750000 0.000000
O O13 0.355676 0.250000 0.500000
O O14 0.314714 0.255894 0.367029
O O15 0.976055 0.443359 0.250000
O O16 0.000077 0.194148 0.364745
O O17 0.277774 0.411097 0.750000
O O18 0.187440 0.063482 0.750000
O O19 0.490057 0.956341 0.250000
O O20 0.503674 0.704233 0.131567
#
# Coordination Sequence:
#
# PCOD8233758 Si02
#       8
#     8   8   8   8   8   8   8   8
#     4   9  18  32  48  75 111 147 189 233 283 344
#     4   9  20  35  55  86 116 147 189 238 288 343
#     4  11  23  39  55  80 112 147 192 239 291 348
#     4  11  22  37  59  81 110 150 190 242 294 346
#     4   9  15  24  43  70 104 144 180 223 283 344
#     4  10  21  37  59  84 111 143 188 240 286 342
#     4  10  21  35  54  77 110 152 190 234 285 340
#     4   9  18  32  54  84 118 151 186 233 287 340
#
# _framework density 21.616645999999999
#
# number of rings (size 3 to 8) (size 9 to 14) (size 15 to 20)
#    0.000    2.250    1.250    1.500    3.500    4.500 
#    0.000    0.000    0.000    0.750    0.000    0.000 
#    0.000   10.000    0.000    0.000    0.000    0.000 
#
# Total GULP energy -793133.793394 kJ/mol
# GULP energy per Si atom -12392.715522 kJ/mol
# Density = 2.156745 g / cm^3
# Si number density = 21.616646 Si / 1000 Ang^3
#
#
#
# Elastic Constant Matrix: (Units=GPa)
#
#
# Indices 1 2 3 4 5 6 
#
# 1 58.0604 2.8774 5.9933 0.0000 0.0000 0.0000
# 2 2.8774 103.8167 9.8417 0.0000 0.0000 0.0000
# 3 5.9933 9.8417 77.2126 0.0000 0.0000 0.0000
# 4 0.0000 0.0000 0.0000 19.3255 0.0000 0.0000
# 5 0.0000 0.0000 0.0000 0.0000 -1.2059 0.0000
# 6 0.0000 0.0000 0.0000 0.0000 0.0000 27.6404
#
#
#
# Elastic Compliance Matrix: (Units=1/GPa)
#
#
# Indices 1 2 3 4 5 6 
#
# 1 0.017376 -0.000358 -0.001303 0.000000 0.000000 0.000000
# 2 -0.000358 0.009758 -0.001216 0.000000 0.000000 0.000000
# 3 -0.001303 -0.001216 0.013207 0.000000 0.000000 0.000000
# 4 0.000000 0.000000 0.000000 0.051745 0.000000 0.000000
# 5 0.000000 0.000000 0.000000 0.000000 -0.829264 0.000000
# 6 0.000000 0.000000 0.000000 0.000000 0.000000 0.036179
#
#
# Mechanical properties :
#
#
# Convention : Reuss Voigt Hill
#
# Bulk Modulus (GPa) = 28.91301 30.72384 29.81843
# Shear Modulus (GPa) = -7.31298 23.84381 8.26542
#
# Velocity S-wave (km/s) = -1.84130 3.32479 1.95753
# Velocity P-wave (km/s) = 2.98058 5.38358 4.35125
#
# Compressibility (1/GPa) = 0.03458650
#
# Stress axis : x y z
#
# Youngs Moduli (GPa) = 57.55162 102.48471 75.71521
#
# Poissons Ratio (x) = 0.03670 0.09866
# Poissons Ratio (y) = 0.02061 0.09206
# Poissons Ratio (z) = 0.07499 0.12461
#
# Static dielectric constant tensor:
#      x y z
#    x 4.018910 0.000000 0.000000 
#    y 0.000000 4.147700 0.000000 
#    z 0.000000 0.000000 3.612650 
# 
# 
# High freq. dielectric constant tensor:
#      x y z
#    x 1.840790 0.000000 0.000000 
#    y 0.000000 1.857990 0.000000 
#    z 0.000000 0.000000 1.801100 
# 
# From -- ./inp_files/23176.got.cif
#   From: 2010.03.12/outbox.cif.g09.slc.cpg/sg57_12_cif.got.tgz:23176.got - 2010.04.16 15:48:40.
