data_PCOD8233462
_publ_section_title
;
Structure prediction by ZEFSAII (Michael W. Deem and Ramdas Pophale) SiO2 
 PCOD8233462
Probable space group: P B C M
;
_chemical_formula_sum "Si O2"
_cell_formula_units_Z 48
_cell_length_a 28.220319
_cell_length_b 9.148166
_cell_length_c 9.263979
_cell_angle_alpha 90.000000
_cell_angle_beta 90.000000
_cell_angle_gamma 90.000000
_cell_volume 2391.627383
_symmetry_space_group_name_H-M "P B C M"
_symmetry_group_IT_number 57
_symmetry_cell_setting 'orthorhombic'
loop_
_space_group_symop_operation_xyz
x,y,z
-x,-y,1/2+z
x,1/2-y,-z
-x,1/2+y,1/2-z
-x,-y,-z
x,y,1/2-z
-x,1/2+y,z
x,1/2-y,1/2+z
loop_
_atom_site_type_symbol
_atom_site_label
_atom_site_fract_x
_atom_site_fract_y
_atom_site_fract_z
Si Si1 0.533171 0.656191 0.250000
Si Si2 0.559913 0.515613 0.750000
Si Si3 0.856689 0.097082 0.082276
Si Si4 0.609271 0.914293 0.525427
Si Si5 0.696394 0.105673 0.590791
Si Si6 0.035304 0.898187 0.915457
Si Si7 0.782545 0.904028 0.575982
O O1 0.478451 0.612331 0.250000
O O2 0.532607 0.830831 0.250000
O O3 0.560270 0.593306 0.387645
O O4 0.595878 0.499572 0.618293
O O5 0.839797 0.112033 0.250000
O O6 0.910987 0.043667 0.078734
O O7 0.848735 0.250000 0.000000
O O8 0.829388 0.972292 0.994493
O O9 0.628815 0.750000 0.500000
O O10 0.649692 0.006085 0.602768
O O11 0.687512 0.250000 0.500000
O O12 0.709672 0.159494 0.750000
O O13 0.739316 0.009055 0.529463
O O14 0.018565 0.878855 0.750000
O O15 0.032728 0.750000 0.000000
O O16 0.000000 0.000000 0.000000
O O17 0.772893 0.750000 0.500000
O O18 0.787352 0.887021 0.750000
#
# Coordination Sequence:
#
# PCOD8233462 Si02
#       7
#     4   4   8   8   8   8   8
#     4  10  20  38  58  84 120 152 192 240 287 344
#     4  10  22  34  60  88 114 156 192 234 291 344
#     4  10  21  39  62  90 123 162 205 255 308 362
#     4  10  21  40  60  85 118 155 195 239 290 346
#     4  11  25  42  62  89 119 152 194 243 294 352
#     4  10  21  37  59  87 122 163 209 256 309 364
#     4  11  24  42  64  91 121 158 200 247 301 364
#
# _framework density 20.070015999999999
#
# number of rings (size 3 to 8) (size 9 to 14) (size 15 to 20)
#    0.000    1.667    0.833    3.000    1.167    6.667 
#    0.000    0.000    0.000    0.000    0.000    0.000 
#    0.000    0.000    0.000    0.000    0.000    0.000 
#
# Total GULP energy -595175.959383 kJ/mol
# GULP energy per Si atom -12399.499154 kJ/mol
# Density = 2.002434 g / cm^3
# Si number density = 20.070016 Si / 1000 Ang^3
#
#
#
# Elastic Constant Matrix: (Units=GPa)
#
#
# Indices 1 2 3 4 5 6 
#
# 1 81.4390 39.9299 30.1741 0.0000 0.0000 0.0000
# 2 39.9299 85.6872 33.7532 0.0000 0.0000 0.0000
# 3 30.1741 33.7532 126.9679 0.0000 0.0000 0.0000
# 4 0.0000 0.0000 0.0000 37.2672 0.0000 0.0000
# 5 0.0000 0.0000 0.0000 0.0000 28.1494 0.0000
# 6 0.0000 0.0000 0.0000 0.0000 0.0000 39.3310
#
#
#
# Elastic Compliance Matrix: (Units=1/GPa)
#
#
# Indices 1 2 3 4 5 6 
#
# 1 0.016394 -0.006819 -0.002083 0.000000 0.000000 0.000000
# 2 -0.006819 0.015872 -0.002599 0.000000 0.000000 0.000000
# 3 -0.002083 -0.002599 0.009062 0.000000 0.000000 0.000000
# 4 0.000000 0.000000 0.000000 0.026833 0.000000 0.000000
# 5 0.000000 0.000000 0.000000 0.000000 0.035525 0.000000
# 6 0.000000 0.000000 0.000000 0.000000 0.000000 0.025425
#
#
# Mechanical properties :
#
#
# Convention : Reuss Voigt Hill
#
# Bulk Modulus (GPa) = 54.56826 55.75650 55.16238
# Shear Modulus (GPa) = 31.60105 33.63195 32.61650
#
# Velocity S-wave (km/s) = 3.97235 4.09801 4.03567
# Velocity P-wave (km/s) = 6.94891 7.08752 7.01856
#
# Compressibility (1/GPa) = 0.01832567
#
# Stress axis : x y z
#
# Youngs Moduli (GPa) = 60.99617 63.00507 110.35108
#
# Poissons Ratio (x) = 0.42964 0.22990
# Poissons Ratio (y) = 0.41594 0.28678
# Poissons Ratio (z) = 0.12708 0.16374
#
# Static dielectric constant tensor:
#      x y z
#    x 3.402580 0.000000 0.000000 
#    y 0.000000 3.513160 0.000000 
#    z 0.000000 0.000000 3.920920 
# 
# 
# High freq. dielectric constant tensor:
#      x y z
#    x 1.785190 0.000000 0.000000 
#    y 0.000000 1.778520 0.000000 
#    z 0.000000 0.000000 1.803410 
# 
# From -- ./inp_files/10100.got.cif
#   From: 2010.03.12/outbox.cif.g09.slc.cpg/sg57_6_cif.got.tgz:10100.got - 2010.04.16 15:48:40.
