data_PCOD8233617
_publ_section_title
;
Structure prediction by ZEFSAII (Michael W. Deem and Ramdas Pophale) SiO2 
 PCOD8233617
Probable space group: P B C M
;
_chemical_formula_sum "Si O2"
_cell_formula_units_Z 52
_cell_length_a 13.791353
_cell_length_b 8.021274
_cell_length_c 21.722236
_cell_angle_alpha 90.000000
_cell_angle_beta 90.000000
_cell_angle_gamma 90.000000
_cell_volume 2403.005441
_symmetry_space_group_name_H-M "P B C M"
_symmetry_group_IT_number 57
_symmetry_cell_setting 'orthorhombic'
loop_
_space_group_symop_operation_xyz
x,y,z
-x,-y,1/2+z
x,1/2-y,-z
-x,1/2+y,1/2-z
-x,-y,-z
x,y,1/2-z
-x,1/2+y,z
x,1/2-y,1/2+z
loop_
_atom_site_type_symbol
_atom_site_label
_atom_site_fract_x
_atom_site_fract_y
_atom_site_fract_z
Si Si1 0.407590 0.412277 0.923941
Si Si2 0.048495 0.750000 0.500000
Si Si3 0.089967 0.235504 0.616944
Si Si4 0.783518 0.055527 0.878948
Si Si5 0.186489 0.914276 0.576004
Si Si6 0.394526 0.451351 0.433487
Si Si7 0.988689 0.824124 0.750000
Si Si8 0.848110 0.386288 0.250000
O O1 0.326572 0.543252 0.902431
O O2 0.514830 0.460491 0.898857
O O3 0.377435 0.227659 0.900461
O O4 0.418890 0.414142 0.996594
O O5 0.121578 0.910121 0.512830
O O6 0.987997 0.782534 0.437896
O O7 0.154840 0.395560 0.599258
O O8 0.047320 0.243403 0.685419
O O9 0.151626 0.064759 0.618934
O O10 0.833698 0.229435 0.897582
O O11 0.779464 0.062803 0.805476
O O12 0.300801 0.931651 0.566659
O O13 0.107103 0.802508 0.750000
O O14 0.951661 0.013304 0.750000
#
# Coordination Sequence:
#
# PCOD8233617 Si02
#       8
#     8   4   8   8   8   8   4   4
#     4  10  20  39  63  95 133 164 214 267 328 400
#     4  12  28  40  64  96 142 174 224 280 338 392
#     4  11  27  44  63  95 132 180 223 282 330 397
#     4  11  24  42  66  94 131 169 220 277 331 402
#     4  12  25  40  64  95 131 176 218 270 341 394
#     4  10  21  37  64  95 130 171 209 267 330 403
#     4  10  24  44  64  89 127 176 234 273 321 395
#     4  10  24  42  66  93 125 174 228 279 327 385
#
# _framework density 21.639569000000002
#
# number of rings (size 3 to 8) (size 9 to 14) (size 15 to 20)
#    0.000    1.231    1.538    3.231   12.923    2.462 
#    0.000    0.000    0.000    4.615    0.000    0.000 
#    0.000    0.000    0.000    0.000    0.000    0.000 
#
# Total GULP energy -644218.994902 kJ/mol
# GULP energy per Si atom -12388.826825 kJ/mol
# Density = 2.159032 g / cm^3
# Si number density = 21.639569 Si / 1000 Ang^3
#
#
#
# Elastic Constant Matrix: (Units=GPa)
#
#
# Indices 1 2 3 4 5 6 
#
# 1 141.1604 45.5158 40.1762 0.0000 0.0000 0.0000
# 2 45.5158 139.6305 35.6089 0.0000 0.0000 0.0000
# 3 40.1762 35.6089 89.8372 0.0000 0.0000 0.0000
# 4 0.0000 0.0000 0.0000 18.7833 0.0000 0.0000
# 5 0.0000 0.0000 0.0000 0.0000 4.7821 0.0000
# 6 0.0000 0.0000 0.0000 0.0000 0.0000 27.7023
#
#
#
# Elastic Compliance Matrix: (Units=1/GPa)
#
#
# Indices 1 2 3 4 5 6 
#
# 1 0.008605 -0.002029 -0.003044 0.000000 0.000000 0.000000
# 2 -0.002029 0.008445 -0.002440 0.000000 0.000000 0.000000
# 3 -0.003044 -0.002440 0.013460 0.000000 0.000000 0.000000
# 4 0.000000 0.000000 0.000000 0.053239 0.000000 0.000000
# 5 0.000000 0.000000 0.000000 0.000000 0.209112 0.000000
# 6 0.000000 0.000000 0.000000 0.000000 0.000000 0.036098
#
#
# Mechanical properties :
#
#
# Convention : Reuss Voigt Hill
#
# Bulk Modulus (GPa) = 64.58270 68.13666 66.35968
# Shear Modulus (GPa) = 14.32066 26.87535 20.59801
#
# Velocity S-wave (km/s) = 2.57530 3.52796 3.08858
# Velocity P-wave (km/s) = 6.22514 6.93907 6.59178
#
# Compressibility (1/GPa) = 0.01548402
#
# Stress axis : x y z
#
# Youngs Moduli (GPa) = 116.21690 118.40831 74.29516
#
# Poissons Ratio (x) = 0.24020 0.22615
# Poissons Ratio (y) = 0.23576 0.18130
# Poissons Ratio (z) = 0.35376 0.28895
#
# Static dielectric constant tensor:
#      x y z
#    x 3.908560 0.000000 0.000000 
#    y 0.000000 4.247270 0.000000 
#    z 0.000000 0.000000 3.744060 
# 
# 
# High freq. dielectric constant tensor:
#      x y z
#    x 1.851330 0.000000 0.000000 
#    y 0.000000 1.865550 0.000000 
#    z 0.000000 0.000000 1.819780 
# 
# From -- ./inp_files/25360.got.cif
#   From: 2010.03.12/outbox.cif.g09.slc.cpg/sg57_13_cif.got.tgz:25360.got - 2010.04.16 15:48:40.
