data_PCOD8233736
_publ_section_title
;
Structure prediction by ZEFSAII (Michael W. Deem and Ramdas Pophale) SiO2 
 PCOD8233736
Probable space group: P B C M
;
_chemical_formula_sum "Si O2"
_cell_formula_units_Z 64
_cell_length_a 20.666061
_cell_length_b 18.329851
_cell_length_c 9.245251
_cell_angle_alpha 90.000000
_cell_angle_beta 90.000000
_cell_angle_gamma 90.000000
_cell_volume 3502.154876
_symmetry_space_group_name_H-M "P B C M"
_symmetry_group_IT_number 57
_symmetry_cell_setting 'orthorhombic'
loop_
_space_group_symop_operation_xyz
x,y,z
-x,-y,1/2+z
x,1/2-y,-z
-x,1/2+y,1/2-z
-x,-y,-z
x,y,1/2-z
-x,1/2+y,z
x,1/2-y,1/2+z
loop_
_atom_site_type_symbol
_atom_site_label
_atom_site_fract_x
_atom_site_fract_y
_atom_site_fract_z
Si Si1 0.008310 0.675947 0.080096
Si Si2 0.382815 0.098678 0.917455
Si Si3 0.514265 0.325786 0.421679
Si Si4 0.748505 0.449827 0.587648
Si Si5 0.740146 0.906654 0.582685
Si Si6 0.117600 0.408782 0.582116
Si Si7 0.609334 0.427564 0.913647
Si Si8 0.109973 0.558695 0.415736
O O1 0.017139 0.688333 0.250000
O O2 0.059356 0.616486 0.020296
O O3 0.935819 0.650867 0.040106
O O4 0.024332 0.750000 0.000000
O O5 0.370784 0.111069 0.750000
O O6 0.444424 0.144506 0.970704
O O7 0.394163 0.013450 0.952557
O O8 0.319059 0.131004 0.997053
O O9 0.528308 0.250000 0.500000
O O10 0.519494 0.315959 0.250000
O O11 0.567355 0.384106 0.471325
O O12 0.746326 0.485918 0.750000
O O13 0.744621 0.509484 0.463047
O O14 0.684284 0.399736 0.572446
O O15 0.816872 0.407907 0.568905
O O16 0.722982 0.900550 0.750000
O O17 0.811518 0.873636 0.547200
O O18 0.113365 0.430036 0.750000
O O19 0.103419 0.482282 0.495952
O O20 0.583701 0.414264 0.750000
O O21 0.092446 0.543003 0.250000
#
# Coordination Sequence:
#
# PCOD8233736 Si02
#       8
#     8   8   8   8   8   8   8   8
#     4  10  21  35  49  69 100 135 170 207 246 290
#     4   9  19  35  54  76 101 129 162 201 245 294
#     4  11  23  37  52  72 100 133 168 204 243 290
#     4   8  15  29  49  74 103 129 157 198 246 293
#     4   9  16  27  48  76 102 126 157 202 248 289
#     4   9  18  32  50  75 103 128 161 205 248 292
#     4   9  17  32  54  77 101 128 159 200 246 291
#     4   9  17  31  53  77  99 128 165 203 245 293
#
# _framework density 18.274463000000001
#
# number of rings (size 3 to 8) (size 9 to 14) (size 15 to 20)
#    0.000    2.750    0.000    2.250    0.000    4.500 
#    0.000    1.250    0.000    4.500    0.000    0.000 
#    0.000    0.000    0.000    0.000    0.000    0.000 
#
# Total GULP energy -793159.991515 kJ/mol
# GULP energy per Si atom -12393.124867 kJ/mol
# Density = 1.823287 g / cm^3
# Si number density = 18.274463 Si / 1000 Ang^3
#
#
#
# Elastic Constant Matrix: (Units=GPa)
#
#
# Indices 1 2 3 4 5 6 
#
# 1 90.8921 3.1560 24.6412 0.0000 0.0000 0.0000
# 2 3.1560 30.8075 15.1015 0.0000 0.0000 0.0000
# 3 24.6412 15.1015 45.2222 0.0000 0.0000 0.0000
# 4 0.0000 0.0000 0.0000 23.0043 0.0000 0.0000
# 5 0.0000 0.0000 0.0000 0.0000 28.5211 0.0000
# 6 0.0000 0.0000 0.0000 0.0000 0.0000 5.5822
#
#
#
# Elastic Compliance Matrix: (Units=1/GPa)
#
#
# Indices 1 2 3 4 5 6 
#
# 1 0.013078 0.002575 -0.007986 0.000000 0.000000 0.000000
# 2 0.002575 0.039320 -0.014534 0.000000 0.000000 0.000000
# 3 -0.007986 -0.014534 0.031318 0.000000 0.000000 0.000000
# 4 0.000000 0.000000 0.000000 0.043470 0.000000 0.000000
# 5 0.000000 0.000000 0.000000 0.000000 0.035062 0.000000
# 6 0.000000 0.000000 0.000000 0.000000 0.000000 0.179141
#
#
# Mechanical properties :
#
#
# Convention : Reuss Voigt Hill
#
# Bulk Modulus (GPa) = 22.81726 28.07992 25.44859
# Shear Modulus (GPa) = 12.62991 19.68973 16.15982
#
# Velocity S-wave (km/s) = 2.63177 3.28601 2.97692
# Velocity P-wave (km/s) = 4.66347 5.45858 5.07662
#
# Compressibility (1/GPa) = 0.04382646
#
# Stress axis : x y z
#
# Youngs Moduli (GPa) = 76.46665 25.43231 31.93084
#
# Poissons Ratio (x) = -0.06548 0.25499
# Poissons Ratio (y) = -0.19689 0.46407
# Poissons Ratio (z) = 0.61064 0.36962
#
# Static dielectric constant tensor:
#      x y z
#    x 3.916590 0.000000 0.000000 
#    y 0.000000 2.937250 0.000000 
#    z 0.000000 0.000000 3.342560 
# 
# 
# High freq. dielectric constant tensor:
#      x y z
#    x 1.734150 0.000000 0.000000 
#    y 0.000000 1.658970 0.000000 
#    z 0.000000 0.000000 1.708110 
# 
# From -- ./inp_files/8520.got.cif
#   From: 2010.03.12/outbox.cif.g09.slc.cpg/sg57_5_cif.got.tgz:8520.got - 2010.04.16 15:48:40.
