data_PCOD8233606
_publ_section_title
;
Structure prediction by ZEFSAII (Michael W. Deem and Ramdas Pophale) SiO2 
 PCOD8233606
Probable space group: P B C M
;
_chemical_formula_sum "Si O2"
_cell_formula_units_Z 56
_cell_length_a 19.317905
_cell_length_b 8.690566
_cell_length_c 16.020526
_cell_angle_alpha 90.000000
_cell_angle_beta 90.000000
_cell_angle_gamma 90.000000
_cell_volume 2689.582431
_symmetry_space_group_name_H-M "P B C M"
_symmetry_group_IT_number 57
_symmetry_cell_setting 'orthorhombic'
loop_
_space_group_symop_operation_xyz
x,y,z
-x,-y,1/2+z
x,1/2-y,-z
-x,1/2+y,1/2-z
-x,-y,-z
x,y,1/2-z
-x,1/2+y,z
x,1/2-y,1/2+z
loop_
_atom_site_type_symbol
_atom_site_label
_atom_site_fract_x
_atom_site_fract_y
_atom_site_fract_z
Si Si1 0.528766 0.871272 0.059980
Si Si2 0.268707 0.614179 0.342670
Si Si3 0.938804 0.854963 0.428766
Si Si4 0.576433 0.350171 0.844923
Si Si5 0.191724 0.919214 0.342932
Si Si6 0.045510 0.054691 0.158406
Si Si7 0.786506 0.920357 0.489002
O O1 0.467343 0.771948 0.102076
O O2 0.572043 0.968218 0.127788
O O3 0.571236 0.750000 0.000000
O O4 0.500000 0.000000 0.000000
O O5 0.264229 0.536827 0.250000
O O6 0.343142 0.696611 0.353089
O O7 0.208332 0.739605 0.351282
O O8 0.259228 0.492035 0.415827
O O9 0.974223 0.750000 0.500000
O O10 0.928778 0.731241 0.354038
O O11 0.867108 0.924466 0.462807
O O12 0.987045 0.998479 0.405900
O O13 0.550148 0.340043 0.750000
O O14 0.216399 0.978872 0.250000
O O15 0.109556 0.938760 0.350299
O O16 0.227849 0.002408 0.421097
O O17 0.012651 0.044376 0.250000
O O18 0.758620 0.750000 0.500000
#
# Coordination Sequence:
#
# PCOD8233606 Si02
#       7
#     8   8   8   8   8   8   8
#     4   9  19  34  59  91 126 160 201 247 295 354
#     4  10  24  41  64  91 122 163 212 255 303 372
#     4  11  23  39  58  85 115 150 198 249 311 373
#     4  10  20  39  62  92 125 163 204 250 304 359
#     4  10  22  41  60  87 120 158 205 252 306 375
#     4  11  23  39  60  86 115 151 197 251 311 372
#     4  11  23  41  62  87 119 163 201 257 317 362
#
# _framework density 20.821076000000001
#
# number of rings (size 3 to 8) (size 9 to 14) (size 15 to 20)
#    0.000    1.714    2.857    1.714    2.000    5.714 
#    0.000    1.429    0.000    6.857    0.000    0.000 
#    0.000    0.000    0.000    0.000    0.000    0.000 
#
# Total GULP energy -693834.717621 kJ/mol
# GULP energy per Si atom -12389.905672 kJ/mol
# Density = 2.077369 g / cm^3
# Si number density = 20.821076 Si / 1000 Ang^3
#
#
#
# Elastic Constant Matrix: (Units=GPa)
#
#
# Indices 1 2 3 4 5 6 
#
# 1 50.3089 26.8349 28.6822 0.0000 0.0000 0.0000
# 2 26.8349 95.2363 51.1094 0.0000 0.0000 0.0000
# 3 28.6822 51.1094 162.1351 0.0000 0.0000 0.0000
# 4 0.0000 0.0000 0.0000 37.9493 0.0000 0.0000
# 5 0.0000 0.0000 0.0000 0.0000 17.4684 0.0000
# 6 0.0000 0.0000 0.0000 0.0000 0.0000 24.4546
#
#
#
# Elastic Compliance Matrix: (Units=1/GPa)
#
#
# Indices 1 2 3 4 5 6 
#
# 1 0.024252 -0.005454 -0.002571 0.000000 0.000000 0.000000
# 2 -0.005454 0.013865 -0.003406 0.000000 0.000000 0.000000
# 3 -0.002571 -0.003406 0.007696 0.000000 0.000000 0.000000
# 4 0.000000 0.000000 0.000000 0.026351 0.000000 0.000000
# 5 0.000000 0.000000 0.000000 0.000000 0.057246 0.000000
# 6 0.000000 0.000000 0.000000 0.000000 0.000000 0.040892
#
#
# Mechanical properties :
#
#
# Convention : Reuss Voigt Hill
#
# Bulk Modulus (GPa) = 43.56982 57.88146 50.72564
# Shear Modulus (GPa) = 24.89867 29.37803 27.13835
#
# Velocity S-wave (km/s) = 3.46184 3.76037 3.61419
# Velocity P-wave (km/s) = 6.07868 6.83474 6.46777
#
# Compressibility (1/GPa) = 0.02295167
#
# Stress axis : x y z
#
# Youngs Moduli (GPa) = 41.23365 72.12606 129.93581
#
# Poissons Ratio (x) = 0.39336 0.33408
# Poissons Ratio (y) = 0.22488 0.44253
# Poissons Ratio (z) = 0.10602 0.24564
#
# Static dielectric constant tensor:
#      x y z
#    x 3.403260 0.000000 0.000000 
#    y 0.000000 4.028610 0.000000 
#    z 0.000000 0.000000 4.360250 
# 
# 
# High freq. dielectric constant tensor:
#      x y z
#    x 1.781450 0.000000 0.000000 
#    y 0.000000 1.812010 0.000000 
#    z 0.000000 0.000000 1.844800 
# 
# From -- ./inp_files/19342.got.cif
#   From: 2010.03.12/outbox.cif.g09.slc.cpg/sg57_10_cif.got.tgz:19342.got - 2010.04.16 15:48:40.
