data_PCOD8233248
_publ_section_title
;
Structure prediction by ZEFSAII (Michael W. Deem and Ramdas Pophale) SiO2 
 PCOD8233248
Probable space group: P B C M
;
_chemical_formula_sum "Si O2"
_cell_formula_units_Z 64
_cell_length_a 14.643996
_cell_length_b 23.591585
_cell_length_c 8.933965
_cell_angle_alpha 90.000000
_cell_angle_beta 90.000000
_cell_angle_gamma 90.000000
_cell_volume 3086.462241
_symmetry_space_group_name_H-M "P B C M"
_symmetry_group_IT_number 57
_symmetry_cell_setting 'orthorhombic'
loop_
_space_group_symop_operation_xyz
x,y,z
-x,-y,1/2+z
x,1/2-y,-z
-x,1/2+y,1/2-z
-x,-y,-z
x,y,1/2-z
-x,1/2+y,z
x,1/2-y,1/2+z
loop_
_atom_site_type_symbol
_atom_site_label
_atom_site_fract_x
_atom_site_fract_y
_atom_site_fract_z
Si Si1 0.129349 0.894394 0.073008
Si Si2 0.546053 0.356975 0.078511
Si Si3 0.730698 0.304107 0.416179
Si Si4 0.016089 0.188530 0.071833
Si Si5 0.641282 0.807248 0.078926
Si Si6 0.789349 0.999347 0.425845
Si Si7 0.413529 0.529531 0.425816
Si Si8 0.176916 0.128666 0.921415
O O1 0.110559 0.898110 0.250000
O O2 0.222523 0.861887 0.028162
O O3 0.047558 0.860792 0.994462
O O4 0.142520 0.957533 0.009557
O O5 0.533999 0.379100 0.250000
O O6 0.621575 0.307629 0.071439
O O7 0.452274 0.332505 0.011443
O O8 0.583022 0.405262 0.970595
O O9 0.769931 0.250000 0.500000
O O10 0.764677 0.293487 0.250000
O O11 0.005245 0.193114 0.250000
O O12 0.994695 0.250000 0.000000
O O13 0.118070 0.168354 0.030513
O O14 0.623397 0.791742 0.250000
O O15 0.717940 0.854441 0.058025
O O16 0.672161 0.750000 0.000000
O O17 0.793395 0.012128 0.250000
O O18 0.683766 0.003994 0.481195
O O19 0.829157 0.937410 0.464345
O O20 0.500000 0.500000 0.500000
O O21 0.422871 0.521741 0.250000
O O22 0.145263 0.138808 0.750000
#
# Coordination Sequence:
#
# PCOD8233248 Si02
#       8
#     8   8   8   8   8   8   8   8
#     4  11  23  41  65  94 127 166 207 255 309 367
#     4  10  20  37  56  83 121 161 203 253 308 366
#     4  10  21  35  56  85 120 159 199 245 297 357
#     4  12  26  45  69  97 126 162 206 257 315 377
#     4  10  21  37  60  87 123 164 207 260 315 370
#     4  10  22  41  64  92 127 167 210 259 315 374
#     4  11  22  36  58  87 121 165 212 259 307 363
#     4  10  22  42  65  91 123 163 208 259 317 375
#
# _framework density 20.735714000000002
#
# number of rings (size 3 to 8) (size 9 to 14) (size 15 to 20)
#    0.000    1.500    1.250    3.750    0.000    8.000 
#    0.000    1.250    0.000    0.000    0.000    0.000 
#    0.000    0.000    0.000    0.000    0.000    0.000 
#
# Total GULP energy -793638.598407 kJ/mol
# GULP energy per Si atom -12400.603100 kJ/mol
# Density = 2.068852 g / cm^3
# Si number density = 20.735714 Si / 1000 Ang^3
#
#
#
# Elastic Constant Matrix: (Units=GPa)
#
#
# Indices 1 2 3 4 5 6 
#
# 1 81.1869 18.7587 28.5354 0.0000 0.0000 0.0000
# 2 18.7587 108.0254 40.3249 0.0000 0.0000 0.0000
# 3 28.5354 40.3249 75.2555 0.0000 0.0000 0.0000
# 4 0.0000 0.0000 0.0000 37.9938 0.0000 0.0000
# 5 0.0000 0.0000 0.0000 0.0000 29.5379 0.0000
# 6 0.0000 0.0000 0.0000 0.0000 0.0000 78.1060
#
#
#
# Elastic Compliance Matrix: (Units=1/GPa)
#
#
# Indices 1 2 3 4 5 6 
#
# 1 0.014239 -0.000571 -0.005093 0.000000 0.000000 0.000000
# 2 -0.000571 0.011595 -0.005996 0.000000 0.000000 0.000000
# 3 -0.005093 -0.005996 0.018432 0.000000 0.000000 0.000000
# 4 0.000000 0.000000 0.000000 0.026320 0.000000 0.000000
# 5 0.000000 0.000000 0.000000 0.000000 0.033855 0.000000
# 6 0.000000 0.000000 0.000000 0.000000 0.000000 0.012803
#
#
# Mechanical properties :
#
#
# Convention : Reuss Voigt Hill
#
# Bulk Modulus (GPa) = 47.74450 48.85621 48.30035
# Shear Modulus (GPa) = 33.88744 40.91747 37.40245
#
# Velocity S-wave (km/s) = 4.04698 4.44699 4.25169
# Velocity P-wave (km/s) = 6.70169 7.06966 6.88813
#
# Compressibility (1/GPa) = 0.02094482
#
# Stress axis : x y z
#
# Youngs Moduli (GPa) = 70.22770 86.24676 54.25276
#
# Poissons Ratio (x) = 0.04929 0.27631
# Poissons Ratio (y) = 0.04013 0.32531
# Poissons Ratio (z) = 0.35767 0.51715
#
# Static dielectric constant tensor:
#      x y z
#    x 3.818330 0.000000 0.000000 
#    y 0.000000 3.702340 0.000000 
#    z 0.000000 0.000000 3.763370 
# 
# 
# High freq. dielectric constant tensor:
#      x y z
#    x 1.821050 0.000000 0.000000 
#    y 0.000000 1.817290 0.000000 
#    z 0.000000 0.000000 1.801180 
# 
# From -- ./inp_files/5724.got.cif
#   From: 2010.03.12/outbox.cif.g09.slc.cpg/sg57_3_cif.got.tgz:5724.got - 2010.04.16 15:48:40.
