data_PCOD8233087
_publ_section_title
;
Structure prediction by ZEFSAII (Michael W. Deem and Ramdas Pophale) SiO2 
 PCOD8233087
Probable space group: P B C M
;
_chemical_formula_sum "Si O2"
_cell_formula_units_Z 64
_cell_length_a 25.518218
_cell_length_b 14.418228
_cell_length_c 9.365064
_cell_angle_alpha 90.000000
_cell_angle_beta 90.000000
_cell_angle_gamma 90.000000
_cell_volume 3445.664447
_symmetry_space_group_name_H-M "P B C M"
_symmetry_group_IT_number 57
_symmetry_cell_setting 'orthorhombic'
loop_
_space_group_symop_operation_xyz
x,y,z
-x,-y,1/2+z
x,1/2-y,-z
-x,1/2+y,1/2-z
-x,-y,-z
x,y,1/2-z
-x,1/2+y,z
x,1/2-y,1/2+z
loop_
_atom_site_type_symbol
_atom_site_label
_atom_site_fract_x
_atom_site_fract_y
_atom_site_fract_z
Si Si1 0.638254 0.846937 0.083072
Si Si2 0.114118 0.168376 0.090936
Si Si3 0.824717 0.017625 0.912662
Si Si4 0.994211 0.592451 0.086307
Si Si5 0.632763 0.155369 0.086553
Si Si6 0.891693 0.160645 0.415512
Si Si7 0.279885 0.505130 0.413604
Si Si8 0.554091 0.997613 0.418423
O O1 0.637174 0.823629 0.250000
O O2 0.688125 0.911893 0.046870
O O3 0.586276 0.904735 0.039424
O O4 0.641246 0.750000 0.000000
O O5 0.106077 0.205540 0.250000
O O6 0.155088 0.086213 0.086051
O O7 0.056963 0.144133 0.025503
O O8 0.139851 0.250000 0.000000
O O9 0.823601 0.056525 0.750000
O O10 0.864572 0.073592 0.011352
O O11 0.767125 0.018109 0.977117
O O12 0.984072 0.564302 0.250000
O O13 0.045630 0.655127 0.069151
O O14 0.000000 0.500000 0.000000
O O15 0.624606 0.183453 0.250000
O O16 0.685747 0.097256 0.067051
O O17 0.585260 0.089966 0.034620
O O18 0.634985 0.250000 0.000000
O O19 0.871249 0.250000 0.500000
O O20 0.874833 0.166427 0.250000
O O21 0.259941 0.498296 0.250000
O O22 0.544227 0.998426 0.250000
O O23 0.500000 0.000000 0.500000
#
# Coordination Sequence:
#
# PCOD8233087 Si02
#       8
#     8   8   8   8   8   8   8   8
#     4   9  19  36  57  80 109 146 187 230 275 325
#     4  10  22  38  56  81 111 142 178 220 268 324
#     4  11  23  39  58  82 113 143 180 230 278 330
#     4  10  20  36  58  82 109 143 179 219 269 324
#     4   9  19  36  57  80 108 143 183 226 270 320
#     4  11  23  38  59  84 110 145 183 222 272 329
#     4   9  20  39  58  77 107 144 182 226 277 330
#     4   9  19  35  53  79 115 151 184 222 270 319
#
# _framework density 18.574066999999999
#
# number of rings (size 3 to 8) (size 9 to 14) (size 15 to 20)
#    0.000    2.250    1.250    2.625    0.000    5.500 
#    0.000    8.750    0.000    0.000    0.000    0.000 
#    0.000    0.000    0.000    0.000    0.000    0.000 
#
# Total GULP energy -793530.084537 kJ/mol
# GULP energy per Si atom -12398.907571 kJ/mol
# Density = 1.853179 g / cm^3
# Si number density = 18.574067 Si / 1000 Ang^3
#
#
#
# Elastic Constant Matrix: (Units=GPa)
#
#
# Indices 1 2 3 4 5 6 
#
# 1 87.5489 15.1494 35.8540 0.0000 0.0000 0.0000
# 2 15.1494 107.8864 50.1355 0.0000 0.0000 0.0000
# 3 35.8540 50.1355 89.4768 0.0000 0.0000 0.0000
# 4 0.0000 0.0000 0.0000 40.5924 0.0000 0.0000
# 5 0.0000 0.0000 0.0000 0.0000 32.5120 0.0000
# 6 0.0000 0.0000 0.0000 0.0000 0.0000 -9.2573
#
#
#
# Elastic Compliance Matrix: (Units=1/GPa)
#
#
# Indices 1 2 3 4 5 6 
#
# 1 0.013722 0.000850 -0.005975 0.000000 0.000000 0.000000
# 2 0.000850 0.012585 -0.007392 0.000000 0.000000 0.000000
# 3 -0.005975 -0.007392 0.017712 0.000000 0.000000 0.000000
# 4 0.000000 0.000000 0.000000 0.024635 0.000000 0.000000
# 5 0.000000 0.000000 0.000000 0.000000 0.030758 0.000000
# 6 0.000000 0.000000 0.000000 0.000000 0.000000 -0.108023
#
#
# Mechanical properties :
#
#
# Convention : Reuss Voigt Hill
#
# Bulk Modulus (GPa) = 52.67335 54.13222 53.40279
# Shear Modulus (GPa) = 219.76892 25.02096 122.39494
#
# Velocity S-wave (km/s) = 10.88931 3.67426 8.12642
# Velocity P-wave (km/s) = 13.65734 6.87077 10.81042
#
# Compressibility (1/GPa) = 0.01898493
#
# Stress axis : x y z
#
# Youngs Moduli (GPa) = 72.87608 79.46104 56.45910
#
# Poissons Ratio (x) = -0.06751 0.33732
# Poissons Ratio (y) = -0.06191 0.41734
# Poissons Ratio (z) = 0.43540 0.58737
#
# Static dielectric constant tensor:
#      x y z
#    x 3.484670 0.000000 0.000000 
#    y 0.000000 3.376760 0.000000 
#    z 0.000000 0.000000 3.430760 
# 
# 
# High freq. dielectric constant tensor:
#      x y z
#    x 1.719530 0.000000 0.000000 
#    y 0.000000 1.723780 0.000000 
#    z 0.000000 0.000000 1.722760 
# 
# From -- ./inp_files/9321.got.cif
#   From: 2010.03.12/outbox.cif.g09.slc.cpg/sg57_5_cif.got.tgz:9321.got - 2010.04.16 15:48:40.
