data_PCOD8233527
_publ_section_title
;
Structure prediction by ZEFSAII (Michael W. Deem and Ramdas Pophale) SiO2 
 PCOD8233527
Probable space group: P B C M
;
_chemical_formula_sum "Si O2"
_cell_formula_units_Z 48
_cell_length_a 9.068617
_cell_length_b 30.892172
_cell_length_c 8.700956
_cell_angle_alpha 90.000000
_cell_angle_beta 90.000000
_cell_angle_gamma 90.000000
_cell_volume 2437.566525
_symmetry_space_group_name_H-M "P B C M"
_symmetry_group_IT_number 57
_symmetry_cell_setting 'orthorhombic'
loop_
_space_group_symop_operation_xyz
x,y,z
-x,-y,1/2+z
x,1/2-y,-z
-x,1/2+y,1/2-z
-x,-y,-z
x,y,1/2-z
-x,1/2+y,z
x,1/2-y,1/2+z
loop_
_atom_site_type_symbol
_atom_site_label
_atom_site_fract_x
_atom_site_fract_y
_atom_site_fract_z
Si Si1 0.912036 0.294840 0.930591
Si Si2 0.914500 0.039827 0.430178
Si Si3 0.099214 0.123373 0.068607
Si Si4 0.423823 0.704266 0.067490
Si Si5 0.583198 0.877104 0.068862
Si Si6 0.419332 0.541297 0.432460
O O1 0.916679 0.290318 0.750000
O O2 0.744805 0.304795 0.983481
O O3 0.018371 0.332997 0.986791
O O4 0.970729 0.250000 0.000000
O O5 0.913447 0.033533 0.250000
O O6 0.748144 0.040844 0.493145
O O7 0.992560 0.084241 0.477099
O O8 0.000000 0.000000 0.500000
O O9 0.134389 0.124078 0.250000
O O10 0.246411 0.117577 0.972172
O O11 0.443039 0.703856 0.250000
O O12 0.476877 0.750000 0.000000
O O13 0.527529 0.668507 0.993573
O O14 0.561338 0.880017 0.250000
O O15 0.493100 0.914980 0.988999
O O16 0.500000 0.500000 0.500000
O O17 0.428129 0.539799 0.250000
#
# Coordination Sequence:
#
# PCOD8233527 Si02
#       6
#     8   8   8   8   8   8
#     4   9  19  36  60  86 113 147 190 236 289 345
#     4  10  22  39  61  86 114 148 189 234 286 342
#     4  10  21  39  59  81 113 154 192 235 289 343
#     4  10  20  38  62  88 117 152 193 241 292 347
#     4  12  25  39  57  86 119 156 198 240 287 343
#     4  11  23  41  63  89 119 153 192 238 288 344
#
# _framework density 19.691769000000001
#
# number of rings (size 3 to 8) (size 9 to 14) (size 15 to 20)
#    0.000    1.667    0.000    4.500    0.000    9.333 
#    0.000    3.333    0.000    0.000    0.000    0.000 
#    0.000    0.000    0.000    0.000    0.000    0.000 
#
# Total GULP energy -595422.316552 kJ/mol
# GULP energy per Si atom -12404.631595 kJ/mol
# Density = 1.964695 g / cm^3
# Si number density = 19.691769 Si / 1000 Ang^3
#
#
#
# Elastic Constant Matrix: (Units=GPa)
#
#
# Indices 1 2 3 4 5 6 
#
# 1 153.5849 86.8042 43.9271 0.0000 0.0000 0.0000
# 2 86.8042 161.4375 40.5079 0.0000 0.0000 0.0000
# 3 43.9271 40.5079 60.8579 0.0000 0.0000 0.0000
# 4 0.0000 0.0000 0.0000 39.4723 0.0000 0.0000
# 5 0.0000 0.0000 0.0000 0.0000 29.1072 0.0000
# 6 0.0000 0.0000 0.0000 0.0000 0.0000 35.1188
#
#
#
# Elastic Compliance Matrix: (Units=1/GPa)
#
#
# Indices 1 2 3 4 5 6 
#
# 1 0.010284 -0.004402 -0.004493 0.000000 0.000000 0.000000
# 2 -0.004402 0.009321 -0.003026 0.000000 0.000000 0.000000
# 3 -0.004493 -0.003026 0.021689 0.000000 0.000000 0.000000
# 4 0.000000 0.000000 0.000000 0.025334 0.000000 0.000000
# 5 0.000000 0.000000 0.000000 0.000000 0.034356 0.000000
# 6 0.000000 0.000000 0.000000 0.000000 0.000000 0.028475
#
#
# Mechanical properties :
#
#
# Convention : Reuss Voigt Hill
#
# Bulk Modulus (GPa) = 57.30396 79.81764 68.56080
# Shear Modulus (GPa) = 31.42293 34.38240 32.90267
#
# Velocity S-wave (km/s) = 3.99900 4.18308 4.09208
# Velocity P-wave (km/s) = 7.10537 7.99703 7.56435
#
# Compressibility (1/GPa) = 0.01745080
#
# Stress axis : x y z
#
# Youngs Moduli (GPa) = 97.23575 107.28542 46.10612
#
# Poissons Ratio (x) = 0.47232 0.20715
# Poissons Ratio (y) = 0.42808 0.13954
# Poissons Ratio (z) = 0.43686 0.32469
#
# Static dielectric constant tensor:
#      x y z
#    x 3.842330 0.000000 0.000000 
#    y 0.000000 3.825030 0.000000 
#    z 0.000000 0.000000 3.611060 
# 
# 
# High freq. dielectric constant tensor:
#      x y z
#    x 1.777170 0.000000 0.000000 
#    y 0.000000 1.786590 0.000000 
#    z 0.000000 0.000000 1.765620 
# 
# From -- ./inp_files/2046.got.cif
#   From: 2010.03.12/outbox.cif.g09.slc.cpg/sg57_2_cif.got.tgz:2046.got - 2010.04.16 15:48:40.
