data_PCOD8233403
_publ_section_title
;
Structure prediction by ZEFSAII (Michael W. Deem and Ramdas Pophale) SiO2 
 PCOD8233403
Probable space group: P B C M
;
_chemical_formula_sum "Si O2"
_cell_formula_units_Z 44
_cell_length_a 9.327469
_cell_length_b 16.897148
_cell_length_c 13.343522
_cell_angle_alpha 90.000000
_cell_angle_beta 90.000000
_cell_angle_gamma 90.000000
_cell_volume 2103.040800
_symmetry_space_group_name_H-M "P B C M"
_symmetry_group_IT_number 57
_symmetry_cell_setting 'orthorhombic'
loop_
_space_group_symop_operation_xyz
x,y,z
-x,-y,1/2+z
x,1/2-y,-z
-x,1/2+y,1/2-z
-x,-y,-z
x,y,1/2-z
-x,1/2+y,z
x,1/2-y,1/2+z
loop_
_atom_site_type_symbol
_atom_site_label
_atom_site_fract_x
_atom_site_fract_y
_atom_site_fract_z
Si Si1 0.642439 0.520659 0.942721
Si Si2 0.888203 0.882785 0.966401
Si Si3 0.297442 0.750000 0.000000
Si Si4 0.828879 0.384069 0.631724
Si Si5 0.481190 0.327268 0.361040
Si Si6 0.818345 0.730307 0.861785
O O1 0.698155 0.444919 0.881526
O O2 0.595238 0.587382 0.864362
O O3 0.500000 0.500000 0.000000
O O4 0.763350 0.552217 0.021013
O O5 0.860841 0.820950 0.876814
O O6 0.036706 0.922924 0.929245
O O7 0.903668 0.831688 0.068399
O O8 0.203496 0.701167 0.080270
O O9 0.393361 0.814369 0.058906
O O10 0.857968 0.371485 0.750000
O O11 0.545349 0.314374 0.250000
O O12 0.352186 0.266691 0.383787
O O13 0.854362 0.702691 0.750000
#
# Coordination Sequence:
#
# PCOD8233403 Si02
#       6
#     8   8   4   8   8   8
#     4  11  22  43  66  87 127 169 211 263 319 373
#     4  10  21  39  63  92 127 167 208 258 317 374
#     4  12  22  40  64  92 128 168 208 272 320 376
#     4  12  26  42  64  93 130 170 211 265 327 386
#     4  10  20  37  62  92 123 161 212 263 317 375
#     4   9  18  35  64  94 125 166 211 257 315 376
#
# _framework density 20.922087000000001
#
# number of rings (size 3 to 8) (size 9 to 14) (size 15 to 20)
#    0.000    1.455    1.818    5.455    0.000    0.727 
#    0.000    3.636    0.000    0.000    0.000    0.000 
#    0.000    0.000    0.000    0.000    0.000    0.000 
#
# Total GULP energy -545404.161405 kJ/mol
# GULP energy per Si atom -12395.549123 kJ/mol
# Density = 2.087447 g / cm^3
# Si number density = 20.922087 Si / 1000 Ang^3
#
#
#
# Elastic Constant Matrix: (Units=GPa)
#
#
# Indices 1 2 3 4 5 6 
#
# 1 96.7080 29.1197 53.0308 0.0000 0.0000 0.0000
# 2 29.1197 70.1993 22.9613 0.0000 0.0000 0.0000
# 3 53.0308 22.9613 140.1015 0.0000 0.0000 0.0000
# 4 0.0000 0.0000 0.0000 22.1230 0.0000 0.0000
# 5 0.0000 0.0000 0.0000 0.0000 28.1122 0.0000
# 6 0.0000 0.0000 0.0000 0.0000 0.0000 38.7956
#
#
#
# Elastic Compliance Matrix: (Units=1/GPa)
#
#
# Indices 1 2 3 4 5 6 
#
# 1 0.014214 -0.004371 -0.004664 0.000000 0.000000 0.000000
# 2 -0.004371 0.016396 -0.001033 0.000000 0.000000 0.000000
# 3 -0.004664 -0.001033 0.009072 0.000000 0.000000 0.000000
# 4 0.000000 0.000000 0.000000 0.045202 0.000000 0.000000
# 5 0.000000 0.000000 0.000000 0.000000 0.035572 0.000000
# 6 0.000000 0.000000 0.000000 0.000000 0.000000 0.025776
#
#
# Mechanical properties :
#
#
# Convention : Reuss Voigt Hill
#
# Bulk Modulus (GPa) = 51.15730 57.47028 54.31379
# Shear Modulus (GPa) = 28.92137 31.26595 30.09366
#
# Velocity S-wave (km/s) = 3.72201 3.86994 3.79670
# Velocity P-wave (km/s) = 6.55558 6.89180 6.72579
#
# Compressibility (1/GPa) = 0.01954755
#
# Stress axis : x y z
#
# Youngs Moduli (GPa) = 70.35344 60.99058 110.22550
#
# Poissons Ratio (x) = 0.26657 0.51408
# Poissons Ratio (y) = 0.30749 0.11384
# Poissons Ratio (z) = 0.32812 0.06299
#
# Static dielectric constant tensor:
#      x y z
#    x 3.899710 0.000000 0.000000 
#    y 0.000000 4.512810 0.000000 
#    z 0.000000 0.000000 5.693990 
# 
# 
# High freq. dielectric constant tensor:
#      x y z
#    x 1.820340 0.000000 0.000000 
#    y 0.000000 1.811590 0.000000 
#    z 0.000000 0.000000 1.818030 
# 
# From -- ./inp_files/16225.got.cif
#   From: 2010.03.12/outbox.cif.g09.slc.cpg/sg57_9_cif.got.tgz:16225.got - 2010.04.16 15:48:40.
