data_PCOD8233861
_publ_section_title
;
Structure prediction by ZEFSAII (Michael W. Deem and Ramdas Pophale) SiO2 
 PCOD8233861
Probable space group: P B C M
;
_chemical_formula_sum "Si O2"
_cell_formula_units_Z 64
_cell_length_a 20.490070
_cell_length_b 9.423394
_cell_length_c 17.523603
_cell_angle_alpha 90.000000
_cell_angle_beta 90.000000
_cell_angle_gamma 90.000000
_cell_volume 3383.562456
_symmetry_space_group_name_H-M "P B C M"
_symmetry_group_IT_number 57
_symmetry_cell_setting 'orthorhombic'
loop_
_space_group_symop_operation_xyz
x,y,z
-x,-y,1/2+z
x,1/2-y,-z
-x,1/2+y,1/2-z
-x,-y,-z
x,y,1/2-z
-x,1/2+y,z
x,1/2-y,1/2+z
loop_
_atom_site_type_symbol
_atom_site_label
_atom_site_fract_x
_atom_site_fract_y
_atom_site_fract_z
Si Si1 0.456462 0.037009 0.661842
Si Si2 0.837537 0.164992 0.073173
Si Si3 0.302040 0.723693 0.087716
Si Si4 0.428513 0.724531 0.659534
Si Si5 0.200152 0.341140 0.071556
Si Si6 0.315560 0.426436 0.162311
Si Si7 0.959443 0.077425 0.160878
Si Si8 0.056716 0.282546 0.411761
O O1 0.473243 0.016949 0.750000
O O2 0.518147 0.116638 0.623781
O O3 0.389822 0.132139 0.653285
O O4 0.446607 0.880414 0.626435
O O5 0.774776 0.253976 0.105269
O O6 0.893388 0.160751 0.137255
O O7 0.814886 0.005452 0.049761
O O8 0.865548 0.250000 0.000000
O O9 0.354724 0.818859 0.134099
O O10 0.313664 0.562008 0.108907
O O11 0.316773 0.750000 0.000000
O O12 0.430360 0.724896 0.750000
O O13 0.258192 0.322294 0.133626
O O14 0.134071 0.271156 0.104487
O O15 0.224248 0.250000 0.000000
O O16 0.301603 0.467968 0.250000
O O17 0.955404 0.038974 0.250000
O O18 0.022302 0.172586 0.144537
O O19 0.968418 0.938550 0.109387
O O20 0.040075 0.250000 0.500000
#
# Coordination Sequence:
#
# PCOD8233861 Si02
#       8
#     8   8   8   8   8   8   8   8
#     4   8  15  28  47  70  94 127 168 206 248 299
#     4   9  19  35  54  72 101 140 171 203 252 315
#     4   9  17  30  48  73 100 128 164 210 253 295
#     4   9  16  29  48  67  93 129 168 207 247 298
#     4   9  19  34  54  79 102 130 173 217 253 297
#     4   9  17  32  54  75  99 135 175 210 251 308
#     4  11  22  35  55  82 107 131 171 220 255 291
#     4  10  21  37  55  76 105 142 172 203 254 315
#
# _framework density 18.914975999999999
#
# number of rings (size 3 to 8) (size 9 to 14) (size 15 to 20)
#    0.000    2.750    0.000    2.250    0.000    7.500 
#    0.000    6.875    0.000    0.750    0.000    2.625 
#    0.000    0.000    0.000    0.000    0.000    0.000 
#
# Total GULP energy -792906.952658 kJ/mol
# GULP energy per Si atom -12389.171135 kJ/mol
# Density = 1.887192 g / cm^3
# Si number density = 18.914976 Si / 1000 Ang^3
#
#
#
# Elastic Constant Matrix: (Units=GPa)
#
#
# Indices 1 2 3 4 5 6 
#
# 1 101.4103 37.1991 57.2510 0.0000 0.0000 0.0000
# 2 37.1991 48.4178 38.3213 0.0000 0.0000 0.0000
# 3 57.2510 38.3213 83.3265 0.0000 0.0000 0.0000
# 4 0.0000 0.0000 0.0000 23.5385 0.0000 0.0000
# 5 0.0000 0.0000 0.0000 0.0000 18.7478 0.0000
# 6 0.0000 0.0000 0.0000 0.0000 0.0000 26.3752
#
#
#
# Elastic Compliance Matrix: (Units=1/GPa)
#
#
# Indices 1 2 3 4 5 6 
#
# 1 0.017171 -0.006061 -0.009010 0.000000 0.000000 0.000000
# 2 -0.006061 0.034613 -0.011754 0.000000 0.000000 0.000000
# 3 -0.009010 -0.011754 0.023597 0.000000 0.000000 0.000000
# 4 0.000000 0.000000 0.000000 0.042484 0.000000 0.000000
# 5 0.000000 0.000000 0.000000 0.000000 0.053340 0.000000
# 6 0.000000 0.000000 0.000000 0.000000 0.000000 0.037914
#
#
# Mechanical properties :
#
#
# Convention : Reuss Voigt Hill
#
# Bulk Modulus (GPa) = 46.01755 55.41082 50.71418
# Shear Modulus (GPa) = 18.51762 20.42449 19.47106
#
# Velocity S-wave (km/s) = 3.13228 3.28960 3.21191
# Velocity P-wave (km/s) = 6.12070 6.61717 6.37377
#
# Compressibility (1/GPa) = 0.02173084
#
# Stress axis : x y z
#
# Youngs Moduli (GPa) = 58.23804 28.89076 42.37798
#
# Poissons Ratio (x) = 0.17511 0.38183
# Poissons Ratio (y) = 0.35298 0.49811
# Poissons Ratio (z) = 0.52473 0.33958
#
# Static dielectric constant tensor:
#      x y z
#    x 4.088570 0.000000 0.000000 
#    y 0.000000 3.410320 0.000000 
#    z 0.000000 0.000000 3.293500 
# 
# 
# High freq. dielectric constant tensor:
#      x y z
#    x 1.758410 0.000000 0.000000 
#    y 0.000000 1.704450 0.000000 
#    z 0.000000 0.000000 1.710270 
# 
# From -- ./inp_files/23084.got.cif
#   From: 2010.03.12/outbox.cif.g09.slc.cpg/sg57_12_cif.got.tgz:23084.got - 2010.04.16 15:48:40.
