data_PCOD8233089
_publ_section_title
;
Structure prediction by ZEFSAII (Michael W. Deem and Ramdas Pophale) SiO2 
 PCOD8233089
Probable space group: P B C M
;
_chemical_formula_sum "Si O2"
_cell_formula_units_Z 64
_cell_length_a 11.006539
_cell_length_b 15.165135
_cell_length_c 18.822110
_cell_angle_alpha 90.000000
_cell_angle_beta 90.000000
_cell_angle_gamma 90.000000
_cell_volume 3141.704722
_symmetry_space_group_name_H-M "P B C M"
_symmetry_group_IT_number 57
_symmetry_cell_setting 'orthorhombic'
loop_
_space_group_symop_operation_xyz
x,y,z
-x,-y,1/2+z
x,1/2-y,-z
-x,1/2+y,1/2-z
-x,-y,-z
x,y,1/2-z
-x,1/2+y,z
x,1/2-y,1/2+z
loop_
_atom_site_type_symbol
_atom_site_label
_atom_site_fract_x
_atom_site_fract_y
_atom_site_fract_z
Si Si1 0.919904 0.315685 0.562780
Si Si2 0.563596 0.608612 0.079057
Si Si3 0.157266 0.393143 0.914523
Si Si4 0.517155 0.273368 0.332742
Si Si5 0.567541 0.567770 0.581956
Si Si6 0.044029 0.543651 0.667061
Si Si7 0.793604 0.295226 0.169117
Si Si8 0.162306 0.011042 0.938774
O O1 0.887988 0.250000 0.500000
O O2 0.838510 0.291737 0.630074
O O3 0.875906 0.412444 0.542152
O O4 0.063836 0.310358 0.583632
O O5 0.703410 0.633049 0.096011
O O6 0.490425 0.682944 0.122094
O O7 0.529018 0.508982 0.103841
O O8 0.536256 0.611584 0.994640
O O9 0.115662 0.453948 0.849294
O O10 0.134681 0.437890 0.989800
O O11 0.486070 0.254242 0.250000
O O12 0.431390 0.351796 0.361995
O O13 0.651644 0.311531 0.342910
O O14 0.697198 0.519734 0.582221
O O15 0.014297 0.548694 0.750000
O O16 0.132128 0.621172 0.640436
O O17 0.917384 0.550642 0.625170
O O18 0.824025 0.277420 0.250000
#
# Coordination Sequence:
#
# PCOD8233089 Si02
#       8
#     8   8   8   8   8   8   8   8
#     4  11  21  34  59  87 112 147 187 236 291 344
#     4  10  22  40  62  88 119 157 204 250 295 356
#     4  10  21  37  57  82 114 148 188 237 290 344
#     4  11  24  40  60  87 120 157 197 247 305 363
#     4  10  22  41  64  88 117 159 203 250 299 353
#     4  10  20  36  58  82 112 151 191 233 284 348
#     4  10  22  38  55  80 114 149 187 232 286 347
#     4  10  21  38  58  85 116 148 193 242 292 348
#
# _framework density 20.371103999999999
#
# number of rings (size 3 to 8) (size 9 to 14) (size 15 to 20)
#    0.000    1.750    0.000    4.875    0.000    9.500 
#    0.000    1.250    0.000    0.000    0.000    0.000 
#    0.000    0.000    0.000    0.000    0.000    0.000 
#
# Total GULP energy -793560.531434 kJ/mol
# GULP energy per Si atom -12399.383304 kJ/mol
# Density = 2.032474 g / cm^3
# Si number density = 20.371104 Si / 1000 Ang^3
#
#
#
# Elastic Constant Matrix: (Units=GPa)
#
#
# Indices 1 2 3 4 5 6 
#
# 1 92.2836 29.8065 42.7456 0.0000 0.0000 0.0000
# 2 29.8065 65.2488 36.6550 0.0000 0.0000 0.0000
# 3 42.7456 36.6550 81.8531 0.0000 0.0000 0.0000
# 4 0.0000 0.0000 0.0000 23.8645 0.0000 0.0000
# 5 0.0000 0.0000 0.0000 0.0000 29.6000 0.0000
# 6 0.0000 0.0000 0.0000 0.0000 0.0000 31.6767
#
#
#
# Elastic Compliance Matrix: (Units=1/GPa)
#
#
# Indices 1 2 3 4 5 6 
#
# 1 0.014786 -0.003229 -0.006276 0.000000 0.000000 0.000000
# 2 -0.003229 0.021183 -0.007800 0.000000 0.000000 0.000000
# 3 -0.006276 -0.007800 0.018987 0.000000 0.000000 0.000000
# 4 0.000000 0.000000 0.000000 0.041903 0.000000 0.000000
# 5 0.000000 0.000000 0.000000 0.000000 0.033784 0.000000
# 6 0.000000 0.000000 0.000000 0.000000 0.000000 0.031569
#
#
# Mechanical properties :
#
#
# Convention : Reuss Voigt Hill
#
# Bulk Modulus (GPa) = 49.14673 50.86662 50.00667
# Shear Modulus (GPa) = 24.55768 25.70680 25.13224
#
# Velocity S-wave (km/s) = 3.47582 3.55621 3.51625
# Velocity P-wave (km/s) = 6.34717 6.47197 6.40987
#
# Compressibility (1/GPa) = 0.02034724
#
# Stress axis : x y z
#
# Youngs Moduli (GPa) = 67.63198 47.20850 52.66742
#
# Poissons Ratio (x) = 0.15243 0.33052
# Poissons Ratio (y) = 0.21838 0.41079
# Poissons Ratio (z) = 0.42443 0.36821
#
# Static dielectric constant tensor:
#      x y z
#    x 3.915500 0.000000 0.000000 
#    y 0.000000 3.641560 0.000000 
#    z 0.000000 0.000000 3.640980 
# 
# 
# High freq. dielectric constant tensor:
#      x y z
#    x 1.805510 0.000000 0.000000 
#    y 0.000000 1.792520 0.000000 
#    z 0.000000 0.000000 1.793530 
# 
# From -- ./inp_files/22069.got.cif
#   From: 2010.03.12/outbox.cif.g09.slc.cpg/sg57_12_cif.got.tgz:22069.got - 2010.04.16 15:48:40.
