data_PCOD8233816
_publ_section_title
;
Structure prediction by ZEFSAII (Michael W. Deem and Ramdas Pophale) SiO2 
 PCOD8233816
Probable space group: P B C M
;
_chemical_formula_sum "Si O2"
_cell_formula_units_Z 64
_cell_length_a 12.103281
_cell_length_b 18.516590
_cell_length_c 13.893803
_cell_angle_alpha 90.000000
_cell_angle_beta 90.000000
_cell_angle_gamma 90.000000
_cell_volume 3113.760919
_symmetry_space_group_name_H-M "P B C M"
_symmetry_group_IT_number 57
_symmetry_cell_setting 'orthorhombic'
loop_
_space_group_symop_operation_xyz
x,y,z
-x,-y,1/2+z
x,1/2-y,-z
-x,1/2+y,1/2-z
-x,-y,-z
x,y,1/2-z
-x,1/2+y,z
x,1/2-y,1/2+z
loop_
_atom_site_type_symbol
_atom_site_label
_atom_site_fract_x
_atom_site_fract_y
_atom_site_fract_z
Si Si1 0.106548 0.101835 0.138285
Si Si2 0.539766 0.326292 0.979393
Si Si3 0.180683 0.943472 0.361336
Si Si4 0.709114 0.829910 0.978308
Si Si5 0.427609 0.570776 0.640466
Si Si6 0.280597 0.604177 0.139212
Si Si7 0.091980 0.834950 0.517679
Si Si8 0.330536 0.447490 0.139410
O O1 0.079781 0.120623 0.250000
O O2 0.224154 0.135796 0.110104
O O3 0.110005 0.015672 0.123785
O O4 0.018877 0.133611 0.063793
O O5 0.545021 0.356354 0.086430
O O6 0.597085 0.250000 0.000000
O O7 0.415219 0.319831 0.940631
O O8 0.601388 0.374977 0.902786
O O9 0.178817 0.919653 0.250000
O O10 0.308744 0.961036 0.395524
O O11 0.125136 0.878243 0.420770
O O12 0.758402 0.750000 0.000000
O O13 0.712044 0.882902 0.071511
O O14 0.413294 0.591835 0.750000
O O15 0.540900 0.524840 0.622928
O O16 0.283249 0.622174 0.250000
O O17 0.257095 0.519034 0.119732
O O18 0.187897 0.654238 0.094241
O O19 0.075933 0.750000 0.500000
O O20 0.316366 0.421294 0.250000
#
# Coordination Sequence:
#
# PCOD8233816 Si02
#       8
#     8   8   8   8   8   8   8   8
#     4  11  25  44  65  89 119 161 208 263 310 362
#     4  10  21  36  55  89 127 163 200 251 309 370
#     4  10  22  39  65  95 122 158 209 260 311 361
#     4  10  22  39  62  90 123 163 210 253 309 367
#     4   9  18  34  58  87 123 164 204 247 300 370
#     4  11  23  37  59  91 123 163 206 252 305 365
#     4  12  25  45  66  88 126 163 209 255 315 372
#     4   9  20  37  60  91 130 170 206 246 306 368
#
# _framework density 20.553923000000001
#
# number of rings (size 3 to 8) (size 9 to 14) (size 15 to 20)
#    0.000    1.750    1.250    2.250    1.750    3.500 
#    0.000    4.375    0.000    0.000    0.000    0.000 
#    0.000    0.000    0.000    0.000    0.000    0.000 
#
# Total GULP energy -793101.301811 kJ/mol
# GULP energy per Si atom -12392.207841 kJ/mol
# Density = 2.050714 g / cm^3
# Si number density = 20.553923 Si / 1000 Ang^3
#
#
#
# Elastic Constant Matrix: (Units=GPa)
#
#
# Indices 1 2 3 4 5 6 
#
# 1 74.5599 27.8838 26.6041 0.0000 0.0000 0.0000
# 2 27.8838 108.2748 42.3468 0.0000 0.0000 0.0000
# 3 26.6041 42.3468 75.5432 0.0000 0.0000 0.0000
# 4 0.0000 0.0000 0.0000 19.9879 0.0000 0.0000
# 5 0.0000 0.0000 0.0000 0.0000 23.2223 0.0000
# 6 0.0000 0.0000 0.0000 0.0000 0.0000 -43.4339
#
#
#
# Elastic Compliance Matrix: (Units=1/GPa)
#
#
# Indices 1 2 3 4 5 6 
#
# 1 0.015823 -0.002428 -0.004211 0.000000 0.000000 0.000000
# 2 -0.002428 0.012202 -0.005985 0.000000 0.000000 0.000000
# 3 -0.004211 -0.005985 0.018075 0.000000 0.000000 0.000000
# 4 0.000000 0.000000 0.000000 0.050030 0.000000 0.000000
# 5 0.000000 0.000000 0.000000 0.000000 0.043062 0.000000
# 6 0.000000 0.000000 0.000000 0.000000 0.000000 -0.023023
#
#
# Mechanical properties :
#
#
# Convention : Reuss Voigt Hill
#
# Bulk Modulus (GPa) = 47.95725 50.22750 49.09237
# Shear Modulus (GPa) = 33.70017 10.72479 22.21248
#
# Velocity S-wave (km/s) = 4.05359 2.28675 3.29096
# Velocity P-wave (km/s) = 6.72992 5.60912 6.19492
#
# Compressibility (1/GPa) = 0.02085190
#
# Stress axis : x y z
#
# Youngs Moduli (GPa) = 63.20066 81.95611 55.32354
#
# Poissons Ratio (x) = 0.19896 0.23299
# Poissons Ratio (y) = 0.15343 0.33110
# Poissons Ratio (z) = 0.26616 0.49050
#
# Static dielectric constant tensor:
#      x y z
#    x 3.922950 0.000000 0.000000 
#    y 0.000000 3.797620 0.000000 
#    z 0.000000 0.000000 3.776270 
# 
# 
# High freq. dielectric constant tensor:
#      x y z
#    x 1.802550 0.000000 0.000000 
#    y 0.000000 1.800230 0.000000 
#    z 0.000000 0.000000 1.809610 
# 
# From -- ./inp_files/17928.got.cif
#   From: 2010.03.12/outbox.cif.g09.slc.cpg/sg57_9_cif.got.tgz:17928.got - 2010.04.16 15:48:40.
