data_PCOD8233236
_publ_section_title
;
Structure prediction by ZEFSAII (Michael W. Deem and Ramdas Pophale) SiO2 
 PCOD8233236
Probable space group: P B C M
;
_chemical_formula_sum "Si O2"
_cell_formula_units_Z 48
_cell_length_a 9.644585
_cell_length_b 14.517620
_cell_length_c 16.944136
_cell_angle_alpha 90.000000
_cell_angle_beta 90.000000
_cell_angle_gamma 90.000000
_cell_volume 2372.457264
_symmetry_space_group_name_H-M "P B C M"
_symmetry_group_IT_number 57
_symmetry_cell_setting 'orthorhombic'
loop_
_space_group_symop_operation_xyz
x,y,z
-x,-y,1/2+z
x,1/2-y,-z
-x,1/2+y,1/2-z
-x,-y,-z
x,y,1/2-z
-x,1/2+y,z
x,1/2-y,1/2+z
loop_
_atom_site_type_symbol
_atom_site_label
_atom_site_fract_x
_atom_site_fract_y
_atom_site_fract_z
Si Si1 0.713442 0.478182 0.558584
Si Si2 0.640148 0.745121 0.838418
Si Si3 0.865260 0.340095 0.450793
Si Si4 0.117346 0.109701 0.660270
Si Si5 0.620536 0.372109 0.157955
Si Si6 0.581969 0.568166 0.415011
O O1 0.827127 0.418894 0.512936
O O2 0.788801 0.523683 0.633157
O O3 0.642950 0.555250 0.502642
O O4 0.584347 0.415458 0.587123
O O5 0.599107 0.772548 0.750000
O O6 0.791822 0.701623 0.842558
O O7 0.525621 0.672024 0.869078
O O8 0.651541 0.838361 0.886972
O O9 0.907885 0.250000 0.500000
O O10 0.737658 0.319106 0.392161
O O11 0.990550 0.377783 0.398574
O O12 0.066433 0.090486 0.750000
O O13 0.651291 0.358347 0.250000
O O14 0.621547 0.480799 0.139087
#
# Coordination Sequence:
#
# PCOD8233236 Si02
#       6
#     8   8   8   8   8   8
#     4  10  22  40  63  94 121 162 207 252 319 367
#     4  10  21  36  62  92 122 165 207 253 314 366
#     4  11  24  41  63  90 125 166 209 260 310 374
#     4  11  24  43  62  89 127 165 208 259 313 370
#     4  10  20  39  63  90 127 164 204 257 313 372
#     4  10  20  36  63  97 125 155 207 260 308 376
#
# _framework density 20.232188000000001
#
# number of rings (size 3 to 8) (size 9 to 14) (size 15 to 20)
#    0.000    1.667    1.667    2.500    2.333    0.667 
#    0.000    1.667    0.000    0.000    0.000    0.000 
#    0.000    0.000    0.000    0.000    0.000    0.000 
#
# Total GULP energy -595275.998848 kJ/mol
# GULP energy per Si atom -12401.583309 kJ/mol
# Density = 2.018614 g / cm^3
# Si number density = 20.232188 Si / 1000 Ang^3
#
#
#
# Elastic Constant Matrix: (Units=GPa)
#
#
# Indices 1 2 3 4 5 6 
#
# 1 85.7049 16.7888 27.9604 0.0000 0.0000 0.0000
# 2 16.7888 80.0268 32.7035 0.0000 0.0000 0.0000
# 3 27.9604 32.7035 87.5544 0.0000 0.0000 0.0000
# 4 0.0000 0.0000 0.0000 28.8025 0.0000 0.0000
# 5 0.0000 0.0000 0.0000 0.0000 39.4984 0.0000
# 6 0.0000 0.0000 0.0000 0.0000 0.0000 25.4471
#
#
#
# Elastic Compliance Matrix: (Units=1/GPa)
#
#
# Indices 1 2 3 4 5 6 
#
# 1 0.013126 -0.001228 -0.003733 0.000000 0.000000 0.000000
# 2 -0.001228 0.014862 -0.005159 0.000000 0.000000 0.000000
# 3 -0.003733 -0.005159 0.014541 0.000000 0.000000 0.000000
# 4 0.000000 0.000000 0.000000 0.034719 0.000000 0.000000
# 5 0.000000 0.000000 0.000000 0.000000 0.025317 0.000000
# 6 0.000000 0.000000 0.000000 0.000000 0.000000 0.039297
#
#
# Mechanical properties :
#
#
# Convention : Reuss Voigt Hill
#
# Bulk Modulus (GPa) = 44.86684 45.35459 45.11072
# Shear Modulus (GPa) = 29.49284 30.47183 29.98233
#
# Velocity S-wave (km/s) = 3.82215 3.88507 3.85374
# Velocity P-wave (km/s) = 6.45775 6.52616 6.49204
#
# Compressibility (1/GPa) = 0.02228817
#
# Stress axis : x y z
#
# Youngs Moduli (GPa) = 76.18212 67.28700 68.77282
#
# Poissons Ratio (x) = 0.08264 0.25674
# Poissons Ratio (y) = 0.09357 0.35480
# Poissons Ratio (z) = 0.28440 0.34713
#
# Static dielectric constant tensor:
#      x y z
#    x 3.688140 0.000000 0.000000 
#    y 0.000000 3.412650 0.000000 
#    z 0.000000 0.000000 3.809350 
# 
# 
# High freq. dielectric constant tensor:
#      x y z
#    x 1.790840 0.000000 0.000000 
#    y 0.000000 1.779510 0.000000 
#    z 0.000000 0.000000 1.798800 
# 
# From -- ./inp_files/20981.got.cif
#   From: 2010.03.12/outbox.cif.g09.slc.cpg/sg57_11_cif.got.tgz:20981.got - 2010.04.16 15:48:40.
