data_PCOD8233596
_publ_section_title
;
Structure prediction by ZEFSAII (Michael W. Deem and Ramdas Pophale) SiO2 
 PCOD8233596
Probable space group: P B C M
;
_chemical_formula_sum "Si O2"
_cell_formula_units_Z 40
_cell_length_a 8.526579
_cell_length_b 8.793328
_cell_length_c 26.639202
_cell_angle_alpha 90.000000
_cell_angle_beta 90.000000
_cell_angle_gamma 90.000000
_cell_volume 1997.327605
_symmetry_space_group_name_H-M "P B C M"
_symmetry_group_IT_number 57
_symmetry_cell_setting 'orthorhombic'
loop_
_space_group_symop_operation_xyz
x,y,z
-x,-y,1/2+z
x,1/2-y,-z
-x,1/2+y,1/2-z
-x,-y,-z
x,y,1/2-z
-x,1/2+y,z
x,1/2-y,1/2+z
loop_
_atom_site_type_symbol
_atom_site_label
_atom_site_fract_x
_atom_site_fract_y
_atom_site_fract_z
Si Si1 0.915886 0.706690 0.849044
Si Si2 0.617594 0.339197 0.109687
Si Si3 0.317225 0.507149 0.104476
Si Si4 0.198777 0.517917 0.692577
Si Si5 0.106960 0.725025 0.443984
O O1 0.777919 0.582026 0.852467
O O2 0.855382 0.846811 0.816858
O O3 0.062380 0.637147 0.820106
O O4 0.963371 0.763936 0.904986
O O5 0.456332 0.398071 0.084107
O O6 0.604930 0.161965 0.126644
O O7 0.650700 0.441740 0.158594
O O8 0.760964 0.353564 0.069499
O O9 0.191764 0.558349 0.061227
O O10 0.248890 0.536199 0.750000
O O11 0.043226 0.750000 0.500000
#
# Coordination Sequence:
#
# PCOD8233596 Si02
#       5
#     8   8   8   8   8
#     4  11  20  39  60  88 124 154 195 257 290 353
#     4   9  21  39  57  84 120 156 195 250 291 350
#     4  10  20  39  60  83 123 157 194 244 300 343
#     4  11  21  38  61  87 116 157 201 242 305 360
#     4   9  21  37  59  91 118 160 204 239 304 356
#
# _framework density 20.026758999999998
#
# number of rings (size 3 to 8) (size 9 to 14) (size 15 to 20)
#    1.200    0.800    2.000    1.800    0.000    1.600 
#    0.000    7.000    0.000    0.000    0.000    0.000 
#    0.000    0.000    0.000    0.000    0.000    0.000 
#
# Total GULP energy -495648.130271 kJ/mol
# GULP energy per Si atom -12391.203257 kJ/mol
# Density = 1.998118 g / cm^3
# Si number density = 20.026759 Si / 1000 Ang^3
#
#
#
# Elastic Constant Matrix: (Units=GPa)
#
#
# Indices 1 2 3 4 5 6 
#
# 1 41.2952 18.4965 -6.6977 0.0000 0.0000 0.0000
# 2 18.4965 97.1846 17.6853 0.0000 0.0000 0.0000
# 3 -6.6977 17.6853 97.1500 0.0000 0.0000 0.0000
# 4 0.0000 0.0000 0.0000 21.8437 0.0000 0.0000
# 5 0.0000 0.0000 0.0000 0.0000 13.4130 0.0000
# 6 0.0000 0.0000 0.0000 0.0000 0.0000 41.2335
#
#
#
# Elastic Compliance Matrix: (Units=1/GPa)
#
#
# Indices 1 2 3 4 5 6 
#
# 1 0.027250 -0.005718 0.002920 0.000000 0.000000 0.000000
# 2 -0.005718 0.011842 -0.002550 0.000000 0.000000 0.000000
# 3 0.002920 -0.002550 0.010959 0.000000 0.000000 0.000000
# 4 0.000000 0.000000 0.000000 0.045780 0.000000 0.000000
# 5 0.000000 0.000000 0.000000 0.000000 0.074555 0.000000
# 6 0.000000 0.000000 0.000000 0.000000 0.000000 0.024252
#
#
# Mechanical properties :
#
#
# Convention : Reuss Voigt Hill
#
# Bulk Modulus (GPa) = 25.40967 32.73310 29.07138
# Shear Modulus (GPa) = 22.88831 29.04108 25.96469
#
# Velocity S-wave (km/s) = 3.38433 3.81217 3.60460
# Velocity P-wave (km/s) = 5.29027 5.97971 5.64553
#
# Compressibility (1/GPa) = 0.03935510
#
# Stress axis : x y z
#
# Youngs Moduli (GPa) = 36.69671 84.44578 91.25062
#
# Poissons Ratio (x) = 0.48283 -0.26641
# Poissons Ratio (y) = 0.20982 0.23268
# Poissons Ratio (z) = -0.10714 0.21533
#
# Static dielectric constant tensor:
#      x y z
#    x 3.536490 0.000000 0.000000 
#    y 0.000000 3.712540 0.000000 
#    z 0.000000 0.000000 3.210220 
# 
# 
# High freq. dielectric constant tensor:
#      x y z
#    x 1.777080 0.000000 0.000000 
#    y 0.000000 1.790710 0.000000 
#    z 0.000000 0.000000 1.738840 
# 
# From -- ./inp_files/26520.got.cif
#   From: 2010.03.12/outbox.cif.g09.slc.cpg/sg57_14_cif.got.tgz:26520.got - 2010.04.16 15:48:40.
