data_PCOD8233199
_publ_section_title
;
Structure prediction by ZEFSAII (Michael W. Deem and Ramdas Pophale) SiO2 
 PCOD8233199
Probable space group: P B C M
;
_chemical_formula_sum "Si O2"
_cell_formula_units_Z 64
_cell_length_a 24.010798
_cell_length_b 14.633019
_cell_length_c 9.128138
_cell_angle_alpha 90.000000
_cell_angle_beta 90.000000
_cell_angle_gamma 90.000000
_cell_volume 3207.175516
_symmetry_space_group_name_H-M "P B C M"
_symmetry_group_IT_number 57
_symmetry_cell_setting 'orthorhombic'
loop_
_space_group_symop_operation_xyz
x,y,z
-x,-y,1/2+z
x,1/2-y,-z
-x,1/2+y,1/2-z
-x,-y,-z
x,y,1/2-z
-x,1/2+y,z
x,1/2-y,1/2+z
loop_
_atom_site_type_symbol
_atom_site_label
_atom_site_fract_x
_atom_site_fract_y
_atom_site_fract_z
Si Si1 0.385806 0.387237 0.586290
Si Si2 0.388138 0.895671 0.416611
Si Si3 0.731300 0.336591 0.418296
Si Si4 0.506910 0.404887 0.919805
Si Si5 0.206330 0.018668 0.417525
Si Si6 0.279292 0.161852 0.922063
Si Si7 0.005871 0.848350 0.076750
Si Si8 0.077385 0.477535 0.579889
O O1 0.365297 0.360032 0.750000
O O2 0.386368 0.495728 0.571896
O O3 0.448753 0.349450 0.558979
O O4 0.344108 0.345462 0.467677
O O5 0.396757 0.863997 0.250000
O O6 0.329778 0.860518 0.482994
O O7 0.439580 0.853604 0.510260
O O8 0.756658 0.250000 0.500000
O O9 0.724057 0.312677 0.250000
O O10 0.776281 0.414892 0.442390
O O11 0.518642 0.423493 0.750000
O O12 0.500000 0.500000 0.000000
O O13 0.218116 0.048984 0.250000
O O14 0.243786 0.076034 0.527250
O O15 0.142094 0.027782 0.458772
O O16 0.275133 0.172376 0.750000
O O17 0.252576 0.250000 0.000000
O O18 0.999460 0.831435 0.250000
O O19 0.055761 0.920039 0.041272
O O20 0.016634 0.750000 0.000000
O O21 0.950445 0.897262 0.015480
O O22 0.065399 0.456845 0.750000
#
# Coordination Sequence:
#
# PCOD8233199 Si02
#       8
#     8   8   8   8   8   8   8   8
#     4   9  17  34  55  76 107 144 183 230 289 347
#     4   9  17  32  53  76 107 145 182 227 287 342
#     4  10  21  37  57  82 113 150 189 236 288 342
#     4   9  17  28  48  77 106 138 178 226 283 346
#     4  10  21  42  64  83 117 156 195 242 291 336
#     4  12  25  39  59  85 112 147 192 239 293 352
#     4  10  20  36  60  92 128 162 197 238 285 334
#     4   9  20  38  62  89 117 159 203 240 284 335
#
# _framework density 19.955252999999999
#
# number of rings (size 3 to 8) (size 9 to 14) (size 15 to 20)
#    0.000    2.250    1.250    2.625    0.000    5.500 
#    0.000    0.625    0.000    1.500    0.000    0.000 
#    0.000    0.000    0.000    0.000    0.000    0.000 
#
# Total GULP energy -793399.840274 kJ/mol
# GULP energy per Si atom -12396.872504 kJ/mol
# Density = 1.990983 g / cm^3
# Si number density = 19.955253 Si / 1000 Ang^3
#
#
#
# Elastic Constant Matrix: (Units=GPa)
#
#
# Indices 1 2 3 4 5 6 
#
# 1 89.9608 11.6239 42.5538 0.0000 0.0000 0.0000
# 2 11.6239 67.9658 42.1543 0.0000 0.0000 0.0000
# 3 42.5538 42.1543 111.7765 0.0000 0.0000 0.0000
# 4 0.0000 0.0000 0.0000 33.1250 0.0000 0.0000
# 5 0.0000 0.0000 0.0000 0.0000 23.1463 0.0000
# 6 0.0000 0.0000 0.0000 0.0000 0.0000 -4.3362
#
#
#
# Elastic Compliance Matrix: (Units=1/GPa)
#
#
# Indices 1 2 3 4 5 6 
#
# 1 0.013627 0.001158 -0.005625 0.000000 0.000000 0.000000
# 2 0.001158 0.019304 -0.007721 0.000000 0.000000 0.000000
# 3 -0.005625 -0.007721 0.014000 0.000000 0.000000 0.000000
# 4 0.000000 0.000000 0.000000 0.030189 0.000000 0.000000
# 5 0.000000 0.000000 0.000000 0.000000 0.043203 0.000000
# 6 0.000000 0.000000 0.000000 0.000000 0.000000 -0.230617
#
#
# Mechanical properties :
#
#
# Convention : Reuss Voigt Hill
#
# Bulk Modulus (GPa) = 44.33542 51.37412 47.85477
# Shear Modulus (GPa) = -63.77509 21.94509 -20.91500
#
# Velocity S-wave (km/s) = -5.65937 3.31979 -3.24094
# Velocity P-wave (km/s) = 4.52094 6.36359 3.16673
#
# Compressibility (1/GPa) = 0.02255533
#
# Stress axis : x y z
#
# Youngs Moduli (GPa) = 73.38437 51.80274 71.43104
#
# Poissons Ratio (x) = -0.05998 0.40176
# Poissons Ratio (y) = -0.08497 0.55152
# Poissons Ratio (z) = 0.41275 0.39997
#
# Static dielectric constant tensor:
#      x y z
#    x 3.871700 0.000000 0.000000 
#    y 0.000000 3.480770 0.000000 
#    z 0.000000 0.000000 3.489590 
# 
# 
# High freq. dielectric constant tensor:
#      x y z
#    x 1.779590 0.000000 0.000000 
#    y 0.000000 1.768600 0.000000 
#    z 0.000000 0.000000 1.774950 
# 
# From -- ./inp_files/9352.got.cif
#   From: 2010.03.12/outbox.cif.g09.slc.cpg/sg57_5_cif.got.tgz:9352.got - 2010.04.16 15:48:40.
