data_PCOD8233369
_publ_section_title
;
Structure prediction by ZEFSAII (Michael W. Deem and Ramdas Pophale) SiO2 
 PCOD8233369
Probable space group: P B C M
;
_chemical_formula_sum "Si O2"
_cell_formula_units_Z 64
_cell_length_a 11.940105
_cell_length_b 31.446498
_cell_length_c 8.894098
_cell_angle_alpha 90.000000
_cell_angle_beta 90.000000
_cell_angle_gamma 90.000000
_cell_volume 3339.506893
_symmetry_space_group_name_H-M "P B C M"
_symmetry_group_IT_number 57
_symmetry_cell_setting 'orthorhombic'
loop_
_space_group_symop_operation_xyz
x,y,z
-x,-y,1/2+z
x,1/2-y,-z
-x,1/2+y,1/2-z
-x,-y,-z
x,y,1/2-z
-x,1/2+y,z
x,1/2-y,1/2+z
loop_
_atom_site_type_symbol
_atom_site_label
_atom_site_fract_x
_atom_site_fract_y
_atom_site_fract_z
Si Si1 0.992169 0.206249 0.073066
Si Si2 0.737889 0.443979 0.577139
Si Si3 0.376936 0.112488 0.079019
Si Si4 0.127796 0.125370 0.071479
Si Si5 0.397117 0.630510 0.926994
Si Si6 0.613952 0.987301 0.578498
Si Si7 0.992254 0.045520 0.077509
Si Si8 0.734864 0.206502 0.426883
O O1 0.008050 0.210734 0.250000
O O2 0.863461 0.197774 0.029083
O O3 0.062589 0.166533 0.007764
O O4 0.035944 0.250000 0.000000
O O5 0.698352 0.441121 0.750000
O O6 0.662482 0.412221 0.481026
O O7 0.715996 0.490886 0.511097
O O8 0.868753 0.434128 0.561418
O O9 0.404078 0.126487 0.250000
O O10 0.257289 0.130766 0.024977
O O11 0.366554 0.062254 0.068597
O O12 0.471965 0.130147 0.969243
O O13 0.113516 0.123356 0.250000
O O14 0.075452 0.081146 0.006788
O O15 0.383981 0.635356 0.750000
O O16 0.340524 0.669518 0.009140
O O17 0.612121 0.003314 0.750000
O O18 0.500000 0.000000 0.500000
O O19 0.022730 0.037064 0.250000
O O20 0.000000 0.000000 0.000000
O O21 0.692189 0.250000 0.500000
O O22 0.718428 0.209142 0.250000
#
# Coordination Sequence:
#
# PCOD8233369 Si02
#       8
#     8   8   8   8   8   8   8   8
#     4   9  18  35  61  89 115 144 181 227 279 337
#     4  11  22  36  56  82 113 148 188 234 288 340
#     4  10  21  37  57  78 108 151 195 237 283 339
#     4   9  18  36  59  81 109 151 193 229 281 344
#     4  12  24  37  56  82 112 146 189 235 281 333
#     4  11  21  34  54  79 109 148 194 241 288 337
#     4  10  21  37  57  82 113 149 189 235 287 347
#     4  10  20  37  61  88 118 146 178 223 280 341
#
# _framework density 19.164505999999999
#
# number of rings (size 3 to 8) (size 9 to 14) (size 15 to 20)
#    0.000    1.750    1.250    3.750    0.000    5.000 
#    0.000    2.500    0.000    1.500    0.000    0.000 
#    0.000    0.000    0.000    0.000    0.000    0.000 
#
# Total GULP energy -793723.267675 kJ/mol
# GULP energy per Si atom -12401.926057 kJ/mol
# Density = 1.912089 g / cm^3
# Si number density = 19.164506 Si / 1000 Ang^3
#
#
#
# Elastic Constant Matrix: (Units=GPa)
#
#
# Indices 1 2 3 4 5 6 
#
# 1 95.0401 51.6482 30.0003 0.0000 0.0000 0.0000
# 2 51.6482 116.2153 27.6152 0.0000 0.0000 0.0000
# 3 30.0003 27.6152 62.4848 0.0000 0.0000 0.0000
# 4 0.0000 0.0000 0.0000 32.3633 0.0000 0.0000
# 5 0.0000 0.0000 0.0000 0.0000 22.5622 0.0000
# 6 0.0000 0.0000 0.0000 0.0000 0.0000 41.6286
#
#
#
# Elastic Compliance Matrix: (Units=1/GPa)
#
#
# Indices 1 2 3 4 5 6 
#
# 1 0.015045 -0.005553 -0.004769 0.000000 0.000000 0.000000
# 2 -0.005553 0.011664 -0.002489 0.000000 0.000000 0.000000
# 3 -0.004769 -0.002489 0.019394 0.000000 0.000000 0.000000
# 4 0.000000 0.000000 0.000000 0.030899 0.000000 0.000000
# 5 0.000000 0.000000 0.000000 0.000000 0.044322 0.000000
# 6 0.000000 0.000000 0.000000 0.000000 0.000000 0.024022
#
#
# Mechanical properties :
#
#
# Convention : Reuss Voigt Hill
#
# Bulk Modulus (GPa) = 48.82695 54.69641 51.76168
# Shear Modulus (GPa) = 28.12231 30.27592 29.19912
#
# Velocity S-wave (km/s) = 3.83484 3.97897 3.90757
# Velocity P-wave (km/s) = 6.71872 7.05068 6.88670
#
# Compressibility (1/GPa) = 0.02048049
#
# Stress axis : x y z
#
# Youngs Moduli (GPa) = 66.46701 85.73410 51.56326
#
# Poissons Ratio (x) = 0.47608 0.24592
# Poissons Ratio (y) = 0.36909 0.12833
# Poissons Ratio (z) = 0.31700 0.21337
#
# Static dielectric constant tensor:
#      x y z
#    x 3.529090 0.000000 0.000000 
#    y 0.000000 3.636180 0.000000 
#    z 0.000000 0.000000 3.361490 
# 
# 
# High freq. dielectric constant tensor:
#      x y z
#    x 1.750380 0.000000 0.000000 
#    y 0.000000 1.745510 0.000000 
#    z 0.000000 0.000000 1.734140 
# 
# From -- ./inp_files/3751.got.cif
#   From: 2010.03.12/outbox.cif.g09.slc.cpg/sg57_2_cif.got.tgz:3751.got - 2010.04.16 15:48:40.
