data_PCOD8233285
_publ_section_title
;
Structure prediction by ZEFSAII (Michael W. Deem and Ramdas Pophale) SiO2 
 PCOD8233285
Probable space group: P B C M
;
_chemical_formula_sum "Si O2"
_cell_formula_units_Z 48
_cell_length_a 18.167625
_cell_length_b 15.261539
_cell_length_c 8.944398
_cell_angle_alpha 90.000000
_cell_angle_beta 90.000000
_cell_angle_gamma 90.000000
_cell_volume 2479.976718
_symmetry_space_group_name_H-M "P B C M"
_symmetry_group_IT_number 57
_symmetry_cell_setting 'orthorhombic'
loop_
_space_group_symop_operation_xyz
x,y,z
-x,-y,1/2+z
x,1/2-y,-z
-x,1/2+y,1/2-z
-x,-y,-z
x,y,1/2-z
-x,1/2+y,z
x,1/2-y,1/2+z
loop_
_atom_site_type_symbol
_atom_site_label
_atom_site_fract_x
_atom_site_fract_y
_atom_site_fract_z
Si Si1 0.602372 0.662674 0.923747
Si Si2 0.108011 0.336582 0.920644
Si Si3 0.174195 0.979040 0.427849
Si Si4 0.566957 0.159980 0.927186
Si Si5 0.039187 0.580398 0.076804
Si Si6 0.670820 0.480907 0.927660
O O1 0.608085 0.679399 0.750000
O O2 0.518102 0.645593 0.970445
O O3 0.651263 0.580270 0.973519
O O4 0.634265 0.750000 0.000000
O O5 0.130292 0.327177 0.750000
O O6 0.147539 0.424474 0.982372
O O7 0.018870 0.339930 0.940368
O O8 0.138972 0.250000 0.000000
O O9 0.178162 0.971337 0.250000
O O10 0.251626 0.955965 0.500711
O O11 0.116599 0.905871 0.490566
O O12 0.580320 0.161908 0.750000
O O13 0.596033 0.250000 0.000000
O O14 0.609529 0.080465 0.001600
O O15 0.054843 0.560059 0.250000
O O16 0.000000 0.500000 0.000000
O O17 0.672521 0.468166 0.750000
#
# Coordination Sequence:
#
# PCOD8233285 Si02
#       6
#     8   8   8   8   8   8
#     4   9  20  36  56  82 112 146 186 229 277 330
#     4   9  19  33  52  77 104 133 170 212 259 313
#     4  10  21  36  52  75 105 140 178 218 265 319
#     4  10  20  37  59  82 108 142 184 233 281 331
#     4   9  17  32  52  74  98 129 168 209 251 303
#     4  11  22  36  55  82 113 148 186 227 278 336
#
# _framework density 19.355018999999999
#
# number of rings (size 3 to 8) (size 9 to 14) (size 15 to 20)
#    0.000    2.333    0.000    3.500    0.000    6.667 
#    0.000    4.167    0.000    2.000    0.000    0.000 
#    0.000    0.000    0.000    0.000    0.000    0.000 
#
# Total GULP energy -595068.764671 kJ/mol
# GULP energy per Si atom -12397.265931 kJ/mol
# Density = 1.931097 g / cm^3
# Si number density = 19.355019 Si / 1000 Ang^3
#
#
#
# Elastic Constant Matrix: (Units=GPa)
#
#
# Indices 1 2 3 4 5 6 
#
# 1 60.6537 -3.9774 20.9420 0.0000 0.0000 0.0000
# 2 -3.9774 33.3701 18.0882 0.0000 0.0000 0.0000
# 3 20.9420 18.0882 79.1932 0.0000 0.0000 0.0000
# 4 0.0000 0.0000 0.0000 33.4370 0.0000 0.0000
# 5 0.0000 0.0000 0.0000 0.0000 30.0964 0.0000
# 6 0.0000 0.0000 0.0000 0.0000 0.0000 14.5883
#
#
#
# Elastic Compliance Matrix: (Units=1/GPa)
#
#
# Indices 1 2 3 4 5 6 
#
# 1 0.019051 0.005708 -0.006342 0.000000 0.000000 0.000000
# 2 0.005708 0.035912 -0.009712 0.000000 0.000000 0.000000
# 3 -0.006342 -0.009712 0.016523 0.000000 0.000000 0.000000
# 4 0.000000 0.000000 0.000000 0.029907 0.000000 0.000000
# 5 0.000000 0.000000 0.000000 0.000000 0.033227 0.000000
# 6 0.000000 0.000000 0.000000 0.000000 0.000000 0.068548
#
#
# Mechanical properties :
#
#
# Convention : Reuss Voigt Hill
#
# Bulk Modulus (GPa) = 19.68721 27.03583 23.36152
# Shear Modulus (GPa) = 20.76506 24.83529 22.80017
#
# Velocity S-wave (km/s) = 3.27899 3.58599 3.43592
# Velocity P-wave (km/s) = 4.95272 5.58072 5.27607
#
# Compressibility (1/GPa) = 0.05079441
#
# Stress axis : x y z
#
# Youngs Moduli (GPa) = 52.49089 27.84614 60.52317
#
# Poissons Ratio (x) = -0.15895 0.38382
# Poissons Ratio (y) = -0.29963 0.58779
# Poissons Ratio (z) = 0.33288 0.27044
#
# Static dielectric constant tensor:
#      x y z
#    x 3.695930 0.000000 0.000000 
#    y 0.000000 3.561350 0.000000 
#    z 0.000000 0.000000 3.617250 
# 
# 
# High freq. dielectric constant tensor:
#      x y z
#    x 1.751670 0.000000 0.000000 
#    y 0.000000 1.736370 0.000000 
#    z 0.000000 0.000000 1.761560 
# 
# From -- ./inp_files/6539.got.cif
#   From: 2010.03.12/outbox.cif.g09.slc.cpg/sg57_4_cif.got.tgz:6539.got - 2010.04.16 15:48:40.
