data_PCOD8233393
_publ_section_title
;
Structure prediction by ZEFSAII (Michael W. Deem and Ramdas Pophale) SiO2 
 PCOD8233393
Probable space group: P B C M
;
_chemical_formula_sum "Si O2"
_cell_formula_units_Z 56
_cell_length_a 18.916352
_cell_length_b 8.949279
_cell_length_c 16.694129
_cell_angle_alpha 90.000000
_cell_angle_beta 90.000000
_cell_angle_gamma 90.000000
_cell_volume 2826.110897
_symmetry_space_group_name_H-M "P B C M"
_symmetry_group_IT_number 57
_symmetry_cell_setting 'orthorhombic'
loop_
_space_group_symop_operation_xyz
x,y,z
-x,-y,1/2+z
x,1/2-y,-z
-x,1/2+y,1/2-z
-x,-y,-z
x,y,1/2-z
-x,1/2+y,z
x,1/2-y,1/2+z
loop_
_atom_site_type_symbol
_atom_site_label
_atom_site_fract_x
_atom_site_fract_y
_atom_site_fract_z
Si Si1 0.074635 0.853765 0.344724
Si Si2 0.540126 0.215426 0.910120
Si Si3 0.341542 0.008249 0.434300
Si Si4 0.763412 0.191250 0.840707
Si Si5 0.338563 0.940883 0.617247
Si Si6 0.609804 0.764484 0.163876
Si Si7 0.027990 0.127936 0.058719
O O1 0.054528 0.851754 0.250000
O O2 0.154180 0.800561 0.359590
O O3 0.028773 0.730574 0.393208
O O4 0.070501 0.027585 0.376149
O O5 0.583180 0.060933 0.907934
O O6 0.592280 0.339070 0.875017
O O7 0.471099 0.200779 0.857131
O O8 0.515604 0.250000 0.000000
O O9 0.273929 0.927654 0.397399
O O10 0.330549 0.002159 0.528012
O O11 0.346769 0.176214 0.403340
O O12 0.749143 0.141543 0.750000
O O13 0.731977 0.355276 0.856916
O O14 0.349384 0.079867 0.675164
O O15 0.612238 0.681697 0.250000
O O16 0.068872 0.250000 0.000000
O O17 0.000000 0.000000 0.000000
#
# Coordination Sequence:
#
# PCOD8233393 Si02
#       7
#     8   8   8   8   8   8   8
#     4  10  20  37  62  89 121 157 188 227 284 339
#     4   9  19  35  54  74  99 136 181 226 280 341
#     4  10  21  37  55  75 104 142 181 224 275 333
#     4  10  21  38  59  82 110 144 181 223 272 329
#     4  10  21  37  56  77 104 143 186 226 273 337
#     4  12  23  33  50  77 107 137 178 236 287 327
#     4   9  19  35  58  90 122 151 190 235 270 317
#
# _framework density 19.815217000000001
#
# number of rings (size 3 to 8) (size 9 to 14) (size 15 to 20)
#    0.000    2.000    0.000    4.714    0.000   10.286 
#    0.000    4.286    0.000    8.571    0.000    0.000 
#    0.000    0.000    0.000    0.000    0.000    0.000 
#
# Total GULP energy -693855.096564 kJ/mol
# GULP energy per Si atom -12390.269581 kJ/mol
# Density = 1.977012 g / cm^3
# Si number density = 19.815217 Si / 1000 Ang^3
#
#
#
# Elastic Constant Matrix: (Units=GPa)
#
#
# Indices 1 2 3 4 5 6 
#
# 1 88.2034 38.6566 36.9412 0.0000 0.0000 0.0000
# 2 38.6566 109.4091 30.8396 0.0000 0.0000 0.0000
# 3 36.9412 30.8396 89.1767 0.0000 0.0000 0.0000
# 4 0.0000 0.0000 0.0000 44.7616 0.0000 0.0000
# 5 0.0000 0.0000 0.0000 0.0000 28.2278 0.0000
# 6 0.0000 0.0000 0.0000 0.0000 0.0000 6.0686
#
#
#
# Elastic Compliance Matrix: (Units=1/GPa)
#
#
# Indices 1 2 3 4 5 6 
#
# 1 0.015125 -0.003964 -0.004894 0.000000 0.000000 0.000000
# 2 -0.003964 0.011166 -0.002219 0.000000 0.000000 0.000000
# 3 -0.004894 -0.002219 0.014009 0.000000 0.000000 0.000000
# 4 0.000000 0.000000 0.000000 0.022341 0.000000 0.000000
# 5 0.000000 0.000000 0.000000 0.000000 0.035426 0.000000
# 6 0.000000 0.000000 0.000000 0.000000 0.000000 0.164782
#
#
# Mechanical properties :
#
#
# Convention : Reuss Voigt Hill
#
# Bulk Modulus (GPa) = 55.11612 55.51821 55.31716
# Shear Modulus (GPa) = 17.17905 27.83505 22.50705
#
# Velocity S-wave (km/s) = 2.94762 3.75204 3.37389
# Velocity P-wave (km/s) = 6.28172 6.84465 6.56922
#
# Compressibility (1/GPa) = 0.01814351
#
# Stress axis : x y z
#
# Youngs Moduli (GPa) = 66.11690 89.55550 71.38410
#
# Poissons Ratio (x) = 0.35502 0.34938
# Poissons Ratio (y) = 0.26211 0.15843
# Poissons Ratio (z) = 0.32361 0.19876
#
# Static dielectric constant tensor:
#      x y z
#    x 3.324080 0.000000 0.000000 
#    y 0.000000 3.801810 0.000000 
#    z 0.000000 0.000000 3.804630 
# 
# 
# High freq. dielectric constant tensor:
#      x y z
#    x 1.739240 0.000000 0.000000 
#    y 0.000000 1.782440 0.000000 
#    z 0.000000 0.000000 1.792650 
# 
# From -- ./inp_files/19376.got.cif
#   From: 2010.03.12/outbox.cif.g09.slc.cpg/sg57_10_cif.got.tgz:19376.got - 2010.04.16 15:48:40.
