data_PCOD8233391
_publ_section_title
;
Structure prediction by ZEFSAII (Michael W. Deem and Ramdas Pophale) SiO2 
 PCOD8233391
Probable space group: P B C M
;
_chemical_formula_sum "Si O2"
_cell_formula_units_Z 64
_cell_length_a 9.924250
_cell_length_b 19.413525
_cell_length_c 17.137814
_cell_angle_alpha 90.000000
_cell_angle_beta 90.000000
_cell_angle_gamma 90.000000
_cell_volume 3301.851373
_symmetry_space_group_name_H-M "P B C M"
_symmetry_group_IT_number 57
_symmetry_cell_setting 'orthorhombic'
loop_
_space_group_symop_operation_xyz
x,y,z
-x,-y,1/2+z
x,1/2-y,-z
-x,1/2+y,1/2-z
-x,-y,-z
x,y,1/2-z
-x,1/2+y,z
x,1/2-y,1/2+z
loop_
_atom_site_type_symbol
_atom_site_label
_atom_site_fract_x
_atom_site_fract_y
_atom_site_fract_z
Si Si1 0.874912 0.686555 0.340554
Si Si2 0.053544 0.031401 0.160620
Si Si3 0.490777 0.942558 0.658845
Si Si4 0.294607 0.544073 0.909064
Si Si5 0.783483 0.439473 0.584005
Si Si6 0.644837 0.311033 0.159345
Si Si7 0.576134 0.793663 0.657692
Si Si8 0.856937 0.280661 0.584896
O O1 0.902709 0.702320 0.250000
O O2 0.730963 0.716379 0.368129
O O3 0.875888 0.604708 0.355566
O O4 0.986524 0.724930 0.392022
O O5 0.009287 0.024596 0.250000
O O6 0.919637 0.021168 0.108953
O O7 0.161069 0.972388 0.140790
O O8 0.525446 0.950281 0.750000
O O9 0.334575 0.960050 0.644002
O O10 0.519323 0.866023 0.625715
O O11 0.583018 0.994244 0.610650
O O12 0.341821 0.621192 0.892081
O O13 0.258216 0.535070 0.999085
O O14 0.807473 0.358383 0.587980
O O15 0.630492 0.330814 0.250000
O O16 0.513130 0.270156 0.127189
O O17 0.774157 0.262526 0.148408
O O18 0.564488 0.797105 0.750000
O O19 0.833272 0.250000 0.500000
#
# Coordination Sequence:
#
# PCOD8233391 Si02
#       8
#     8   8   8   8   8   8   8   8
#     4   9  18  35  61  86 109 148 205 253 287 344
#     4  10  20  37  62  89 117 156 206 251 296 357
#     4  11  21  38  62  87 117 157 209 254 295 358
#     4  12  23  39  59  91 127 161 193 252 322 368
#     4  11  23  38  61  88 123 159 204 254 307 360
#     4  11  22  37  61  88 120 160 199 245 307 367
#     4   9  18  35  60  87 111 148 202 250 288 346
#     4  11  21  38  56  85 122 158 199 246 300 360
#
# _framework density 19.383064999999998
#
# number of rings (size 3 to 8) (size 9 to 14) (size 15 to 20)
#    0.000    1.500    3.750    2.625    0.000    1.000 
#    0.000    3.125    0.000    1.500    0.000    0.000 
#    0.000    0.000    0.000    0.000    0.000    0.000 
#
# Total GULP energy -793827.314335 kJ/mol
# GULP energy per Si atom -12403.551786 kJ/mol
# Density = 1.933895 g / cm^3
# Si number density = 19.383065 Si / 1000 Ang^3
#
#
#
# Elastic Constant Matrix: (Units=GPa)
#
#
# Indices 1 2 3 4 5 6 
#
# 1 154.9924 63.2616 33.5688 0.0000 0.0000 0.0000
# 2 63.2616 82.6171 26.1481 0.0000 0.0000 0.0000
# 3 33.5688 26.1481 62.3379 0.0000 0.0000 0.0000
# 4 0.0000 0.0000 0.0000 20.5456 0.0000 0.0000
# 5 0.0000 0.0000 0.0000 0.0000 30.7261 0.0000
# 6 0.0000 0.0000 0.0000 0.0000 0.0000 -21.5058
#
#
#
# Elastic Compliance Matrix: (Units=1/GPa)
#
#
# Indices 1 2 3 4 5 6 
#
# 1 0.009694 -0.006654 -0.002429 0.000000 0.000000 0.000000
# 2 -0.006654 0.018524 -0.004187 0.000000 0.000000 0.000000
# 3 -0.002429 -0.004187 0.019106 0.000000 0.000000 0.000000
# 4 0.000000 0.000000 0.000000 0.048672 0.000000 0.000000
# 5 0.000000 0.000000 0.000000 0.000000 0.032546 0.000000
# 6 0.000000 0.000000 0.000000 0.000000 0.000000 -0.046499
#
#
# Mechanical properties :
#
#
# Convention : Reuss Voigt Hill
#
# Bulk Modulus (GPa) = 48.11393 60.65602 54.38498
# Shear Modulus (GPa) = 43.28590 17.75112 30.51851
#
# Velocity S-wave (km/s) = 4.73078 3.02951 3.97229
# Velocity P-wave (km/s) = 7.39709 6.60292 7.01126
#
# Compressibility (1/GPa) = 0.02078400
#
# Stress axis : x y z
#
# Youngs Moduli (GPa) = 103.15720 53.98305 52.33980
#
# Poissons Ratio (x) = 0.35921 0.12714
# Poissons Ratio (y) = 0.68641 0.21915
# Poissons Ratio (z) = 0.25058 0.22603
#
# Static dielectric constant tensor:
#      x y z
#    x 3.739630 0.000000 0.000000 
#    y 0.000000 3.451310 0.000000 
#    z 0.000000 0.000000 3.399990 
# 
# 
# High freq. dielectric constant tensor:
#      x y z
#    x 1.770290 0.000000 0.000000 
#    y 0.000000 1.739920 0.000000 
#    z 0.000000 0.000000 1.745890 
# 
# From -- ./inp_files/21443.got.cif
#   From: 2010.03.12/outbox.cif.g09.slc.cpg/sg57_11_cif.got.tgz:21443.got - 2010.04.16 15:48:40.
