data_PCOD8233337
_publ_section_title
;
Structure prediction by ZEFSAII (Michael W. Deem and Ramdas Pophale) SiO2 
 PCOD8233337
Probable space group: P B C M
;
_chemical_formula_sum "Si O2"
_cell_formula_units_Z 48
_cell_length_a 30.472038
_cell_length_b 9.171119
_cell_length_c 8.620918
_cell_angle_alpha 90.000000
_cell_angle_beta 90.000000
_cell_angle_gamma 90.000000
_cell_volume 2409.224906
_symmetry_space_group_name_H-M "P B C M"
_symmetry_group_IT_number 57
_symmetry_cell_setting 'orthorhombic'
loop_
_space_group_symop_operation_xyz
x,y,z
-x,-y,1/2+z
x,1/2-y,-z
-x,1/2+y,1/2-z
-x,-y,-z
x,y,1/2-z
-x,1/2+y,z
x,1/2-y,1/2+z
loop_
_atom_site_type_symbol
_atom_site_label
_atom_site_fract_x
_atom_site_fract_y
_atom_site_fract_z
Si Si1 0.379238 0.088600 0.566693
Si Si2 0.215387 0.095884 0.932672
Si Si3 0.294413 0.592980 0.431553
Si Si4 0.115836 0.406040 0.433661
Si Si5 0.039880 0.909084 0.066309
Si Si6 0.540606 0.411609 0.433954
O O1 0.381741 0.250000 0.500000
O O2 0.387780 0.091527 0.750000
O O3 0.332361 0.020221 0.523175
O O4 0.415020 0.989191 0.484638
O O5 0.219226 0.109467 0.750000
O O6 0.165783 0.057300 0.982750
O O7 0.248281 0.971329 0.996071
O O8 0.230420 0.250000 0.000000
O O9 0.304625 0.750000 0.500000
O O10 0.291667 0.613972 0.250000
O O11 0.101406 0.250000 0.500000
O O12 0.109140 0.405856 0.250000
O O13 0.086305 0.528485 0.511399
O O14 0.037644 0.907200 0.250000
O O15 0.034683 0.750000 0.000000
O O16 0.000000 0.000000 0.000000
O O17 0.539615 0.250000 0.500000
O O18 0.500000 0.500000 0.500000
O O19 0.537528 0.405429 0.250000
#
# Coordination Sequence:
#
# PCOD8233337 Si02
#       6
#     8   8   8   8   8   8
#     4  11  23  40  62  89 120 156 199 245 296 351
#     4   9  19  36  58  85 116 152 194 238 285 341
#     4  10  22  38  57  84 118 155 196 242 292 346
#     4  10  20  37  60  87 119 154 194 239 289 344
#     4  12  25  42  62  86 116 151 192 237 289 345
#     4  12  25  43  65  91 123 158 198 243 294 349
#
# _framework density 19.923421999999999
#
# number of rings (size 3 to 8) (size 9 to 14) (size 15 to 20)
#    0.000    1.333    0.000    6.000    0.000    4.667 
#    0.000    1.667    0.000    0.000    0.000    0.000 
#    0.000    0.000    0.000    0.000    0.000    0.000 
#
# Total GULP energy -595396.366402 kJ/mol
# GULP energy per Si atom -12404.090967 kJ/mol
# Density = 1.987808 g / cm^3
# Si number density = 19.923422 Si / 1000 Ang^3
#
#
#
# Elastic Constant Matrix: (Units=GPa)
#
#
# Indices 1 2 3 4 5 6 
#
# 1 129.1059 81.3805 60.5632 0.0000 0.0000 0.0000
# 2 81.3805 176.7384 67.4016 0.0000 0.0000 0.0000
# 3 60.5632 67.4016 120.4431 0.0000 0.0000 0.0000
# 4 0.0000 0.0000 0.0000 40.8009 0.0000 0.0000
# 5 0.0000 0.0000 0.0000 0.0000 31.3856 0.0000
# 6 0.0000 0.0000 0.0000 0.0000 0.0000 48.2963
#
#
#
# Elastic Compliance Matrix: (Units=1/GPa)
#
#
# Indices 1 2 3 4 5 6 
#
# 1 0.012131 -0.004144 -0.003781 0.000000 0.000000 0.000000
# 2 -0.004144 0.008609 -0.002734 0.000000 0.000000 0.000000
# 3 -0.003781 -0.002734 0.011734 0.000000 0.000000 0.000000
# 4 0.000000 0.000000 0.000000 0.024509 0.000000 0.000000
# 5 0.000000 0.000000 0.000000 0.000000 0.031862 0.000000
# 6 0.000000 0.000000 0.000000 0.000000 0.000000 0.020706
#
#
# Mechanical properties :
#
#
# Convention : Reuss Voigt Hill
#
# Bulk Modulus (GPa) = 89.63639 93.88646 91.76142
# Shear Modulus (GPa) = 37.15063 38.55936 37.85500
#
# Velocity S-wave (km/s) = 4.32287 4.40407 4.36366
# Velocity P-wave (km/s) = 8.36686 8.54910 8.45847
#
# Compressibility (1/GPa) = 0.01115618
#
# Stress axis : x y z
#
# Youngs Moduli (GPa) = 82.43058 116.15984 85.22375
#
# Poissons Ratio (x) = 0.48137 0.32224
# Poissons Ratio (y) = 0.34160 0.23299
# Poissons Ratio (z) = 0.31167 0.31756
#
# Static dielectric constant tensor:
#      x y z
#    x 4.187690 0.000000 0.000000 
#    y 0.000000 3.739420 0.000000 
#    z 0.000000 0.000000 3.740380 
# 
# 
# High freq. dielectric constant tensor:
#      x y z
#    x 1.796520 0.000000 0.000000 
#    y 0.000000 1.787270 0.000000 
#    z 0.000000 0.000000 1.786550 
# 
# From -- ./inp_files/9984.got.cif
#   From: 2010.03.12/outbox.cif.g09.slc.cpg/sg57_5_cif.got.tgz:9984.got - 2010.04.16 15:48:40.
