data_PCOD8233265
_publ_section_title
;
Structure prediction by ZEFSAII (Michael W. Deem and Ramdas Pophale) SiO2 
 PCOD8233265
Probable space group: P B C M
;
_chemical_formula_sum "Si O2"
_cell_formula_units_Z 48
_cell_length_a 30.440448
_cell_length_b 9.461259
_cell_length_c 8.673308
_cell_angle_alpha 90.000000
_cell_angle_beta 90.000000
_cell_angle_gamma 90.000000
_cell_volume 2497.955746
_symmetry_space_group_name_H-M "P B C M"
_symmetry_group_IT_number 57
_symmetry_cell_setting 'orthorhombic'
loop_
_space_group_symop_operation_xyz
x,y,z
-x,-y,1/2+z
x,1/2-y,-z
-x,1/2+y,1/2-z
-x,-y,-z
x,y,1/2-z
-x,1/2+y,z
x,1/2-y,1/2+z
loop_
_atom_site_type_symbol
_atom_site_label
_atom_site_fract_x
_atom_site_fract_y
_atom_site_fract_z
Si Si1 0.035248 0.101944 0.930028
Si Si2 0.537841 0.096108 0.066417
Si Si3 0.629900 0.403009 0.066790
Si Si4 0.288956 0.405396 0.568580
Si Si5 0.135222 0.097956 0.568428
Si Si6 0.792047 0.405378 0.067147
O O1 0.028950 0.108380 0.750000
O O2 0.085031 0.059665 0.973541
O O3 0.022918 0.250000 0.000000
O O4 0.000000 0.000000 0.000000
O O5 0.536848 0.097589 0.250000
O O6 0.529326 0.250000 0.000000
O O7 0.584823 0.039738 0.007232
O O8 0.500000 0.000000 0.000000
O O9 0.624781 0.389807 0.250000
O O10 0.666838 0.514753 0.017274
O O11 0.642673 0.250000 0.000000
O O12 0.287604 0.250000 0.500000
O O13 0.286655 0.390431 0.750000
O O14 0.247864 0.496681 0.507958
O O15 0.148848 0.250000 0.500000
O O16 0.143545 0.103437 0.750000
O O17 0.163052 0.973239 0.492953
O O18 0.793167 0.394600 0.250000
O O19 0.785739 0.250000 0.000000
#
# Coordination Sequence:
#
# PCOD8233265 Si02
#       6
#     8   8   8   8   8   8
#     4  10  21  37  58  83 113 148 188 231 281 334
#     4  11  22  38  59  85 115 151 191 234 283 336
#     4  10  20  37  58  83 113 147 187 232 280 333
#     4  10  23  39  58  84 114 147 186 229 278 333
#     4  10  21  38  59  84 113 148 187 232 281 334
#     4  11  23  39  59  85 114 149 189 232 280 334
#
# _framework density 19.215713000000001
#
# number of rings (size 3 to 8) (size 9 to 14) (size 15 to 20)
#    0.000    1.667    0.000    5.500    0.000    7.333 
#    0.000    1.667    0.000    0.000    0.000    0.000 
#    0.000    0.000    0.000    0.000    0.000    0.000 
#
# Total GULP energy -595331.385259 kJ/mol
# GULP energy per Si atom -12402.737193 kJ/mol
# Density = 1.917198 g / cm^3
# Si number density = 19.215713 Si / 1000 Ang^3
#
#
#
# Elastic Constant Matrix: (Units=GPa)
#
#
# Indices 1 2 3 4 5 6 
#
# 1 153.5699 111.9547 58.6458 0.0000 0.0000 0.0000
# 2 111.9547 157.4639 62.4584 0.0000 0.0000 0.0000
# 3 58.6458 62.4584 93.7575 0.0000 0.0000 0.0000
# 4 0.0000 0.0000 0.0000 40.5762 0.0000 0.0000
# 5 0.0000 0.0000 0.0000 0.0000 31.8734 0.0000
# 6 0.0000 0.0000 0.0000 0.0000 0.0000 45.5099
#
#
#
# Elastic Compliance Matrix: (Units=1/GPa)
#
#
# Indices 1 2 3 4 5 6 
#
# 1 0.014078 -0.008857 -0.002906 0.000000 0.000000 0.000000
# 2 -0.008857 0.014203 -0.003922 0.000000 0.000000 0.000000
# 3 -0.002906 -0.003922 0.015096 0.000000 0.000000 0.000000
# 4 0.000000 0.000000 0.000000 0.024645 0.000000 0.000000
# 5 0.000000 0.000000 0.000000 0.000000 0.031374 0.000000
# 6 0.000000 0.000000 0.000000 0.000000 0.000000 0.021973
#
#
# Mechanical properties :
#
#
# Convention : Reuss Voigt Hill
#
# Bulk Modulus (GPa) = 83.27388 96.76769 90.02079
# Shear Modulus (GPa) = 31.89969 35.04074 33.47021
#
# Velocity S-wave (km/s) = 4.07883 4.27493 4.17803
# Velocity P-wave (km/s) = 8.10018 8.65070 8.37996
#
# Compressibility (1/GPa) = 0.01200857
#
# Stress axis : x y z
#
# Youngs Moduli (GPa) = 71.03267 70.40627 66.24243
#
# Poissons Ratio (x) = 0.62357 0.19249
# Poissons Ratio (y) = 0.62911 0.25980
# Poissons Ratio (z) = 0.20641 0.27613
#
# Static dielectric constant tensor:
#      x y z
#    x 3.789010 0.000000 0.000000 
#    y 0.000000 3.588570 0.000000 
#    z 0.000000 0.000000 3.670780 
# 
# 
# High freq. dielectric constant tensor:
#      x y z
#    x 1.763410 0.000000 0.000000 
#    y 0.000000 1.749910 0.000000 
#    z 0.000000 0.000000 1.762140 
# 
# From -- ./inp_files/9962.got.cif
#   From: 2010.03.12/outbox.cif.g09.slc.cpg/sg57_5_cif.got.tgz:9962.got - 2010.04.16 15:48:40.
