data_PCOD8233448
_publ_section_title
;
Structure prediction by ZEFSAII (Michael W. Deem and Ramdas Pophale) SiO2 
 PCOD8233448
Probable space group: P B C M
;
_chemical_formula_sum "Si O2"
_cell_formula_units_Z 48
_cell_length_a 28.052033
_cell_length_b 9.773656
_cell_length_c 8.952304
_cell_angle_alpha 90.000000
_cell_angle_beta 90.000000
_cell_angle_gamma 90.000000
_cell_volume 2454.461430
_symmetry_space_group_name_H-M "P B C M"
_symmetry_group_IT_number 57
_symmetry_cell_setting 'orthorhombic'
loop_
_space_group_symop_operation_xyz
x,y,z
-x,-y,1/2+z
x,1/2-y,-z
-x,1/2+y,1/2-z
-x,-y,-z
x,y,1/2-z
-x,1/2+y,z
x,1/2-y,1/2+z
loop_
_atom_site_type_symbol
_atom_site_label
_atom_site_fract_x
_atom_site_fract_y
_atom_site_fract_z
Si Si1 0.708444 0.107323 0.070968
Si Si2 0.184606 0.622437 0.086799
Si Si3 0.944252 0.526060 0.250000
Si Si4 0.890049 0.598892 0.524484
Si Si5 0.969105 0.831557 0.250000
Si Si6 0.637701 0.896250 0.569444
Si Si7 0.461775 0.398397 0.068463
O O1 0.699606 0.102100 0.250000
O O2 0.763589 0.080275 0.024376
O O3 0.691359 0.250000 0.000000
O O4 0.679908 0.993037 0.982533
O O5 0.193091 0.681943 0.250000
O O6 0.161234 0.750000 0.000000
O O7 0.150443 0.491215 0.100046
O O8 0.906354 0.516669 0.381219
O O9 0.974720 0.667033 0.250000
O O10 0.978491 0.395472 0.250000
O O11 0.867746 0.750000 0.500000
O O12 0.939630 0.616433 0.610006
O O13 0.650007 0.750000 0.500000
O O14 0.633331 0.889782 0.750000
O O15 0.588985 0.950152 0.493961
O O16 0.462573 0.395796 0.250000
O O17 0.472894 0.250000 0.000000
O O18 0.500000 0.500000 0.000000
#
# Coordination Sequence:
#
# PCOD8233448 Si02
#       7
#     8   8   4   8   4   8   8
#     4  10  21  39  60  86 117 153 194 244 299 354
#     4  10  22  39  60  85 115 148 188 236 285 343
#     4  10  22  34  56  84 108 148 182 232 275 344
#     4  10  21  38  57  82 113 149 185 232 282 337
#     4  10  20  38  56  78 114 142 188 228 285 328
#     4  11  22  39  61  89 121 159 202 248 299 356
#     4  11  22  39  61  89 123 162 205 254 303 357
#
# _framework density 19.556225000000001
#
# number of rings (size 3 to 8) (size 9 to 14) (size 15 to 20)
#    0.000    1.667    0.833    5.000    1.167    3.333 
#    0.000    3.333    0.000    0.000    0.000    0.000 
#    0.000    0.000    0.000    0.000    0.000    0.000 
#
# Total GULP energy -594888.746511 kJ/mol
# GULP energy per Si atom -12393.515552 kJ/mol
# Density = 1.951171 g / cm^3
# Si number density = 19.556225 Si / 1000 Ang^3
#
#
#
# Elastic Constant Matrix: (Units=GPa)
#
#
# Indices 1 2 3 4 5 6 
#
# 1 81.1765 53.9687 27.0843 0.0000 0.0000 0.0000
# 2 53.9687 84.1696 28.5285 0.0000 0.0000 0.0000
# 3 27.0843 28.5285 137.9051 0.0000 0.0000 0.0000
# 4 0.0000 0.0000 0.0000 33.9900 0.0000 0.0000
# 5 0.0000 0.0000 0.0000 0.0000 20.3504 0.0000
# 6 0.0000 0.0000 0.0000 0.0000 0.0000 40.6902
#
#
#
# Elastic Compliance Matrix: (Units=1/GPa)
#
#
# Indices 1 2 3 4 5 6 
#
# 1 0.021754 -0.013443 -0.001491 0.000000 0.000000 0.000000
# 2 -0.013443 0.021084 -0.001721 0.000000 0.000000 0.000000
# 3 -0.001491 -0.001721 0.007900 0.000000 0.000000 0.000000
# 4 0.000000 0.000000 0.000000 0.029420 0.000000 0.000000
# 5 0.000000 0.000000 0.000000 0.000000 0.049139 0.000000
# 6 0.000000 0.000000 0.000000 0.000000 0.000000 0.024576
#
#
# Mechanical properties :
#
#
# Convention : Reuss Voigt Hill
#
# Bulk Modulus (GPa) = 57.38433 58.04603 57.71518
# Shear Modulus (GPa) = 25.90768 31.91743 28.91256
#
# Velocity S-wave (km/s) = 3.64370 4.04429 3.84921
# Velocity P-wave (km/s) = 6.86360 7.18014 7.02366
#
# Compressibility (1/GPa) = 0.01742636
#
# Stress axis : x y z
#
# Youngs Moduli (GPa) = 45.96945 47.43033 126.57581
#
# Poissons Ratio (x) = 0.63759 0.18878
# Poissons Ratio (y) = 0.61795 0.21789
# Poissons Ratio (z) = 0.06856 0.08165
#
# Static dielectric constant tensor:
#      x y z
#    x 3.456920 0.000000 0.000000 
#    y 0.000000 3.511920 0.000000 
#    z 0.000000 0.000000 2.962250 
# 
# 
# High freq. dielectric constant tensor:
#      x y z
#    x 1.757330 0.000000 0.000000 
#    y 0.000000 1.760720 0.000000 
#    z 0.000000 0.000000 1.784580 
# 
# From -- ./inp_files/10140.got.cif
#   From: 2010.03.12/outbox.cif.g09.slc.cpg/sg57_6_cif.got.tgz:10140.got - 2010.04.16 15:48:40.
