data_PCOD8233025
_publ_section_title
;
Structure prediction by ZEFSAII (Michael W. Deem and Ramdas Pophale) SiO2 
 PCOD8233025
Probable space group: P B C M
;
_chemical_formula_sum "Si O2"
_cell_formula_units_Z 40
_cell_length_a 13.701069
_cell_length_b 18.101880
_cell_length_c 8.541977
_cell_angle_alpha 90.000000
_cell_angle_beta 90.000000
_cell_angle_gamma 90.000000
_cell_volume 2118.539339
_symmetry_space_group_name_H-M "P B C M"
_symmetry_group_IT_number 57
_symmetry_cell_setting 'orthorhombic'
loop_
_space_group_symop_operation_xyz
x,y,z
-x,-y,1/2+z
x,1/2-y,-z
-x,1/2+y,1/2-z
-x,-y,-z
x,y,1/2-z
-x,1/2+y,z
x,1/2-y,1/2+z
loop_
_atom_site_type_symbol
_atom_site_label
_atom_site_fract_x
_atom_site_fract_y
_atom_site_fract_z
Si Si1 0.581612 0.169109 0.934266
Si Si2 0.296731 0.544514 0.066098
Si Si3 0.103522 0.477784 0.565940
Si Si4 0.193958 0.326504 0.931370
Si Si5 0.612277 0.597762 0.064659
O O1 0.563078 0.172322 0.750000
O O2 0.601554 0.250000 0.000000
O O3 0.675178 0.119438 0.975614
O O4 0.488849 0.133918 0.019324
O O5 0.303172 0.558398 0.250000
O O6 0.186668 0.525112 0.018602
O O7 0.373819 0.481100 0.018542
O O8 0.110677 0.492843 0.750000
O O9 0.117967 0.391266 0.526802
O O10 0.000000 0.500000 0.500000
O O11 0.202284 0.314050 0.750000
O O12 0.301249 0.348271 0.995225
O O13 0.155180 0.250000 0.000000
O O14 0.618949 0.584426 0.250000
#
# Coordination Sequence:
#
# PCOD8233025 Si02
#       5
#     8   8   8   8   8
#     4  12  24  38  55  80 114 152 190 231 276 329
#     4  11  22  38  59  83 110 146 187 230 279 334
#     4  10  21  39  60  84 110 142 184 232 281 336
#     4   9  19  33  53  81 113 141 175 222 273 324
#     4  10  20  36  56  82 114 149 187 229 273 327
#
# _framework density 18.880932000000001
#
# number of rings (size 3 to 8) (size 9 to 14) (size 15 to 20)
#    0.000    1.600    0.000    7.200    0.000    6.400 
#    0.000    1.000    0.000    2.400    0.000    0.000 
#    0.000    0.000    0.000    0.000    0.000    0.000 
#
# Total GULP energy -496113.200872 kJ/mol
# GULP energy per Si atom -12402.830022 kJ/mol
# Density = 1.883796 g / cm^3
# Si number density = 18.880932 Si / 1000 Ang^3
#
#
#
# Elastic Constant Matrix: (Units=GPa)
#
#
# Indices 1 2 3 4 5 6 
#
# 1 63.7737 50.8013 19.6546 0.0000 0.0000 0.0000
# 2 50.8013 129.9939 26.5615 0.0000 0.0000 0.0000
# 3 19.6546 26.5615 71.1332 0.0000 0.0000 0.0000
# 4 0.0000 0.0000 0.0000 35.0582 0.0000 0.0000
# 5 0.0000 0.0000 0.0000 0.0000 32.8304 0.0000
# 6 0.0000 0.0000 0.0000 0.0000 0.0000 14.2543
#
#
#
# Elastic Compliance Matrix: (Units=1/GPa)
#
#
# Indices 1 2 3 4 5 6 
#
# 1 0.023468 -0.008494 -0.003313 0.000000 0.000000 0.000000
# 2 -0.008494 0.011403 -0.001911 0.000000 0.000000 0.000000
# 3 -0.003313 -0.001911 0.015687 0.000000 0.000000 0.000000
# 4 0.000000 0.000000 0.000000 0.028524 0.000000 0.000000
# 5 0.000000 0.000000 0.000000 0.000000 0.030460 0.000000
# 6 0.000000 0.000000 0.000000 0.000000 0.000000 0.070154
#
#
# Mechanical properties :
#
#
# Convention : Reuss Voigt Hill
#
# Bulk Modulus (GPa) = 43.24856 50.99285 47.12070
# Shear Modulus (GPa) = 23.27339 27.62082 25.44711
#
# Velocity S-wave (km/s) = 3.51471 3.82893 3.67518
# Velocity P-wave (km/s) = 6.27906 6.82743 6.55898
#
# Compressibility (1/GPa) = 0.02312216
#
# Stress axis : x y z
#
# Youngs Moduli (GPa) = 42.61164 87.69895 63.74747
#
# Poissons Ratio (x) = 0.74494 0.21116
# Poissons Ratio (y) = 0.36196 0.12181
# Poissons Ratio (z) = 0.14115 0.16757
#
# Static dielectric constant tensor:
#      x y z
#    x 3.317050 0.000000 0.000000 
#    y 0.000000 2.900100 0.000000 
#    z 0.000000 0.000000 3.550230 
# 
# 
# High freq. dielectric constant tensor:
#      x y z
#    x 1.721540 0.000000 0.000000 
#    y 0.000000 1.739070 0.000000 
#    z 0.000000 0.000000 1.747070 
# 
# From -- ./inp_files/2683.got.cif
#   From: 2010.03.12/outbox.cif.g09.slc.cpg/sg57_2_cif.got.tgz:2683.got - 2010.04.16 15:48:40.
