data_PCOD8233771
_publ_section_title
;
Structure prediction by ZEFSAII (Michael W. Deem and Ramdas Pophale) SiO2 
 PCOD8233771
Probable space group: P B C M
;
_chemical_formula_sum "Si O2"
_cell_formula_units_Z 52
_cell_length_a 9.103924
_cell_length_b 10.305405
_cell_length_c 26.044723
_cell_angle_alpha 90.000000
_cell_angle_beta 90.000000
_cell_angle_gamma 90.000000
_cell_volume 2443.506117
_symmetry_space_group_name_H-M "P B C M"
_symmetry_group_IT_number 57
_symmetry_cell_setting 'orthorhombic'
loop_
_space_group_symop_operation_xyz
x,y,z
-x,-y,1/2+z
x,1/2-y,-z
-x,1/2+y,1/2-z
-x,-y,-z
x,y,1/2-z
-x,1/2+y,z
x,1/2-y,1/2+z
loop_
_atom_site_type_symbol
_atom_site_label
_atom_site_fract_x
_atom_site_fract_y
_atom_site_fract_z
Si Si1 0.702374 0.309897 0.750000
Si Si2 0.851845 0.198455 0.051082
Si Si3 0.058892 0.907460 0.250000
Si Si4 0.367637 0.721291 0.859576
Si Si5 0.310813 0.203209 0.857647
Si Si6 0.821775 0.982139 0.848866
Si Si7 0.262834 0.104845 0.750000
Si Si8 0.935494 0.576670 0.576738
O O1 0.837837 0.215157 0.750000
O O2 0.615682 0.291385 0.696088
O O3 0.763024 0.452916 0.750000
O O4 0.750639 0.211049 0.102164
O O5 0.001226 0.289045 0.052758
O O6 0.889006 0.045729 0.040542
O O7 0.766615 0.250000 0.000000
O O8 0.901191 0.838335 0.250000
O O9 0.083893 0.999792 0.297991
O O10 0.530265 0.721068 0.884991
O O11 0.321280 0.572977 0.849954
O O12 0.225688 0.336052 0.853567
O O13 0.348204 0.149929 0.800733
O O14 0.208096 0.105134 0.888948
O O15 0.929357 0.014133 0.894286
#
# Coordination Sequence:
#
# PCOD8233771 Si02
#       8
#     4   8   4   8   8   8   4   8
#     4  10  23  42  59  91 135 173 214 259 328 391
#     4  11  24  46  71  99 131 171 220 275 332 388
#     4  10  21  35  58  91 128 171 215 265 319 385
#     4  10  25  43  65  92 135 177 210 267 324 397
#     4  12  24  39  64  96 130 174 217 265 331 391
#     4  10  22  39  61  90 131 167 218 263 316 387
#     4  12  24  31  63  90 129 172 217 266 323 386
#     4  11  22  42  70  97 126 166 216 276 326 382
#
# _framework density 21.280898000000001
#
# number of rings (size 3 to 8) (size 9 to 14) (size 15 to 20)
#    0.000    1.231    3.077    2.308    6.462    0.000 
#    0.000    1.538    0.000    0.000    0.000    0.000 
#    0.000    0.000    0.000    0.000    0.000    0.000 
#
# Total GULP energy -644405.166288 kJ/mol
# GULP energy per Si atom -12392.407044 kJ/mol
# Density = 2.123246 g / cm^3
# Si number density = 21.280898 Si / 1000 Ang^3
#
#
#
# Elastic Constant Matrix: (Units=GPa)
#
#
# Indices 1 2 3 4 5 6 
#
# 1 90.9482 15.0377 10.3413 0.0000 0.0000 0.0000
# 2 15.0377 108.7564 15.7853 0.0000 0.0000 0.0000
# 3 10.3413 15.7853 77.9767 0.0000 0.0000 0.0000
# 4 0.0000 0.0000 0.0000 34.6598 0.0000 0.0000
# 5 0.0000 0.0000 0.0000 0.0000 13.3789 0.0000
# 6 0.0000 0.0000 0.0000 0.0000 0.0000 16.6269
#
#
#
# Elastic Compliance Matrix: (Units=1/GPa)
#
#
# Indices 1 2 3 4 5 6 
#
# 1 0.011365 -0.001394 -0.001225 0.000000 0.000000 0.000000
# 2 -0.001394 0.009644 -0.001767 0.000000 0.000000 0.000000
# 3 -0.001225 -0.001767 0.013345 0.000000 0.000000 0.000000
# 4 0.000000 0.000000 0.000000 0.028852 0.000000 0.000000
# 5 0.000000 0.000000 0.000000 0.000000 0.074744 0.000000
# 6 0.000000 0.000000 0.000000 0.000000 0.000000 0.060144
#
#
# Mechanical properties :
#
#
# Convention : Reuss Voigt Hill
#
# Bulk Modulus (GPa) = 39.09110 40.00111 39.54611
# Shear Modulus (GPa) = 23.21336 28.70091 25.95714
#
# Velocity S-wave (km/s) = 3.30632 3.67641 3.49626
# Velocity P-wave (km/s) = 5.74323 6.07115 5.90946
#
# Compressibility (1/GPa) = 0.02558127
#
# Stress axis : x y z
#
# Youngs Moduli (GPa) = 87.98949 103.69037 74.93659
#
# Poissons Ratio (x) = 0.14450 0.09181
# Poissons Ratio (y) = 0.12262 0.13245
# Poissons Ratio (z) = 0.10780 0.18327
#
# Static dielectric constant tensor:
#      x y z
#    x 3.767570 0.000000 0.000000 
#    y 0.000000 4.168970 0.000000 
#    z 0.000000 0.000000 4.072820 
# 
# 
# High freq. dielectric constant tensor:
#      x y z
#    x 1.826210 0.000000 0.000000 
#    y 0.000000 1.850410 0.000000 
#    z 0.000000 0.000000 1.820270 
# 
# From -- ./inp_files/28366.got.cif
#   From: 2010.03.12/outbox.cif.g09.slc.cpg/sg57_15_cif.got.tgz:28366.got - 2010.04.16 15:48:40.
