data_PCOD8233890
_publ_section_title
;
Structure prediction by ZEFSAII (Michael W. Deem and Ramdas Pophale) SiO2 
 PCOD8233890
Probable space group: P B C M
;
_chemical_formula_sum "Si O2"
_cell_formula_units_Z 48
_cell_length_a 30.695332
_cell_length_b 9.322707
_cell_length_c 8.609801
_cell_angle_alpha 90.000000
_cell_angle_beta 90.000000
_cell_angle_gamma 90.000000
_cell_volume 2463.811533
_symmetry_space_group_name_H-M "P B C M"
_symmetry_group_IT_number 57
_symmetry_cell_setting 'orthorhombic'
loop_
_space_group_symop_operation_xyz
x,y,z
-x,-y,1/2+z
x,1/2-y,-z
-x,1/2+y,1/2-z
-x,-y,-z
x,y,1/2-z
-x,1/2+y,z
x,1/2-y,1/2+z
loop_
_atom_site_type_symbol
_atom_site_label
_atom_site_fract_x
_atom_site_fract_y
_atom_site_fract_z
Si Si1 0.627975 0.094673 0.067451
Si Si2 0.801630 0.593801 0.066490
Si Si3 0.709431 0.598589 0.932662
Si Si4 0.877063 0.406889 0.566876
Si Si5 0.461024 0.591560 0.933638
Si Si6 0.039281 0.408978 0.432701
O O1 0.619666 0.102397 0.250000
O O2 0.670583 0.006529 0.023577
O O3 0.636572 0.250000 0.000000
O O4 0.585174 0.024378 0.988346
O O5 0.804226 0.603268 0.250000
O O6 0.814145 0.750000 0.000000
O O7 0.753589 0.545406 0.014008
O O8 0.833571 0.471449 0.006127
O O9 0.717981 0.609832 0.750000
O O10 0.694926 0.750000 0.000000
O O11 0.886538 0.250000 0.500000
O O12 0.871375 0.395277 0.750000
O O13 0.916449 0.511162 0.519779
O O14 0.463530 0.594385 0.750000
O O15 0.465162 0.750000 0.000000
O O16 0.500000 0.500000 0.000000
O O17 0.039760 0.250000 0.500000
O O18 0.033549 0.398203 0.250000
O O19 0.000000 0.500000 0.500000
#
# Coordination Sequence:
#
# PCOD8233890 Si02
#       6
#     8   8   8   8   8   8
#     4  10  21  37  57  82 112 147 187 231 282 339
#     4  11  22  38  61  86 116 153 193 239 289 342
#     4  10  21  37  58  84 115 149 190 237 284 340
#     4  11  24  41  61  88 120 155 196 241 290 344
#     4  11  22  38  59  83 113 148 188 234 284 339
#     4  11  24  41  64  91 122 158 197 242 291 346
#
# _framework density 19.482009999999999
#
# number of rings (size 3 to 8) (size 9 to 14) (size 15 to 20)
#    0.000    1.333    0.000    8.000    0.000    9.333 
#    0.000    3.333    0.000    0.000    0.000    0.000 
#    0.000    0.000    0.000    0.000    0.000    0.000 
#
# Total GULP energy -595375.945728 kJ/mol
# GULP energy per Si atom -12403.665536 kJ/mol
# Density = 1.943767 g / cm^3
# Si number density = 19.482010 Si / 1000 Ang^3
#
#
#
# Elastic Constant Matrix: (Units=GPa)
#
#
# Indices 1 2 3 4 5 6 
#
# 1 149.8969 93.5679 78.8527 0.0000 0.0000 0.0000
# 2 93.5679 130.0525 64.4873 0.0000 0.0000 0.0000
# 3 78.8527 64.4873 136.7313 0.0000 0.0000 0.0000
# 4 0.0000 0.0000 0.0000 38.0938 0.0000 0.0000
# 5 0.0000 0.0000 0.0000 0.0000 33.9506 0.0000
# 6 0.0000 0.0000 0.0000 0.0000 0.0000 44.5486
#
#
#
# Elastic Compliance Matrix: (Units=1/GPa)
#
#
# Indices 1 2 3 4 5 6 
#
# 1 0.013789 -0.007802 -0.004272 0.000000 0.000000 0.000000
# 2 -0.007802 0.014451 -0.002316 0.000000 0.000000 0.000000
# 3 -0.004272 -0.002316 0.010870 0.000000 0.000000 0.000000
# 4 0.000000 0.000000 0.000000 0.026251 0.000000 0.000000
# 5 0.000000 0.000000 0.000000 0.000000 0.029455 0.000000
# 6 0.000000 0.000000 0.000000 0.000000 0.000000 0.022447
#
#
# Mechanical properties :
#
#
# Convention : Reuss Voigt Hill
#
# Bulk Modulus (GPa) = 96.81833 98.94405 97.88119
# Shear Modulus (GPa) = 33.44783 35.30347 34.37565
#
# Velocity S-wave (km/s) = 4.14799 4.26150 4.20513
# Velocity P-wave (km/s) = 8.52908 8.66669 8.59816
#
# Compressibility (1/GPa) = 0.01032862
#
# Stress axis : x y z
#
# Youngs Moduli (GPa) = 72.52211 69.19921 91.99822
#
# Poissons Ratio (x) = 0.53990 0.39304
# Poissons Ratio (y) = 0.56583 0.21308
# Poissons Ratio (z) = 0.30983 0.16027
#
# Static dielectric constant tensor:
#      x y z
#    x 4.194240 0.000000 0.000000 
#    y 0.000000 3.518570 0.000000 
#    z 0.000000 0.000000 3.758240 
# 
# 
# High freq. dielectric constant tensor:
#      x y z
#    x 1.777450 0.000000 0.000000 
#    y 0.000000 1.758410 0.000000 
#    z 0.000000 0.000000 1.780810 
# 
# From -- ./inp_files/10058.got.cif
#   From: 2010.03.12/outbox.cif.g09.slc.cpg/sg57_6_cif.got.tgz:10058.got - 2010.04.16 15:48:40.
