data_PCOD8233540
_publ_section_title
;
Structure prediction by ZEFSAII (Michael W. Deem and Ramdas Pophale) SiO2 
 PCOD8233540
Probable space group: P B C M
;
_chemical_formula_sum "Si O2"
_cell_formula_units_Z 40
_cell_length_a 9.902467
_cell_length_b 22.588472
_cell_length_c 9.156056
_cell_angle_alpha 90.000000
_cell_angle_beta 90.000000
_cell_angle_gamma 90.000000
_cell_volume 2048.041243
_symmetry_space_group_name_H-M "P B C M"
_symmetry_group_IT_number 57
_symmetry_cell_setting 'orthorhombic'
loop_
_space_group_symop_operation_xyz
x,y,z
-x,-y,1/2+z
x,1/2-y,-z
-x,1/2+y,1/2-z
-x,-y,-z
x,y,1/2-z
-x,1/2+y,z
x,1/2-y,1/2+z
loop_
_atom_site_type_symbol
_atom_site_label
_atom_site_fract_x
_atom_site_fract_y
_atom_site_fract_z
Si Si1 0.517311 0.693603 0.082416
Si Si2 0.980246 0.687759 0.578629
Si Si3 0.726909 0.138763 0.920239
Si Si4 0.234268 0.388757 0.583404
Si Si5 0.359640 0.509218 0.920005
O O1 0.493703 0.710258 0.250000
O O2 0.618085 0.639247 0.062959
O O3 0.581048 0.750000 0.000000
O O4 0.373890 0.678765 0.012281
O O5 0.957235 0.750000 0.500000
O O6 0.961997 0.698043 0.750000
O O7 0.870696 0.640436 0.526090
O O8 0.124490 0.660511 0.538715
O O9 0.695193 0.147539 0.750000
O O10 0.711123 0.070363 0.966839
O O11 0.183596 0.380454 0.750000
O O12 0.252257 0.457638 0.541497
O O13 0.394563 0.507844 0.750000
O O14 0.500000 0.500000 0.000000
#
# Coordination Sequence:
#
# PCOD8233540 Si02
#       5
#     8   8   8   8   8
#     4  11  22  36  57  86 116 152 200 246 296 352
#     4  11  24  41  60  86 119 159 201 245 298 354
#     4  10  22  39  61  88 120 156 196 244 296 352
#     4  10  22  39  60  88 120 156 197 244 295 352
#     4  10  20  38  62  90 123 155 194 244 295 350
#
# _framework density 19.530854999999999
#
# number of rings (size 3 to 8) (size 9 to 14) (size 15 to 20)
#    0.000    1.600    2.000    2.400    0.000    8.000 
#    0.000    0.000    0.000    0.000    0.000    0.000 
#    0.000    0.000    0.000    0.000    0.000    0.000 
#
# Total GULP energy -496195.797024 kJ/mol
# GULP energy per Si atom -12404.894926 kJ/mol
# Density = 1.948640 g / cm^3
# Si number density = 19.530855 Si / 1000 Ang^3
#
#
#
# Elastic Constant Matrix: (Units=GPa)
#
#
# Indices 1 2 3 4 5 6 
#
# 1 68.0061 -3.6668 28.8790 0.0000 0.0000 0.0000
# 2 -3.6668 77.9798 16.5986 0.0000 0.0000 0.0000
# 3 28.8790 16.5986 65.4996 0.0000 0.0000 0.0000
# 4 0.0000 0.0000 0.0000 28.7893 0.0000 0.0000
# 5 0.0000 0.0000 0.0000 0.0000 33.7025 0.0000
# 6 0.0000 0.0000 0.0000 0.0000 0.0000 32.3858
#
#
#
# Elastic Compliance Matrix: (Units=1/GPa)
#
#
# Indices 1 2 3 4 5 6 
#
# 1 0.018644 0.002776 -0.008924 0.000000 0.000000 0.000000
# 2 0.002776 0.013968 -0.004764 0.000000 0.000000 0.000000
# 3 -0.008924 -0.004764 0.020409 0.000000 0.000000 0.000000
# 4 0.000000 0.000000 0.000000 0.034735 0.000000 0.000000
# 5 0.000000 0.000000 0.000000 0.000000 0.029671 0.000000
# 6 0.000000 0.000000 0.000000 0.000000 0.000000 0.030878
#
#
# Mechanical properties :
#
#
# Convention : Reuss Voigt Hill
#
# Bulk Modulus (GPa) = 32.05285 32.78968 32.42127
# Shear Modulus (GPa) = 27.69665 30.28717 28.99191
#
# Velocity S-wave (km/s) = 3.76985 3.94221 3.85699
# Velocity P-wave (km/s) = 5.94946 6.12752 6.03914
#
# Compressibility (1/GPa) = 0.03119847
#
# Stress axis : x y z
#
# Youngs Moduli (GPa) = 53.63755 71.59018 48.99816
#
# Poissons Ratio (x) = -0.19874 0.43724
# Poissons Ratio (y) = -0.14890 0.23342
# Poissons Ratio (z) = 0.47864 0.34104
#
# Static dielectric constant tensor:
#      x y z
#    x 3.417220 0.000000 0.000000 
#    y 0.000000 3.894770 0.000000 
#    z 0.000000 0.000000 3.612330 
# 
# 
# High freq. dielectric constant tensor:
#      x y z
#    x 1.755700 0.000000 0.000000 
#    y 0.000000 1.780120 0.000000 
#    z 0.000000 0.000000 1.762210 
# 
# From -- ./inp_files/1503.got.cif
#   From: 2010.03.12/outbox.cif.g09.slc.cpg/sg57_1_cif.got.tgz:1503.got - 2010.04.16 15:48:40.
