data_PCOD8233922
_publ_section_title
;
Structure prediction by ZEFSAII (Michael W. Deem and Ramdas Pophale) SiO2 
 PCOD8233922
Probable space group: P B C M
;
_chemical_formula_sum "Si O2"
_cell_formula_units_Z 48
_cell_length_a 30.467776
_cell_length_b 9.073741
_cell_length_c 8.932561
_cell_angle_alpha 90.000000
_cell_angle_beta 90.000000
_cell_angle_gamma 90.000000
_cell_volume 2469.466410
_symmetry_space_group_name_H-M "P B C M"
_symmetry_group_IT_number 57
_symmetry_cell_setting 'orthorhombic'
loop_
_space_group_symop_operation_xyz
x,y,z
-x,-y,1/2+z
x,1/2-y,-z
-x,1/2+y,1/2-z
-x,-y,-z
x,y,1/2-z
-x,1/2+y,z
x,1/2-y,1/2+z
loop_
_atom_site_type_symbol
_atom_site_label
_atom_site_fract_x
_atom_site_fract_y
_atom_site_fract_z
Si Si1 0.792145 0.094282 0.573521
Si Si2 0.461259 0.408904 0.926313
Si Si3 0.625010 0.093257 0.924607
Si Si4 0.964151 0.903446 0.079277
Si Si5 0.292804 0.408000 0.574473
Si Si6 0.134813 0.092182 0.577211
O O1 0.780972 0.250000 0.500000
O O2 0.797869 0.115407 0.750000
O O3 0.753162 0.982808 0.533145
O O4 0.836627 0.030410 0.504947
O O5 0.469773 0.392953 0.750000
O O6 0.416249 0.491653 0.962439
O O7 0.458822 0.250000 0.000000
O O8 0.500000 0.500000 0.000000
O O9 0.629881 0.122756 0.750000
O O10 0.668231 0.011524 0.987701
O O11 0.618703 0.250000 0.000000
O O12 0.978209 0.883617 0.250000
O O13 0.915005 0.968028 0.064877
O O14 0.964721 0.750000 0.000000
O O15 0.000000 0.000000 0.000000
O O16 0.295381 0.250000 0.500000
O O17 0.298383 0.384719 0.750000
O O18 0.141226 0.250000 0.500000
O O19 0.149121 0.108672 0.750000
#
# Coordination Sequence:
#
# PCOD8233922 Si02
#       6
#     8   8   8   8   8   8
#     4  11  23  38  58  84 114 148 187 232 281 333
#     4  11  23  39  60  86 117 153 194 239 288 342
#     4  10  22  39  59  85 116 150 189 234 284 337
#     4  10  21  37  58  83 112 147 186 230 279 332
#     4  10  22  39  59  85 114 147 188 231 279 335
#     4  10  21  38  59  83 112 147 187 230 278 333
#
# _framework density 19.437397000000001
#
# number of rings (size 3 to 8) (size 9 to 14) (size 15 to 20)
#    0.000    1.667    0.000    4.000    0.000    8.667 
#    0.000    0.000    0.000    0.000    0.000    0.000 
#    0.000    0.000    0.000    0.000    0.000    0.000 
#
# Total GULP energy -595376.820131 kJ/mol
# GULP energy per Si atom -12403.683753 kJ/mol
# Density = 1.939316 g / cm^3
# Si number density = 19.437397 Si / 1000 Ang^3
#
#
#
# Elastic Constant Matrix: (Units=GPa)
#
#
# Indices 1 2 3 4 5 6 
#
# 1 123.8398 61.7980 71.6480 0.0000 0.0000 0.0000
# 2 61.7980 142.9753 70.7967 0.0000 0.0000 0.0000
# 3 71.6480 70.7967 117.1381 0.0000 0.0000 0.0000
# 4 0.0000 0.0000 0.0000 43.0092 0.0000 0.0000
# 5 0.0000 0.0000 0.0000 0.0000 29.9979 0.0000
# 6 0.0000 0.0000 0.0000 0.0000 0.0000 32.0894
#
#
#
# Elastic Compliance Matrix: (Units=1/GPa)
#
#
# Indices 1 2 3 4 5 6 
#
# 1 0.013055 -0.002410 -0.006528 0.000000 0.000000 0.000000
# 2 -0.002410 0.010426 -0.004827 0.000000 0.000000 0.000000
# 3 -0.006528 -0.004827 0.015448 0.000000 0.000000 0.000000
# 4 0.000000 0.000000 0.000000 0.023251 0.000000 0.000000
# 5 0.000000 0.000000 0.000000 0.000000 0.033336 0.000000
# 6 0.000000 0.000000 0.000000 0.000000 0.000000 0.031163
#
#
# Mechanical properties :
#
#
# Convention : Reuss Voigt Hill
#
# Bulk Modulus (GPa) = 87.74214 88.04874 87.89544
# Shear Modulus (GPa) = 31.64391 33.00001 32.32196
#
# Velocity S-wave (km/s) = 4.03921 4.12486 4.08226
# Velocity P-wave (km/s) = 8.18490 8.25124 8.21813
#
# Compressibility (1/GPa) = 0.01139703
#
# Stress axis : x y z
#
# Youngs Moduli (GPa) = 76.60172 95.91187 64.73472
#
# Poissons Ratio (x) = 0.23114 0.42261
# Poissons Ratio (y) = 0.18460 0.31250
# Poissons Ratio (z) = 0.50008 0.46301
#
# Static dielectric constant tensor:
#      x y z
#    x 3.629930 0.000000 0.000000 
#    y 0.000000 5.270730 0.000000 
#    z 0.000000 0.000000 3.679980 
# 
# 
# High freq. dielectric constant tensor:
#      x y z
#    x 1.774530 0.000000 0.000000 
#    y 0.000000 1.763620 0.000000 
#    z 0.000000 0.000000 1.767030 
# 
# From -- ./inp_files/9883.got.cif
#   From: 2010.03.12/outbox.cif.g09.slc.cpg/sg57_5_cif.got.tgz:9883.got - 2010.04.16 15:48:40.
