data_PCOD8233719
_publ_section_title
;
Structure prediction by ZEFSAII (Michael W. Deem and Ramdas Pophale) SiO2 
 PCOD8233719
Probable space group: P B C M
;
_chemical_formula_sum "Si O2"
_cell_formula_units_Z 48
_cell_length_a 14.917016
_cell_length_b 20.516146
_cell_length_c 8.812664
_cell_angle_alpha 90.000000
_cell_angle_beta 90.000000
_cell_angle_gamma 90.000000
_cell_volume 2697.024854
_symmetry_space_group_name_H-M "P B C M"
_symmetry_group_IT_number 57
_symmetry_cell_setting 'orthorhombic'
loop_
_space_group_symop_operation_xyz
x,y,z
-x,-y,1/2+z
x,1/2-y,-z
-x,1/2+y,1/2-z
-x,-y,-z
x,y,1/2-z
-x,1/2+y,z
x,1/2-y,1/2+z
loop_
_atom_site_type_symbol
_atom_site_label
_atom_site_fract_x
_atom_site_fract_y
_atom_site_fract_z
Si Si1 0.701053 0.342165 0.579022
Si Si2 0.926390 0.047216 0.430678
Si Si3 0.884040 0.182903 0.928986
Si Si4 0.496908 0.813882 0.928156
Si Si5 0.568648 0.550343 0.071593
Si Si6 0.729697 0.490163 0.919742
O O1 0.728521 0.320226 0.750000
O O2 0.777826 0.319558 0.463610
O O3 0.607572 0.312481 0.524215
O O4 0.685505 0.419262 0.577651
O O5 0.935718 0.052531 0.250000
O O6 0.933945 0.120292 0.498157
O O7 0.831747 0.015091 0.477880
O O8 0.000000 0.000000 0.500000
O O9 0.900542 0.182374 0.750000
O O10 0.923769 0.250000 0.000000
O O11 0.507892 0.811023 0.750000
O O12 0.545974 0.877883 0.991901
O O13 0.543003 0.750000 0.000000
O O14 0.556032 0.546462 0.250000
O O15 0.500000 0.500000 0.000000
O O16 0.671800 0.536189 0.028844
O O17 0.726878 0.519248 0.750000
#
# Coordination Sequence:
#
# PCOD8233719 Si02
#       6
#     8   8   8   8   8   8
#     4   9  17  32  49  71 106 139 172 216 264 315
#     4  10  21  38  59  83 112 141 176 224 275 328
#     4  11  21  33  51  78 110 144 180 216 266 326
#     4  10  21  34  47  69 102 139 179 223 266 311
#     4  11  21  34  52  75 104 139 181 222 261 313
#     4   9  18  34  54  78 107 137 171 219 266 310
#
# _framework density 17.79739
#
# number of rings (size 3 to 8) (size 9 to 14) (size 15 to 20)
#    0.000    2.000    1.667    4.000    0.000    6.667 
#    0.000    0.000    0.000    1.000    0.000    2.333 
#    0.000    0.000    0.000    0.000    0.000    0.000 
#
# Total GULP energy -595140.162774 kJ/mol
# GULP energy per Si atom -12398.753391 kJ/mol
# Density = 1.775688 g / cm^3
# Si number density = 17.797390 Si / 1000 Ang^3
#
#
#
# Elastic Constant Matrix: (Units=GPa)
#
#
# Indices 1 2 3 4 5 6 
#
# 1 71.7519 66.0261 39.1249 0.0000 0.0000 0.0000
# 2 66.0261 151.3823 56.2705 0.0000 0.0000 0.0000
# 3 39.1249 56.2705 85.7875 0.0000 0.0000 0.0000
# 4 0.0000 0.0000 0.0000 31.9969 0.0000 0.0000
# 5 0.0000 0.0000 0.0000 0.0000 27.1948 0.0000
# 6 0.0000 0.0000 0.0000 0.0000 0.0000 22.4696
#
#
#
# Elastic Compliance Matrix: (Units=1/GPa)
#
#
# Indices 1 2 3 4 5 6 
#
# 1 0.025204 -0.008887 -0.005666 0.000000 0.000000 0.000000
# 2 -0.008887 0.011869 -0.003732 0.000000 0.000000 0.000000
# 3 -0.005666 -0.003732 0.016689 0.000000 0.000000 0.000000
# 4 0.000000 0.000000 0.000000 0.031253 0.000000 0.000000
# 5 0.000000 0.000000 0.000000 0.000000 0.036772 0.000000
# 6 0.000000 0.000000 0.000000 0.000000 0.000000 0.044505
#
#
# Mechanical properties :
#
#
# Convention : Reuss Voigt Hill
#
# Bulk Modulus (GPa) = 58.16537 70.19606 64.18072
# Shear Modulus (GPa) = 23.97030 26.16561 25.06796
#
# Velocity S-wave (km/s) = 3.67392 3.83847 3.75710
# Velocity P-wave (km/s) = 7.12389 7.69237 7.41358
#
# Compressibility (1/GPa) = 0.01719236
#
# Stress axis : x y z
#
# Youngs Moduli (GPa) = 39.67636 84.25174 59.92070
#
# Poissons Ratio (x) = 0.74873 0.33948
# Poissons Ratio (y) = 0.35260 0.22364
# Poissons Ratio (z) = 0.22479 0.31446
#
# Static dielectric constant tensor:
#      x y z
#    x 3.120890 0.000000 0.000000 
#    y 0.000000 3.544340 0.000000 
#    z 0.000000 0.000000 3.260030 
# 
# 
# High freq. dielectric constant tensor:
#      x y z
#    x 1.656210 0.000000 0.000000 
#    y 0.000000 1.693050 0.000000 
#    z 0.000000 0.000000 1.691420 
# 
# From -- ./inp_files/4915.got.cif
#   From: 2010.03.12/outbox.cif.g09.slc.cpg/sg57_3_cif.got.tgz:4915.got - 2010.04.16 15:48:40.
