data_PCOD8233413
_publ_section_title
;
Structure prediction by ZEFSAII (Michael W. Deem and Ramdas Pophale) SiO2 
 PCOD8233413
Probable space group: P B C M
;
_chemical_formula_sum "Si O2"
_cell_formula_units_Z 48
_cell_length_a 16.817191
_cell_length_b 7.658755
_cell_length_c 16.753577
_cell_angle_alpha 90.000000
_cell_angle_beta 90.000000
_cell_angle_gamma 90.000000
_cell_volume 2157.839703
_symmetry_space_group_name_H-M "P B C M"
_symmetry_group_IT_number 57
_symmetry_cell_setting 'orthorhombic'
loop_
_space_group_symop_operation_xyz
x,y,z
-x,-y,1/2+z
x,1/2-y,-z
-x,1/2+y,1/2-z
-x,-y,-z
x,y,1/2-z
-x,1/2+y,z
x,1/2-y,1/2+z
loop_
_atom_site_type_symbol
_atom_site_label
_atom_site_fract_x
_atom_site_fract_y
_atom_site_fract_z
Si Si1 0.520359 0.129322 0.156302
Si Si2 0.950898 0.383963 0.940033
Si Si3 0.622822 0.609614 0.563523
Si Si4 0.742768 0.679950 0.158311
Si Si5 0.913002 0.804957 0.343046
Si Si6 0.377981 0.945575 0.091663
O O1 0.514725 0.143434 0.250000
O O2 0.582219 0.272275 0.124619
O O3 0.557123 0.939691 0.130661
O O4 0.431448 0.119407 0.119319
O O5 0.894775 0.508468 0.886508
O O6 0.009262 0.282885 0.879601
O O7 0.903845 0.250000 0.000000
O O8 0.000000 0.500000 0.000000
O O9 0.590062 0.750000 0.500000
O O10 0.705557 0.666289 0.603582
O O11 0.633244 0.439386 0.504544
O O12 0.723389 0.720909 0.250000
O O13 0.837284 0.678922 0.143430
O O14 0.707090 0.490091 0.132892
O O15 0.928050 0.840658 0.250000
#
# Coordination Sequence:
#
# PCOD8233413 Si02
#       6
#     8   8   8   8   8   8
#     4  12  23  39  61  84 115 154 201 253 299 356
#     4   9  19  35  58  89 122 156 196 242 293 353
#     4  10  22  38  58  83 115 152 194 243 295 354
#     4  10  21  39  60  85 116 155 198 246 302 354
#     4  10  20  37  63  90 122 159 201 247 295 354
#     4  11  23  38  58  85 115 154 199 249 302 355
#
# _framework density 22.24447
#
# number of rings (size 3 to 8) (size 9 to 14) (size 15 to 20)
#    0.000    1.667    0.000    5.500    0.000    7.333 
#    0.000    5.000    0.000   10.000    0.000    0.000 
#    0.000    0.000    0.000    0.000    0.000    0.000 
#
# Total GULP energy -594674.250288 kJ/mol
# GULP energy per Si atom -12389.046881 kJ/mol
# Density = 2.219384 g / cm^3
# Si number density = 22.244470 Si / 1000 Ang^3
#
#
#
# Elastic Constant Matrix: (Units=GPa)
#
#
# Indices 1 2 3 4 5 6 
#
# 1 64.8873 9.2443 17.5130 0.0000 0.0000 0.0000
# 2 9.2443 46.1130 8.3534 0.0000 0.0000 0.0000
# 3 17.5130 8.3534 125.8598 0.0000 0.0000 0.0000
# 4 0.0000 0.0000 0.0000 42.3159 0.0000 0.0000
# 5 0.0000 0.0000 0.0000 0.0000 26.9428 0.0000
# 6 0.0000 0.0000 0.0000 0.0000 0.0000 25.3163
#
#
#
# Elastic Compliance Matrix: (Units=1/GPa)
#
#
# Indices 1 2 3 4 5 6 
#
# 1 0.016389 -0.002907 -0.002088 0.000000 0.000000 0.000000
# 2 -0.002907 0.022466 -0.001087 0.000000 0.000000 0.000000
# 3 -0.002088 -0.001087 0.008308 0.000000 0.000000 0.000000
# 4 0.000000 0.000000 0.000000 0.023632 0.000000 0.000000
# 5 0.000000 0.000000 0.000000 0.000000 0.037116 0.000000
# 6 0.000000 0.000000 0.000000 0.000000 0.000000 0.039500
#
#
# Mechanical properties :
#
#
# Convention : Reuss Voigt Hill
#
# Bulk Modulus (GPa) = 28.57170 34.12017 31.34593
# Shear Modulus (GPa) = 29.19888 32.36495 30.78191
#
# Velocity S-wave (km/s) = 3.62696 3.81854 3.72398
# Velocity P-wave (km/s) = 5.51472 5.90031 5.71077
#
# Compressibility (1/GPa) = 0.03499967
#
# Stress axis : x y z
#
# Youngs Moduli (GPa) = 61.01665 44.51263 120.36686
#
# Poissons Ratio (x) = 0.12941 0.25127
# Poissons Ratio (y) = 0.17740 0.13078
# Poissons Ratio (z) = 0.12737 0.04836
#
# Static dielectric constant tensor:
#      x y z
#    x 3.402340 0.000000 0.000000 
#    y 0.000000 4.625470 0.000000 
#    z 0.000000 0.000000 4.505890 
# 
# 
# High freq. dielectric constant tensor:
#      x y z
#    x 1.835720 0.000000 0.000000 
#    y 0.000000 1.883980 0.000000 
#    z 0.000000 0.000000 1.907200 
# 
# From -- ./inp_files/22424.got.cif
#   From: 2010.03.12/outbox.cif.g09.slc.cpg/sg57_12_cif.got.tgz:22424.got - 2010.04.16 15:48:40.
