data_PCOD8233282
_publ_section_title
;
Structure prediction by ZEFSAII (Michael W. Deem and Ramdas Pophale) SiO2 
 PCOD8233282
Probable space group: P B C M
;
_chemical_formula_sum "Si O2"
_cell_formula_units_Z 64
_cell_length_a 21.709382
_cell_length_b 17.914731
_cell_length_c 8.729732
_cell_angle_alpha 90.000000
_cell_angle_beta 90.000000
_cell_angle_gamma 90.000000
_cell_volume 3395.147629
_symmetry_space_group_name_H-M "P B C M"
_symmetry_group_IT_number 57
_symmetry_cell_setting 'orthorhombic'
loop_
_space_group_symop_operation_xyz
x,y,z
-x,-y,1/2+z
x,1/2-y,-z
-x,1/2+y,1/2-z
-x,-y,-z
x,y,1/2-z
-x,1/2+y,z
x,1/2-y,1/2+z
loop_
_atom_site_type_symbol
_atom_site_label
_atom_site_fract_x
_atom_site_fract_y
_atom_site_fract_z
Si Si1 0.615179 0.418934 0.070631
Si Si2 0.063293 0.471960 0.068172
Si Si3 0.726472 0.330849 0.568787
Si Si4 0.240474 0.108359 0.928371
Si Si5 0.814678 0.454460 0.569800
Si Si6 0.124662 0.172461 0.069069
Si Si7 0.494621 0.330011 0.071055
Si Si8 0.376928 0.419461 0.070514
O O1 0.628594 0.410827 0.250000
O O2 0.548043 0.387885 0.026196
O O3 0.663289 0.369278 0.978650
O O4 0.619154 0.504671 0.023688
O O5 0.058688 0.464733 0.250000
O O6 0.114725 0.533186 0.017908
O O7 0.082032 0.392055 0.001197
O O8 0.000000 0.500000 0.000000
O O9 0.732865 0.250000 0.500000
O O10 0.727706 0.324685 0.750000
O O11 0.784243 0.379250 0.502707
O O12 0.223610 0.119187 0.750000
O O13 0.312397 0.123255 0.961226
O O14 0.226637 0.024210 0.983740
O O15 0.196798 0.163302 0.024800
O O16 0.811133 0.449076 0.750000
O O17 0.117077 0.172584 0.250000
O O18 0.100218 0.250000 0.000000
O O19 0.491179 0.317390 0.250000
O O20 0.430286 0.364383 0.011398
O O21 0.507997 0.250000 0.000000
O O22 0.383530 0.439116 0.250000
#
# Coordination Sequence:
#
# PCOD8233282 Si02
#       8
#     8   8   8   8   8   8   8   8
#     4  11  22  36  55  82 109 142 189 237 281 341
#     4  10  20  38  62  89 118 156 200 238 280 336
#     4  11  21  36  56  82 111 147 185 231 287 337
#     4   9  17  34  57  81 108 144 184 227 284 344
#     4   8  16  33  56  78 108 146 183 222 272 330
#     4  11  22  37  58  87 120 156 194 239 288 337
#     4  10  23  39  54  75 107 145 187 234 289 343
#     4  10  20  37  59  81 108 145 184 231 288 346
#
# _framework density 18.850432999999999
#
# number of rings (size 3 to 8) (size 9 to 14) (size 15 to 20)
#    0.000    2.000    1.250    3.750    0.000    3.500 
#    0.000    3.750    0.000    1.500    0.000    0.000 
#    0.000    0.000    0.000    0.000    0.000    0.000 
#
# Total GULP energy -793553.199887 kJ/mol
# GULP energy per Si atom -12399.268748 kJ/mol
# Density = 1.880753 g / cm^3
# Si number density = 18.850433 Si / 1000 Ang^3
#
#
#
# Elastic Constant Matrix: (Units=GPa)
#
#
# Indices 1 2 3 4 5 6 
#
# 1 129.4416 45.4200 48.7199 0.0000 0.0000 0.0000
# 2 45.4200 96.7449 38.6341 0.0000 0.0000 0.0000
# 3 48.7199 38.6341 73.7238 0.0000 0.0000 0.0000
# 4 0.0000 0.0000 0.0000 32.8398 0.0000 0.0000
# 5 0.0000 0.0000 0.0000 0.0000 27.5183 0.0000
# 6 0.0000 0.0000 0.0000 0.0000 0.0000 32.2554
#
#
#
# Elastic Compliance Matrix: (Units=1/GPa)
#
#
# Indices 1 2 3 4 5 6 
#
# 1 0.010861 -0.002824 -0.005698 0.000000 0.000000 0.000000
# 2 -0.002824 0.013806 -0.005369 0.000000 0.000000 0.000000
# 3 -0.005698 -0.005369 0.020143 0.000000 0.000000 0.000000
# 4 0.000000 0.000000 0.000000 0.030451 0.000000 0.000000
# 5 0.000000 0.000000 0.000000 0.000000 0.036339 0.000000
# 6 0.000000 0.000000 0.000000 0.000000 0.000000 0.031003
#
#
# Mechanical properties :
#
#
# Convention : Reuss Voigt Hill
#
# Bulk Modulus (GPa) = 58.72184 62.82869 60.77526
# Shear Modulus (GPa) = 28.39950 29.66513 29.03231
#
# Velocity S-wave (km/s) = 3.88567 3.97131 3.92872
# Velocity P-wave (km/s) = 7.16591 7.37772 7.27259
#
# Compressibility (1/GPa) = 0.01702944
#
# Stress axis : x y z
#
# Youngs Moduli (GPa) = 92.07446 72.43144 49.64541
#
# Poissons Ratio (x) = 0.20452 0.28286
# Poissons Ratio (y) = 0.25999 0.26654
# Poissons Ratio (z) = 0.52460 0.38888
#
# Static dielectric constant tensor:
#      x y z
#    x 2.604240 0.000000 0.000000 
#    y 0.000000 3.874370 0.000000 
#    z 0.000000 0.000000 3.370400 
# 
# 
# High freq. dielectric constant tensor:
#      x y z
#    x 1.736080 0.000000 0.000000 
#    y 0.000000 1.731410 0.000000 
#    z 0.000000 0.000000 1.724790 
# 
# From -- ./inp_files/8581.got.cif
#   From: 2010.03.12/outbox.cif.g09.slc.cpg/sg57_5_cif.got.tgz:8581.got - 2010.04.16 15:48:40.
