data_PCOD8233024
_publ_section_title
;
Structure prediction by ZEFSAII (Michael W. Deem and Ramdas Pophale) SiO2 
 PCOD8233024
Probable space group: P B C M
;
_chemical_formula_sum "Si O2"
_cell_formula_units_Z 48
_cell_length_a 30.677027
_cell_length_b 9.090414
_cell_length_c 8.527532
_cell_angle_alpha 90.000000
_cell_angle_beta 90.000000
_cell_angle_gamma 90.000000
_cell_volume 2378.046206
_symmetry_space_group_name_H-M "P B C M"
_symmetry_group_IT_number 57
_symmetry_cell_setting 'orthorhombic'
loop_
_space_group_symop_operation_xyz
x,y,z
-x,-y,1/2+z
x,1/2-y,-z
-x,1/2+y,1/2-z
-x,-y,-z
x,y,1/2-z
-x,1/2+y,z
x,1/2-y,1/2+z
loop_
_atom_site_type_symbol
_atom_site_label
_atom_site_fract_x
_atom_site_fract_y
_atom_site_fract_z
Si Si1 0.635353 0.908630 0.433996
Si Si2 0.460931 0.407906 0.434472
Si Si3 0.122010 0.913021 0.564267
Si Si4 0.281833 0.912755 0.935837
Si Si5 0.797575 0.586544 0.435827
Si Si6 0.959167 0.912667 0.564455
O O1 0.648872 0.750000 0.500000
O O2 0.635182 0.887987 0.250000
O O3 0.587251 0.960169 0.492478
O O4 0.669762 0.033692 0.483916
O O5 0.470245 0.250000 0.500000
O O6 0.500000 0.500000 0.500000
O O7 0.463157 0.409060 0.250000
O O8 0.116214 0.750000 0.500000
O O9 0.117522 0.911305 0.750000
O O10 0.168529 0.975844 0.514872
O O11 0.085332 0.015227 0.491222
O O12 0.274155 0.914996 0.750000
O O13 0.273871 0.750000 0.000000
O O14 0.249836 0.027945 0.018355
O O15 0.804735 0.750000 0.500000
O O16 0.803860 0.586859 0.250000
O O17 0.961616 0.750000 0.500000
O O18 0.960825 0.910471 0.750000
O O19 0.000000 0.000000 0.500000
#
# Coordination Sequence:
#
# PCOD8233024 Si02
#       6
#     8   8   8   8   8   8
#     4   9  20  37  58  82 112 148 192 238 290 349
#     4  10  20  36  56  82 113 150 191 238 290 348
#     4  12  25  44  67  95 128 166 207 254 306 361
#     4  11  23  40  60  87 119 155 195 242 294 351
#     4  12  25  43  65  92 123 160 201 247 298 357
#     4  12  25  44  67  96 130 169 212 259 310 366
#
# _framework density 20.184636999999999
#
# number of rings (size 3 to 8) (size 9 to 14) (size 15 to 20)
#    0.000    1.000    0.000    7.500    0.000    4.000 
#    0.000    1.667    0.000    0.000    0.000    0.000 
#    0.000    0.000    0.000    0.000    0.000    0.000 
#
# Total GULP energy -595319.966259 kJ/mol
# GULP energy per Si atom -12402.499297 kJ/mol
# Density = 2.013870 g / cm^3
# Si number density = 20.184637 Si / 1000 Ang^3
#
#
#
# Elastic Constant Matrix: (Units=GPa)
#
#
# Indices 1 2 3 4 5 6 
#
# 1 120.2402 56.7670 41.9259 0.0000 0.0000 0.0000
# 2 56.7670 122.2094 60.6583 0.0000 0.0000 0.0000
# 3 41.9259 60.6583 129.9457 0.0000 0.0000 0.0000
# 4 0.0000 0.0000 0.0000 39.6565 0.0000 0.0000
# 5 0.0000 0.0000 0.0000 0.0000 35.0057 0.0000
# 6 0.0000 0.0000 0.0000 0.0000 0.0000 44.0942
#
#
#
# Elastic Compliance Matrix: (Units=1/GPa)
#
#
# Indices 1 2 3 4 5 6 
#
# 1 0.010872 -0.004307 -0.001497 0.000000 0.000000 0.000000
# 2 -0.004307 0.012357 -0.004378 0.000000 0.000000 0.000000
# 3 -0.001497 -0.004378 0.010222 0.000000 0.000000 0.000000
# 4 0.000000 0.000000 0.000000 0.025217 0.000000 0.000000
# 5 0.000000 0.000000 0.000000 0.000000 0.028567 0.000000
# 6 0.000000 0.000000 0.000000 0.000000 0.000000 0.022679
#
#
# Mechanical properties :
#
#
# Convention : Reuss Voigt Hill
#
# Bulk Modulus (GPa) = 76.41911 76.78863 76.60387
# Shear Modulus (GPa) = 37.13595 37.95422 37.54509
#
# Velocity S-wave (km/s) = 4.29396 4.34101 4.31755
# Velocity P-wave (km/s) = 7.90736 7.95308 7.93025
#
# Compressibility (1/GPa) = 0.01308573
#
# Stress axis : x y z
#
# Youngs Moduli (GPa) = 91.97790 80.92905 97.82408
#
# Poissons Ratio (x) = 0.34856 0.14647
# Poissons Ratio (y) = 0.39615 0.42831
# Poissons Ratio (z) = 0.13772 0.35434
#
# Static dielectric constant tensor:
#      x y z
#    x 5.450850 0.000000 0.000000 
#    y 0.000000 3.571690 0.000000 
#    z 0.000000 0.000000 3.896370 
# 
# 
# High freq. dielectric constant tensor:
#      x y z
#    x 1.810530 0.000000 0.000000 
#    y 0.000000 1.796440 0.000000 
#    z 0.000000 0.000000 1.805000 
# 
# From -- ./inp_files/10041.got.cif
#   From: 2010.03.12/outbox.cif.g09.slc.cpg/sg57_6_cif.got.tgz:10041.got - 2010.04.16 15:48:40.
