data_PCOD8233738
_publ_section_title
;
Structure prediction by ZEFSAII (Michael W. Deem and Ramdas Pophale) SiO2 
 PCOD8233738
Probable space group: P B C M
;
_chemical_formula_sum "Si O2"
_cell_formula_units_Z 64
_cell_length_a 17.737345
_cell_length_b 22.474245
_cell_length_c 8.877723
_cell_angle_alpha 90.000000
_cell_angle_beta 90.000000
_cell_angle_gamma 90.000000
_cell_volume 3538.957234
_symmetry_space_group_name_H-M "P B C M"
_symmetry_group_IT_number 57
_symmetry_cell_setting 'orthorhombic'
loop_
_space_group_symop_operation_xyz
x,y,z
-x,-y,1/2+z
x,1/2-y,-z
-x,1/2+y,1/2-z
-x,-y,-z
x,y,1/2-z
-x,1/2+y,z
x,1/2-y,1/2+z
loop_
_atom_site_type_symbol
_atom_site_label
_atom_site_fract_x
_atom_site_fract_y
_atom_site_fract_z
Si Si1 0.152391 0.582840 0.572042
Si Si2 0.421003 0.510129 0.922257
Si Si3 0.991452 0.937517 0.425171
Si Si4 0.328919 0.411638 0.073630
Si Si5 0.744612 0.310833 0.071874
Si Si6 0.830426 0.955271 0.425160
Si Si7 0.582118 0.352114 0.079248
Si Si8 0.569310 0.813034 0.927735
O O1 0.163343 0.579493 0.750000
O O2 0.206374 0.634269 0.505834
O O3 0.174906 0.517992 0.510963
O O4 0.065138 0.601118 0.526767
O O5 0.424243 0.487144 0.750000
O O6 0.398487 0.578598 0.929273
O O7 0.500000 0.500000 0.000000
O O8 0.359295 0.474628 0.016181
O O9 0.997148 0.948086 0.250000
O O10 0.906184 0.916314 0.467662
O O11 0.000000 0.000000 0.500000
O O12 0.346920 0.404423 0.250000
O O13 0.239758 0.412224 0.037615
O O14 0.367591 0.358358 0.984619
O O15 0.753874 0.307361 0.250000
O O16 0.657157 0.318412 0.025713
O O17 0.775279 0.250000 0.000000
O O18 0.830157 0.972168 0.250000
O O19 0.559490 0.334388 0.250000
O O20 0.514048 0.334969 0.970506
O O21 0.574336 0.807726 0.750000
O O22 0.587762 0.750000 0.000000
#
# Coordination Sequence:
#
# PCOD8233738 Si02
#       8
#     8   8   8   8   8   8   8   8
#     4   9  17  31  52  76 105 138 171 209 257 312
#     4  11  21  34  54  79 107 137 170 212 262 314
#     4   8  14  27  48  75 104 133 163 198 246 302
#     4  11  22  36  53  77 109 140 174 214 259 310
#     4  10  21  35  50  72 100 137 177 215 255 300
#     4   9  18  31  51  80 109 136 168 210 259 310
#     4  10  21  37  55  75 104 135 171 215 258 308
#     4  12  25  40  58  75  96 130 175 220 265 312
#
# _framework density 18.084423000000001
#
# number of rings (size 3 to 8) (size 9 to 14) (size 15 to 20)
#    0.000    2.000    1.250    3.000    0.000    4.500 
#    0.000    0.000    0.000    0.750    0.000    1.750 
#    0.000    0.000    0.000    0.000    0.000    0.000 
#
# Total GULP energy -793167.698170 kJ/mol
# GULP energy per Si atom -12393.245284 kJ/mol
# Density = 1.804326 g / cm^3
# Si number density = 18.084423 Si / 1000 Ang^3
#
#
#
# Elastic Constant Matrix: (Units=GPa)
#
#
# Indices 1 2 3 4 5 6 
#
# 1 142.6570 51.1427 47.4042 0.0000 0.0000 0.0000
# 2 51.1427 88.6607 34.4366 0.0000 0.0000 0.0000
# 3 47.4042 34.4366 74.2040 0.0000 0.0000 0.0000
# 4 0.0000 0.0000 0.0000 27.6315 0.0000 0.0000
# 5 0.0000 0.0000 0.0000 0.0000 18.0848 0.0000
# 6 0.0000 0.0000 0.0000 0.0000 0.0000 17.5863
#
#
#
# Elastic Compliance Matrix: (Units=1/GPa)
#
#
# Indices 1 2 3 4 5 6 
#
# 1 0.009932 -0.003982 -0.004497 0.000000 0.000000 0.000000
# 2 -0.003982 0.015356 -0.004582 0.000000 0.000000 0.000000
# 3 -0.004497 -0.004582 0.018475 0.000000 0.000000 0.000000
# 4 0.000000 0.000000 0.000000 0.036191 0.000000 0.000000
# 5 0.000000 0.000000 0.000000 0.000000 0.055295 0.000000
# 6 0.000000 0.000000 0.000000 0.000000 0.000000 0.056862
#
#
# Mechanical properties :
#
#
# Convention : Reuss Voigt Hill
#
# Bulk Modulus (GPa) = 56.68746 63.49875 60.09310
# Shear Modulus (GPa) = 22.31008 24.16307 23.23658
#
# Velocity S-wave (km/s) = 3.51616 3.65927 3.58843
# Velocity P-wave (km/s) = 6.92088 7.28302 7.10426
#
# Compressibility (1/GPa) = 0.01764059
#
# Stress axis : x y z
#
# Youngs Moduli (GPa) = 100.68747 65.12125 54.12592
#
# Poissons Ratio (x) = 0.25934 0.24338
# Poissons Ratio (y) = 0.40099 0.24802
# Poissons Ratio (z) = 0.45275 0.29840
#
# Static dielectric constant tensor:
#      x y z
#    x 3.879910 0.000000 0.000000 
#    y 0.000000 2.636810 0.000000 
#    z 0.000000 0.000000 3.301980 
# 
# 
# High freq. dielectric constant tensor:
#      x y z
#    x 1.715120 0.000000 0.000000 
#    y 0.000000 1.674060 0.000000 
#    z 0.000000 0.000000 1.702080 
# 
# From -- ./inp_files/7290.got.cif
#   From: 2010.03.12/outbox.cif.g09.slc.cpg/sg57_4_cif.got.tgz:7290.got - 2010.04.16 15:48:40.
