data_PCOD8233689
_publ_section_title
;
Structure prediction by ZEFSAII (Michael W. Deem and Ramdas Pophale) SiO2 
 PCOD8233689
Probable space group: P B C M
;
_chemical_formula_sum "Si O2"
_cell_formula_units_Z 56
_cell_length_a 12.964699
_cell_length_b 14.651416
_cell_length_c 13.996047
_cell_angle_alpha 90.000000
_cell_angle_beta 90.000000
_cell_angle_gamma 90.000000
_cell_volume 2658.565900
_symmetry_space_group_name_H-M "P B C M"
_symmetry_group_IT_number 57
_symmetry_cell_setting 'orthorhombic'
loop_
_space_group_symop_operation_xyz
x,y,z
-x,-y,1/2+z
x,1/2-y,-z
-x,1/2+y,1/2-z
-x,-y,-z
x,y,1/2-z
-x,1/2+y,z
x,1/2-y,1/2+z
loop_
_atom_site_type_symbol
_atom_site_label
_atom_site_fract_x
_atom_site_fract_y
_atom_site_fract_z
Si Si1 0.251504 0.968158 0.029412
Si Si2 0.562182 0.121182 0.858642
Si Si3 0.388045 0.976414 0.642044
Si Si4 0.956266 0.755883 0.859969
Si Si5 0.477771 0.308017 0.863843
Si Si6 0.036465 0.604492 0.506164
Si Si7 0.749040 0.647725 0.360137
O O1 0.347082 0.926987 0.085618
O O2 0.158569 0.895851 0.027404
O O3 0.213124 0.061007 0.079029
O O4 0.286104 0.989444 0.921063
O O5 0.600555 0.131644 0.750000
O O6 0.456416 0.066066 0.862847
O O7 0.533315 0.218310 0.905858
O O8 0.351742 0.955927 0.750000
O O9 0.457424 0.894290 0.599834
O O10 0.990454 0.752079 0.750000
O O11 0.833659 0.772702 0.871021
O O12 0.979874 0.658413 0.908164
O O13 0.017851 0.839829 0.908345
O O14 0.475891 0.302577 0.750000
O O15 0.360128 0.316265 0.900547
O O16 0.000000 0.500000 0.500000
O O17 0.738422 0.616494 0.250000
#
# Coordination Sequence:
#
# PCOD8233689 Si02
#       7
#     8   8   8   8   8   8   8
#     4  12  23  39  67  94 126 177 218 266 335 396
#     4  10  21  38  61  95 132 166 213 262 320 397
#     4  10  22  40  57  88 134 168 210 265 317 390
#     4  10  24  46  71  97 132 176 225 282 347 401
#     4   9  19  36  59  89 129 165 205 262 311 382
#     4  11  25  45  66 100 137 166 226 291 338 399
#     4  10  20  40  69  95 124 171 226 273 327 395
#
# _framework density 21.063987000000001
#
# number of rings (size 3 to 8) (size 9 to 14) (size 15 to 20)
#    0.000    1.714    2.857    0.857    0.000    6.286 
#    0.000    2.857    0.000    0.000    0.000    0.000 
#    0.000    0.000    0.000    0.000    0.000    0.000 
#
# Total GULP energy -694551.642187 kJ/mol
# GULP energy per Si atom -12402.707896 kJ/mol
# Density = 2.101604 g / cm^3
# Si number density = 21.063987 Si / 1000 Ang^3
#
#
#
# Elastic Constant Matrix: (Units=GPa)
#
#
# Indices 1 2 3 4 5 6 
#
# 1 83.9702 24.0166 47.7348 0.0000 0.0000 0.0000
# 2 24.0166 119.4472 50.7609 0.0000 0.0000 0.0000
# 3 47.7348 50.7609 111.6462 0.0000 0.0000 0.0000
# 4 0.0000 0.0000 0.0000 30.5135 0.0000 0.0000
# 5 0.0000 0.0000 0.0000 0.0000 27.9149 0.0000
# 6 0.0000 0.0000 0.0000 0.0000 0.0000 35.6894
#
#
#
# Elastic Compliance Matrix: (Units=1/GPa)
#
#
# Indices 1 2 3 4 5 6 
#
# 1 0.015747 -0.000378 -0.006561 0.000000 0.000000 0.000000
# 2 -0.000378 0.010386 -0.004560 0.000000 0.000000 0.000000
# 3 -0.006561 -0.004560 0.013835 0.000000 0.000000 0.000000
# 4 0.000000 0.000000 0.000000 0.032772 0.000000 0.000000
# 5 0.000000 0.000000 0.000000 0.000000 0.035823 0.000000
# 6 0.000000 0.000000 0.000000 0.000000 0.000000 0.028019
#
#
# Mechanical properties :
#
#
# Convention : Reuss Voigt Hill
#
# Bulk Modulus (GPa) = 58.92863 62.23201 60.58032
# Shear Modulus (GPa) = 30.25941 31.66031 30.95986
#
# Velocity S-wave (km/s) = 3.79429 3.88113 3.83796
# Velocity P-wave (km/s) = 6.87258 7.04930 6.96150
#
# Compressibility (1/GPa) = 0.01696968
#
# Stress axis : x y z
#
# Youngs Moduli (GPa) = 63.50545 96.28407 72.27865
#
# Poissons Ratio (x) = 0.03640 0.47420
# Poissons Ratio (y) = 0.02401 0.32962
# Poissons Ratio (z) = 0.41664 0.43910
#
# Static dielectric constant tensor:
#      x y z
#    x 3.789320 0.000000 0.000000 
#    y 0.000000 3.872770 0.000000 
#    z 0.000000 0.000000 3.970380 
# 
# 
# High freq. dielectric constant tensor:
#      x y z
#    x 1.818140 0.000000 0.000000 
#    y 0.000000 1.827820 0.000000 
#    z 0.000000 0.000000 1.832030 
# 
# From -- ./inp_files/17765.got.cif
#   From: 2010.03.12/outbox.cif.g09.slc.cpg/sg57_9_cif.got.tgz:17765.got - 2010.04.16 15:48:40.
