data_PCOD8233491
_publ_section_title
;
Structure prediction by ZEFSAII (Michael W. Deem and Ramdas Pophale) SiO2 
 PCOD8233491
Probable space group: P B C M
;
_chemical_formula_sum "Si O2"
_cell_formula_units_Z 40
_cell_length_a 5.162973
_cell_length_b 18.630301
_cell_length_c 16.383260
_cell_angle_alpha 90.000000
_cell_angle_beta 90.000000
_cell_angle_gamma 90.000000
_cell_volume 1575.868770
_symmetry_space_group_name_H-M "P B C M"
_symmetry_group_IT_number 57
_symmetry_cell_setting 'orthorhombic'
loop_
_space_group_symop_operation_xyz
x,y,z
-x,-y,1/2+z
x,1/2-y,-z
-x,1/2+y,1/2-z
-x,-y,-z
x,y,1/2-z
-x,1/2+y,z
x,1/2-y,1/2+z
loop_
_atom_site_type_symbol
_atom_site_label
_atom_site_fract_x
_atom_site_fract_y
_atom_site_fract_z
Si Si1 0.809986 0.501160 0.152437
Si Si2 0.320740 0.172001 0.464363
Si Si3 0.824951 0.360946 0.446521
Si Si4 0.941924 0.223250 0.158431
Si Si5 0.691248 0.422861 0.657905
O O1 0.810341 0.498112 0.250000
O O2 0.760948 0.421813 0.119021
O O3 0.585453 0.555100 0.117893
O O4 0.072964 0.534299 0.115296
O O5 0.345687 0.250000 0.500000
O O6 0.607742 0.136313 0.480120
O O7 0.104969 0.126419 0.513846
O O8 0.210414 0.185881 0.372330
O O9 0.827403 0.284929 0.399568
O O10 0.992415 0.252139 0.250000
O O11 0.718365 0.163017 0.157569
O O12 0.687116 0.452028 0.750000
#
# Coordination Sequence:
#
# PCOD8233491 Si02
#       5
#     8   8   8   8   8
#     4  10  20  38  60  89 127 168 211 262 316 373
#     4  10  22  40  60  90 131 163 197 264 331 367
#     4  11  22  40  64  92 126 166 208 259 320 379
#     4  10  22  43  70  97 123 169 226 265 309 390
#     4   9  20  37  60  90 128 164 206 266 321 363
#
# _framework density 25.382822999999998
#
# number of rings (size 3 to 8) (size 9 to 14) (size 15 to 20)
#    0.000    2.000    0.000    3.600    0.000    4.800 
#    0.000   26.000    0.000    0.000    0.000    0.000 
#    0.000    0.000    0.000    1.800    0.000    0.000 
#
# Total GULP energy -495809.915455 kJ/mol
# GULP energy per Si atom -12395.247886 kJ/mol
# Density = 2.532505 g / cm^3
# Si number density = 25.382823 Si / 1000 Ang^3
#
#
#
# Elastic Constant Matrix: (Units=GPa)
#
#
# Indices 1 2 3 4 5 6 
#
# 1 209.2409 53.5474 40.5661 0.0000 0.0000 0.0000
# 2 53.5474 93.6821 8.7882 0.0000 0.0000 0.0000
# 3 40.5661 8.7882 105.4630 0.0000 0.0000 0.0000
# 4 0.0000 0.0000 0.0000 30.4377 0.0000 0.0000
# 5 0.0000 0.0000 0.0000 0.0000 30.7848 0.0000
# 6 0.0000 0.0000 0.0000 0.0000 0.0000 35.9018
#
#
#
# Elastic Compliance Matrix: (Units=1/GPa)
#
#
# Indices 1 2 3 4 5 6 
#
# 1 0.006004 -0.003240 -0.002039 0.000000 0.000000 0.000000
# 2 -0.003240 0.012507 0.000204 0.000000 0.000000 0.000000
# 3 -0.002039 0.000204 0.010249 0.000000 0.000000 0.000000
# 4 0.000000 0.000000 0.000000 0.032854 0.000000 0.000000
# 5 0.000000 0.000000 0.000000 0.000000 0.032484 0.000000
# 6 0.000000 0.000000 0.000000 0.000000 0.000000 0.027854
#
#
# Mechanical properties :
#
#
# Convention : Reuss Voigt Hill
#
# Bulk Modulus (GPa) = 53.73589 68.24325 60.98957
# Shear Modulus (GPa) = 36.15168 39.79050 37.97109
#
# Velocity S-wave (km/s) = 3.77803 3.96361 3.87193
# Velocity P-wave (km/s) = 6.34409 6.92032 6.63846
#
# Compressibility (1/GPa) = 0.01860954
#
# Stress axis : x y z
#
# Youngs Moduli (GPa) = 166.56096 79.95257 97.56663
#
# Poissons Ratio (x) = 0.25908 0.19897
# Poissons Ratio (y) = 0.53972 -0.01992
# Poissons Ratio (z) = 0.33967 -0.01632
#
# Static dielectric constant tensor:
#      x y z
#    x 5.225250 0.000000 0.000000 
#    y 0.000000 4.492990 0.000000 
#    z 0.000000 0.000000 4.831670 
# 
# 
# High freq. dielectric constant tensor:
#      x y z
#    x 2.028850 0.000000 0.000000 
#    y 0.000000 2.011150 0.000000 
#    z 0.000000 0.000000 2.025630 
# 
# From -- ./inp_files/19989.got.cif
#   From: 2010.03.12/outbox.cif.g09.slc.cpg/sg57_10_cif.got.tgz:19989.got - 2010.04.16 15:48:40.
