data_PCOD8233180
_publ_section_title
;
Structure prediction by ZEFSAII (Michael W. Deem and Ramdas Pophale) SiO2 
 PCOD8233180
Probable space group: P B C M
;
_chemical_formula_sum "Si O2"
_cell_formula_units_Z 56
_cell_length_a 20.979946
_cell_length_b 15.408514
_cell_length_c 8.754674
_cell_angle_alpha 90.000000
_cell_angle_beta 90.000000
_cell_angle_gamma 90.000000
_cell_volume 2830.121640
_symmetry_space_group_name_H-M "P B C M"
_symmetry_group_IT_number 57
_symmetry_cell_setting 'orthorhombic'
loop_
_space_group_symop_operation_xyz
x,y,z
-x,-y,1/2+z
x,1/2-y,-z
-x,1/2+y,1/2-z
-x,-y,-z
x,y,1/2-z
-x,1/2+y,z
x,1/2-y,1/2+z
loop_
_atom_site_type_symbol
_atom_site_label
_atom_site_fract_x
_atom_site_fract_y
_atom_site_fract_z
Si Si1 0.873584 0.838447 0.070700
Si Si2 0.651497 0.511334 0.431474
Si Si3 0.565029 0.659134 0.568649
Si Si4 0.418533 0.838621 0.428498
Si Si5 0.856440 0.158854 0.568947
Si Si6 0.787575 0.502392 0.930961
Si Si7 0.992465 0.406467 0.070159
O O1 0.866127 0.831229 0.250000
O O2 0.947184 0.848829 0.019619
O O3 0.833745 0.920739 0.010747
O O4 0.846016 0.750000 0.000000
O O5 0.660905 0.515478 0.250000
O O6 0.602819 0.584123 0.484390
O O7 0.624056 0.418601 0.485527
O O8 0.717250 0.527881 0.517555
O O9 0.589531 0.750000 0.500000
O O10 0.576396 0.656519 0.750000
O O11 0.491457 0.644981 0.523009
O O12 0.391528 0.750000 0.500000
O O13 0.413262 0.827514 0.250000
O O14 0.834166 0.250000 0.500000
O O15 0.853254 0.163570 0.750000
O O16 0.807828 0.086421 0.511230
O O17 0.927951 0.138190 0.509559
O O18 0.791433 0.490568 0.750000
O O19 0.990314 0.418381 0.250000
O O20 0.000000 0.500000 0.000000
#
# Coordination Sequence:
#
# PCOD8233180 Si02
#       7
#     8   8   8   8   8   8   8
#     4  10  22  39  60  86 115 149 191 238 292 348
#     4  11  23  39  59  86 120 157 199 243 292 348
#     4  10  20  37  61  90 120 153 193 238 293 348
#     4   9  20  37  60  89 120 152 190 240 292 348
#     4  11  23  39  62  89 117 153 195 242 298 355
#     4  11  24  42  60  82 117 158 201 247 292 346
#     4  10  20  36  60  89 118 149 187 238 295 351
#
# _framework density 19.787136
#
# number of rings (size 3 to 8) (size 9 to 14) (size 15 to 20)
#    0.000    1.714    1.429    2.571    0.000    5.143 
#    0.000    2.857    0.000    0.000    0.000    0.000 
#    0.000    0.000    0.000    0.000    0.000    0.000 
#
# Total GULP energy -694631.956104 kJ/mol
# GULP energy per Si atom -12404.142073 kJ/mol
# Density = 1.974210 g / cm^3
# Si number density = 19.787136 Si / 1000 Ang^3
#
#
#
# Elastic Constant Matrix: (Units=GPa)
#
#
# Indices 1 2 3 4 5 6 
#
# 1 56.7690 15.2135 18.3889 0.0000 0.0000 0.0000
# 2 15.2135 121.7186 32.2734 0.0000 0.0000 0.0000
# 3 18.3889 32.2734 43.4075 0.0000 0.0000 0.0000
# 4 0.0000 0.0000 0.0000 39.8136 0.0000 0.0000
# 5 0.0000 0.0000 0.0000 0.0000 30.6163 0.0000
# 6 0.0000 0.0000 0.0000 0.0000 0.0000 19.6581
#
#
#
# Elastic Compliance Matrix: (Units=1/GPa)
#
#
# Indices 1 2 3 4 5 6 
#
# 1 0.020427 -0.000322 -0.008414 0.000000 0.000000 0.000000
# 2 -0.000322 0.010238 -0.007475 0.000000 0.000000 0.000000
# 3 -0.008414 -0.007475 0.032160 0.000000 0.000000 0.000000
# 4 0.000000 0.000000 0.000000 0.025117 0.000000 0.000000
# 5 0.000000 0.000000 0.000000 0.000000 0.032662 0.000000
# 6 0.000000 0.000000 0.000000 0.000000 0.000000 0.050870
#
#
# Mechanical properties :
#
#
# Convention : Reuss Voigt Hill
#
# Bulk Modulus (GPa) = 32.89295 39.29409 36.09352
# Shear Modulus (GPa) = 23.36104 28.41887 25.88995
#
# Velocity S-wave (km/s) = 3.43974 3.79387 3.62114
# Velocity P-wave (km/s) = 5.69519 6.25242 5.98030
#
# Compressibility (1/GPa) = 0.03040166
#
# Stress axis : x y z
#
# Youngs Moduli (GPa) = 48.95447 97.67492 31.09456
#
# Poissons Ratio (x) = 0.03147 0.26163
# Poissons Ratio (y) = 0.01577 0.23245
# Poissons Ratio (z) = 0.41191 0.73017
#
# Static dielectric constant tensor:
#      x y z
#    x 3.698220 0.000000 0.000000 
#    y 0.000000 3.770270 0.000000 
#    z 0.000000 0.000000 3.423210 
# 
# 
# High freq. dielectric constant tensor:
#      x y z
#    x 1.770200 0.000000 0.000000 
#    y 0.000000 1.785510 0.000000 
#    z 0.000000 0.000000 1.771940 
# 
# From -- ./inp_files/8031.got.cif
#   From: 2010.03.12/outbox.cif.g09.slc.cpg/sg57_5_cif.got.tgz:8031.got - 2010.04.16 15:48:40.
