data_PCOD8233717
_publ_section_title
;
Structure prediction by ZEFSAII (Michael W. Deem and Ramdas Pophale) SiO2 
 PCOD8233717
Probable space group: P B C M
;
_chemical_formula_sum "Si O2"
_cell_formula_units_Z 64
_cell_length_a 30.579354
_cell_length_b 5.453528
_cell_length_c 19.029252
_cell_angle_alpha 90.000000
_cell_angle_beta 90.000000
_cell_angle_gamma 90.000000
_cell_volume 3173.420122
_symmetry_space_group_name_H-M "P B C M"
_symmetry_group_IT_number 57
_symmetry_cell_setting 'orthorhombic'
loop_
_space_group_symop_operation_xyz
x,y,z
-x,-y,1/2+z
x,1/2-y,-z
-x,1/2+y,1/2-z
-x,-y,-z
x,y,1/2-z
-x,1/2+y,z
x,1/2-y,1/2+z
loop_
_atom_site_type_symbol
_atom_site_label
_atom_site_fract_x
_atom_site_fract_y
_atom_site_fract_z
Si Si1 0.241418 0.663628 0.827508
Si Si2 0.477584 0.171056 0.333519
Si Si3 0.334603 0.662852 0.332255
Si Si4 0.846962 0.467444 0.671310
Si Si5 0.377729 0.164239 0.166343
Si Si6 0.807949 0.857412 0.571820
Si Si7 0.017275 0.032200 0.420864
Si Si8 0.107599 0.866468 0.429619
O O1 0.250026 0.544973 0.750000
O O2 0.282779 0.829979 0.848966
O O3 0.198114 0.821227 0.825262
O O4 0.234217 0.453683 0.885632
O O5 0.481023 0.170669 0.250000
O O6 0.500003 0.921034 0.362900
O O7 0.427655 0.171832 0.359001
O O8 0.344530 0.658112 0.250000
O O9 0.356290 0.912387 0.363661
O O10 0.353939 0.409556 0.364533
O O11 0.860667 0.548775 0.750000
O O12 0.838124 0.697869 0.622718
O O13 0.886419 0.312640 0.637352
O O14 0.373942 0.164616 0.250000
O O15 0.788156 0.750000 0.500000
O O16 0.843912 0.051706 0.547016
O O17 0.070112 0.066126 0.411944
O O18 0.003601 0.772963 0.383761
O O19 0.000000 0.000000 0.500000
O O20 0.087374 0.750000 0.500000
#
# Coordination Sequence:
#
# PCOD8233717 Si02
#       8
#     8   8   8   8   8   8   8   8
#     4   9  20  35  50  74 105 140 182 230 285 333
#     4   9  15  22  33  50  79 117 159 213 267 316
#     4   9  17  28  44  62  88 124 168 223 267 319
#     4  10  22  38  57  81 112 148 188 234 288 343
#     4   9  16  25  38  60  84 119 172 219 266 320
#     4  11  22  33  58  81 109 143 186 235 278 334
#     4  10  21  33  57  89 119 145 185 232 275 329
#     4  11  21  36  58  86 117 144 186 235 281 328
#
# _framework density 20.167515000000002
#
# number of rings (size 3 to 8) (size 9 to 14) (size 15 to 20)
#    0.000    2.250    2.500    1.125    5.250    3.500 
#    0.000    0.000    0.000    0.750    0.000    0.000 
#    0.000    0.000    0.000    0.000    0.000   12.500 
#
# Total GULP energy -792871.366169 kJ/mol
# GULP energy per Si atom -12388.615096 kJ/mol
# Density = 2.012161 g / cm^3
# Si number density = 20.167515 Si / 1000 Ang^3
#
#
#
# Elastic Constant Matrix: (Units=GPa)
#
#
# Indices 1 2 3 4 5 6 
#
# 1 76.9067 18.7229 9.7338 0.0000 0.0000 0.0000
# 2 18.7229 116.3827 10.7300 0.0000 0.0000 0.0000
# 3 9.7338 10.7300 57.6193 0.0000 0.0000 0.0000
# 4 0.0000 0.0000 0.0000 15.6107 0.0000 0.0000
# 5 0.0000 0.0000 0.0000 0.0000 4.0552 0.0000
# 6 0.0000 0.0000 0.0000 0.0000 0.0000 1.1775
#
#
#
# Elastic Compliance Matrix: (Units=1/GPa)
#
#
# Indices 1 2 3 4 5 6 
#
# 1 0.013743 -0.002032 -0.001943 0.000000 0.000000 0.000000
# 2 -0.002032 0.009043 -0.001341 0.000000 0.000000 0.000000
# 3 -0.001943 -0.001341 0.017933 0.000000 0.000000 0.000000
# 4 0.000000 0.000000 0.000000 0.064059 0.000000 0.000000
# 5 0.000000 0.000000 0.000000 0.000000 0.246596 0.000000
# 6 0.000000 0.000000 0.000000 0.000000 0.000000 0.849226
#
#
# Mechanical properties :
#
#
# Convention : Reuss Voigt Hill
#
# Bulk Modulus (GPa) = 33.23614 36.58690 34.91152
# Shear Modulus (GPa) = 4.09413 18.28349 11.18881
#
# Velocity S-wave (km/s) = 1.42635 3.01422 2.35796
# Velocity P-wave (km/s) = 4.38502 5.50408 4.97611
#
# Compressibility (1/GPa) = 0.03008773
#
# Stress axis : x y z
#
# Youngs Moduli (GPa) = 72.76242 110.58510 55.76225
#
# Poissons Ratio (x) = 0.22468 0.10837
# Poissons Ratio (y) = 0.14784 0.07476
# Poissons Ratio (z) = 0.14140 0.14827
#
# Static dielectric constant tensor:
#      x y z
#    x 3.625850 0.000000 0.000000 
#    y 0.000000 4.040050 0.000000 
#    z 0.000000 0.000000 3.264980 
# 
# 
# High freq. dielectric constant tensor:
#      x y z
#    x 1.791230 0.000000 0.000000 
#    y 0.000000 1.796890 0.000000 
#    z 0.000000 0.000000 1.715160 
# 
# From -- ./inp_files/23216.got.cif
#   From: 2010.03.12/outbox.cif.g09.slc.cpg/sg57_12_cif.got.tgz:23216.got - 2010.04.16 15:48:40.
