data_PCOD8233586
_publ_section_title
;
Structure prediction by ZEFSAII (Michael W. Deem and Ramdas Pophale) SiO2 
 PCOD8233586
Probable space group: P B C M
;
_chemical_formula_sum "Si O2"
_cell_formula_units_Z 28
_cell_length_a 16.299350
_cell_length_b 5.045774
_cell_length_c 17.660512
_cell_angle_alpha 90.000000
_cell_angle_beta 90.000000
_cell_angle_gamma 90.000000
_cell_volume 1452.450600
_symmetry_space_group_name_H-M "P B C M"
_symmetry_group_IT_number 57
_symmetry_cell_setting 'orthorhombic'
loop_
_space_group_symop_operation_xyz
x,y,z
-x,-y,1/2+z
x,1/2-y,-z
-x,1/2+y,1/2-z
-x,-y,-z
x,y,1/2-z
-x,1/2+y,z
x,1/2-y,1/2+z
loop_
_atom_site_type_symbol
_atom_site_label
_atom_site_fract_x
_atom_site_fract_y
_atom_site_fract_z
Si Si1 0.554126 0.165611 0.250000
Si Si2 0.223752 0.228621 0.911321
Si Si3 0.946925 0.761957 0.162840
Si Si4 0.707906 0.223001 0.833825
O O1 0.477964 0.365903 0.250000
O O2 0.610787 0.210930 0.175247
O O3 0.130351 0.294576 0.890287
O O4 0.284329 0.433864 0.870297
O O5 0.246195 0.933237 0.886081
O O6 0.236382 0.250000 0.000000
O O7 0.918681 0.739165 0.250000
O O8 0.017186 0.549687 0.144137
O O9 0.749658 0.224251 0.750000
#
# Coordination Sequence:
#
# PCOD8233586 Si02
#       4
#     4   8   8   8
#     4  10  20  38  68  96 112 144 202 252 282 344
#     4  12  23  38  59  89 127 158 199 247 300 356
#     4  10  21  36  56  81 114 158 205 253 293 337
#     4  10  22  38  64  89 115 158 196 249 284 362
#
# _framework density 19.277766
#
# number of rings (size 3 to 8) (size 9 to 14) (size 15 to 20)
#    0.857    0.571    0.000    6.857    0.000    3.429 
#    0.000    0.000    0.000   17.143    0.000    0.000 
#    0.000    0.000    0.000    0.000    0.000    0.000 
#
# Total GULP energy -347279.533394 kJ/mol
# GULP energy per Si atom -12402.840478 kJ/mol
# Density = 1.923389 g / cm^3
# Si number density = 19.277766 Si / 1000 Ang^3
#
#
#
# Elastic Constant Matrix: (Units=GPa)
#
#
# Indices 1 2 3 4 5 6 
#
# 1 69.7281 3.4157 29.8142 0.0000 0.0000 0.0000
# 2 3.4157 79.1769 18.2466 0.0000 0.0000 0.0000
# 3 29.8142 18.2466 102.5657 0.0000 0.0000 0.0000
# 4 0.0000 0.0000 0.0000 12.4544 0.0000 0.0000
# 5 0.0000 0.0000 0.0000 0.0000 5.5680 0.0000
# 6 0.0000 0.0000 0.0000 0.0000 0.0000 30.9965
#
#
#
# Elastic Compliance Matrix: (Units=1/GPa)
#
#
# Indices 1 2 3 4 5 6 
#
# 1 0.016390 0.000408 -0.004837 0.000000 0.000000 0.000000
# 2 0.000408 0.013180 -0.002463 0.000000 0.000000 0.000000
# 3 -0.004837 -0.002463 0.011594 0.000000 0.000000 0.000000
# 4 0.000000 0.000000 0.000000 0.080293 0.000000 0.000000
# 5 0.000000 0.000000 0.000000 0.000000 0.179599 0.000000
# 6 0.000000 0.000000 0.000000 0.000000 0.000000 0.032262
#
#
# Mechanical properties :
#
#
# Convention : Reuss Voigt Hill
#
# Bulk Modulus (GPa) = 36.52448 39.38042 37.95245
# Shear Modulus (GPa) = 14.03594 23.13672 18.58633
#
# Velocity S-wave (km/s) = 2.70124 3.46811 3.10842
# Velocity P-wave (km/s) = 5.35878 6.04230 5.71077
#
# Compressibility (1/GPa) = 0.02737890
#
# Stress axis : x y z
#
# Youngs Moduli (GPa) = 61.01463 75.87241 86.25144
#
# Poissons Ratio (x) = -0.03092 0.41717
# Poissons Ratio (y) = -0.02487 0.21246
# Poissons Ratio (z) = 0.29511 0.18689
#
# Static dielectric constant tensor:
#      x y z
#    x 3.321320 0.000000 0.000000 
#    y 0.000000 3.553570 0.000000 
#    z 0.000000 0.000000 3.359940 
# 
# 
# High freq. dielectric constant tensor:
#      x y z
#    x 1.742770 0.000000 0.000000 
#    y 0.000000 1.769310 0.000000 
#    z 0.000000 0.000000 1.729590 
# 
# From -- ./inp_files/18721.got.cif
#   From: 2010.03.12/outbox.cif.g09.slc.cpg/sg57_10_cif.got.tgz:18721.got - 2010.04.16 15:48:40.
