data_PCOD8233297
_publ_section_title
;
Structure prediction by ZEFSAII (Michael W. Deem and Ramdas Pophale) SiO2 
 PCOD8233297
Probable space group: P B C M
;
_chemical_formula_sum "Si O2"
_cell_formula_units_Z 32
_cell_length_a 9.662215
_cell_length_b 16.981840
_cell_length_c 9.730062
_cell_angle_alpha 90.000000
_cell_angle_beta 90.000000
_cell_angle_gamma 90.000000
_cell_volume 1596.529874
_symmetry_space_group_name_H-M "P B C M"
_symmetry_group_IT_number 57
_symmetry_cell_setting 'orthorhombic'
loop_
_space_group_symop_operation_xyz
x,y,z
-x,-y,1/2+z
x,1/2-y,-z
-x,1/2+y,1/2-z
-x,-y,-z
x,y,1/2-z
-x,1/2+y,z
x,1/2-y,1/2+z
loop_
_atom_site_type_symbol
_atom_site_label
_atom_site_fract_x
_atom_site_fract_y
_atom_site_fract_z
Si Si1 0.729832 0.653252 0.750000
Si Si2 0.039738 0.655327 0.750000
Si Si3 0.431443 0.509695 0.250000
Si Si4 0.381710 0.250000 0.500000
Si Si5 0.618343 0.359295 0.542690
Si Si6 0.852589 0.250000 0.000000
Si Si7 0.323021 0.584718 0.750000
O O1 0.630822 0.577649 0.750000
O O2 0.711016 0.705856 0.886710
O O3 0.886426 0.619314 0.750000
O O4 0.053143 0.707445 0.612668
O O5 0.154574 0.584141 0.750000
O O6 0.382000 0.556011 0.115248
O O7 0.600581 0.500664 0.250000
O O8 0.479627 0.311953 0.581679
O O9 0.755304 0.311049 0.585123
O O10 0.621032 0.367198 0.379212
#
# Coordination Sequence:
#
# PCOD8233297 Si02
#       7
#     4   4   4   4   8   4   4
#     4  12  25  37  60  87 126 154 197 244 300 347
#     4  10  21  39  56  84 119 159 196 234 290 363
#     4  12  22  37  61  93 119 152 191 255 296 345
#     4  11  21  40  60  92 114 154 198 256 292 342
#     4  10  20  37  65  90 114 146 207 247 294 340
#     4   9  19  38  66  84 112 160 200 242 286 354
#     4  10  20  37  59  84 114 155 188 239 292 351
#
# _framework density 20.043471
#
# number of rings (size 3 to 8) (size 9 to 14) (size 15 to 20)
#    0.000    1.500    2.500    3.000    0.000    2.000 
#    0.000    5.000   11.000    0.000    0.000    0.000 
#    0.000    0.000    0.000    0.000    0.000    0.000 
#
# Total GULP energy -396623.589742 kJ/mol
# GULP energy per Si atom -12394.487179 kJ/mol
# Density = 1.999785 g / cm^3
# Si number density = 20.043471 Si / 1000 Ang^3
#
#
#
# Elastic Constant Matrix: (Units=GPa)
#
#
# Indices 1 2 3 4 5 6 
#
# 1 114.6456 33.0717 30.1553 0.0000 0.0000 0.0000
# 2 33.0717 92.4941 39.7774 0.0000 0.0000 0.0000
# 3 30.1553 39.7774 103.6461 0.0000 0.0000 0.0000
# 4 0.0000 0.0000 0.0000 34.7799 0.0000 0.0000
# 5 0.0000 0.0000 0.0000 0.0000 23.3272 0.0000
# 6 0.0000 0.0000 0.0000 0.0000 0.0000 17.1717
#
#
#
# Elastic Compliance Matrix: (Units=1/GPa)
#
#
# Indices 1 2 3 4 5 6 
#
# 1 0.010011 -0.002787 -0.001843 0.000000 0.000000 0.000000
# 2 -0.002787 0.013724 -0.004456 0.000000 0.000000 0.000000
# 3 -0.001843 -0.004456 0.011895 0.000000 0.000000 0.000000
# 4 0.000000 0.000000 0.000000 0.028752 0.000000 0.000000
# 5 0.000000 0.000000 0.000000 0.000000 0.042868 0.000000
# 6 0.000000 0.000000 0.000000 0.000000 0.000000 0.058235
#
#
# Mechanical properties :
#
#
# Convention : Reuss Voigt Hill
#
# Bulk Modulus (GPa) = 57.28161 57.42162 57.35161
# Shear Modulus (GPa) = 26.38822 28.90785 27.64804
#
# Velocity S-wave (km/s) = 3.63236 3.80183 3.71806
# Velocity P-wave (km/s) = 6.79947 6.92695 6.86351
#
# Compressibility (1/GPa) = 0.01745761
#
# Stress axis : x y z
#
# Youngs Moduli (GPa) = 99.88731 72.86274 84.07085
#
# Poissons Ratio (x) = 0.20306 0.15496
# Poissons Ratio (y) = 0.27838 0.37465
# Poissons Ratio (z) = 0.18411 0.32470
#
# Static dielectric constant tensor:
#      x y z
#    x 3.610210 0.000000 0.000000 
#    y 0.000000 3.540740 0.000000 
#    z 0.000000 0.000000 3.576920 
# 
# 
# High freq. dielectric constant tensor:
#      x y z
#    x 1.772720 0.000000 0.000000 
#    y 0.000000 1.764670 0.000000 
#    z 0.000000 0.000000 1.792310 
# 
# From -- ./inp_files/11387.got.cif
#   From: 2010.03.12/outbox.cif.g09.slc.cpg/sg57_6_cif.got.tgz:11387.got - 2010.04.16 15:48:40.
