data_PCOD8233177
_publ_section_title
;
Structure prediction by ZEFSAII (Michael W. Deem and Ramdas Pophale) SiO2 
 PCOD8233177
Probable space group: P B C M
;
_chemical_formula_sum "Si O2"
_cell_formula_units_Z 48
_cell_length_a 15.209247
_cell_length_b 17.394270
_cell_length_c 8.629717
_cell_angle_alpha 90.000000
_cell_angle_beta 90.000000
_cell_angle_gamma 90.000000
_cell_volume 2283.023984
_symmetry_space_group_name_H-M "P B C M"
_symmetry_group_IT_number 57
_symmetry_cell_setting 'orthorhombic'
loop_
_space_group_symop_operation_xyz
x,y,z
-x,-y,1/2+z
x,1/2-y,-z
-x,1/2+y,1/2-z
-x,-y,-z
x,y,1/2-z
-x,1/2+y,z
x,1/2-y,1/2+z
loop_
_atom_site_type_symbol
_atom_site_label
_atom_site_fract_x
_atom_site_fract_y
_atom_site_fract_z
Si Si1 0.419087 0.911926 0.421774
Si Si2 0.900930 0.331954 0.068346
Si Si3 0.403802 0.406354 0.575890
Si Si4 0.218828 0.335990 0.565838
Si Si5 0.047776 0.425342 0.929896
Si Si6 0.267911 0.831625 0.571314
O O1 0.397701 0.879546 0.250000
O O2 0.516698 0.881755 0.464175
O O3 0.354344 0.882187 0.553612
O O4 0.404900 0.002367 0.422426
O O5 0.921924 0.335462 0.250000
O O6 0.874265 0.250000 0.000000
O O7 0.810942 0.376687 0.023475
O O8 0.984370 0.355288 0.968807
O O9 0.419014 0.375028 0.750000
O O10 0.312298 0.370931 0.511011
O O11 0.204345 0.250000 0.500000
O O12 0.212140 0.329940 0.750000
O O13 0.143274 0.396856 0.507064
O O14 0.055228 0.442632 0.750000
O O15 0.000000 0.500000 0.000000
O O16 0.292772 0.750000 0.500000
O O17 0.240649 0.823983 0.750000
#
# Coordination Sequence:
#
# PCOD8233177 Si02
#       6
#     8   8   8   8   8   8
#     4  10  20  36  60  88 121 160 203 253 306 361
#     4  11  22  39  61  86 120 159 199 248 303 363
#     4   9  20  39  60  85 119 161 204 250 304 362
#     4  10  23  42  64  90 123 163 206 256 310 367
#     4  11  24  41  62  92 123 160 206 253 310 368
#     4  11  22  37  58  87 119 155 199 246 299 363
#
# _framework density 21.024747000000001
#
# number of rings (size 3 to 8) (size 9 to 14) (size 15 to 20)
#    0.000    1.667    0.000    5.500    2.333    4.667 
#    0.000    1.667    0.000    0.000    0.000    0.000 
#    0.000    0.000    0.000    0.000    0.000    0.000 
#
# Total GULP energy -594782.055857 kJ/mol
# GULP energy per Si atom -12391.292830 kJ/mol
# Density = 2.097689 g / cm^3
# Si number density = 21.024747 Si / 1000 Ang^3
#
#
#
# Elastic Constant Matrix: (Units=GPa)
#
#
# Indices 1 2 3 4 5 6 
#
# 1 156.6333 47.1187 26.9733 0.0000 0.0000 0.0000
# 2 47.1187 50.6720 21.3116 0.0000 0.0000 0.0000
# 3 26.9733 21.3116 70.7248 0.0000 0.0000 0.0000
# 4 0.0000 0.0000 0.0000 31.7227 0.0000 0.0000
# 5 0.0000 0.0000 0.0000 0.0000 33.9324 0.0000
# 6 0.0000 0.0000 0.0000 0.0000 0.0000 35.2715
#
#
#
# Elastic Compliance Matrix: (Units=1/GPa)
#
#
# Indices 1 2 3 4 5 6 
#
# 1 0.008929 -0.007868 -0.001035 0.000000 0.000000 0.000000
# 2 -0.007868 0.029532 -0.005898 0.000000 0.000000 0.000000
# 3 -0.001035 -0.005898 0.016311 0.000000 0.000000 0.000000
# 4 0.000000 0.000000 0.000000 0.031523 0.000000 0.000000
# 5 0.000000 0.000000 0.000000 0.000000 0.029470 0.000000
# 6 0.000000 0.000000 0.000000 0.000000 0.000000 0.028352
#
#
# Mechanical properties :
#
#
# Convention : Reuss Voigt Hill
#
# Bulk Modulus (GPa) = 39.72872 52.09303 45.91087
# Shear Modulus (GPa) = 27.45606 32.36042 29.90824
#
# Velocity S-wave (km/s) = 3.61763 3.92747 3.77573
# Velocity P-wave (km/s) = 6.03215 6.73776 6.39470
#
# Compressibility (1/GPa) = 0.02517071
#
# Stress axis : x y z
#
# Youngs Moduli (GPa) = 111.98966 33.86192 61.30764
#
# Poissons Ratio (x) = 0.26643 0.06343
# Poissons Ratio (y) = 0.88114 0.36160
# Poissons Ratio (z) = 0.11587 0.19972
#
# Static dielectric constant tensor:
#      x y z
#    x 4.301240 0.000000 0.000000 
#    y 0.000000 3.723830 0.000000 
#    z 0.000000 0.000000 4.158950 
# 
# 
# High freq. dielectric constant tensor:
#      x y z
#    x 1.846030 0.000000 0.000000 
#    y 0.000000 1.807710 0.000000 
#    z 0.000000 0.000000 1.821820 
# 
# From -- ./inp_files/4569.got.cif
#   From: 2010.03.12/outbox.cif.g09.slc.cpg/sg57_3_cif.got.tgz:4569.got - 2010.04.16 15:48:40.
