data_PCOD8233023
_publ_section_title
;
Structure prediction by ZEFSAII (Michael W. Deem and Ramdas Pophale) SiO2 
 PCOD8233023
Probable space group: P B C M
;
_chemical_formula_sum "Si O2"
_cell_formula_units_Z 40
_cell_length_a 25.591081
_cell_length_b 9.169352
_cell_length_c 8.563365
_cell_angle_alpha 90.000000
_cell_angle_beta 90.000000
_cell_angle_gamma 90.000000
_cell_volume 2009.424680
_symmetry_space_group_name_H-M "P B C M"
_symmetry_group_IT_number 57
_symmetry_cell_setting 'orthorhombic'
loop_
_space_group_symop_operation_xyz
x,y,z
-x,-y,1/2+z
x,1/2-y,-z
-x,1/2+y,1/2-z
-x,-y,-z
x,y,1/2-z
-x,1/2+y,z
x,1/2-y,1/2+z
loop_
_atom_site_type_symbol
_atom_site_label
_atom_site_fract_x
_atom_site_fract_y
_atom_site_fract_z
Si Si1 0.645212 0.087926 0.064784
Si Si2 0.838260 0.406398 0.433065
Si Si3 0.451382 0.411886 0.935213
Si Si4 0.045974 0.594111 0.566160
Si Si5 0.260020 0.411332 0.935040
O O1 0.639008 0.090267 0.250000
O O2 0.639272 0.250000 0.000000
O O3 0.601550 0.986413 0.990002
O O4 0.700695 0.022519 0.016908
O O5 0.821404 0.250000 0.500000
O O6 0.838343 0.384465 0.250000
O O7 0.896054 0.455903 0.491055
O O8 0.797639 0.532110 0.482091
O O9 0.453698 0.408073 0.750000
O O10 0.453674 0.250000 0.000000
O O11 0.500000 0.500000 0.000000
O O12 0.033814 0.750000 0.500000
O O13 0.042978 0.593803 0.750000
O O14 0.000000 0.500000 0.500000
O O15 0.269372 0.411953 0.750000
O O16 0.268259 0.250000 0.000000
#
# Coordination Sequence:
#
# PCOD8233023 Si02
#       5
#     8   8   8   8   8
#     4  12  25  43  65  92 123 160 201 246 296 353
#     4   9  20  37  58  82 112 148 192 238 290 349
#     4  12  25  44  67  95 128 165 205 250 299 352
#     4  10  20  36  56  82 113 150 191 238 290 348
#     4  11  23  40  60  87 119 155 195 242 294 350
#
# _framework density 19.906195
#
# number of rings (size 3 to 8) (size 9 to 14) (size 15 to 20)
#    0.000    1.200    0.000    6.600    0.000    4.800 
#    0.000    2.000    0.000    0.000    0.000    0.000 
#    0.000    0.000    0.000    0.000    0.000    0.000 
#
# Total GULP energy -496056.023420 kJ/mol
# GULP energy per Si atom -12401.400586 kJ/mol
# Density = 1.986089 g / cm^3
# Si number density = 19.906195 Si / 1000 Ang^3
#
#
#
# Elastic Constant Matrix: (Units=GPa)
#
#
# Indices 1 2 3 4 5 6 
#
# 1 132.9501 76.6402 51.7584 0.0000 0.0000 0.0000
# 2 76.6402 146.3315 61.6529 0.0000 0.0000 0.0000
# 3 51.7584 61.6529 129.4780 0.0000 0.0000 0.0000
# 4 0.0000 0.0000 0.0000 39.9010 0.0000 0.0000
# 5 0.0000 0.0000 0.0000 0.0000 33.0863 0.0000
# 6 0.0000 0.0000 0.0000 0.0000 0.0000 44.2498
#
#
#
# Elastic Compliance Matrix: (Units=1/GPa)
#
#
# Indices 1 2 3 4 5 6 
#
# 1 0.011217 -0.004986 -0.002110 0.000000 0.000000 0.000000
# 2 -0.004986 0.010765 -0.003133 0.000000 0.000000 0.000000
# 3 -0.002110 -0.003133 0.010058 0.000000 0.000000 0.000000
# 4 0.000000 0.000000 0.000000 0.025062 0.000000 0.000000
# 5 0.000000 0.000000 0.000000 0.000000 0.030224 0.000000
# 6 0.000000 0.000000 0.000000 0.000000 0.000000 0.022599
#
#
# Mechanical properties :
#
#
# Convention : Reuss Voigt Hill
#
# Bulk Modulus (GPa) = 86.33056 87.65139 86.99097
# Shear Modulus (GPa) = 37.24547 38.02794 37.63671
#
# Velocity S-wave (km/s) = 4.33026 4.37551 4.35294
# Velocity P-wave (km/s) = 8.27432 8.34593 8.31020
#
# Compressibility (1/GPa) = 0.01158338
#
# Stress axis : x y z
#
# Youngs Moduli (GPa) = 89.14848 92.89252 99.41851
#
# Poissons Ratio (x) = 0.46316 0.20976
# Poissons Ratio (y) = 0.44450 0.31146
# Poissons Ratio (z) = 0.18809 0.29102
#
# Static dielectric constant tensor:
#      x y z
#    x 4.360220 0.000000 0.000000 
#    y 0.000000 12.216470 0.000000 
#    z 0.000000 0.000000 3.836700 
# 
# 
# High freq. dielectric constant tensor:
#      x y z
#    x 1.798630 0.000000 0.000000 
#    y 0.000000 1.783570 0.000000 
#    z 0.000000 0.000000 1.791690 
# 
# From -- ./inp_files/8898.got.cif
#   From: 2010.03.12/outbox.cif.g09.slc.cpg/sg57_5_cif.got.tgz:8898.got - 2010.04.16 15:48:40.
