data_PCOD8233035
_publ_section_title
;
Structure prediction by ZEFSAII (Michael W. Deem and Ramdas Pophale) SiO2 
 PCOD8233035
Probable space group: P B C M
;
_chemical_formula_sum "Si O2"
_cell_formula_units_Z 48
_cell_length_a 7.747233
_cell_length_b 34.426864
_cell_length_c 9.219651
_cell_angle_alpha 90.000000
_cell_angle_beta 90.000000
_cell_angle_gamma 90.000000
_cell_volume 2459.000195
_symmetry_space_group_name_H-M "P B C M"
_symmetry_group_IT_number 57
_symmetry_cell_setting 'orthorhombic'
loop_
_space_group_symop_operation_xyz
x,y,z
-x,-y,1/2+z
x,1/2-y,-z
-x,1/2+y,1/2-z
-x,-y,-z
x,y,1/2-z
-x,1/2+y,z
x,1/2-y,1/2+z
loop_
_atom_site_type_symbol
_atom_site_label
_atom_site_fract_x
_atom_site_fract_y
_atom_site_fract_z
Si Si1 0.725003 0.849410 0.919588
Si Si2 0.710980 0.576015 0.910559
Si Si3 0.025020 0.790333 0.580114
Si Si4 0.687006 0.080512 0.592282
Si Si5 0.180351 0.498074 0.922808
Si Si6 0.672398 0.345971 0.580637
O O1 0.735039 0.859665 0.750000
O O2 0.527554 0.837411 0.962129
O O3 0.854408 0.814834 0.961003
O O4 0.793394 0.887171 0.006732
O O5 0.797041 0.570065 0.750000
O O6 0.514134 0.585965 0.888333
O O7 0.719123 0.538023 0.009748
O O8 0.009833 0.750000 0.500000
O O9 0.031201 0.782239 0.750000
O O10 0.202453 0.811223 0.528638
O O11 0.777286 0.085315 0.750000
O O12 0.725326 0.037775 0.530608
O O13 0.750849 0.114485 0.486855
O O14 0.167080 0.493009 0.750000
O O15 0.000000 0.500000 0.000000
O O16 0.691084 0.352191 0.750000
#
# Coordination Sequence:
#
# PCOD8233035 Si02
#       6
#     8   8   8   8   8   8
#     4   9  19  37  58  81 112 147 185 228 275 332
#     4  10  20  36  57  81 108 143 186 231 280 331
#     4  10  22  38  57  84 112 143 181 224 278 337
#     4   9  20  37  56  79 108 143 186 231 276 328
#     4  11  23  36  51  78 113 149 188 231 276 324
#     4   9  19  36  58  82 110 146 184 226 277 331
#
# _framework density 19.520129000000001
#
# number of rings (size 3 to 8) (size 9 to 14) (size 15 to 20)
#    0.000    2.333    0.000    1.500    2.333    4.000 
#    0.000    0.000    0.000    0.000    0.000    0.000 
#    0.000    0.000    0.000    0.000    0.000    0.000 
#
# Total GULP energy -594965.723668 kJ/mol
# GULP energy per Si atom -12395.119243 kJ/mol
# Density = 1.947570 g / cm^3
# Si number density = 19.520129 Si / 1000 Ang^3
#
#
#
# Elastic Constant Matrix: (Units=GPa)
#
#
# Indices 1 2 3 4 5 6 
#
# 1 72.0350 45.8501 29.8966 0.0000 0.0000 0.0000
# 2 45.8501 161.9119 63.0411 0.0000 0.0000 0.0000
# 3 29.8966 63.0411 76.4477 0.0000 0.0000 0.0000
# 4 0.0000 0.0000 0.0000 42.0144 0.0000 0.0000
# 5 0.0000 0.0000 0.0000 0.0000 20.0223 0.0000
# 6 0.0000 0.0000 0.0000 0.0000 0.0000 31.6945
#
#
#
# Elastic Compliance Matrix: (Units=1/GPa)
#
#
# Indices 1 2 3 4 5 6 
#
# 1 0.017776 -0.003428 -0.004125 0.000000 0.000000 0.000000
# 2 -0.003428 0.009758 -0.006706 0.000000 0.000000 0.000000
# 3 -0.004125 -0.006706 0.020224 0.000000 0.000000 0.000000
# 4 0.000000 0.000000 0.000000 0.023801 0.000000 0.000000
# 5 0.000000 0.000000 0.000000 0.000000 0.049944 0.000000
# 6 0.000000 0.000000 0.000000 0.000000 0.000000 0.031551
#
#
# Mechanical properties :
#
#
# Convention : Reuss Voigt Hill
#
# Bulk Modulus (GPa) = 51.97496 65.33002 58.65249
# Shear Modulus (GPa) = 26.59771 30.18671 28.39221
#
# Velocity S-wave (km/s) = 3.69532 3.93675 3.81794
# Velocity P-wave (km/s) = 6.70010 7.36238 7.03903
#
# Compressibility (1/GPa) = 0.01924004
#
# Stress axis : x y z
#
# Youngs Moduli (GPa) = 56.25608 102.48077 49.44564
#
# Poissons Ratio (x) = 0.35126 0.20397
# Poissons Ratio (y) = 0.19282 0.33159
# Poissons Ratio (z) = 0.23206 0.68726
#
# Static dielectric constant tensor:
#      x y z
#    x 3.761550 0.000000 0.000000 
#    y 0.000000 3.605060 0.000000 
#    z 0.000000 0.000000 4.000850 
# 
# 
# High freq. dielectric constant tensor:
#      x y z
#    x 1.761160 0.000000 0.000000 
#    y 0.000000 1.758450 0.000000 
#    z 0.000000 0.000000 1.760910 
# 
# From -- ./inp_files/2020.got.cif
#   From: 2010.03.12/outbox.cif.g09.slc.cpg/sg57_2_cif.got.tgz:2020.got - 2010.04.16 15:48:40.
