data_PCOD8233335
_publ_section_title
;
Structure prediction by ZEFSAII (Michael W. Deem and Ramdas Pophale) SiO2 
 PCOD8233335
Probable space group: P B C M
;
_chemical_formula_sum "Si O2"
_cell_formula_units_Z 64
_cell_length_a 22.660416
_cell_length_b 16.103193
_cell_length_c 8.884470
_cell_angle_alpha 90.000000
_cell_angle_beta 90.000000
_cell_angle_gamma 90.000000
_cell_volume 3241.987990
_symmetry_space_group_name_H-M "P B C M"
_symmetry_group_IT_number 57
_symmetry_cell_setting 'orthorhombic'
loop_
_space_group_symop_operation_xyz
x,y,z
-x,-y,1/2+z
x,1/2-y,-z
-x,1/2+y,1/2-z
-x,-y,-z
x,y,1/2-z
-x,1/2+y,z
x,1/2-y,1/2+z
loop_
_atom_site_type_symbol
_atom_site_label
_atom_site_fract_x
_atom_site_fract_y
_atom_site_fract_z
Si Si1 0.292182 0.831642 0.927204
Si Si2 0.538589 0.832589 0.425035
Si Si3 0.373463 0.443708 0.585397
Si Si4 0.248301 0.997242 0.072259
Si Si5 0.081246 0.834756 0.923214
Si Si6 0.872627 0.986087 0.070469
Si Si7 0.408398 0.868243 0.082178
Si Si8 0.942425 0.664201 0.425503
O O1 0.282339 0.834066 0.750000
O O2 0.262805 0.750000 0.000000
O O3 0.361871 0.829749 0.966062
O O4 0.258568 0.907443 0.002011
O O5 0.562917 0.750000 0.500000
O O6 0.533867 0.820986 0.250000
O O7 0.587236 0.901254 0.459378
O O8 0.473436 0.854147 0.487800
O O9 0.380607 0.400735 0.750000
O O10 0.304589 0.443846 0.537597
O O11 0.397509 0.535442 0.598257
O O12 0.238588 0.987958 0.250000
O O13 0.191799 0.037395 0.992712
O O14 0.097661 0.825530 0.750000
O O15 0.011924 0.842561 0.950729
O O16 0.110183 0.920527 0.985657
O O17 0.105672 0.750000 0.000000
O O18 0.874256 0.980885 0.250000
O O19 0.916294 0.917027 0.004963
O O20 0.401162 0.828389 0.250000
O O21 0.918720 0.750000 0.500000
O O22 0.925202 0.664647 0.250000
#
# Coordination Sequence:
#
# PCOD8233335 Si02
#       8
#     8   8   8   8   8   8   8   8
#     4  11  21  34  54  79 108 144 182 224 273 327
#     4  11  22  34  52  78 107 136 170 212 264 321
#     4   9  19  37  57  75 101 134 172 217 266 317
#     4  10  22  40  58  78 106 143 186 231 276 327
#     4   9  20  36  57  87 123 158 192 230 278 335
#     4  11  22  37  58  87 119 153 194 239 284 338
#     4   9  19  35  54  79 107 136 170 212 263 324
#     4  10  20  37  60  87 118 154 193 237 287 337
#
# _framework density 19.740974000000001
#
# number of rings (size 3 to 8) (size 9 to 14) (size 15 to 20)
#    0.000    2.000    0.000    4.500    0.000    6.500 
#    0.000    1.875    0.000    3.000    0.000    0.000 
#    0.000    0.000    0.000    0.000    0.000    0.000 
#
# Total GULP energy -793471.373704 kJ/mol
# GULP energy per Si atom -12397.990214 kJ/mol
# Density = 1.969604 g / cm^3
# Si number density = 19.740974 Si / 1000 Ang^3
#
#
#
# Elastic Constant Matrix: (Units=GPa)
#
#
# Indices 1 2 3 4 5 6 
#
# 1 57.8384 21.8661 28.8026 0.0000 0.0000 0.0000
# 2 21.8661 73.2686 31.5877 0.0000 0.0000 0.0000
# 3 28.8026 31.5877 88.2448 0.0000 0.0000 0.0000
# 4 0.0000 0.0000 0.0000 35.3780 0.0000 0.0000
# 5 0.0000 0.0000 0.0000 0.0000 32.6913 0.0000
# 6 0.0000 0.0000 0.0000 0.0000 0.0000 -17.1575
#
#
#
# Elastic Compliance Matrix: (Units=1/GPa)
#
#
# Indices 1 2 3 4 5 6 
#
# 1 0.021607 -0.004030 -0.005610 0.000000 0.000000 0.000000
# 2 -0.004030 0.016891 -0.004731 0.000000 0.000000 0.000000
# 3 -0.005610 -0.004731 0.014857 0.000000 0.000000 0.000000
# 4 0.000000 0.000000 0.000000 0.028266 0.000000 0.000000
# 5 0.000000 0.000000 0.000000 0.000000 0.030589 0.000000
# 6 0.000000 0.000000 0.000000 0.000000 0.000000 -0.058284
#
#
# Mechanical properties :
#
#
# Convention : Reuss Voigt Hill
#
# Bulk Modulus (GPa) = 40.62879 42.65161 41.64020
# Shear Modulus (GPa) = 55.02343 19.32206 37.17274
#
# Velocity S-wave (km/s) = 5.28519 3.13194 4.34409
# Velocity P-wave (km/s) = 7.60723 5.89332 6.80445
#
# Compressibility (1/GPa) = 0.02461309
#
# Stress axis : x y z
#
# Youngs Moduli (GPa) = 46.28219 59.20455 67.31042
#
# Poissons Ratio (x) = 0.23858 0.37760
# Poissons Ratio (y) = 0.18650 0.31843
# Poissons Ratio (z) = 0.25963 0.28009
#
# Static dielectric constant tensor:
#      x y z
#    x 3.639040 0.000000 0.000000 
#    y 0.000000 3.757940 0.000000 
#    z 0.000000 0.000000 3.644400 
# 
# 
# High freq. dielectric constant tensor:
#      x y z
#    x 1.765970 0.000000 0.000000 
#    y 0.000000 1.765110 0.000000 
#    z 0.000000 0.000000 1.773390 
# 
# From -- ./inp_files/9418.got.cif
#   From: 2010.03.12/outbox.cif.g09.slc.cpg/sg57_5_cif.got.tgz:9418.got - 2010.04.16 15:48:40.
