data_PCOD8233112
_publ_section_title
;
Structure prediction by ZEFSAII (Michael W. Deem and Ramdas Pophale) SiO2 
 PCOD8233112
Probable space group: P B C M
;
_chemical_formula_sum "Si O2"
_cell_formula_units_Z 56
_cell_length_a 15.606967
_cell_length_b 13.116992
_cell_length_c 14.173083
_cell_angle_alpha 90.000000
_cell_angle_beta 90.000000
_cell_angle_gamma 90.000000
_cell_volume 2901.463397
_symmetry_space_group_name_H-M "P B C M"
_symmetry_group_IT_number 57
_symmetry_cell_setting 'orthorhombic'
loop_
_space_group_symop_operation_xyz
x,y,z
-x,-y,1/2+z
x,1/2-y,-z
-x,1/2+y,1/2-z
-x,-y,-z
x,y,1/2-z
-x,1/2+y,z
x,1/2-y,1/2+z
loop_
_atom_site_type_symbol
_atom_site_label
_atom_site_fract_x
_atom_site_fract_y
_atom_site_fract_z
Si Si1 0.272621 0.390863 0.856774
Si Si2 0.408510 0.870818 0.987733
Si Si3 0.766662 0.018646 0.024540
Si Si4 0.795967 0.676483 0.859360
Si Si5 0.051660 0.599873 0.020680
Si Si6 0.008381 0.227451 0.859119
Si Si7 0.457853 0.027334 0.142024
O O1 0.238903 0.403673 0.750000
O O2 0.248105 0.279806 0.896840
O O3 0.374480 0.401568 0.864425
O O4 0.225997 0.478746 0.917003
O O5 0.311859 0.904123 0.963983
O O6 0.464999 0.905851 0.899033
O O7 0.412827 0.750000 0.000000
O O8 0.443797 0.923425 0.083149
O O9 0.852124 0.077689 0.054608
O O10 0.753155 0.919359 0.089426
O O11 0.776436 0.661878 0.750000
O O12 0.897126 0.684411 0.879073
O O13 0.000758 0.656273 0.105372
O O14 0.057252 0.663763 0.923501
O O15 0.000000 0.500000 0.000000
O O16 0.982734 0.219256 0.750000
O O17 0.478017 0.996730 0.250000
#
# Coordination Sequence:
#
# PCOD8233112 Si02
#       7
#     8   8   8   8   8   8   8
#     4   9  19  35  60  89 115 149 193 242 294 348
#     4  10  23  39  60  89 123 158 192 240 293 344
#     4  11  22  36  59  84 120 152 195 240 293 357
#     4  10  20  36  58  86 116 145 191 248 297 345
#     4  11  22  37  61  83 113 156 198 243 295 355
#     4  10  23  39  56  82 114 150 196 247 293 345
#     4   9  20  41  63  87 118 156 200 237 285 349
#
# _framework density 19.300605999999998
#
# number of rings (size 3 to 8) (size 9 to 14) (size 15 to 20)
#    0.000    2.000    1.429    1.286    4.000    6.286 
#    0.000    1.429    0.000    0.000    0.000    0.000 
#    0.000    0.000    0.000    0.000    0.000    0.000 
#
# Total GULP energy -694486.531600 kJ/mol
# GULP energy per Si atom -12401.545207 kJ/mol
# Density = 1.925668 g / cm^3
# Si number density = 19.300606 Si / 1000 Ang^3
#
#
#
# Elastic Constant Matrix: (Units=GPa)
#
#
# Indices 1 2 3 4 5 6 
#
# 1 71.0448 34.1310 21.6940 0.0000 0.0000 0.0000
# 2 34.1310 113.1890 28.1506 0.0000 0.0000 0.0000
# 3 21.6940 28.1506 91.7534 0.0000 0.0000 0.0000
# 4 0.0000 0.0000 0.0000 22.7750 0.0000 0.0000
# 5 0.0000 0.0000 0.0000 0.0000 26.1820 0.0000
# 6 0.0000 0.0000 0.0000 0.0000 0.0000 34.9260
#
#
#
# Elastic Compliance Matrix: (Units=1/GPa)
#
#
# Indices 1 2 3 4 5 6 
#
# 1 0.017037 -0.004477 -0.002655 0.000000 0.000000 0.000000
# 2 -0.004477 0.010741 -0.002237 0.000000 0.000000 0.000000
# 3 -0.002655 -0.002237 0.012213 0.000000 0.000000 0.000000
# 4 0.000000 0.000000 0.000000 0.043908 0.000000 0.000000
# 5 0.000000 0.000000 0.000000 0.000000 0.038194 0.000000
# 6 0.000000 0.000000 0.000000 0.000000 0.000000 0.028632
#
#
# Mechanical properties :
#
#
# Convention : Reuss Voigt Hill
#
# Bulk Modulus (GPa) = 47.05068 49.32652 48.18860
# Shear Modulus (GPa) = 28.32109 29.57736 28.94922
#
# Velocity S-wave (km/s) = 3.83478 3.91891 3.87707
# Velocity P-wave (km/s) = 6.63612 6.78893 6.71296
#
# Compressibility (1/GPa) = 0.02125368
#
# Stress axis : x y z
#
# Youngs Moduli (GPa) = 58.69536 93.09993 81.88181
#
# Poissons Ratio (x) = 0.41682 0.21736
# Poissons Ratio (y) = 0.26279 0.18316
# Poissons Ratio (z) = 0.15581 0.20825
#
# Static dielectric constant tensor:
#      x y z
#    x 3.541320 0.000000 0.000000 
#    y 0.000000 2.561130 0.000000 
#    z 0.000000 0.000000 3.621450 
# 
# 
# High freq. dielectric constant tensor:
#      x y z
#    x 1.747020 0.000000 0.000000 
#    y 0.000000 1.751240 0.000000 
#    z 0.000000 0.000000 1.755910 
# 
# From -- ./inp_files/18531.got.cif
#   From: 2010.03.12/outbox.cif.g09.slc.cpg/sg57_10_cif.got.tgz:18531.got - 2010.04.16 15:48:40.
