data_PCOD8233549
_publ_section_title
;
Structure prediction by ZEFSAII (Michael W. Deem and Ramdas Pophale) SiO2 
 PCOD8233549
Probable space group: P B C M
;
_chemical_formula_sum "Si O2"
_cell_formula_units_Z 64
_cell_length_a 15.175576
_cell_length_b 23.997651
_cell_length_c 8.704423
_cell_angle_alpha 90.000000
_cell_angle_beta 90.000000
_cell_angle_gamma 90.000000
_cell_volume 3169.960896
_symmetry_space_group_name_H-M "P B C M"
_symmetry_group_IT_number 57
_symmetry_cell_setting 'orthorhombic'
loop_
_space_group_symop_operation_xyz
x,y,z
-x,-y,1/2+z
x,1/2-y,-z
-x,1/2+y,1/2-z
-x,-y,-z
x,y,1/2-z
-x,1/2+y,z
x,1/2-y,1/2+z
loop_
_atom_site_type_symbol
_atom_site_label
_atom_site_fract_x
_atom_site_fract_y
_atom_site_fract_z
Si Si1 0.065622 0.367392 0.067486
Si Si2 0.380424 0.382755 0.066934
Si Si3 0.666660 0.500606 0.923610
Si Si4 0.228185 0.308920 0.568079
Si Si5 0.307132 0.879913 0.932698
Si Si6 0.455114 0.690671 0.569285
Si Si7 0.891932 0.393899 0.932577
Si Si8 0.870589 0.516145 0.575896
O O1 0.075989 0.363437 0.250000
O O2 0.088944 0.428716 0.997628
O O3 0.130149 0.322442 0.991869
O O4 0.965008 0.355314 0.015161
O O5 0.365143 0.380713 0.250000
O O6 0.389501 0.447413 0.007744
O O7 0.469349 0.352041 0.016367
O O8 0.296661 0.355324 0.986564
O O9 0.636532 0.491736 0.750000
O O10 0.657503 0.439552 0.002438
O O11 0.766303 0.521210 0.933686
O O12 0.258990 0.250000 0.500000
O O13 0.227782 0.305481 0.750000
O O14 0.317343 0.879314 0.750000
O O15 0.204878 0.871323 0.977400
O O16 0.361403 0.829876 0.006606
O O17 0.479393 0.750000 0.500000
O O18 0.449767 0.696352 0.750000
O O19 0.903863 0.392290 0.750000
O O20 0.902055 0.457519 0.997784
O O21 0.903009 0.515930 0.750000
#
# Coordination Sequence:
#
# PCOD8233549 Si02
#       8
#     8   8   8   8   8   8   8   8
#     4  11  20  33  55  82 114 154 192 234 283 335
#     4  10  20  38  63  89 118 151 188 232 287 350
#     4   8  14  30  57  86 118 156 188 221 280 348
#     4  12  25  40  58  82 114 153 195 243 290 345
#     4   9  19  37  61  85 117 157 193 236 288 344
#     4  11  24  40  61  86 113 148 194 246 292 344
#     4   9  18  33  54  83 115 151 193 234 280 335
#     4   8  14  27  51  80 114 153 188 223 270 331
#
# _framework density 20.189523999999999
#
# number of rings (size 3 to 8) (size 9 to 14) (size 15 to 20)
#    0.000    2.250    1.250    4.125    0.000    3.000 
#    0.000    1.875    0.000    3.000    0.000    0.000 
#    0.000    0.000    0.000    0.000    0.000    0.000 
#
# Total GULP energy -793227.553540 kJ/mol
# GULP energy per Si atom -12394.180524 kJ/mol
# Density = 2.014357 g / cm^3
# Si number density = 20.189524 Si / 1000 Ang^3
#
#
#
# Elastic Constant Matrix: (Units=GPa)
#
#
# Indices 1 2 3 4 5 6 
#
# 1 61.7627 18.6146 17.8120 0.0000 0.0000 0.0000
# 2 18.6146 46.4652 15.3908 0.0000 0.0000 0.0000
# 3 17.8120 15.3908 54.3242 0.0000 0.0000 0.0000
# 4 0.0000 0.0000 0.0000 20.7197 0.0000 0.0000
# 5 0.0000 0.0000 0.0000 0.0000 28.3425 0.0000
# 6 0.0000 0.0000 0.0000 0.0000 0.0000 28.3528
#
#
#
# Elastic Compliance Matrix: (Units=1/GPa)
#
#
# Indices 1 2 3 4 5 6 
#
# 1 0.019399 -0.006251 -0.004589 0.000000 0.000000 0.000000
# 2 -0.006251 0.025765 -0.005250 0.000000 0.000000 0.000000
# 3 -0.004589 -0.005250 0.021400 0.000000 0.000000 0.000000
# 4 0.000000 0.000000 0.000000 0.048263 0.000000 0.000000
# 5 0.000000 0.000000 0.000000 0.000000 0.035283 0.000000
# 6 0.000000 0.000000 0.000000 0.000000 0.000000 0.035270
#
#
# Mechanical properties :
#
#
# Convention : Reuss Voigt Hill
#
# Bulk Modulus (GPa) = 29.08452 29.57633 29.33042
# Shear Modulus (GPa) = 21.83206 22.86532 22.34869
#
# Velocity S-wave (km/s) = 3.29197 3.36897 3.33069
# Velocity P-wave (km/s) = 5.37461 5.46025 5.41760
#
# Compressibility (1/GPa) = 0.03438255
#
# Stress axis : x y z
#
# Youngs Moduli (GPa) = 51.55016 38.81279 46.72868
#
# Poissons Ratio (x) = 0.24263 0.21446
# Poissons Ratio (y) = 0.32225 0.24532
# Poissons Ratio (z) = 0.23658 0.20376
#
# Static dielectric constant tensor:
#      x y z
#    x 3.690420 0.000000 0.000000 
#    y 0.000000 3.559950 0.000000 
#    z 0.000000 0.000000 3.304470 
# 
# 
# High freq. dielectric constant tensor:
#      x y z
#    x 1.789310 0.000000 0.000000 
#    y 0.000000 1.785920 0.000000 
#    z 0.000000 0.000000 1.756170 
# 
# From -- ./inp_files/5675.got.cif
#   From: 2010.03.12/outbox.cif.g09.slc.cpg/sg57_3_cif.got.tgz:5675.got - 2010.04.16 15:48:40.
