data_PCOD8233649
_publ_section_title
;
Structure prediction by ZEFSAII (Michael W. Deem and Ramdas Pophale) SiO2 
 PCOD8233649
Probable space group: P B C M
;
_chemical_formula_sum "Si O2"
_cell_formula_units_Z 40
_cell_length_a 22.935898
_cell_length_b 9.267657
_cell_length_c 9.264579
_cell_angle_alpha 90.000000
_cell_angle_beta 90.000000
_cell_angle_gamma 90.000000
_cell_volume 1969.297772
_symmetry_space_group_name_H-M "P B C M"
_symmetry_group_IT_number 57
_symmetry_cell_setting 'orthorhombic'
loop_
_space_group_symop_operation_xyz
x,y,z
-x,-y,1/2+z
x,1/2-y,-z
-x,1/2+y,1/2-z
-x,-y,-z
x,y,1/2-z
-x,1/2+y,z
x,1/2-y,1/2+z
loop_
_atom_site_type_symbol
_atom_site_label
_atom_site_fract_x
_atom_site_fract_y
_atom_site_fract_z
Si Si1 0.366195 0.911588 0.525970
Si Si2 0.460250 0.840897 0.750000
Si Si3 0.572880 0.018347 0.750000
Si Si4 0.739312 0.605357 0.586540
Si Si5 0.042476 0.603380 0.584202
Si Si6 0.824432 0.100083 0.583052
O O1 0.340999 0.750000 0.500000
O O2 0.426517 0.901083 0.612161
O O3 0.382792 0.995343 0.381685
O O4 0.317310 0.004507 0.604429
O O5 0.462207 0.668264 0.750000
O O6 0.527058 0.888815 0.750000
O O7 0.723491 0.750000 0.500000
O O8 0.760846 0.640257 0.750000
O O9 0.788744 0.523989 0.496478
O O10 0.037540 0.750000 0.500000
O O11 0.022144 0.621645 0.750000
O O12 0.108773 0.547564 0.577512
O O13 0.000000 0.500000 0.500000
O O14 0.814909 0.250000 0.500000
O O15 0.804060 0.118522 0.750000
#
# Coordination Sequence:
#
# PCOD8233649 Si02
#       6
#     8   4   4   8   8   8
#     4  10  22  40  62  87 117 158 202 243 300 366
#     4  10  20  40  56  90 118 154 197 242 295 360
#     4  10  22  34  64  86 120 154 193 242 297 362
#     4  12  26  42  62  89 123 158 204 260 315 368
#     4  10  21  38  62  93 127 167 210 256 305 362
#     4  10  22  41  66  93 124 164 210 253 305 366
#
# _framework density 20.311809
#
# number of rings (size 3 to 8) (size 9 to 14) (size 15 to 20)
#    0.000    1.600    1.000    3.000    2.800    4.800 
#    0.000    0.000    0.000    0.000    0.000    0.000 
#    0.000    0.000    0.000    0.000    0.000    0.000 
#
# Total GULP energy -496018.667016 kJ/mol
# GULP energy per Si atom -12400.466675 kJ/mol
# Density = 2.026558 g / cm^3
# Si number density = 20.311809 Si / 1000 Ang^3
#
#
#
# Elastic Constant Matrix: (Units=GPa)
#
#
# Indices 1 2 3 4 5 6 
#
# 1 75.0662 39.2770 35.2390 0.0000 0.0000 0.0000
# 2 39.2770 78.9777 35.3585 0.0000 0.0000 0.0000
# 3 35.2390 35.3585 164.5783 0.0000 0.0000 0.0000
# 4 0.0000 0.0000 0.0000 37.4422 0.0000 0.0000
# 5 0.0000 0.0000 0.0000 0.0000 51.7185 0.0000
# 6 0.0000 0.0000 0.0000 0.0000 0.0000 38.2333
#
#
#
# Elastic Compliance Matrix: (Units=1/GPa)
#
#
# Indices 1 2 3 4 5 6 
#
# 1 0.018713 -0.008312 -0.002221 0.000000 0.000000 0.000000
# 2 -0.008312 0.017701 -0.002023 0.000000 0.000000 0.000000
# 3 -0.002221 -0.002023 0.006986 0.000000 0.000000 0.000000
# 4 0.000000 0.000000 0.000000 0.026708 0.000000 0.000000
# 5 0.000000 0.000000 0.000000 0.000000 0.019335 0.000000
# 6 0.000000 0.000000 0.000000 0.000000 0.000000 0.026155
#
#
# Mechanical properties :
#
#
# Convention : Reuss Voigt Hill
#
# Bulk Modulus (GPa) = 54.67979 59.81903 57.24941
# Shear Modulus (GPa) = 34.05793 39.39530 36.72662
#
# Velocity S-wave (km/s) = 4.09926 4.40878 4.25684
# Velocity P-wave (km/s) = 7.02737 7.44519 7.23929
#
# Compressibility (1/GPa) = 0.01828829
#
# Stress axis : x y z
#
# Youngs Moduli (GPa) = 53.43764 56.49270 143.13562
#
# Poissons Ratio (x) = 0.46958 0.31791
# Poissons Ratio (y) = 0.44418 0.28960
# Poissons Ratio (z) = 0.11869 0.11430
#
# Static dielectric constant tensor:
#      x y z
#    x 7.205290 0.000000 0.000000 
#    y 0.000000 3.871850 0.000000 
#    z 0.000000 0.000000 4.020570 
# 
# 
# High freq. dielectric constant tensor:
#      x y z
#    x 1.789500 0.000000 0.000000 
#    y 0.000000 1.786040 0.000000 
#    z 0.000000 0.000000 1.819180 
# 
# From -- ./inp_files/8939.got.cif
#   From: 2010.03.12/outbox.cif.g09.slc.cpg/sg57_5_cif.got.tgz:8939.got - 2010.04.16 15:48:40.
