data_PCOD8233155
_publ_section_title
;
Structure prediction by ZEFSAII (Michael W. Deem and Ramdas Pophale) SiO2 
 PCOD8233155
Probable space group: P B C M
;
_chemical_formula_sum "Si O2"
_cell_formula_units_Z 56
_cell_length_a 21.303951
_cell_length_b 15.436647
_cell_length_c 8.530502
_cell_angle_alpha 90.000000
_cell_angle_beta 90.000000
_cell_angle_gamma 90.000000
_cell_volume 2805.354292
_symmetry_space_group_name_H-M "P B C M"
_symmetry_group_IT_number 57
_symmetry_cell_setting 'orthorhombic'
loop_
_space_group_symop_operation_xyz
x,y,z
-x,-y,1/2+z
x,1/2-y,-z
-x,1/2+y,1/2-z
-x,-y,-z
x,y,1/2-z
-x,1/2+y,z
x,1/2-y,1/2+z
loop_
_atom_site_type_symbol
_atom_site_label
_atom_site_fract_x
_atom_site_fract_y
_atom_site_fract_z
Si Si1 0.432718 0.158024 0.936030
Si Si2 0.870433 0.658925 0.565037
Si Si3 0.873264 0.160097 0.564820
Si Si4 0.210387 0.497184 0.566409
Si Si5 0.001862 0.096292 0.434912
Si Si6 0.569665 0.341940 0.564000
Si Si7 0.348540 0.001051 0.565000
O O1 0.435812 0.161563 0.750000
O O2 0.384739 0.085524 0.999152
O O3 0.408681 0.250000 0.000000
O O4 0.501203 0.134936 0.999982
O O5 0.844737 0.750000 0.500000
O O6 0.863447 0.656381 0.750000
O O7 0.829676 0.583085 0.491948
O O8 0.942604 0.648736 0.516697
O O9 0.844723 0.250000 0.500000
O O10 0.885517 0.163036 0.750000
O O11 0.937979 0.145020 0.474144
O O12 0.824609 0.085349 0.518797
O O13 0.219213 0.489731 0.750000
O O14 0.277476 0.496826 0.487483
O O15 0.013654 0.093785 0.250000
O O16 0.000000 0.000000 0.500000
O O17 0.593798 0.250000 0.500000
O O18 0.566488 0.338349 0.750000
O O19 0.617650 0.414594 0.501207
O O20 0.351426 0.001376 0.750000
#
# Coordination Sequence:
#
# PCOD8233155 Si02
#       7
#     8   8   8   8   8   8   8
#     4  10  20  36  59  88 119 153 193 243 296 354
#     4  12  25  43  67  92 124 162 202 253 307 364
#     4  11  24  42  64  91 123 159 204 253 306 366
#     4  11  25  43  63  88 121 161 207 254 301 361
#     4  12  23  39  65  95 126 160 200 250 309 364
#     4  10  20  36  59  88 120 155 195 245 298 354
#     4  10  23  40  59  84 119 160 201 243 298 358
#
# _framework density 19.961829000000002
#
# number of rings (size 3 to 8) (size 9 to 14) (size 15 to 20)
#    0.000    1.143    1.429    6.000    0.000    5.143 
#    0.000    4.286    0.000    0.000    0.000    0.000 
#    0.000    0.000    0.000    0.000    0.000    0.000 
#
# Total GULP energy -694691.663208 kJ/mol
# GULP energy per Si atom -12405.208272 kJ/mol
# Density = 1.991639 g / cm^3
# Si number density = 19.961829 Si / 1000 Ang^3
#
#
#
# Elastic Constant Matrix: (Units=GPa)
#
#
# Indices 1 2 3 4 5 6 
#
# 1 350.9341 255.8054 439.7445 0.0000 0.0000 0.0000
# 2 255.8054 317.5084 356.2823 0.0000 0.0000 0.0000
# 3 439.7445 356.2823 1038.2794 0.0000 0.0000 0.0000
# 4 0.0000 0.0000 0.0000 35.1262 0.0000 0.0000
# 5 0.0000 0.0000 0.0000 0.0000 34.6499 0.0000
# 6 0.0000 0.0000 0.0000 0.0000 0.0000 69.5639
#
#
#
# Elastic Compliance Matrix: (Units=1/GPa)
#
#
# Indices 1 2 3 4 5 6 
#
# 1 0.009232 -0.004960 -0.002208 0.000000 0.000000 0.000000
# 2 -0.004960 0.007787 -0.000571 0.000000 0.000000 0.000000
# 3 -0.002208 -0.000571 0.002094 0.000000 0.000000 0.000000
# 4 0.000000 0.000000 0.000000 0.028469 0.000000 0.000000
# 5 0.000000 0.000000 0.000000 0.000000 0.028860 0.000000
# 6 0.000000 0.000000 0.000000 0.000000 0.000000 0.014375
#
#
# Mechanical properties :
#
#
# Convention : Reuss Voigt Hill
#
# Bulk Modulus (GPa) = 275.16376 423.37624 349.27000
# Shear Modulus (GPa) = 46.50860 71.52732 59.01796
#
# Velocity S-wave (km/s) = 4.83212 5.99248 5.44331
# Velocity P-wave (km/s) = 13.01064 16.13794 14.65793
#
# Compressibility (1/GPa) = 0.00363420
#
# Stress axis : x y z
#
# Youngs Moduli (GPa) = 108.32089 128.42321 477.50162
#
# Poissons Ratio (x) = 0.63701 1.05426
# Poissons Ratio (y) = 0.53730 0.27273
# Poissons Ratio (z) = 0.23916 0.07335
#
# Static dielectric constant tensor:
#      x y z
#    x 3.652780 0.000000 0.000000 
#    y 0.000000 4.093090 0.000000 
#    z 0.000000 0.000000 3.735090 
# 
# 
# High freq. dielectric constant tensor:
#      x y z
#    x 1.774070 0.000000 0.000000 
#    y 0.000000 1.800900 0.000000 
#    z 0.000000 0.000000 1.790870 
# 
# From -- ./inp_files/8186.got.cif
#   From: 2010.03.12/outbox.cif.g09.slc.cpg/sg57_5_cif.got.tgz:8186.got - 2010.04.16 15:48:40.
