data_PCOD8233728
_publ_section_title
;
Structure prediction by ZEFSAII (Michael W. Deem and Ramdas Pophale) SiO2 
 PCOD8233728
Probable space group: P B C M
;
_chemical_formula_sum "Si O2"
_cell_formula_units_Z 56
_cell_length_a 15.658465
_cell_length_b 12.139837
_cell_length_c 14.366495
_cell_angle_alpha 90.000000
_cell_angle_beta 90.000000
_cell_angle_gamma 90.000000
_cell_volume 2730.944458
_symmetry_space_group_name_H-M "P B C M"
_symmetry_group_IT_number 57
_symmetry_cell_setting 'orthorhombic'
loop_
_space_group_symop_operation_xyz
x,y,z
-x,-y,1/2+z
x,1/2-y,-z
-x,1/2+y,1/2-z
-x,-y,-z
x,y,1/2-z
-x,1/2+y,z
x,1/2-y,1/2+z
loop_
_atom_site_type_symbol
_atom_site_label
_atom_site_fract_x
_atom_site_fract_y
_atom_site_fract_z
Si Si1 0.557960 0.361777 0.644417
Si Si2 0.744076 0.972782 0.957535
Si Si3 0.314320 0.682186 0.642743
Si Si4 0.875490 0.266909 0.642181
Si Si5 0.330913 0.441642 0.351497
Si Si6 0.375516 0.209372 0.399179
Si Si7 0.082745 0.572299 0.983654
O O1 0.585621 0.349193 0.750000
O O2 0.610739 0.259650 0.599362
O O3 0.590038 0.482672 0.612634
O O4 0.456382 0.359676 0.635382
O O5 0.709467 0.866482 0.901137
O O6 0.687678 0.075810 0.923471
O O7 0.739256 0.950940 0.068414
O O8 0.844081 0.992672 0.940370
O O9 0.329753 0.645119 0.750000
O O10 0.225246 0.746626 0.634140
O O11 0.904460 0.279374 0.750000
O O12 0.892086 0.378240 0.584330
O O13 0.929805 0.168483 0.593384
O O14 0.295306 0.480461 0.250000
O O15 0.360814 0.315928 0.335936
O O16 0.401370 0.250000 0.500000
O O17 0.000000 0.500000 0.000000
#
# Coordination Sequence:
#
# PCOD8233728 Si02
#       7
#     8   8   8   8   8   8   8
#     4  10  21  34  55  83 113 155 202 246 290 336
#     4  10  22  39  61  85 114 155 195 241 306 357
#     4   9  19  35  60  89 116 150 198 249 292 342
#     4   9  19  39  62  92 124 154 197 247 301 358
#     4  10  22  39  55  80 117 155 197 241 289 351
#     4  10  23  37  52  78 115 156 196 243 288 350
#     4  10  21  39  64  92 122 156 194 252 306 366
#
# _framework density 20.505727
#
# number of rings (size 3 to 8) (size 9 to 14) (size 15 to 20)
#    0.000    2.286    0.000    1.286    4.000    5.714 
#    7.714    0.000    0.000    0.000    0.000    0.000 
#    0.000    0.000    0.000    0.000    0.000    0.000 
#
# Total GULP energy -693996.607191 kJ/mol
# GULP energy per Si atom -12392.796557 kJ/mol
# Density = 2.045905 g / cm^3
# Si number density = 20.505727 Si / 1000 Ang^3
#
#
#
# Elastic Constant Matrix: (Units=GPa)
#
#
# Indices 1 2 3 4 5 6 
#
# 1 91.4602 54.7193 10.5736 0.0000 0.0000 0.0000
# 2 54.7193 121.3615 23.2442 0.0000 0.0000 0.0000
# 3 10.5736 23.2442 89.0321 0.0000 0.0000 0.0000
# 4 0.0000 0.0000 0.0000 26.8133 0.0000 0.0000
# 5 0.0000 0.0000 0.0000 0.0000 11.2676 0.0000
# 6 0.0000 0.0000 0.0000 0.0000 0.0000 34.0785
#
#
#
# Elastic Compliance Matrix: (Units=1/GPa)
#
#
# Indices 1 2 3 4 5 6 
#
# 1 0.014973 -0.006748 -0.000017 0.000000 0.000000 0.000000
# 2 -0.006748 0.011715 -0.002257 0.000000 0.000000 0.000000
# 3 -0.000017 -0.002257 0.011823 0.000000 0.000000 0.000000
# 4 0.000000 0.000000 0.000000 0.037295 0.000000 0.000000
# 5 0.000000 0.000000 0.000000 0.000000 0.088750 0.000000
# 6 0.000000 0.000000 0.000000 0.000000 0.000000 0.029344
#
#
# Mechanical properties :
#
#
# Convention : Reuss Voigt Hill
#
# Bulk Modulus (GPa) = 48.85710 53.21424 51.03567
# Shear Modulus (GPa) = 22.85567 28.65300 25.75434
#
# Velocity S-wave (km/s) = 3.34218 3.74213 3.54779
# Velocity P-wave (km/s) = 6.22667 6.68420 6.45949
#
# Compressibility (1/GPa) = 0.02046785
#
# Stress axis : x y z
#
# Youngs Moduli (GPa) = 66.78830 85.36412 84.58002
#
# Poissons Ratio (x) = 0.57601 0.00140
# Poissons Ratio (y) = 0.45067 0.19090
# Poissons Ratio (z) = 0.00110 0.19267
#
# Static dielectric constant tensor:
#      x y z
#    x 3.316100 0.000000 0.000000 
#    y 0.000000 3.967220 0.000000 
#    z 0.000000 0.000000 3.862100 
# 
# 
# High freq. dielectric constant tensor:
#      x y z
#    x 1.763280 0.000000 0.000000 
#    y 0.000000 1.806980 0.000000 
#    z 0.000000 0.000000 1.809920 
# 
# From -- ./inp_files/18494.got.cif
#   From: 2010.03.12/outbox.cif.g09.slc.cpg/sg57_10_cif.got.tgz:18494.got - 2010.04.16 15:48:40.
