data_PCOD8233831
_publ_section_title
;
Structure prediction by ZEFSAII (Michael W. Deem and Ramdas Pophale) SiO2 
 PCOD8233831
Probable space group: P B C M
;
_chemical_formula_sum "Si O2"
_cell_formula_units_Z 56
_cell_length_a 12.301077
_cell_length_b 14.377571
_cell_length_c 15.720306
_cell_angle_alpha 90.000000
_cell_angle_beta 90.000000
_cell_angle_gamma 90.000000
_cell_volume 2780.287156
_symmetry_space_group_name_H-M "P B C M"
_symmetry_group_IT_number 57
_symmetry_cell_setting 'orthorhombic'
loop_
_space_group_symop_operation_xyz
x,y,z
-x,-y,1/2+z
x,1/2-y,-z
-x,1/2+y,1/2-z
-x,-y,-z
x,y,1/2-z
-x,1/2+y,z
x,1/2-y,1/2+z
loop_
_atom_site_type_symbol
_atom_site_label
_atom_site_fract_x
_atom_site_fract_y
_atom_site_fract_z
Si Si1 0.181831 0.460036 0.496149
Si Si2 0.619693 0.143658 0.650680
Si Si3 0.814306 0.709771 0.093941
Si Si4 0.410669 0.040359 0.442464
Si Si5 0.429176 0.220782 0.151789
Si Si6 0.837129 0.336167 0.440966
Si Si7 0.051204 0.365088 0.154517
O O1 0.149109 0.398995 0.581260
O O2 0.310583 0.436530 0.494035
O O3 0.163962 0.569585 0.503825
O O4 0.119049 0.429516 0.410896
O O5 0.639747 0.157412 0.750000
O O6 0.620325 0.033995 0.630384
O O7 0.506041 0.193043 0.621963
O O8 0.721001 0.189195 0.600374
O O9 0.698682 0.733589 0.136319
O O10 0.902346 0.760227 0.152510
O O11 0.814091 0.750000 0.000000
O O12 0.500000 0.000000 0.500000
O O13 0.464519 0.130193 0.399998
O O14 0.450943 0.202142 0.250000
O O15 0.873591 0.250000 0.500000
O O16 0.924975 0.356121 0.368117
O O17 0.062321 0.405797 0.250000
#
# Coordination Sequence:
#
# PCOD8233831 Si02
#       7
#     8   8   8   8   8   8   8
#     4   9  21  40  60  88 113 159 203 242 288 357
#     4  10  23  39  58  86 122 159 197 247 305 356
#     4   9  19  36  61  86 114 148 196 244 293 356
#     4  10  22  36  61  86 118 158 198 239 294 357
#     4  10  21  36  57  86 117 151 194 244 294 347
#     4  11  23  40  63  85 120 162 207 243 295 365
#     4  11  22  39  62  91 121 150 194 255 308 346
#
# _framework density 20.141804
#
# number of rings (size 3 to 8) (size 9 to 14) (size 15 to 20)
#    0.000    2.000    0.000    3.000   10.000    0.000 
#    0.000    5.714    0.000    0.000    0.000    0.000 
#    0.000    0.000    0.000    0.000    0.000    0.000 
#
# Total GULP energy -693909.068157 kJ/mol
# GULP energy per Si atom -12391.233360 kJ/mol
# Density = 2.009596 g / cm^3
# Si number density = 20.141804 Si / 1000 Ang^3
#
#
#
# Elastic Constant Matrix: (Units=GPa)
#
#
# Indices 1 2 3 4 5 6 
#
# 1 77.8378 18.1169 36.9744 0.0000 0.0000 0.0000
# 2 18.1169 92.2526 19.7101 0.0000 0.0000 0.0000
# 3 36.9744 19.7101 86.8161 0.0000 0.0000 0.0000
# 4 0.0000 0.0000 0.0000 18.9950 0.0000 0.0000
# 5 0.0000 0.0000 0.0000 0.0000 29.8598 0.0000
# 6 0.0000 0.0000 0.0000 0.0000 0.0000 24.1695
#
#
#
# Elastic Compliance Matrix: (Units=1/GPa)
#
#
# Indices 1 2 3 4 5 6 
#
# 1 0.016390 -0.001815 -0.006568 0.000000 0.000000 0.000000
# 2 -0.001815 0.011593 -0.001859 0.000000 0.000000 0.000000
# 3 -0.006568 -0.001859 0.014738 0.000000 0.000000 0.000000
# 4 0.000000 0.000000 0.000000 0.052645 0.000000 0.000000
# 5 0.000000 0.000000 0.000000 0.000000 0.033490 0.000000
# 6 0.000000 0.000000 0.000000 0.000000 0.000000 0.041374
#
#
# Mechanical properties :
#
#
# Convention : Reuss Voigt Hill
#
# Bulk Modulus (GPa) = 44.97151 45.16768 45.06959
# Shear Modulus (GPa) = 25.23624 26.74522 25.99073
#
# Velocity S-wave (km/s) = 3.54351 3.64792 3.59609
# Velocity P-wave (km/s) = 6.25443 6.34165 6.29819
#
# Compressibility (1/GPa) = 0.02223630
#
# Stress axis : x y z
#
# Youngs Moduli (GPa) = 61.01379 86.25539 67.85198
#
# Poissons Ratio (x) = 0.15659 0.44566
# Poissons Ratio (y) = 0.11076 0.12613
# Poissons Ratio (z) = 0.40075 0.16034
#
# Static dielectric constant tensor:
#      x y z
#    x 3.706500 0.000000 0.000000 
#    y 0.000000 3.144650 0.000000 
#    z 0.000000 0.000000 3.386310 
# 
# 
# High freq. dielectric constant tensor:
#      x y z
#    x 1.795010 0.000000 0.000000 
#    y 0.000000 1.790630 0.000000 
#    z 0.000000 0.000000 1.772860 
# 
# From -- ./inp_files/17728.got.cif
#   From: 2010.03.12/outbox.cif.g09.slc.cpg/sg57_9_cif.got.tgz:17728.got - 2010.04.16 15:48:40.
