data_PCOD8233447
_publ_section_title
;
Structure prediction by ZEFSAII (Michael W. Deem and Ramdas Pophale) SiO2 
 PCOD8233447
Probable space group: P B C M
;
_chemical_formula_sum "Si O2"
_cell_formula_units_Z 48
_cell_length_a 28.171442
_cell_length_b 9.103710
_cell_length_c 9.287389
_cell_angle_alpha 90.000000
_cell_angle_beta 90.000000
_cell_angle_gamma 90.000000
_cell_volume 2381.886860
_symmetry_space_group_name_H-M "P B C M"
_symmetry_group_IT_number 57
_symmetry_cell_setting 'orthorhombic'
loop_
_space_group_symop_operation_xyz
x,y,z
-x,-y,1/2+z
x,1/2-y,-z
-x,1/2+y,1/2-z
-x,-y,-z
x,y,1/2-z
-x,1/2+y,z
x,1/2-y,1/2+z
loop_
_atom_site_type_symbol
_atom_site_label
_atom_site_fract_x
_atom_site_fract_y
_atom_site_fract_z
Si Si1 0.609040 0.914963 0.025194
Si Si2 0.961698 0.403261 0.417523
Si Si3 0.691387 0.118864 0.092977
Si Si4 0.798071 0.098891 0.422319
Si Si5 0.533638 0.652336 0.750000
Si Si6 0.869802 0.898340 0.917564
Si Si7 0.560795 0.985558 0.750000
O O1 0.560205 0.915750 0.113701
O O2 0.653790 0.987737 0.101388
O O3 0.626207 0.750000 0.000000
O O4 0.596253 0.004558 0.882752
O O5 0.956593 0.250000 0.500000
O O6 0.976534 0.377987 0.250000
O O7 0.912082 0.486072 0.426351
O O8 0.000000 0.500000 0.500000
O O9 0.698634 0.186034 0.250000
O O10 0.742988 0.065498 0.039468
O O11 0.669997 0.250000 0.000000
O O12 0.813902 0.250000 0.500000
O O13 0.808177 0.106630 0.250000
O O14 0.825449 0.964682 0.495845
O O15 0.535193 0.827956 0.750000
O O16 0.478543 0.611663 0.750000
O O17 0.856855 0.866091 0.750000
O O18 0.885161 0.750000 0.000000
#
# Coordination Sequence:
#
# PCOD8233447 Si02
#       7
#     8   8   8   8   4   8   4
#     4  10  21  38  57  81 114 149 187 233 286 345
#     4  11  24  41  64  93 128 168 213 260 313 368
#     4  10  22  39  60  87 117 150 192 240 290 347
#     4  10  21  39  62  88 119 157 199 249 304 362
#     4  10  20  38  56  78 112 146 184 236 283 342
#     4  11  24  41  62  92 126 164 208 256 307 365
#     4  10  22  34  56  84 108 146 188 228 287 342
#
# _framework density 20.152090999999999
#
# number of rings (size 3 to 8) (size 9 to 14) (size 15 to 20)
#    0.000    1.667    0.833    3.000    1.167    8.000 
#    0.000    0.000    0.000    0.000    0.000    0.000 
#    0.000    0.000    0.000    0.000    0.000    0.000 
#
# Total GULP energy -595152.959722 kJ/mol
# GULP energy per Si atom -12399.019994 kJ/mol
# Density = 2.010622 g / cm^3
# Si number density = 20.152091 Si / 1000 Ang^3
#
#
#
# Elastic Constant Matrix: (Units=GPa)
#
#
# Indices 1 2 3 4 5 6 
#
# 1 77.2338 36.6545 31.6144 0.0000 0.0000 0.0000
# 2 36.6545 95.9007 48.3126 0.0000 0.0000 0.0000
# 3 31.6144 48.3126 139.6692 0.0000 0.0000 0.0000
# 4 0.0000 0.0000 0.0000 43.6788 0.0000 0.0000
# 5 0.0000 0.0000 0.0000 0.0000 38.8812 0.0000
# 6 0.0000 0.0000 0.0000 0.0000 0.0000 35.8727
#
#
#
# Elastic Compliance Matrix: (Units=1/GPa)
#
#
# Indices 1 2 3 4 5 6 
#
# 1 0.016201 -0.005262 -0.001847 0.000000 0.000000 0.000000
# 2 -0.005262 0.014337 -0.003768 0.000000 0.000000 0.000000
# 3 -0.001847 -0.003768 0.008881 0.000000 0.000000 0.000000
# 4 0.000000 0.000000 0.000000 0.022894 0.000000 0.000000
# 5 0.000000 0.000000 0.000000 0.000000 0.025719 0.000000
# 6 0.000000 0.000000 0.000000 0.000000 0.000000 0.027876
#
#
# Mechanical properties :
#
#
# Convention : Reuss Voigt Hill
#
# Bulk Modulus (GPa) = 56.60863 60.66298 58.63580
# Shear Modulus (GPa) = 34.83068 36.76802 35.79935
#
# Velocity S-wave (km/s) = 4.16190 4.27608 4.21938
# Velocity P-wave (km/s) = 7.15870 7.38565 7.27306
#
# Compressibility (1/GPa) = 0.01766515
#
# Stress axis : x y z
#
# Youngs Moduli (GPa) = 61.72487 69.75012 112.59586
#
# Poissons Ratio (x) = 0.36700 0.20797
# Poissons Ratio (y) = 0.32478 0.42429
# Poissons Ratio (z) = 0.11401 0.26284
#
# Static dielectric constant tensor:
#      x y z
#    x 3.554410 0.000000 0.000000 
#    y 0.000000 3.572560 0.000000 
#    z 0.000000 0.000000 4.020270 
# 
# 
# High freq. dielectric constant tensor:
#      x y z
#    x 1.787850 0.000000 0.000000 
#    y 0.000000 1.780880 0.000000 
#    z 0.000000 0.000000 1.807850 
# 
# From -- ./inp_files/10154.got.cif
#   From: 2010.03.12/outbox.cif.g09.slc.cpg/sg57_6_cif.got.tgz:10154.got - 2010.04.16 15:48:40.
