data_PCOD8233071
_publ_section_title
;
Structure prediction by ZEFSAII (Michael W. Deem and Ramdas Pophale) SiO2 
 PCOD8233071
Probable space group: P B C M
;
_chemical_formula_sum "Si O2"
_cell_formula_units_Z 48
_cell_length_a 28.305782
_cell_length_b 9.011107
_cell_length_c 9.344826
_cell_angle_alpha 90.000000
_cell_angle_beta 90.000000
_cell_angle_gamma 90.000000
_cell_volume 2383.551410
_symmetry_space_group_name_H-M "P B C M"
_symmetry_group_IT_number 57
_symmetry_cell_setting 'orthorhombic'
loop_
_space_group_symop_operation_xyz
x,y,z
-x,-y,1/2+z
x,1/2-y,-z
-x,1/2+y,1/2-z
-x,-y,-z
x,y,1/2-z
-x,1/2+y,z
x,1/2-y,1/2+z
loop_
_atom_site_type_symbol
_atom_site_label
_atom_site_fract_x
_atom_site_fract_y
_atom_site_fract_z
Si Si1 0.142219 0.396171 0.411575
Si Si2 0.962705 0.902523 0.417383
Si Si3 0.701578 0.602183 0.413705
Si Si4 0.464336 0.589190 0.750000
Si Si5 0.405247 0.420963 0.522234
Si Si6 0.770312 0.400399 0.919700
Si Si7 0.562649 0.061607 0.250000
O O1 0.150721 0.250000 0.500000
O O2 0.147860 0.343345 0.250000
O O3 0.090251 0.469119 0.434167
O O4 0.182038 0.511877 0.453715
O O5 0.963341 0.750000 0.500000
O O6 0.976591 0.884605 0.250000
O O7 0.000000 0.000000 0.500000
O O8 0.714323 0.750000 0.500000
O O9 0.720661 0.612014 0.250000
O O10 0.645697 0.575477 0.404275
O O11 0.725170 0.471333 0.503151
O O12 0.443745 0.507585 0.613175
O O13 0.453904 0.766373 0.750000
O O14 0.519960 0.557359 0.750000
O O15 0.421492 0.250000 0.500000
O O16 0.403130 0.519369 0.379974
O O17 0.760711 0.381905 0.750000
O O18 0.779629 0.250000 0.000000
#
# Coordination Sequence:
#
# PCOD8233071 Si02
#       7
#     8   8   8   4   8   8   4
#     4   9  20  38  60  86 117 158 206 257 308 372
#     4  10  20  36  57  85 120 159 206 255 312 371
#     4  11  24  43  68  94 125 162 206 253 310 377
#     4  12  24  46  62  98 128 168 210 258 315 374
#     4  11  24  43  67  94 127 164 210 258 313 375
#     4  11  24  41  62  91 127 164 206 256 312 366
#     4  12  26  40  70  92 130 168 210 260 313 374
#
# _framework density 20.138017000000001
#
# number of rings (size 3 to 8) (size 9 to 14) (size 15 to 20)
#    0.000    1.333    0.833    4.500    4.667    5.333 
#    0.000    1.667    0.000    0.000    0.000    0.000 
#    0.000    0.000    0.000    0.000    0.000    0.000 
#
# Total GULP energy -595065.254534 kJ/mol
# GULP energy per Si atom -12397.192803 kJ/mol
# Density = 2.009218 g / cm^3
# Si number density = 20.138017 Si / 1000 Ang^3
#
#
#
# Elastic Constant Matrix: (Units=GPa)
#
#
# Indices 1 2 3 4 5 6 
#
# 1 65.5995 41.2622 35.4507 0.0000 0.0000 0.0000
# 2 41.2622 120.5223 49.3958 0.0000 0.0000 0.0000
# 3 35.4507 49.3958 141.3137 0.0000 0.0000 0.0000
# 4 0.0000 0.0000 0.0000 40.4696 0.0000 0.0000
# 5 0.0000 0.0000 0.0000 0.0000 11.5978 0.0000
# 6 0.0000 0.0000 0.0000 0.0000 0.0000 29.5447
#
#
#
# Elastic Compliance Matrix: (Units=1/GPa)
#
#
# Indices 1 2 3 4 5 6 
#
# 1 0.020562 -0.005749 -0.003149 0.000000 0.000000 0.000000
# 2 -0.005749 0.011292 -0.002505 0.000000 0.000000 0.000000
# 3 -0.003149 -0.002505 0.008742 0.000000 0.000000 0.000000
# 4 0.000000 0.000000 0.000000 0.024710 0.000000 0.000000
# 5 0.000000 0.000000 0.000000 0.000000 0.086223 0.000000
# 6 0.000000 0.000000 0.000000 0.000000 0.000000 0.033847
#
#
# Mechanical properties :
#
#
# Convention : Reuss Voigt Hill
#
# Bulk Modulus (GPa) = 56.20962 64.40586 60.30774
# Shear Modulus (GPa) = 23.35236 29.74422 26.54829
#
# Velocity S-wave (km/s) = 3.40901 3.84737 3.63480
# Velocity P-wave (km/s) = 6.59302 7.19639 6.90130
#
# Compressibility (1/GPa) = 0.01779055
#
# Stress axis : x y z
#
# Youngs Moduli (GPa) = 48.63394 88.55743 114.39143
#
# Poissons Ratio (x) = 0.50913 0.36018
# Poissons Ratio (y) = 0.27960 0.28654
# Poissons Ratio (z) = 0.15313 0.22183
#
# Static dielectric constant tensor:
#      x y z
#    x 5.079670 0.000000 0.000000 
#    y 0.000000 3.720410 0.000000 
#    z 0.000000 0.000000 15.314810 
# 
# 
# High freq. dielectric constant tensor:
#      x y z
#    x 1.793480 0.000000 0.000000 
#    y 0.000000 1.782140 0.000000 
#    z 0.000000 0.000000 1.808550 
# 
# From -- ./inp_files/10115.got.cif
#   From: 2010.03.12/outbox.cif.g09.slc.cpg/sg57_6_cif.got.tgz:10115.got - 2010.04.16 15:48:40.
