data_PCOD8233570
_publ_section_title
;
Structure prediction by ZEFSAII (Michael W. Deem and Ramdas Pophale) SiO2 
 PCOD8233570
Probable space group: P B C M
;
_chemical_formula_sum "Si O2"
_cell_formula_units_Z 48
_cell_length_a 16.165629
_cell_length_b 8.370082
_cell_length_c 17.028497
_cell_angle_alpha 90.000000
_cell_angle_beta 90.000000
_cell_angle_gamma 90.000000
_cell_volume 2304.085747
_symmetry_space_group_name_H-M "P B C M"
_symmetry_group_IT_number 57
_symmetry_cell_setting 'orthorhombic'
loop_
_space_group_symop_operation_xyz
x,y,z
-x,-y,1/2+z
x,1/2-y,-z
-x,1/2+y,1/2-z
-x,-y,-z
x,y,1/2-z
-x,1/2+y,z
x,1/2-y,1/2+z
loop_
_atom_site_type_symbol
_atom_site_label
_atom_site_fract_x
_atom_site_fract_y
_atom_site_fract_z
Si Si1 0.857589 0.089802 0.043769
Si Si2 0.020844 0.741063 0.162589
Si Si3 0.885454 0.956240 0.615482
Si Si4 0.590967 0.437003 0.483734
Si Si5 0.717436 0.634254 0.928408
Si Si6 0.302456 0.063200 0.340200
O O1 0.929386 0.128870 0.103485
O O2 0.786475 0.997461 0.091411
O O3 0.822877 0.250000 0.000000
O O4 0.892293 0.970517 0.977900
O O5 0.037320 0.679846 0.250000
O O6 0.922432 0.717493 0.140787
O O7 0.050336 0.922162 0.156091
O O8 0.791941 0.992809 0.643650
O O9 0.596662 0.250000 0.500000
O O10 0.500000 0.500000 0.500000
O O11 0.637425 0.534774 0.550277
O O12 0.631229 0.476111 0.397833
O O13 0.696045 0.745316 0.853915
O O14 0.746463 0.750000 0.000000
O O15 0.326821 0.025611 0.250000
#
# Coordination Sequence:
#
# PCOD8233570 Si02
#       6
#     8   8   8   8   8   8
#     4  10  21  38  60  88 122 168 225 275 327 405
#     4  11  24  37  55  85 125 171 225 284 341 388
#     4  11  23  42  59  86 129 178 228 282 339 401
#     4  11  23  45  75 104 134 176 219 266 333 414
#     4  10  20  38  65  93 126 168 216 262 325 403
#     4  11  24  43  68 100 140 177 222 286 345 393
#
# _framework density 20.832557999999999
#
# number of rings (size 3 to 8) (size 9 to 14) (size 15 to 20)
#    0.000    1.333    3.333    4.000    4.667    0.667 
#    0.000    4.167    0.000    0.000    0.000    0.000 
#    0.000    0.000    0.000    0.000    0.000    0.000 
#
# Total GULP energy -594798.777346 kJ/mol
# GULP energy per Si atom -12391.641195 kJ/mol
# Density = 2.078514 g / cm^3
# Si number density = 20.832558 Si / 1000 Ang^3
#
#
#
# Elastic Constant Matrix: (Units=GPa)
#
#
# Indices 1 2 3 4 5 6 
#
# 1 121.3569 47.8756 40.7145 0.0000 0.0000 0.0000
# 2 47.8756 106.2431 33.2550 0.0000 0.0000 0.0000
# 3 40.7145 33.2550 119.8263 0.0000 0.0000 0.0000
# 4 0.0000 0.0000 0.0000 26.2396 0.0000 0.0000
# 5 0.0000 0.0000 0.0000 0.0000 17.4463 0.0000
# 6 0.0000 0.0000 0.0000 0.0000 0.0000 45.6882
#
#
#
# Elastic Compliance Matrix: (Units=1/GPa)
#
#
# Indices 1 2 3 4 5 6 
#
# 1 0.010669 -0.004022 -0.002509 0.000000 0.000000 0.000000
# 2 -0.004022 0.011824 -0.001915 0.000000 0.000000 0.000000
# 3 -0.002509 -0.001915 0.009729 0.000000 0.000000 0.000000
# 4 0.000000 0.000000 0.000000 0.038110 0.000000 0.000000
# 5 0.000000 0.000000 0.000000 0.000000 0.057319 0.000000
# 6 0.000000 0.000000 0.000000 0.000000 0.000000 0.021887
#
#
# Mechanical properties :
#
#
# Convention : Reuss Voigt Hill
#
# Bulk Modulus (GPa) = 65.22960 65.67961 65.45460
# Shear Modulus (GPa) = 29.14763 32.91357 31.03060
#
# Velocity S-wave (km/s) = 3.74456 3.97912 3.86362
# Velocity P-wave (km/s) = 7.07637 7.25996 7.16875
#
# Compressibility (1/GPa) = 0.01533046
#
# Stress axis : x y z
#
# Youngs Moduli (GPa) = 93.73294 84.57168 102.78297
#
# Poissons Ratio (x) = 0.34017 0.25785
# Poissons Ratio (y) = 0.37702 0.19682
# Poissons Ratio (z) = 0.23515 0.16194
#
# Static dielectric constant tensor:
#      x y z
#    x 3.793690 0.000000 0.000000 
#    y 0.000000 4.134330 0.000000 
#    z 0.000000 0.000000 3.765650 
# 
# 
# High freq. dielectric constant tensor:
#      x y z
#    x 1.811160 0.000000 0.000000 
#    y 0.000000 1.826900 0.000000 
#    z 0.000000 0.000000 1.799730 
# 
# From -- ./inp_files/22458.got.cif
#   From: 2010.03.12/outbox.cif.g09.slc.cpg/sg57_12_cif.got.tgz:22458.got - 2010.04.16 15:48:40.
