data_PCOD8233201
_publ_section_title
;
Structure prediction by ZEFSAII (Michael W. Deem and Ramdas Pophale) SiO2 
 PCOD8233201
Probable space group: P B C M
;
_chemical_formula_sum "Si O2"
_cell_formula_units_Z 60
_cell_length_a 13.487071
_cell_length_b 9.071367
_cell_length_c 24.401557
_cell_angle_alpha 90.000000
_cell_angle_beta 90.000000
_cell_angle_gamma 90.000000
_cell_volume 2985.437060
_symmetry_space_group_name_H-M "P B C M"
_symmetry_group_IT_number 57
_symmetry_cell_setting 'orthorhombic'
loop_
_space_group_symop_operation_xyz
x,y,z
-x,-y,1/2+z
x,1/2-y,-z
-x,1/2+y,1/2-z
-x,-y,-z
x,y,1/2-z
-x,1/2+y,z
x,1/2-y,1/2+z
loop_
_atom_site_type_symbol
_atom_site_label
_atom_site_fract_x
_atom_site_fract_y
_atom_site_fract_z
Si Si1 0.177866 0.782136 0.688577
Si Si2 0.638609 0.666738 0.598760
Si Si3 0.768257 0.750000 0.000000
Si Si4 0.800859 0.876637 0.313160
Si Si5 0.380854 0.665795 0.813672
Si Si6 0.997865 0.328708 0.380458
Si Si7 0.500958 0.412795 0.631128
Si Si8 0.058800 0.081962 0.452926
O O1 0.152688 0.730487 0.750000
O O2 0.268859 0.687324 0.664060
O O3 0.080419 0.763688 0.653553
O O4 0.212850 0.949642 0.687975
O O5 0.704998 0.665053 0.545076
O O6 0.706307 0.687843 0.653597
O O7 0.581244 0.510088 0.598188
O O8 0.561472 0.802272 0.592540
O O9 0.829884 0.615553 0.027370
O O10 0.802203 0.815578 0.250000
O O11 0.902378 0.838134 0.344717
O O12 0.378228 0.638400 0.750000
O O13 0.445007 0.812097 0.824051
O O14 0.424012 0.521509 0.840853
O O15 0.015556 0.242991 0.437748
O O16 0.949519 0.485568 0.397063
O O17 0.000000 0.000000 0.500000
#
# Coordination Sequence:
#
# PCOD8233201 Si02
#       8
#     8   8   4   8   8   8   8   8
#     4  10  22  38  60  94 132 170 209 255 310 377
#     4  11  24  45  67  94 125 167 216 271 330 386
#     4  12  26  44  70  90 128 168 222 276 326 380
#     4  11  22  40  65  98 137 176 208 255 320 386
#     4  10  20  36  60  92 128 166 209 258 314 383
#     4  12  23  41  65  92 134 171 215 258 316 384
#     4  10  23  40  64  90 123 164 214 271 327 384
#     4  12  23  41  64  94 124 169 221 269 313 371
#
# _framework density 20.097559
#
# number of rings (size 3 to 8) (size 9 to 14) (size 15 to 20)
#    0.000    1.067    5.333    0.800    1.867    3.200 
#    0.000    1.333    0.000    0.000    0.000    0.000 
#    0.000    0.000    0.000    0.000    0.000    0.000 
#
# Total GULP energy -743850.402837 kJ/mol
# GULP energy per Si atom -12397.506714 kJ/mol
# Density = 2.005182 g / cm^3
# Si number density = 20.097559 Si / 1000 Ang^3
#
#
#
# Elastic Constant Matrix: (Units=GPa)
#
#
# Indices 1 2 3 4 5 6 
#
# 1 112.9884 29.1985 51.6927 0.0000 0.0000 0.0000
# 2 29.1985 84.5307 28.9085 0.0000 0.0000 0.0000
# 3 51.6927 28.9085 88.0996 0.0000 0.0000 0.0000
# 4 0.0000 0.0000 0.0000 25.0841 0.0000 0.0000
# 5 0.0000 0.0000 0.0000 0.0000 35.9387 0.0000
# 6 0.0000 0.0000 0.0000 0.0000 0.0000 36.8133
#
#
#
# Elastic Compliance Matrix: (Units=1/GPa)
#
#
# Indices 1 2 3 4 5 6 
#
# 1 0.012397 -0.002021 -0.006611 0.000000 0.000000 0.000000
# 2 -0.002021 0.013655 -0.003295 0.000000 0.000000 0.000000
# 3 -0.006611 -0.003295 0.016311 0.000000 0.000000 0.000000
# 4 0.000000 0.000000 0.000000 0.039866 0.000000 0.000000
# 5 0.000000 0.000000 0.000000 0.000000 0.027825 0.000000
# 6 0.000000 0.000000 0.000000 0.000000 0.000000 0.027164
#
#
# Mechanical properties :
#
#
# Convention : Reuss Voigt Hill
#
# Bulk Modulus (GPa) = 54.02680 56.13535 55.08107
# Shear Modulus (GPa) = 29.89679 31.28846 30.59263
#
# Velocity S-wave (km/s) = 3.86110 3.94995 3.90578
# Velocity P-wave (km/s) = 6.84238 6.98533 6.91422
#
# Compressibility (1/GPa) = 0.01850933
#
# Stress axis : x y z
#
# Youngs Moduli (GPa) = 80.66230 73.23339 61.30895
#
# Poissons Ratio (x) = 0.14804 0.40531
# Poissons Ratio (y) = 0.16305 0.20199
# Poissons Ratio (z) = 0.53325 0.24127
#
# Static dielectric constant tensor:
#      x y z
#    x 3.834890 0.000000 0.000000 
#    y 0.000000 3.796010 0.000000 
#    z 0.000000 0.000000 3.634410 
# 
# 
# High freq. dielectric constant tensor:
#      x y z
#    x 1.795590 0.000000 0.000000 
#    y 0.000000 1.789270 0.000000 
#    z 0.000000 0.000000 1.775820 
# 
# From -- ./inp_files/28629.got.cif
#   From: 2010.03.12/outbox.cif.g09.slc.cpg/sg57_15_cif.got.tgz:28629.got - 2010.04.16 15:48:40.
