data_PCOD8233466
_publ_section_title
;
Structure prediction by ZEFSAII (Michael W. Deem and Ramdas Pophale) SiO2 
 PCOD8233466
Probable space group: P B C M
;
_chemical_formula_sum "Si O2"
_cell_formula_units_Z 40
_cell_length_a 14.420023
_cell_length_b 8.607683
_cell_length_c 15.754401
_cell_angle_alpha 90.000000
_cell_angle_beta 90.000000
_cell_angle_gamma 90.000000
_cell_volume 1955.483308
_symmetry_space_group_name_H-M "P B C M"
_symmetry_group_IT_number 57
_symmetry_cell_setting 'orthorhombic'
loop_
_space_group_symop_operation_xyz
x,y,z
-x,-y,1/2+z
x,1/2-y,-z
-x,1/2+y,1/2-z
-x,-y,-z
x,y,1/2-z
-x,1/2+y,z
x,1/2-y,1/2+z
loop_
_atom_site_type_symbol
_atom_site_label
_atom_site_fract_x
_atom_site_fract_y
_atom_site_fract_z
Si Si1 0.229123 0.570643 0.910850
Si Si2 0.208300 0.562138 0.402700
Si Si3 0.916886 0.093385 0.250000
Si Si4 0.407605 0.524150 0.155817
Si Si5 0.572736 0.157504 0.912732
Si Si6 0.117503 0.540288 0.750000
O O1 0.218799 0.754193 0.903131
O O2 0.339890 0.538690 0.905182
O O3 0.175520 0.489307 0.833311
O O4 0.186441 0.507623 0.000419
O O5 0.303962 0.482323 0.373834
O O6 0.128466 0.517360 0.334949
O O7 0.903810 0.277666 0.250000
O O8 0.024758 0.058947 0.250000
O O9 0.423736 0.458684 0.250000
O O10 0.479309 0.442321 0.091911
O O11 0.423777 0.709989 0.159347
O O12 0.580622 0.250000 0.000000
#
# Coordination Sequence:
#
# PCOD8233466 Si02
#       6
#     8   8   4   8   8   4
#     4   9  18  34  56  84 104 148 190 230 262 342
#     4   9  17  34  58  77 109 147 188 218 279 339
#     4  10  20  38  59  80 106 142 179 238 279 350
#     4  11  21  34  55  86 113 154 191 231 277 335
#     4  11  21  35  56  83 118 150 197 230 276 333
#     4  10  22  36  61  82 108 136 189 236 293 328
#
# _framework density 20.455300999999999
#
# number of rings (size 3 to 8) (size 9 to 14) (size 15 to 20)
#    0.000    2.000    5.000    1.200    5.600    0.800 
#    0.000    2.000    0.000    0.000    0.000    0.000 
#    0.000    0.000    0.000    0.000    0.000    0.000 
#
# Total GULP energy -495828.258889 kJ/mol
# GULP energy per Si atom -12395.706472 kJ/mol
# Density = 2.040874 g / cm^3
# Si number density = 20.455301 Si / 1000 Ang^3
#
#
#
# Elastic Constant Matrix: (Units=GPa)
#
#
# Indices 1 2 3 4 5 6 
#
# 1 132.3990 16.1518 72.4908 0.0000 0.0000 0.0000
# 2 16.1518 15.6957 11.1905 0.0000 0.0000 0.0000
# 3 72.4908 11.1905 164.1393 0.0000 0.0000 0.0000
# 4 0.0000 0.0000 0.0000 13.3473 0.0000 0.0000
# 5 0.0000 0.0000 0.0000 0.0000 32.2570 0.0000
# 6 0.0000 0.0000 0.0000 0.0000 0.0000 29.1102
#
#
#
# Elastic Compliance Matrix: (Units=1/GPa)
#
#
# Indices 1 2 3 4 5 6 
#
# 1 0.010873 -0.008162 -0.004246 0.000000 0.000000 0.000000
# 2 -0.008162 0.073094 -0.001379 0.000000 0.000000 0.000000
# 3 -0.004246 -0.001379 0.008061 0.000000 0.000000 0.000000
# 4 0.000000 0.000000 0.000000 0.074921 0.000000 0.000000
# 5 0.000000 0.000000 0.000000 0.000000 0.031001 0.000000
# 6 0.000000 0.000000 0.000000 0.000000 0.000000 0.034352
#
#
# Mechanical properties :
#
#
# Convention : Reuss Voigt Hill
#
# Bulk Modulus (GPa) = 15.51451 56.87780 36.19615
# Shear Modulus (GPa) = 17.77077 29.10296 23.43686
#
# Velocity S-wave (km/s) = 2.95067 3.77604 3.38858
# Velocity P-wave (km/s) = 4.38288 6.84672 5.74836
#
# Compressibility (1/GPa) = 0.06445580
#
# Stress axis : x y z
#
# Youngs Moduli (GPa) = 91.96932 13.68104 124.04795
#
# Poissons Ratio (x) = 0.11167 0.52666
# Poissons Ratio (y) = 0.75067 0.17100
# Poissons Ratio (z) = 0.39046 0.01886
#
# Static dielectric constant tensor:
#      x y z
#    x 3.737720 0.000000 0.000000 
#    y 0.000000 3.153340 0.000000 
#    z 0.000000 0.000000 4.250330 
# 
# 
# High freq. dielectric constant tensor:
#      x y z
#    x 1.794580 0.000000 0.000000 
#    y 0.000000 1.739200 0.000000 
#    z 0.000000 0.000000 1.822330 
# 
# From -- ./inp_files/17457.got.cif
#   From: 2010.03.12/outbox.cif.g09.slc.cpg/sg57_9_cif.got.tgz:17457.got - 2010.04.16 15:48:40.
