data_PCOD8233619
_publ_section_title
;
Structure prediction by ZEFSAII (Michael W. Deem and Ramdas Pophale) SiO2 
 PCOD8233619
Probable space group: P B C M
;
_chemical_formula_sum "Si O2"
_cell_formula_units_Z 48
_cell_length_a 9.037747
_cell_length_b 15.320408
_cell_length_c 16.007574
_cell_angle_alpha 90.000000
_cell_angle_beta 90.000000
_cell_angle_gamma 90.000000
_cell_volume 2216.440254
_symmetry_space_group_name_H-M "P B C M"
_symmetry_group_IT_number 57
_symmetry_cell_setting 'orthorhombic'
loop_
_space_group_symop_operation_xyz
x,y,z
-x,-y,1/2+z
x,1/2-y,-z
-x,1/2+y,1/2-z
-x,-y,-z
x,y,1/2-z
-x,1/2+y,z
x,1/2-y,1/2+z
loop_
_atom_site_type_symbol
_atom_site_label
_atom_site_fract_x
_atom_site_fract_y
_atom_site_fract_z
Si Si1 0.629665 0.595198 0.654875
Si Si2 0.830919 0.255701 0.153274
Si Si3 0.194239 0.936553 0.600445
Si Si4 0.126164 0.061615 0.154137
Si Si5 0.682346 0.417077 0.081193
Si Si6 0.164520 0.252783 0.152207
O O1 0.576523 0.614947 0.750000
O O2 0.734502 0.510843 0.658055
O O3 0.492867 0.576512 0.593802
O O4 0.719388 0.677653 0.614558
O O5 0.817740 0.280786 0.250000
O O6 0.773348 0.157581 0.140325
O O7 0.728354 0.318022 0.098791
O O8 0.997870 0.268581 0.119026
O O9 0.269201 0.945383 0.510446
O O10 0.017645 0.953045 0.596198
O O11 0.070519 0.068742 0.250000
O O12 0.208333 0.152802 0.129912
O O13 0.239864 0.982788 0.145899
O O14 0.163964 0.269831 0.250000
#
# Coordination Sequence:
#
# PCOD8233619 Si02
#       6
#     8   8   8   8   8   8
#     4  11  22  39  61  88 122 164 203 243 300 372
#     4  10  20  39  64  87 111 154 208 255 299 361
#     4  11  23  40  60  86 121 160 204 258 308 354
#     4  10  20  39  64  90 117 158 211 256 297 360
#     4  12  24  37  57  91 128 157 195 257 316 360
#     4   8  18  36  61  86 111 147 201 251 289 343
#
# _framework density 21.656348000000001
#
# number of rings (size 3 to 8) (size 9 to 14) (size 15 to 20)
#    0.000    1.667    0.000    6.500    0.000    2.667 
#    0.000    7.500    0.000    0.000    0.000    0.000 
#    0.000    0.000    0.000    0.000    0.000    0.000 
#
# Total GULP energy -595283.267718 kJ/mol
# GULP energy per Si atom -12401.734744 kJ/mol
# Density = 2.160706 g / cm^3
# Si number density = 21.656348 Si / 1000 Ang^3
#
#
#
# Elastic Constant Matrix: (Units=GPa)
#
#
# Indices 1 2 3 4 5 6 
#
# 1 123.0052 71.3210 25.7887 0.0000 0.0000 0.0000
# 2 71.3210 138.6622 8.0226 0.0000 0.0000 0.0000
# 3 25.7887 8.0226 65.5919 0.0000 0.0000 0.0000
# 4 0.0000 0.0000 0.0000 20.2569 0.0000 0.0000
# 5 0.0000 0.0000 0.0000 0.0000 28.3361 0.0000
# 6 0.0000 0.0000 0.0000 0.0000 0.0000 20.0605
#
#
#
# Elastic Compliance Matrix: (Units=1/GPa)
#
#
# Indices 1 2 3 4 5 6 
#
# 1 0.012640 -0.006258 -0.004204 0.000000 0.000000 0.000000
# 2 -0.006258 0.010362 0.001193 0.000000 0.000000 0.000000
# 3 -0.004204 0.001193 0.016753 0.000000 0.000000 0.000000
# 4 0.000000 0.000000 0.000000 0.049366 0.000000 0.000000
# 5 0.000000 0.000000 0.000000 0.000000 0.035291 0.000000
# 6 0.000000 0.000000 0.000000 0.000000 0.000000 0.049849
#
#
# Mechanical properties :
#
#
# Convention : Reuss Voigt Hill
#
# Bulk Modulus (GPa) = 47.13413 59.72487 53.42950
# Shear Modulus (GPa) = 25.01629 28.53916 26.77772
#
# Velocity S-wave (km/s) = 3.40243 3.63412 3.52018
# Velocity P-wave (km/s) = 6.10305 6.72662 6.42241
#
# Compressibility (1/GPa) = 0.02121605
#
# Stress axis : x y z
#
# Youngs Moduli (GPa) = 79.11606 96.51082 59.69154
#
# Poissons Ratio (x) = 0.60396 0.25095
# Poissons Ratio (y) = 0.49511 -0.07122
# Poissons Ratio (z) = 0.33261 -0.11515
#
# Static dielectric constant tensor:
#      x y z
#    x 3.792390 0.000000 0.000000 
#    y 0.000000 4.083790 0.000000 
#    z 0.000000 0.000000 3.615380 
# 
# 
# High freq. dielectric constant tensor:
#      x y z
#    x 1.837280 0.000000 0.000000 
#    y 0.000000 1.868380 0.000000 
#    z 0.000000 0.000000 1.833090 
# 
# From -- ./inp_files/20979.got.cif
#   From: 2010.03.12/outbox.cif.g09.slc.cpg/sg57_11_cif.got.tgz:20979.got - 2010.04.16 15:48:40.
