data_PCOD8233242
_publ_section_title
;
Structure prediction by ZEFSAII (Michael W. Deem and Ramdas Pophale) SiO2 
 PCOD8233242
Probable space group: P B C M
;
_chemical_formula_sum "Si O2"
_cell_formula_units_Z 64
_cell_length_a 13.806625
_cell_length_b 9.859994
_cell_length_c 25.845460
_cell_angle_alpha 90.000000
_cell_angle_beta 90.000000
_cell_angle_gamma 90.000000
_cell_volume 3518.426200
_symmetry_space_group_name_H-M "P B C M"
_symmetry_group_IT_number 57
_symmetry_cell_setting 'orthorhombic'
loop_
_space_group_symop_operation_xyz
x,y,z
-x,-y,1/2+z
x,1/2-y,-z
-x,1/2+y,1/2-z
-x,-y,-z
x,y,1/2-z
-x,1/2+y,z
x,1/2-y,1/2+z
loop_
_atom_site_type_symbol
_atom_site_label
_atom_site_fract_x
_atom_site_fract_y
_atom_site_fract_z
Si Si1 0.904570 0.389073 0.810399
Si Si2 0.928630 0.418963 0.310035
Si Si3 0.706028 0.453080 0.864429
Si Si4 0.278865 0.990112 0.309449
Si Si5 0.577303 0.239148 0.811603
Si Si6 0.587295 0.868527 0.540529
Si Si7 0.363974 0.249964 0.852057
Si Si8 0.366686 0.891647 0.973457
O O1 0.880418 0.414493 0.750000
O O2 0.948197 0.239480 0.818986
O O3 0.807029 0.401375 0.842586
O O4 0.982406 0.495194 0.833663
O O5 0.925221 0.457579 0.250000
O O6 0.826136 0.464370 0.335760
O O7 0.619367 0.378276 0.834295
O O8 0.697492 0.613056 0.854497
O O9 0.704619 0.420749 0.925677
O O10 0.269436 0.948895 0.250000
O O11 0.311407 0.145982 0.313461
O O12 0.358858 0.887178 0.332890
O O13 0.573553 0.249472 0.750000
O O14 0.470881 0.214017 0.833337
O O15 0.596360 0.750000 0.500000
O O16 0.637480 0.824102 0.593014
O O17 0.474684 0.901841 0.550118
O O18 0.645100 0.997788 0.518752
O O19 0.341393 0.750000 0.000000
#
# Coordination Sequence:
#
# PCOD8233242 Si02
#       8
#     8   8   8   8   8   8   8   8
#     4  10  21  37  60  85 117 148 188 245 292 339
#     4   9  19  37  58  82 112 150 190 239 289 329
#     4  12  23  37  57  87 113 150 197 240 290 343
#     4  10  22  38  55  80 119 160 197 231 276 339
#     4  11  23  38  52  77 123 166 197 230 272 333
#     4  10  20  37  52  79 114 145 188 243 287 324
#     4  12  24  34  56  84 119 158 193 231 282 347
#     4  10  22  35  59  80 107 148 193 241 288 342
#
# _framework density 18.18995
#
# number of rings (size 3 to 8) (size 9 to 14) (size 15 to 20)
#    0.000    1.500    3.750    1.500    3.500    3.000 
#    0.000    0.000    0.000    0.000    0.000    4.375 
#    0.000    0.000    0.000    0.000    0.000    0.000 
#
# Total GULP energy -793745.117280 kJ/mol
# GULP energy per Si atom -12402.267457 kJ/mol
# Density = 1.814855 g / cm^3
# Si number density = 18.189950 Si / 1000 Ang^3
#
#
#
# Elastic Constant Matrix: (Units=GPa)
#
#
# Indices 1 2 3 4 5 6 
#
# 1 63.7814 33.7609 22.4331 0.0000 0.0000 0.0000
# 2 33.7609 115.2718 25.9323 0.0000 0.0000 0.0000
# 3 22.4331 25.9323 57.9982 0.0000 0.0000 0.0000
# 4 0.0000 0.0000 0.0000 20.9510 0.0000 0.0000
# 5 0.0000 0.0000 0.0000 0.0000 14.2154 0.0000
# 6 0.0000 0.0000 0.0000 0.0000 0.0000 26.3864
#
#
#
# Elastic Compliance Matrix: (Units=1/GPa)
#
#
# Indices 1 2 3 4 5 6 
#
# 1 0.020132 -0.004608 -0.005726 0.000000 0.000000 0.000000
# 2 -0.004608 0.010700 -0.003002 0.000000 0.000000 0.000000
# 3 -0.005726 -0.003002 0.020799 0.000000 0.000000 0.000000
# 4 0.000000 0.000000 0.000000 0.047730 0.000000 0.000000
# 5 0.000000 0.000000 0.000000 0.000000 0.070346 0.000000
# 6 0.000000 0.000000 0.000000 0.000000 0.000000 0.037898
#
#
# Mechanical properties :
#
#
# Convention : Reuss Voigt Hill
#
# Bulk Modulus (GPa) = 40.06692 44.58934 42.32813
# Shear Modulus (GPa) = 20.61024 22.63891 21.62457
#
# Velocity S-wave (km/s) = 3.36974 3.53169 3.45167
# Velocity P-wave (km/s) = 6.10041 6.41848 6.26146
#
# Compressibility (1/GPa) = 0.02495824
#
# Stress axis : x y z
#
# Youngs Moduli (GPa) = 49.67286 93.45748 48.07909
#
# Poissons Ratio (x) = 0.43065 0.27532
# Poissons Ratio (y) = 0.22889 0.14433
# Poissons Ratio (z) = 0.28445 0.28055
#
# Static dielectric constant tensor:
#      x y z
#    x 3.332760 0.000000 0.000000 
#    y 0.000000 3.544230 0.000000 
#    z 0.000000 0.000000 3.148270 
# 
# 
# High freq. dielectric constant tensor:
#      x y z
#    x 1.683520 0.000000 0.000000 
#    y 0.000000 1.725670 0.000000 
#    z 0.000000 0.000000 1.682220 
# 
# From -- ./inp_files/27485.got.cif
#   From: 2010.03.12/outbox.cif.g09.slc.cpg/sg57_14_cif.got.tgz:27485.got - 2010.04.16 15:48:40.
