data_PCOD8233614
_publ_section_title
;
Structure prediction by ZEFSAII (Michael W. Deem and Ramdas Pophale) SiO2 
 PCOD8233614
Probable space group: P B C M
;
_chemical_formula_sum "Si O2"
_cell_formula_units_Z 40
_cell_length_a 12.243371
_cell_length_b 18.659250
_cell_length_c 9.152947
_cell_angle_alpha 90.000000
_cell_angle_beta 90.000000
_cell_angle_gamma 90.000000
_cell_volume 2091.010149
_symmetry_space_group_name_H-M "P B C M"
_symmetry_group_IT_number 57
_symmetry_cell_setting 'orthorhombic'
loop_
_space_group_symop_operation_xyz
x,y,z
-x,-y,1/2+z
x,1/2-y,-z
-x,1/2+y,1/2-z
-x,-y,-z
x,y,1/2-z
-x,1/2+y,z
x,1/2-y,1/2+z
loop_
_atom_site_type_symbol
_atom_site_label
_atom_site_fract_x
_atom_site_fract_y
_atom_site_fract_z
Si Si1 0.937867 0.063697 0.078452
Si Si2 0.287080 0.939573 0.418590
Si Si3 0.335978 0.099492 0.081194
Si Si4 0.470602 0.676027 0.921105
Si Si5 0.885141 0.676349 0.417709
O O1 0.936022 0.047158 0.250000
O O2 0.001894 0.137042 0.043652
O O3 0.816284 0.073429 0.020423
O O4 0.000000 0.000000 0.000000
O O5 0.249025 0.938099 0.250000
O O6 0.372624 0.877878 0.455571
O O7 0.344484 0.015233 0.454233
O O8 0.364486 0.115182 0.250000
O O9 0.213932 0.123759 0.040453
O O10 0.417469 0.143278 0.979971
O O11 0.484534 0.690130 0.750000
O O12 0.442635 0.750000 0.000000
O O13 0.875467 0.750000 0.500000
O O14 0.879388 0.696806 0.250000
#
# Coordination Sequence:
#
# PCOD8233614 Si02
#       5
#     8   8   8   8   8
#     4  11  22  39  62  88 120 158 199 243 294 354
#     4  10  22  41  63  88 120 156 198 251 301 353
#     4  10  20  39  63  87 120 153 196 252 300 355
#     4  11  24  40  60  87 122 161 201 246 300 356
#     4  10  22  38  58  87 121 155 194 244 298 349
#
# _framework density 19.129508999999999
#
# number of rings (size 3 to 8) (size 9 to 14) (size 15 to 20)
#    0.000    1.600    2.000    2.400    0.000    7.200 
#    0.000    4.000    0.000    0.000    0.000    0.000 
#    0.000    0.000    0.000    0.000    0.000    0.000 
#
# Total GULP energy -496194.524991 kJ/mol
# GULP energy per Si atom -12404.863125 kJ/mol
# Density = 1.908597 g / cm^3
# Si number density = 19.129509 Si / 1000 Ang^3
#
#
#
# Elastic Constant Matrix: (Units=GPa)
#
#
# Indices 1 2 3 4 5 6 
#
# 1 67.1106 35.8412 37.6220 0.0000 0.0000 0.0000
# 2 35.8412 143.4231 57.0069 0.0000 0.0000 0.0000
# 3 37.6220 57.0069 80.1269 0.0000 0.0000 0.0000
# 4 0.0000 0.0000 0.0000 34.7465 0.0000 0.0000
# 5 0.0000 0.0000 0.0000 0.0000 37.9618 0.0000
# 6 0.0000 0.0000 0.0000 0.0000 0.0000 28.4474
#
#
#
# Elastic Compliance Matrix: (Units=1/GPa)
#
#
# Indices 1 2 3 4 5 6 
#
# 1 0.020557 -0.001814 -0.008362 0.000000 0.000000 0.000000
# 2 -0.001814 0.009881 -0.006179 0.000000 0.000000 0.000000
# 3 -0.008362 -0.006179 0.020802 0.000000 0.000000 0.000000
# 4 0.000000 0.000000 0.000000 0.028780 0.000000 0.000000
# 5 0.000000 0.000000 0.000000 0.000000 0.026342 0.000000
# 6 0.000000 0.000000 0.000000 0.000000 0.000000 0.035153
#
#
# Mechanical properties :
#
#
# Convention : Reuss Voigt Hill
#
# Bulk Modulus (GPa) = 53.95948 61.28896 57.62422
# Shear Modulus (GPa) = 27.71601 30.91050 29.31326
#
# Velocity S-wave (km/s) = 3.81052 4.02413 3.91878
# Velocity P-wave (km/s) = 6.90136 7.32803 7.11789
#
# Compressibility (1/GPa) = 0.01853242
#
# Stress axis : x y z
#
# Youngs Moduli (GPa) = 48.64535 101.19961 48.07171
#
# Poissons Ratio (x) = 0.18353 0.40197
# Poissons Ratio (y) = 0.08822 0.29702
# Poissons Ratio (z) = 0.40677 0.62529
#
# Static dielectric constant tensor:
#      x y z
#    x 3.682330 0.000000 0.000000 
#    y 0.000000 3.070110 0.000000 
#    z 0.000000 0.000000 3.988550 
# 
# 
# High freq. dielectric constant tensor:
#      x y z
#    x 1.750840 0.000000 0.000000 
#    y 0.000000 1.755780 0.000000 
#    z 0.000000 0.000000 1.747560 
# 
# From -- ./inp_files/2629.got.cif
#   From: 2010.03.12/outbox.cif.g09.slc.cpg/sg57_2_cif.got.tgz:2629.got - 2010.04.16 15:48:40.
