data_PCOD8233802
_publ_section_title
;
Structure prediction by ZEFSAII (Michael W. Deem and Ramdas Pophale) SiO2 
 PCOD8233802
Probable space group: P B C M
;
_chemical_formula_sum "Si O2"
_cell_formula_units_Z 40
_cell_length_a 22.254057
_cell_length_b 5.089563
_cell_length_c 16.914760
_cell_angle_alpha 90.000000
_cell_angle_beta 90.000000
_cell_angle_gamma 90.000000
_cell_volume 1915.823652
_symmetry_space_group_name_H-M "P B C M"
_symmetry_group_IT_number 57
_symmetry_cell_setting 'orthorhombic'
loop_
_space_group_symop_operation_xyz
x,y,z
-x,-y,1/2+z
x,1/2-y,-z
-x,1/2+y,1/2-z
-x,-y,-z
x,y,1/2-z
-x,1/2+y,z
x,1/2-y,1/2+z
loop_
_atom_site_type_symbol
_atom_site_label
_atom_site_fract_x
_atom_site_fract_y
_atom_site_fract_z
Si Si1 0.151046 0.998560 0.948380
Si Si2 0.660318 0.641574 0.159787
Si Si3 0.961373 0.964532 0.159002
Si Si4 0.737903 0.153127 0.159421
Si Si5 0.532185 0.720689 0.092552
O O1 0.205309 0.903406 0.894235
O O2 0.096131 0.091417 0.894313
O O3 0.130473 0.750000 0.000000
O O4 0.170993 0.250000 0.000000
O O5 0.642896 0.578709 0.250000
O O6 0.706048 0.418853 0.128420
O O7 0.600638 0.643510 0.108130
O O8 0.690366 0.922573 0.151102
O O9 0.941009 0.942378 0.250000
O O10 0.011842 0.749142 0.139399
O O11 0.759762 0.186274 0.250000
O O12 0.488553 0.497351 0.130173
O O13 0.521946 0.750000 0.000000
#
# Coordination Sequence:
#
# PCOD8233802 Si02
#       5
#     8   8   8   8   8
#     4  12  25  39  60  91 122 153 194 243 294 343
#     4  10  21  37  60  85 109 147 195 242 288 337
#     4  10  22  41  64  88 118 160 201 236 286 348
#     4  10  22  41  60  82 116 154 194 239 292 352
#     4  10  21  36  54  80 114 150 185 227 286 349
#
# _framework density 20.878748000000002
#
# number of rings (size 3 to 8) (size 9 to 14) (size 15 to 20)
#    0.000    1.600    0.000    4.200    0.000    5.600 
#    0.000    8.000    0.000    0.000    0.000    0.000 
#    0.000    0.000    0.000    0.000    0.000    0.000 
#
# Total GULP energy -496140.502921 kJ/mol
# GULP energy per Si atom -12403.512573 kJ/mol
# Density = 2.083123 g / cm^3
# Si number density = 20.878748 Si / 1000 Ang^3
#
#
#
# Elastic Constant Matrix: (Units=GPa)
#
#
# Indices 1 2 3 4 5 6 
#
# 1 99.8945 17.4969 46.9290 0.0000 0.0000 0.0000
# 2 17.4969 107.8779 37.0394 0.0000 0.0000 0.0000
# 3 46.9290 37.0394 57.0392 0.0000 0.0000 0.0000
# 4 0.0000 0.0000 0.0000 20.7196 0.0000 0.0000
# 5 0.0000 0.0000 0.0000 0.0000 36.6888 0.0000
# 6 0.0000 0.0000 0.0000 0.0000 0.0000 29.4320
#
#
#
# Elastic Compliance Matrix: (Units=1/GPa)
#
#
# Indices 1 2 3 4 5 6 
#
# 1 0.016871 0.002612 -0.015576 0.000000 0.000000 0.000000
# 2 0.002612 0.012334 -0.010158 0.000000 0.000000 0.000000
# 3 -0.015576 -0.010158 0.036944 0.000000 0.000000 0.000000
# 4 0.000000 0.000000 0.000000 0.048263 0.000000 0.000000
# 5 0.000000 0.000000 0.000000 0.000000 0.027256 0.000000
# 6 0.000000 0.000000 0.000000 0.000000 0.000000 0.033977
#
#
# Mechanical properties :
#
#
# Convention : Reuss Voigt Hill
#
# Bulk Modulus (GPa) = 50.24409 51.97137 51.10773
# Shear Modulus (GPa) = 21.87953 28.25782 25.06868
#
# Velocity S-wave (km/s) = 3.24069 3.68288 3.46884
# Velocity P-wave (km/s) = 6.17412 6.55979 6.36987
#
# Compressibility (1/GPa) = 0.01990284
#
# Stress axis : x y z
#
# Youngs Moduli (GPa) = 59.27456 81.07764 27.06829
#
# Poissons Ratio (x) = -0.21176 0.42163
# Poissons Ratio (y) = -0.15481 0.27496
# Poissons Ratio (z) = 0.92328 0.82359
#
# Static dielectric constant tensor:
#      x y z
#    x 3.546590 0.000000 0.000000 
#    y 0.000000 4.229790 0.000000 
#    z 0.000000 0.000000 3.830790 
# 
# 
# High freq. dielectric constant tensor:
#      x y z
#    x 1.817290 0.000000 0.000000 
#    y 0.000000 1.841160 0.000000 
#    z 0.000000 0.000000 1.809830 
# 
# From -- ./inp_files/22764.got.cif
#   From: 2010.03.12/outbox.cif.g09.slc.cpg/sg57_12_cif.got.tgz:22764.got - 2010.04.16 15:48:40.
