data_PCOD8233453
_publ_section_title
;
Structure prediction by ZEFSAII (Michael W. Deem and Ramdas Pophale) SiO2 
 PCOD8233453
Probable space group: P B C M
;
_chemical_formula_sum "Si O2"
_cell_formula_units_Z 48
_cell_length_a 28.196445
_cell_length_b 9.219704
_cell_length_c 9.142445
_cell_angle_alpha 90.000000
_cell_angle_beta 90.000000
_cell_angle_gamma 90.000000
_cell_volume 2376.696303
_symmetry_space_group_name_H-M "P B C M"
_symmetry_group_IT_number 57
_symmetry_cell_setting 'orthorhombic'
loop_
_space_group_symop_operation_xyz
x,y,z
-x,-y,1/2+z
x,1/2-y,-z
-x,1/2+y,1/2-z
-x,-y,-z
x,y,1/2-z
-x,1/2+y,z
x,1/2-y,1/2+z
loop_
_atom_site_type_symbol
_atom_site_label
_atom_site_fract_x
_atom_site_fract_y
_atom_site_fract_z
Si Si1 0.609522 0.912204 0.026337
Si Si2 0.958345 0.406976 0.428861
Si Si3 0.694734 0.108819 0.089138
Si Si4 0.773074 0.896657 0.419088
Si Si5 0.532543 0.660526 0.750000
Si Si6 0.882647 0.901645 0.077069
Si Si7 0.559713 0.985672 0.750000
O O1 0.559984 0.902048 0.111386
O O2 0.650155 0.001549 0.106070
O O3 0.629516 0.750000 0.000000
O O4 0.596106 0.000233 0.882460
O O5 0.963368 0.250000 0.500000
O O6 0.960501 0.403277 0.250000
O O7 0.909242 0.473764 0.486871
O O8 0.000000 0.500000 0.500000
O O9 0.709308 0.161275 0.250000
O O10 0.739668 0.024703 0.017750
O O11 0.680920 0.250000 0.000000
O O12 0.759690 0.750000 0.500000
O O13 0.761433 0.870684 0.250000
O O14 0.827587 0.939394 0.443325
O O15 0.531718 0.834046 0.750000
O O16 0.477933 0.614853 0.750000
O O17 0.896742 0.896679 0.250000
O O18 0.895712 0.750000 0.000000
#
# Coordination Sequence:
#
# PCOD8233453 Si02
#       7
#     8   8   8   8   4   8   4
#     4  10  21  39  60  82 113 150 192 233 283 343
#     4  12  25  42  63  90 125 166 212 259 312 366
#     4  11  24  40  58  85 118 151 193 243 294 345
#     4   9  20  39  63  90 120 157 199 244 293 356
#     4  10  20  38  56  86 112 150 180 238 275 346
#     4  10  20  38  63  92 125 161 204 251 304 361
#     4  10  22  34  60  84 114 144 190 222 291 338
#
# _framework density 20.196102
#
# number of rings (size 3 to 8) (size 9 to 14) (size 15 to 20)
#    0.000    1.667    0.833    3.500    1.167    3.333 
#    0.000    1.667    0.000    0.000    0.000    0.000 
#    0.000    0.000    0.000    0.000    0.000    0.000 
#
# Total GULP energy -595107.986515 kJ/mol
# GULP energy per Si atom -12398.083052 kJ/mol
# Density = 2.015013 g / cm^3
# Si number density = 20.196102 Si / 1000 Ang^3
#
#
#
# Elastic Constant Matrix: (Units=GPa)
#
#
# Indices 1 2 3 4 5 6 
#
# 1 82.7690 49.0607 27.4623 0.0000 0.0000 0.0000
# 2 49.0607 112.9623 39.7247 0.0000 0.0000 0.0000
# 3 27.4623 39.7247 120.4370 0.0000 0.0000 0.0000
# 4 0.0000 0.0000 0.0000 33.1903 0.0000 0.0000
# 5 0.0000 0.0000 0.0000 0.0000 -24.3892 0.0000
# 6 0.0000 0.0000 0.0000 0.0000 0.0000 37.0847
#
#
#
# Elastic Compliance Matrix: (Units=1/GPa)
#
#
# Indices 1 2 3 4 5 6 
#
# 1 0.016534 -0.006623 -0.001585 0.000000 0.000000 0.000000
# 2 -0.006623 0.012667 -0.002668 0.000000 0.000000 0.000000
# 3 -0.001585 -0.002668 0.009545 0.000000 0.000000 0.000000
# 4 0.000000 0.000000 0.000000 0.030129 0.000000 0.000000
# 5 0.000000 0.000000 0.000000 0.000000 -0.041002 0.000000
# 6 0.000000 0.000000 0.000000 0.000000 0.000000 0.026965
#
#
# Mechanical properties :
#
#
# Convention : Reuss Voigt Hill
#
# Bulk Modulus (GPa) = 58.84985 60.96264 59.90624
# Shear Modulus (GPa) = 60.78605 22.50520 41.64562
#
# Velocity S-wave (km/s) = 5.49211 3.34179 4.54592
# Velocity P-wave (km/s) = 8.33187 6.71870 7.56839
#
# Compressibility (1/GPa) = 0.01699240
#
# Stress axis : x y z
#
# Youngs Moduli (GPa) = 60.48242 78.94376 104.77140
#
# Poissons Ratio (x) = 0.52286 0.16611
# Poissons Ratio (y) = 0.40059 0.27952
# Poissons Ratio (z) = 0.09589 0.21061
#
# Static dielectric constant tensor:
#      x y z
#    x 3.633500 0.000000 0.000000 
#    y 0.000000 3.599300 0.000000 
#    z 0.000000 0.000000 3.738240 
# 
# 
# High freq. dielectric constant tensor:
#      x y z
#    x 1.793880 0.000000 0.000000 
#    y 0.000000 1.783550 0.000000 
#    z 0.000000 0.000000 1.800830 
# 
# From -- ./inp_files/10155.got.cif
#   From: 2010.03.12/outbox.cif.g09.slc.cpg/sg57_6_cif.got.tgz:10155.got - 2010.04.16 15:48:40.
