data_PCOD8233262
_publ_section_title
;
Structure prediction by ZEFSAII (Michael W. Deem and Ramdas Pophale) SiO2 
 PCOD8233262
Probable space group: P B C M
;
_chemical_formula_sum "Si O2"
_cell_formula_units_Z 64
_cell_length_a 11.189872
_cell_length_b 29.608791
_cell_length_c 9.993501
_cell_angle_alpha 90.000000
_cell_angle_beta 90.000000
_cell_angle_gamma 90.000000
_cell_volume 3311.032574
_symmetry_space_group_name_H-M "P B C M"
_symmetry_group_IT_number 57
_symmetry_cell_setting 'orthorhombic'
loop_
_space_group_symop_operation_xyz
x,y,z
-x,-y,1/2+z
x,1/2-y,-z
-x,1/2+y,1/2-z
-x,-y,-z
x,y,1/2-z
-x,1/2+y,z
x,1/2-y,1/2+z
loop_
_atom_site_type_symbol
_atom_site_label
_atom_site_fract_x
_atom_site_fract_y
_atom_site_fract_z
Si Si1 0.082442 0.111757 0.102023
Si Si2 0.721267 0.206622 0.589322
Si Si3 0.191206 0.872568 0.901128
Si Si4 0.730422 0.869368 0.096601
Si Si5 0.323685 0.960666 0.978882
Si Si6 0.555507 0.787169 0.101395
Si Si7 0.577947 0.948570 0.395771
Si Si8 0.895375 0.509058 0.102398
O O1 0.103831 0.132345 0.250000
O O2 0.136097 0.061600 0.094426
O O3 0.942452 0.111015 0.068754
O O4 0.152705 0.141675 0.992598
O O5 0.762575 0.250000 0.500000
O O6 0.756014 0.210473 0.750000
O O7 0.778769 0.162956 0.518172
O O8 0.580670 0.199597 0.572904
O O9 0.203015 0.851879 0.750000
O O10 0.275499 0.916797 0.902378
O O11 0.773243 0.875391 0.250000
O O12 0.635324 0.830363 0.080225
O O13 0.667774 0.913890 0.031449
O O14 0.362839 0.001899 0.883522
O O15 0.444524 0.946847 0.051441
O O16 0.222642 0.979194 0.078862
O O17 0.568473 0.767053 0.250000
O O18 0.603269 0.750000 0.000000
O O19 0.566176 0.927337 0.250000
O O20 0.943607 0.496606 0.250000
O O21 0.000000 0.500000 0.000000
#
# Coordination Sequence:
#
# PCOD8233262 Si02
#       8
#     8   8   8   8   8   8   8   8
#     4  10  22  39  55  80 115 152 195 242 284 333
#     4  10  21  40  66  93 121 150 186 234 291 351
#     4  11  23  39  59  85 118 155 197 243 290 343
#     4  10  20  37  58  82 113 151 192 235 287 346
#     4  11  21  36  56  82 116 156 199 241 292 348
#     4   9  19  36  60  89 118 146 183 232 286 346
#     4  10  21  35  53  80 115 153 193 242 295 349
#     4  11  22  37  57  80 112 154 200 246 290 338
#
# _framework density 19.329318000000001
#
# number of rings (size 3 to 8) (size 9 to 14) (size 15 to 20)
#    0.000    1.750    2.500    1.875    0.000    4.500 
#    0.000    2.500    0.000    1.500    0.000    0.000 
#    0.000    0.000    0.000    0.000    0.000    0.000 
#
# Total GULP energy -793070.970402 kJ/mol
# GULP energy per Si atom -12391.733913 kJ/mol
# Density = 1.928532 g / cm^3
# Si number density = 19.329318 Si / 1000 Ang^3
#
#
#
# Elastic Constant Matrix: (Units=GPa)
#
#
# Indices 1 2 3 4 5 6 
#
# 1 99.9785 40.2023 60.9998 0.0000 0.0000 0.0000
# 2 40.2023 78.7611 49.1615 0.0000 0.0000 0.0000
# 3 60.9998 49.1615 130.6614 0.0000 0.0000 0.0000
# 4 0.0000 0.0000 0.0000 27.4938 0.0000 0.0000
# 5 0.0000 0.0000 0.0000 0.0000 -2.3952 0.0000
# 6 0.0000 0.0000 0.0000 0.0000 0.0000 17.2829
#
#
#
# Elastic Compliance Matrix: (Units=1/GPa)
#
#
# Indices 1 2 3 4 5 6 
#
# 1 0.015024 -0.004301 -0.005396 0.000000 0.000000 0.000000
# 2 -0.004301 0.017825 -0.004699 0.000000 0.000000 0.000000
# 3 -0.005396 -0.004699 0.011940 0.000000 0.000000 0.000000
# 4 0.000000 0.000000 0.000000 0.036372 0.000000 0.000000
# 5 0.000000 0.000000 0.000000 0.000000 -0.417494 0.000000
# 6 0.000000 0.000000 0.000000 0.000000 0.000000 0.057861
#
#
# Mechanical properties :
#
#
# Convention : Reuss Voigt Hill
#
# Bulk Modulus (GPa) = 62.50649 67.79202 65.14925
# Shear Modulus (GPa) = -20.46245 19.07880 -0.69183
#
# Velocity S-wave (km/s) = -3.25718 3.14513 -0.59891
# Velocity P-wave (km/s) = 4.27344 6.95251 5.77060
#
# Compressibility (1/GPa) = 0.01599834
#
# Stress axis : x y z
#
# Youngs Moduli (GPa) = 66.56227 56.10190 83.74999
#
# Poissons Ratio (x) = 0.24127 0.45189
# Poissons Ratio (y) = 0.28626 0.39353
# Poissons Ratio (z) = 0.35915 0.26361
#
# Static dielectric constant tensor:
#      x y z
#    x 3.518310 0.000000 0.000000 
#    y 0.000000 3.461210 0.000000 
#    z 0.000000 0.000000 3.910770 
# 
# 
# High freq. dielectric constant tensor:
#      x y z
#    x 1.753710 0.000000 0.000000 
#    y 0.000000 1.740240 0.000000 
#    z 0.000000 0.000000 1.757050 
# 
# From -- ./inp_files/3766.got.cif
#   From: 2010.03.12/outbox.cif.g09.slc.cpg/sg57_2_cif.got.tgz:3766.got - 2010.04.16 15:48:40.
