data_PCOD8233017
_publ_section_title
;
Structure prediction by ZEFSAII (Michael W. Deem and Ramdas Pophale) SiO2 
 PCOD8233017
Probable space group: P B C M
;
_chemical_formula_sum "Si O2"
_cell_formula_units_Z 40
_cell_length_a 9.364817
_cell_length_b 25.849015
_cell_length_c 8.607136
_cell_angle_alpha 90.000000
_cell_angle_beta 90.000000
_cell_angle_gamma 90.000000
_cell_volume 2083.540559
_symmetry_space_group_name_H-M "P B C M"
_symmetry_group_IT_number 57
_symmetry_cell_setting 'orthorhombic'
loop_
_space_group_symop_operation_xyz
x,y,z
-x,-y,1/2+z
x,1/2-y,-z
-x,1/2+y,1/2-z
-x,-y,-z
x,y,1/2-z
-x,1/2+y,z
x,1/2-y,1/2+z
loop_
_atom_site_type_symbol
_atom_site_label
_atom_site_fract_x
_atom_site_fract_y
_atom_site_fract_z
Si Si1 0.663787 0.590214 0.932321
Si Si2 0.842682 0.500308 0.433334
Si Si3 0.667543 0.698596 0.077164
Si Si4 0.670043 0.199745 0.418960
Si Si5 0.645069 0.412374 0.564611
O O1 0.681532 0.580065 0.750000
O O2 0.772392 0.555049 0.028267
O O3 0.703600 0.649309 0.971042
O O4 0.504362 0.574786 0.982797
O O5 0.842683 0.490394 0.250000
O O6 0.758426 0.455077 0.520073
O O7 0.000000 0.500000 0.500000
O O8 0.731803 0.690934 0.250000
O O9 0.499126 0.706113 0.089909
O O10 0.735649 0.750000 0.000000
O O11 0.739086 0.250000 0.500000
O O12 0.740158 0.199659 0.250000
O O13 0.702450 0.143774 0.496974
O O14 0.619563 0.410249 0.750000
#
# Coordination Sequence:
#
# PCOD8233017 Si02
#       5
#     8   8   8   8   8
#     4  11  21  35  56  83 112 145 182 224 270 321
#     4  12  25  41  58  78 105 141 181 226 277 331
#     4   9  16  28  47  76 110 143 177 219 267 318
#     4   8  15  26  45  73 107 139 171 211 258 307
#     4  10  20  36  56  82 112 144 181 224 269 319
#
# _framework density 19.198091000000002
#
# number of rings (size 3 to 8) (size 9 to 14) (size 15 to 20)
#    0.000    2.000    0.000    6.600    0.000    5.600 
#    0.000    0.000    0.000    1.200    0.000    5.600 
#    0.000    0.000    0.000    0.000    0.000    0.000 
#
# Total GULP energy -495849.541343 kJ/mol
# GULP energy per Si atom -12396.238534 kJ/mol
# Density = 1.915440 g / cm^3
# Si number density = 19.198091 Si / 1000 Ang^3
#
#
#
# Elastic Constant Matrix: (Units=GPa)
#
#
# Indices 1 2 3 4 5 6 
#
# 1 60.4282 42.1174 6.2922 0.0000 0.0000 0.0000
# 2 42.1174 130.5484 16.1794 0.0000 0.0000 0.0000
# 3 6.2922 16.1794 80.3875 0.0000 0.0000 0.0000
# 4 0.0000 0.0000 0.0000 35.7360 0.0000 0.0000
# 5 0.0000 0.0000 0.0000 0.0000 21.4263 0.0000
# 6 0.0000 0.0000 0.0000 0.0000 0.0000 -2.3655
#
#
#
# Elastic Compliance Matrix: (Units=1/GPa)
#
#
# Indices 1 2 3 4 5 6 
#
# 1 0.021356 -0.006854 -0.000292 0.000000 0.000000 0.000000
# 2 -0.006854 0.010055 -0.001487 0.000000 0.000000 0.000000
# 3 -0.000292 -0.001487 0.012762 0.000000 0.000000 0.000000
# 4 0.000000 0.000000 0.000000 0.027983 0.000000 0.000000
# 5 0.000000 0.000000 0.000000 0.000000 0.046672 0.000000
# 6 0.000000 0.000000 0.000000 0.000000 0.000000 -0.422735
#
#
# Mechanical properties :
#
#
# Convention : Reuss Voigt Hill
#
# Bulk Modulus (GPa) = 37.16515 44.50468 40.83492
# Shear Modulus (GPa) = -18.00686 24.74436 3.36875
#
# Velocity S-wave (km/s) = -3.06592 3.59402 1.32610
# Velocity P-wave (km/s) = 2.62062 6.36041 4.86428
#
# Compressibility (1/GPa) = 0.02690693
#
# Stress axis : x y z
#
# Youngs Moduli (GPa) = 46.82562 99.44873 78.35781
#
# Poissons Ratio (x) = 0.68158 0.02289
# Poissons Ratio (y) = 0.32092 0.11655
# Poissons Ratio (z) = 0.01368 0.14792
#
# Static dielectric constant tensor:
#      x y z
#    x 3.007880 0.000000 0.000000 
#    y 0.000000 3.876200 0.000000 
#    z 0.000000 0.000000 3.790990 
# 
# 
# High freq. dielectric constant tensor:
#      x y z
#    x 1.687680 0.000000 0.000000 
#    y 0.000000 1.772230 0.000000 
#    z 0.000000 0.000000 1.758310 
# 
# From -- ./inp_files/1523.got.cif
#   From: 2010.03.12/outbox.cif.g09.slc.cpg/sg57_1_cif.got.tgz:1523.got - 2010.04.16 15:48:40.
