data_PCOD8233498
_publ_section_title
;
Structure prediction by ZEFSAII (Michael W. Deem and Ramdas Pophale) SiO2 
 PCOD8233498
Probable space group: P B C M
;
_chemical_formula_sum "Si O2"
_cell_formula_units_Z 48
_cell_length_a 8.062586
_cell_length_b 34.309935
_cell_length_c 8.408953
_cell_angle_alpha 90.000000
_cell_angle_beta 90.000000
_cell_angle_gamma 90.000000
_cell_volume 2326.141773
_symmetry_space_group_name_H-M "P B C M"
_symmetry_group_IT_number 57
_symmetry_cell_setting 'orthorhombic'
loop_
_space_group_symop_operation_xyz
x,y,z
-x,-y,1/2+z
x,1/2-y,-z
-x,1/2+y,1/2-z
-x,-y,-z
x,y,1/2-z
-x,1/2+y,z
x,1/2-y,1/2+z
loop_
_atom_site_type_symbol
_atom_site_label
_atom_site_fract_x
_atom_site_fract_y
_atom_site_fract_z
Si Si1 0.302189 0.571672 0.570072
Si Si2 0.030455 0.293264 0.939213
Si Si3 0.362029 0.423241 0.929003
Si Si4 0.275706 0.846109 0.938985
Si Si5 0.350143 0.336805 0.569300
Si Si6 0.822085 0.993992 0.066269
O O1 0.241187 0.564295 0.750000
O O2 0.499100 0.576125 0.564430
O O3 0.221400 0.611286 0.503018
O O4 0.272930 0.534202 0.460309
O O5 0.035526 0.295047 0.750000
O O6 0.205309 0.310175 0.010715
O O7 0.867361 0.316789 0.999358
O O8 0.007304 0.250000 0.000000
O O9 0.435931 0.427615 0.750000
O O10 0.277464 0.380760 0.942738
O O11 0.238236 0.458098 0.960783
O O12 0.284126 0.848752 0.750000
O O13 0.461240 0.833623 0.004167
O O14 0.367229 0.323011 0.750000
O O15 0.816861 0.982280 0.250000
O O16 0.000000 0.000000 0.000000
#
# Coordination Sequence:
#
# PCOD8233498 Si02
#       6
#     8   8   8   8   8   8
#     4  11  22  38  59  85 115 152 196 244 296 350
#     4  10  21  37  58  85 115 150 187 235 295 357
#     4  10  20  38  61  84 112 153 199 245 295 349
#     4   9  19  37  60  83 113 154 196 240 294 352
#     4   8  17  35  58  83 111 148 192 234 286 349
#     4  12  25  39  55  83 119 156 198 245 295 347
#
# _framework density 20.635028999999999
#
# number of rings (size 3 to 8) (size 9 to 14) (size 15 to 20)
#    0.000    2.000    0.000    5.000    2.333    1.333 
#    0.000    4.167    0.000    0.000    0.000    0.000 
#    0.000    0.000    0.000    0.000    0.000    0.000 
#
# Total GULP energy -594743.669769 kJ/mol
# GULP energy per Si atom -12390.493120 kJ/mol
# Density = 2.058806 g / cm^3
# Si number density = 20.635029 Si / 1000 Ang^3
#
#
#
# Elastic Constant Matrix: (Units=GPa)
#
#
# Indices 1 2 3 4 5 6 
#
# 1 94.4797 37.2790 16.4758 0.0000 0.0000 0.0000
# 2 37.2790 94.9603 21.3274 0.0000 0.0000 0.0000
# 3 16.4758 21.3274 48.7935 0.0000 0.0000 0.0000
# 4 0.0000 0.0000 0.0000 31.2611 0.0000 0.0000
# 5 0.0000 0.0000 0.0000 0.0000 16.9134 0.0000
# 6 0.0000 0.0000 0.0000 0.0000 0.0000 40.4648
#
#
#
# Elastic Compliance Matrix: (Units=1/GPa)
#
#
# Indices 1 2 3 4 5 6 
#
# 1 0.012763 -0.004482 -0.002350 0.000000 0.000000 0.000000
# 2 -0.004482 0.013251 -0.004279 0.000000 0.000000 0.000000
# 3 -0.002350 -0.004279 0.023158 0.000000 0.000000 0.000000
# 4 0.000000 0.000000 0.000000 0.031989 0.000000 0.000000
# 5 0.000000 0.000000 0.000000 0.000000 0.059125 0.000000
# 6 0.000000 0.000000 0.000000 0.000000 0.000000 0.024713
#
#
# Mechanical properties :
#
#
# Convention : Reuss Voigt Hill
#
# Bulk Modulus (GPa) = 37.10598 43.15532 40.13065
# Shear Modulus (GPa) = 25.48361 28.60461 27.04411
#
# Velocity S-wave (km/s) = 3.51802 3.72723 3.62414
# Velocity P-wave (km/s) = 5.87563 6.28347 6.08297
#
# Compressibility (1/GPa) = 0.02694984
#
# Stress axis : x y z
#
# Youngs Moduli (GPa) = 78.35273 75.46396 43.18119
#
# Poissons Ratio (x) = 0.33827 0.10149
# Poissons Ratio (y) = 0.35122 0.18475
# Poissons Ratio (z) = 0.18415 0.32287
#
# Static dielectric constant tensor:
#      x y z
#    x 3.912980 0.000000 0.000000 
#    y 0.000000 3.614680 0.000000 
#    z 0.000000 0.000000 3.530110 
# 
# 
# High freq. dielectric constant tensor:
#      x y z
#    x 1.808530 0.000000 0.000000 
#    y 0.000000 1.811640 0.000000 
#    z 0.000000 0.000000 1.783330 
# 
# From -- ./inp_files/2049.got.cif
#   From: 2010.03.12/outbox.cif.g09.slc.cpg/sg57_2_cif.got.tgz:2049.got - 2010.04.16 15:48:40.
