data_PCOD8233616
_publ_section_title
;
Structure prediction by ZEFSAII (Michael W. Deem and Ramdas Pophale) SiO2 
 PCOD8233616
Probable space group: P B C M
;
_chemical_formula_sum "Si O2"
_cell_formula_units_Z 40
_cell_length_a 15.627127
_cell_length_b 7.615678
_cell_length_c 16.659965
_cell_angle_alpha 90.000000
_cell_angle_beta 90.000000
_cell_angle_gamma 90.000000
_cell_volume 1982.721882
_symmetry_space_group_name_H-M "P B C M"
_symmetry_group_IT_number 57
_symmetry_cell_setting 'orthorhombic'
loop_
_space_group_symop_operation_xyz
x,y,z
-x,-y,1/2+z
x,1/2-y,-z
-x,1/2+y,1/2-z
-x,-y,-z
x,y,1/2-z
-x,1/2+y,z
x,1/2-y,1/2+z
loop_
_atom_site_type_symbol
_atom_site_label
_atom_site_fract_x
_atom_site_fract_y
_atom_site_fract_z
Si Si1 0.428440 0.441873 0.157043
Si Si2 0.035973 0.631554 0.563540
Si Si3 0.302371 0.366707 0.843694
Si Si4 0.108433 0.342247 0.656946
Si Si5 0.398242 0.687625 0.909494
O O1 0.451889 0.416121 0.250000
O O2 0.361349 0.294875 0.128251
O O3 0.391417 0.637869 0.145201
O O4 0.513454 0.416596 0.104735
O O5 0.090237 0.750000 0.500000
O O6 0.094497 0.546113 0.631992
O O7 0.000000 0.500000 0.500000
O O8 0.955041 0.722246 0.606396
O O9 0.314281 0.406916 0.750000
O O10 0.206713 0.299940 0.862720
O O11 0.323373 0.547917 0.889906
O O12 0.087273 0.317128 0.750000
O O13 0.389887 0.750000 0.000000
#
# Coordination Sequence:
#
# PCOD8233616 Si02
#       5
#     8   8   8   8   8
#     4  11  22  40  65  85 120 171 211 253 310 368
#     4   9  19  38  60  87 118 155 192 240 315 376
#     4  10  23  41  61  90 123 163 214 258 304 367
#     4  10  20  39  63  89 119 156 205 253 298 368
#     4  12  24  39  60  93 125 164 210 260 311 365
#
# _framework density 20.174285999999999
#
# number of rings (size 3 to 8) (size 9 to 14) (size 15 to 20)
#    0.000    1.600    2.000    3.000    0.000    0.800 
#   18.000    0.000    0.000    0.000    0.000    0.000 
#    0.000    0.000    0.000    0.000    0.000    0.000 
#
# Total GULP energy -495660.165740 kJ/mol
# GULP energy per Si atom -12391.504143 kJ/mol
# Density = 2.012837 g / cm^3
# Si number density = 20.174286 Si / 1000 Ang^3
#
#
#
# Elastic Constant Matrix: (Units=GPa)
#
#
# Indices 1 2 3 4 5 6 
#
# 1 73.0988 19.6323 35.6525 0.0000 0.0000 0.0000
# 2 19.6323 104.5709 26.4629 0.0000 0.0000 0.0000
# 3 35.6525 26.4629 89.4910 0.0000 0.0000 0.0000
# 4 0.0000 0.0000 0.0000 39.0140 0.0000 0.0000
# 5 0.0000 0.0000 0.0000 0.0000 9.7940 0.0000
# 6 0.0000 0.0000 0.0000 0.0000 0.0000 33.8481
#
#
#
# Elastic Compliance Matrix: (Units=1/GPa)
#
#
# Indices 1 2 3 4 5 6 
#
# 1 0.017229 -0.001619 -0.006385 0.000000 0.000000 0.000000
# 2 -0.001619 0.010488 -0.002457 0.000000 0.000000 0.000000
# 3 -0.006385 -0.002457 0.014445 0.000000 0.000000 0.000000
# 4 0.000000 0.000000 0.000000 0.025632 0.000000 0.000000
# 5 0.000000 0.000000 0.000000 0.000000 0.102103 0.000000
# 6 0.000000 0.000000 0.000000 0.000000 0.000000 0.029544
#
#
# Mechanical properties :
#
#
# Convention : Reuss Voigt Hill
#
# Bulk Modulus (GPa) = 47.07888 47.85068 47.46478
# Shear Modulus (GPa) = 21.98354 28.89207 25.43780
#
# Velocity S-wave (km/s) = 3.30461 3.78845 3.55477
# Velocity P-wave (km/s) = 6.16014 6.55031 6.35822
#
# Compressibility (1/GPa) = 0.02124095
#
# Stress axis : x y z
#
# Youngs Moduli (GPa) = 58.04108 95.34282 69.23009
#
# Poissons Ratio (x) = 0.15434 0.44205
# Poissons Ratio (y) = 0.09395 0.17007
# Poissons Ratio (z) = 0.37061 0.23422
#
# Static dielectric constant tensor:
#      x y z
#    x 3.659180 0.000000 0.000000 
#    y 0.000000 4.426700 0.000000 
#    z 0.000000 0.000000 3.822280 
# 
# 
# High freq. dielectric constant tensor:
#      x y z
#    x 1.767140 0.000000 0.000000 
#    y 0.000000 1.803410 0.000000 
#    z 0.000000 0.000000 1.798820 
# 
# From -- ./inp_files/18191.got.cif
#   From: 2010.03.12/outbox.cif.g09.slc.cpg/sg57_10_cif.got.tgz:18191.got - 2010.04.16 15:48:40.
