data_PCOD8233773
_publ_section_title
;
Structure prediction by ZEFSAII (Michael W. Deem and Ramdas Pophale) SiO2 
 PCOD8233773
Probable space group: P B C M
;
_chemical_formula_sum "Si O2"
_cell_formula_units_Z 48
_cell_length_a 12.039538
_cell_length_b 11.977083
_cell_length_c 17.534711
_cell_angle_alpha 90.000000
_cell_angle_beta 90.000000
_cell_angle_gamma 90.000000
_cell_volume 2528.479829
_symmetry_space_group_name_H-M "P B C M"
_symmetry_group_IT_number 57
_symmetry_cell_setting 'orthorhombic'
loop_
_space_group_symop_operation_xyz
x,y,z
-x,-y,1/2+z
x,1/2-y,-z
-x,1/2+y,1/2-z
-x,-y,-z
x,y,1/2-z
-x,1/2+y,z
x,1/2-y,1/2+z
loop_
_atom_site_type_symbol
_atom_site_label
_atom_site_fract_x
_atom_site_fract_y
_atom_site_fract_z
Si Si1 0.216956 0.245646 0.410360
Si Si2 0.719509 0.415196 0.660287
Si Si3 0.339781 0.825797 0.340804
Si Si4 0.586303 0.873909 0.340617
Si Si5 0.920142 0.563672 0.839188
Si Si6 0.165597 0.010231 0.160093
O O1 0.229668 0.250000 0.500000
O O2 0.334419 0.277931 0.373168
O O3 0.117942 0.326822 0.384181
O O4 0.186858 0.121787 0.385718
O O5 0.707671 0.402963 0.750000
O O6 0.696656 0.293841 0.623674
O O7 0.628543 0.504785 0.630988
O O8 0.842563 0.458179 0.638500
O O9 0.339046 0.821227 0.250000
O O10 0.462088 0.855932 0.371507
O O11 0.254199 0.919376 0.368923
O O12 0.591741 0.865041 0.250000
O O13 0.908026 0.591101 0.750000
O O14 0.044972 0.535805 0.862178
O O15 0.175043 0.033723 0.250000
#
# Coordination Sequence:
#
# PCOD8233773 Si02
#       6
#     8   8   8   8   8   8
#     4  11  23  38  56  79 115 155 187 225 277 340
#     4   8  15  29  50  79 108 135 170 220 282 329
#     4   9  18  30  54  87 111 134 178 237 287 328
#     4   9  18  34  57  80 106 143 185 232 281 331
#     4   9  19  36  60  83 108 144 186 235 281 325
#     4  10  21  35  59  88 110 138 187 239 278 328
#
# _framework density 18.983739
#
# number of rings (size 3 to 8) (size 9 to 14) (size 15 to 20)
#    0.000    2.667    0.000    2.500    4.667    0.667 
#    0.000    0.833    0.000    0.000    0.000    0.000 
#    0.000    0.000    0.000    0.000    0.000    0.000 
#
# Total GULP energy -595177.644385 kJ/mol
# GULP energy per Si atom -12399.534258 kJ/mol
# Density = 1.894053 g / cm^3
# Si number density = 18.983739 Si / 1000 Ang^3
#
#
#
# Elastic Constant Matrix: (Units=GPa)
#
#
# Indices 1 2 3 4 5 6 
#
# 1 172.4854 70.3044 26.4523 0.0000 0.0000 0.0000
# 2 70.3044 119.8336 22.5569 0.0000 0.0000 0.0000
# 3 26.4523 22.5569 32.1382 0.0000 0.0000 0.0000
# 4 0.0000 0.0000 0.0000 8.8880 0.0000 0.0000
# 5 0.0000 0.0000 0.0000 0.0000 6.5251 0.0000
# 6 0.0000 0.0000 0.0000 0.0000 0.0000 21.1930
#
#
#
# Elastic Compliance Matrix: (Units=1/GPa)
#
#
# Indices 1 2 3 4 5 6 
#
# 1 0.008002 -0.003981 -0.003792 0.000000 0.000000 0.000000
# 2 -0.003981 0.011596 -0.004862 0.000000 0.000000 0.000000
# 3 -0.003792 -0.004862 0.037649 0.000000 0.000000 0.000000
# 4 0.000000 0.000000 0.000000 0.112511 0.000000 0.000000
# 5 0.000000 0.000000 0.000000 0.000000 0.153254 0.000000
# 6 0.000000 0.000000 0.000000 0.000000 0.000000 0.047185
#
#
# Mechanical properties :
#
#
# Convention : Reuss Voigt Hill
#
# Bulk Modulus (GPa) = 31.27269 62.56493 46.91881
# Shear Modulus (GPa) = 12.31144 20.99745 16.65445
#
# Velocity S-wave (km/s) = 2.54938 3.32938 2.96514
# Velocity P-wave (km/s) = 5.01746 6.91436 6.04083
#
# Compressibility (1/GPa) = 0.03197678
#
# Stress axis : x y z
#
# Youngs Moduli (GPa) = 124.97447 86.24035 26.56082
#
# Poissons Ratio (x) = 0.34329 0.10072
# Poissons Ratio (y) = 0.49748 0.12914
# Poissons Ratio (z) = 0.47392 0.41932
#
# Static dielectric constant tensor:
#      x y z
#    x 3.810780 0.000000 0.000000 
#    y 0.000000 3.699800 0.000000 
#    z 0.000000 0.000000 2.980070 
# 
# 
# High freq. dielectric constant tensor:
#      x y z
#    x 1.749510 0.000000 0.000000 
#    y 0.000000 1.749090 0.000000 
#    z 0.000000 0.000000 1.687430 
# 
# From -- ./inp_files/21799.got.cif
#   From: 2010.03.12/outbox.cif.g09.slc.cpg/sg57_11_cif.got.tgz:21799.got - 2010.04.16 15:48:40.
