data_PCOD8233247
_publ_section_title
;
Structure prediction by ZEFSAII (Michael W. Deem and Ramdas Pophale) SiO2 
 PCOD8233247
Probable space group: P B C M
;
_chemical_formula_sum "Si O2"
_cell_formula_units_Z 56
_cell_length_a 14.705846
_cell_length_b 22.489941
_cell_length_c 8.889979
_cell_angle_alpha 90.000000
_cell_angle_beta 90.000000
_cell_angle_gamma 90.000000
_cell_volume 2940.214838
_symmetry_space_group_name_H-M "P B C M"
_symmetry_group_IT_number 57
_symmetry_cell_setting 'orthorhombic'
loop_
_space_group_symop_operation_xyz
x,y,z
-x,-y,1/2+z
x,1/2-y,-z
-x,1/2+y,1/2-z
-x,-y,-z
x,y,1/2-z
-x,1/2+y,z
x,1/2-y,1/2+z
loop_
_atom_site_type_symbol
_atom_site_label
_atom_site_fract_x
_atom_site_fract_y
_atom_site_fract_z
Si Si1 0.423398 0.189741 0.072658
Si Si2 0.911682 0.420980 0.926275
Si Si3 0.301700 0.082395 0.422623
Si Si4 0.406283 0.983347 0.575572
Si Si5 0.623850 0.152173 0.074244
Si Si6 0.193278 0.688790 0.928666
Si Si7 0.890309 0.957200 0.921523
O O1 0.416308 0.194574 0.250000
O O2 0.355409 0.138926 0.011816
O O3 0.526507 0.177285 0.021628
O O4 0.387851 0.250000 0.000000
O O5 0.892111 0.412512 0.750000
O O6 0.019049 0.421146 0.966541
O O7 0.864787 0.366984 0.013270
O O8 0.872377 0.484805 0.976629
O O9 0.330920 0.072399 0.250000
O O10 0.192918 0.089295 0.439825
O O11 0.326496 0.024590 0.516632
O O12 0.421558 0.992348 0.750000
O O13 0.375049 0.917223 0.537365
O O14 0.500000 0.000000 0.500000
O O15 0.641986 0.164679 0.250000
O O16 0.701388 0.183150 0.976258
O O17 0.185906 0.692197 0.750000
O O18 0.154400 0.750000 0.000000
O O19 0.898457 0.979926 0.750000
#
# Coordination Sequence:
#
# PCOD8233247 Si02
#       7
#     8   8   8   8   8   8   8
#     4  10  21  37  54  74 105 144 184 226 269 318
#     4  10  20  37  60  88 119 147 182 233 287 342
#     4  10  20  37  56  80 113 146 183 228 274 328
#     4  11  21  34  54  82 114 147 184 228 278 328
#     4  10  21  38  57  81 112 147 186 231 281 332
#     4  12  25  40  59  84 114 153 195 239 288 343
#     4   9  19  36  62  89 114 148 186 227 285 344
#
# _framework density 19.046229
#
# number of rings (size 3 to 8) (size 9 to 14) (size 15 to 20)
#    0.000    1.714    1.429    3.429    0.000    6.857 
#    0.000    0.714    0.000    1.714    0.000    0.000 
#    0.000    0.000    0.000    0.000    0.000    0.000 
#
# Total GULP energy -694501.087406 kJ/mol
# GULP energy per Si atom -12401.805132 kJ/mol
# Density = 1.900288 g / cm^3
# Si number density = 19.046229 Si / 1000 Ang^3
#
#
#
# Elastic Constant Matrix: (Units=GPa)
#
#
# Indices 1 2 3 4 5 6 
#
# 1 104.9959 55.0401 26.3056 0.0000 0.0000 0.0000
# 2 55.0401 107.4104 55.5569 0.0000 0.0000 0.0000
# 3 26.3056 55.5569 69.4825 0.0000 0.0000 0.0000
# 4 0.0000 0.0000 0.0000 34.1935 0.0000 0.0000
# 5 0.0000 0.0000 0.0000 0.0000 24.8077 0.0000
# 6 0.0000 0.0000 0.0000 0.0000 0.0000 18.6713
#
#
#
# Elastic Compliance Matrix: (Units=1/GPa)
#
#
# Indices 1 2 3 4 5 6 
#
# 1 0.013042 -0.007041 0.000692 0.000000 0.000000 0.000000
# 2 -0.007041 0.019677 -0.013068 0.000000 0.000000 0.000000
# 3 0.000692 -0.013068 0.024579 0.000000 0.000000 0.000000
# 4 0.000000 0.000000 0.000000 0.029245 0.000000 0.000000
# 5 0.000000 0.000000 0.000000 0.000000 0.040310 0.000000
# 6 0.000000 0.000000 0.000000 0.000000 0.000000 0.053558
#
#
# Mechanical properties :
#
#
# Convention : Reuss Voigt Hill
#
# Bulk Modulus (GPa) = 54.15737 61.74378 57.95057
# Shear Modulus (GPa) = 22.18284 25.20026 23.69155
#
# Velocity S-wave (km/s) = 3.41645 3.64140 3.53072
# Velocity P-wave (km/s) = 6.63771 7.08294 6.86394
#
# Compressibility (1/GPa) = 0.01846471
#
# Stress axis : x y z
#
# Youngs Moduli (GPa) = 76.67697 50.81975 40.68535
#
# Poissons Ratio (x) = 0.35783 -0.02817
# Poissons Ratio (y) = 0.53989 0.53167
# Poissons Ratio (z) = -0.05309 0.66411
#
# Static dielectric constant tensor:
#      x y z
#    x 3.702520 0.000000 0.000000 
#    y 0.000000 3.720440 0.000000 
#    z 0.000000 0.000000 3.505420 
# 
# 
# High freq. dielectric constant tensor:
#      x y z
#    x 1.744720 0.000000 0.000000 
#    y 0.000000 1.737120 0.000000 
#    z 0.000000 0.000000 1.740050 
# 
# From -- ./inp_files/5240.got.cif
#   From: 2010.03.12/outbox.cif.g09.slc.cpg/sg57_3_cif.got.tgz:5240.got - 2010.04.16 15:48:40.
