data_PCOD8233847
_publ_section_title
;
Structure prediction by ZEFSAII (Michael W. Deem and Ramdas Pophale) SiO2 
 PCOD8233847
Probable space group: P B C M
;
_chemical_formula_sum "Si O2"
_cell_formula_units_Z 48
_cell_length_a 13.977725
_cell_length_b 11.428231
_cell_length_c 14.384377
_cell_angle_alpha 90.000000
_cell_angle_beta 90.000000
_cell_angle_gamma 90.000000
_cell_volume 2297.770022
_symmetry_space_group_name_H-M "P B C M"
_symmetry_group_IT_number 57
_symmetry_cell_setting 'orthorhombic'
loop_
_space_group_symop_operation_xyz
x,y,z
-x,-y,1/2+z
x,1/2-y,-z
-x,1/2+y,1/2-z
-x,-y,-z
x,y,1/2-z
-x,1/2+y,z
x,1/2-y,1/2+z
loop_
_atom_site_type_symbol
_atom_site_label
_atom_site_fract_x
_atom_site_fract_y
_atom_site_fract_z
Si Si1 0.075266 0.703943 0.142520
Si Si2 0.529634 0.650425 0.423070
Si Si3 0.689377 0.792707 0.148378
Si Si4 0.864927 0.642901 0.356711
Si Si5 0.846397 0.083439 0.526006
Si Si6 0.645151 0.021191 0.035466
O O1 0.108596 0.683321 0.250000
O O2 0.126283 0.816156 0.098921
O O3 0.960789 0.720920 0.139320
O O4 0.103463 0.594939 0.075562
O O5 0.528450 0.750000 0.500000
O O6 0.592172 0.713780 0.343324
O O7 0.420227 0.610475 0.401344
O O8 0.582155 0.529641 0.451091
O O9 0.721001 0.830783 0.250000
O O10 0.775219 0.716672 0.104120
O O11 0.681340 0.912166 0.093843
O O12 0.846436 0.600573 0.250000
O O13 0.878735 0.535996 0.426649
O O14 0.732685 0.091711 0.508851
#
# Coordination Sequence:
#
# PCOD8233847 Si02
#       6
#     8   8   8   8   8   8
#     4  10  24  41  59  93 128 159 209 265 312 367
#     4   9  19  38  61  83 116 156 198 250 303 367
#     4  10  21  38  61  90 121 159 207 260 308 366
#     4  10  21  40  64  90 125 165 210 257 302 367
#     4  11  22  39  66  88 120 172 208 248 316 381
#     4  10  21  36  61  87 117 156 206 248 301 371
#
# _framework density 20.889818999999999
#
# number of rings (size 3 to 8) (size 9 to 14) (size 15 to 20)
#    0.000    2.000    1.667    1.000    2.333    5.333 
#    0.000    3.333    0.000    0.000    0.000    0.000 
#    0.000    0.000    0.000    0.000    0.000    0.000 
#
# Total GULP energy -594732.330878 kJ/mol
# GULP energy per Si atom -12390.256893 kJ/mol
# Density = 2.084227 g / cm^3
# Si number density = 20.889819 Si / 1000 Ang^3
#
#
#
# Elastic Constant Matrix: (Units=GPa)
#
#
# Indices 1 2 3 4 5 6 
#
# 1 140.6719 58.6497 39.1127 0.0000 0.0000 0.0000
# 2 58.6497 58.7380 24.0661 0.0000 0.0000 0.0000
# 3 39.1127 24.0661 100.8200 0.0000 0.0000 0.0000
# 4 0.0000 0.0000 0.0000 21.2518 0.0000 0.0000
# 5 0.0000 0.0000 0.0000 0.0000 23.8193 0.0000
# 6 0.0000 0.0000 0.0000 0.0000 0.0000 35.0974
#
#
#
# Elastic Compliance Matrix: (Units=1/GPa)
#
#
# Indices 1 2 3 4 5 6 
#
# 1 0.012561 -0.011689 -0.002083 0.000000 0.000000 0.000000
# 2 -0.011689 0.029748 -0.002566 0.000000 0.000000 0.000000
# 3 -0.002083 -0.002566 0.011339 0.000000 0.000000 0.000000
# 4 0.000000 0.000000 0.000000 0.047055 0.000000 0.000000
# 5 0.000000 0.000000 0.000000 0.000000 0.041983 0.000000
# 6 0.000000 0.000000 0.000000 0.000000 0.000000 0.028492
#
#
# Mechanical properties :
#
#
# Convention : Reuss Voigt Hill
#
# Bulk Modulus (GPa) = 47.68253 60.43186 54.05720
# Shear Modulus (GPa) = 23.71412 27.92714 25.82063
#
# Velocity S-wave (km/s) = 3.37293 3.66030 3.51955
# Velocity P-wave (km/s) = 6.16799 6.84510 6.51535
#
# Compressibility (1/GPa) = 0.02097204
#
# Stress axis : x y z
#
# Youngs Moduli (GPa) = 79.60938 33.61609 88.18908
#
# Poissons Ratio (x) = 0.39294 0.18369
# Poissons Ratio (y) = 0.93056 0.22631
# Poissons Ratio (z) = 0.16582 0.08626
#
# Static dielectric constant tensor:
#      x y z
#    x 4.164000 0.000000 0.000000 
#    y 0.000000 3.709270 0.000000 
#    z 0.000000 0.000000 3.766990 
# 
# 
# High freq. dielectric constant tensor:
#      x y z
#    x 1.830700 0.000000 0.000000 
#    y 0.000000 1.811600 0.000000 
#    z 0.000000 0.000000 1.802250 
# 
# From -- ./inp_files/18395.got.cif
#   From: 2010.03.12/outbox.cif.g09.slc.cpg/sg57_10_cif.got.tgz:18395.got - 2010.04.16 15:48:40.
