data_PCOD8233333
_publ_section_title
;
Structure prediction by ZEFSAII (Michael W. Deem and Ramdas Pophale) SiO2 
 PCOD8233333
Probable space group: P B C M
;
_chemical_formula_sum "Si O2"
_cell_formula_units_Z 48
_cell_length_a 18.410671
_cell_length_b 15.205188
_cell_length_c 8.379759
_cell_angle_alpha 90.000000
_cell_angle_beta 90.000000
_cell_angle_gamma 90.000000
_cell_volume 2345.810576
_symmetry_space_group_name_H-M "P B C M"
_symmetry_group_IT_number 57
_symmetry_cell_setting 'orthorhombic'
loop_
_space_group_symop_operation_xyz
x,y,z
-x,-y,1/2+z
x,1/2-y,-z
-x,1/2+y,1/2-z
-x,-y,-z
x,y,1/2-z
-x,1/2+y,z
x,1/2-y,1/2+z
loop_
_atom_site_type_symbol
_atom_site_label
_atom_site_fract_x
_atom_site_fract_y
_atom_site_fract_z
Si Si1 0.932898 0.345767 0.563290
Si Si2 0.676493 0.012141 0.437439
Si Si3 0.599976 0.844418 0.560743
Si Si4 0.909658 0.658031 0.564369
Si Si5 0.832098 0.495649 0.433941
Si Si6 0.564456 0.343390 0.561664
O O1 0.910738 0.250000 0.500000
O O2 0.916440 0.353343 0.750000
O O3 0.886207 0.416523 0.469275
O O4 0.017268 0.365432 0.531293
O O5 0.687405 0.023388 0.250000
O O6 0.616366 0.080068 0.504910
O O7 0.652105 0.914054 0.477737
O O8 0.751337 0.035203 0.523946
O O9 0.626917 0.750000 0.500000
O O10 0.607025 0.851303 0.750000
O O11 0.517467 0.861006 0.500632
O O12 0.877057 0.750000 0.500000
O O13 0.928815 0.667227 0.750000
O O14 0.851323 0.581509 0.537870
O O15 0.837724 0.521767 0.250000
O O16 0.593699 0.250000 0.500000
O O17 0.565257 0.341894 0.750000
#
# Coordination Sequence:
#
# PCOD8233333 Si02
#       6
#     8   8   8   8   8   8
#     4  11  22  40  64  91 119 153 195 241 288 342
#     4  11  23  39  57  84 118 154 192 238 289 345
#     4  10  20  37  60  87 114 149 191 237 287 342
#     4  11  22  40  64  91 119 152 193 241 290 344
#     4  12  25  41  59  85 119 158 197 240 291 347
#     4   9  20  37  60  86 115 148 190 237 286 340
#
# _framework density 20.462011
#
# number of rings (size 3 to 8) (size 9 to 14) (size 15 to 20)
#    0.000    1.333    0.000    7.500    0.000    3.333 
#    0.000    5.000    0.000    0.000    0.000    0.000 
#    0.000    0.000    0.000    0.000    0.000    0.000 
#
# Total GULP energy -595528.315299 kJ/mol
# GULP energy per Si atom -12406.839902 kJ/mol
# Density = 2.041544 g / cm^3
# Si number density = 20.462011 Si / 1000 Ang^3
#
#
#
# Elastic Constant Matrix: (Units=GPa)
#
#
# Indices 1 2 3 4 5 6 
#
# 1 46.7284 19.2991 12.7265 0.0000 0.0000 0.0000
# 2 19.2991 89.7604 16.9202 0.0000 0.0000 0.0000
# 3 12.7265 16.9202 73.8080 0.0000 0.0000 0.0000
# 4 0.0000 0.0000 0.0000 35.9406 0.0000 0.0000
# 5 0.0000 0.0000 0.0000 0.0000 28.9999 0.0000
# 6 0.0000 0.0000 0.0000 0.0000 0.0000 4.3482
#
#
#
# Elastic Compliance Matrix: (Units=1/GPa)
#
#
# Indices 1 2 3 4 5 6 
#
# 1 0.024149 -0.004606 -0.003108 0.000000 0.000000 0.000000
# 2 -0.004606 0.012523 -0.002076 0.000000 0.000000 0.000000
# 3 -0.003108 -0.002076 0.014561 0.000000 0.000000 0.000000
# 4 0.000000 0.000000 0.000000 0.027824 0.000000 0.000000
# 5 0.000000 0.000000 0.000000 0.000000 0.034483 0.000000
# 6 0.000000 0.000000 0.000000 0.000000 0.000000 0.229980
#
#
# Mechanical properties :
#
#
# Convention : Reuss Voigt Hill
#
# Bulk Modulus (GPa) = 31.59491 34.24317 32.91904
# Shear Modulus (GPa) = 13.38147 24.61447 18.99797
#
# Velocity S-wave (km/s) = 2.56005 3.47210 3.05035
# Velocity P-wave (km/s) = 4.92065 5.73108 5.34126
#
# Compressibility (1/GPa) = 0.03165066
#
# Stress axis : x y z
#
# Youngs Moduli (GPa) = 41.40929 79.85562 68.67853
#
# Poissons Ratio (x) = 0.36784 0.21345
# Poissons Ratio (y) = 0.19075 0.14261
# Poissons Ratio (z) = 0.12870 0.16582
#
# Static dielectric constant tensor:
#      x y z
#    x 3.689910 0.000000 0.000000 
#    y 0.000000 3.832390 0.000000 
#    z 0.000000 0.000000 3.686290 
# 
# 
# High freq. dielectric constant tensor:
#      x y z
#    x 1.792540 0.000000 0.000000 
#    y 0.000000 1.811250 0.000000 
#    z 0.000000 0.000000 1.809500 
# 
# From -- ./inp_files/6486.got.cif
#   From: 2010.03.12/outbox.cif.g09.slc.cpg/sg57_4_cif.got.tgz:6486.got - 2010.04.16 15:48:40.
