data_PCOD8233100
_publ_section_title
;
Structure prediction by ZEFSAII (Michael W. Deem and Ramdas Pophale) SiO2 
 PCOD8233100
Probable space group: P B C M
;
_chemical_formula_sum "Si O2"
_cell_formula_units_Z 48
_cell_length_a 30.745688
_cell_length_b 9.401164
_cell_length_c 8.627998
_cell_angle_alpha 90.000000
_cell_angle_beta 90.000000
_cell_angle_gamma 90.000000
_cell_volume 2493.881884
_symmetry_space_group_name_H-M "P B C M"
_symmetry_group_IT_number 57
_symmetry_cell_setting 'orthorhombic'
loop_
_space_group_symop_operation_xyz
x,y,z
-x,-y,1/2+z
x,1/2-y,-z
-x,1/2+y,1/2-z
-x,-y,-z
x,y,1/2-z
-x,1/2+y,z
x,1/2-y,1/2+z
loop_
_atom_site_type_symbol
_atom_site_label
_atom_site_fract_x
_atom_site_fract_y
_atom_site_fract_z
Si Si1 0.619337 0.097756 0.432468
Si Si2 0.461579 0.406803 0.432107
Si Si3 0.128919 0.905056 0.434248
Si Si4 0.288715 0.903407 0.433778
Si Si5 0.790425 0.594197 0.432781
Si Si6 0.038229 0.905936 0.565834
O O1 0.604935 0.250000 0.500000
O O2 0.624795 0.115203 0.250000
O O3 0.664666 0.044823 0.504344
O O4 0.583767 0.980658 0.477623
O O5 0.462575 0.250000 0.500000
O O6 0.500000 0.500000 0.500000
O O7 0.467872 0.397236 0.250000
O O8 0.139633 0.750000 0.500000
O O9 0.124449 0.895649 0.250000
O O10 0.084379 0.966598 0.506451
O O11 0.167167 0.009180 0.489016
O O12 0.276307 0.750000 0.500000
O O13 0.290088 0.893309 0.250000
O O14 0.252690 0.014378 0.493281
O O15 0.791778 0.750000 0.500000
O O16 0.789635 0.603821 0.250000
O O17 0.031244 0.750000 0.500000
O O18 0.037260 0.904401 0.750000
O O19 0.000000 0.000000 0.500000
#
# Coordination Sequence:
#
# PCOD8233100 Si02
#       6
#     8   8   8   8   8   8
#     4  10  21  37  58  85 113 146 185 229 277 330
#     4  11  24  40  60  85 115 150 190 233 283 336
#     4  10  20  37  58  82 110 144 186 230 275 330
#     4  10  20  36  58  84 111 146 187 228 273 329
#     4  10  23  38  55  81 113 146 184 228 277 328
#     4  11  22  38  59  85 114 148 187 230 279 333
#
# _framework density 19.247102000000002
#
# number of rings (size 3 to 8) (size 9 to 14) (size 15 to 20)
#    0.000    1.667    0.000    6.500    0.000    8.000 
#    0.000    5.000    0.000    0.000    0.000    0.000 
#    0.000    0.000    0.000    0.000    0.000    0.000 
#
# Total GULP energy -595354.602097 kJ/mol
# GULP energy per Si atom -12403.220877 kJ/mol
# Density = 1.920329 g / cm^3
# Si number density = 19.247102 Si / 1000 Ang^3
#
#
#
# Elastic Constant Matrix: (Units=GPa)
#
#
# Indices 1 2 3 4 5 6 
#
# 1 188.2167 120.6578 74.5784 0.0000 0.0000 0.0000
# 2 120.6578 148.3855 55.9216 0.0000 0.0000 0.0000
# 3 74.5784 55.9216 107.7395 0.0000 0.0000 0.0000
# 4 0.0000 0.0000 0.0000 36.6611 0.0000 0.0000
# 5 0.0000 0.0000 0.0000 0.0000 31.7818 0.0000
# 6 0.0000 0.0000 0.0000 0.0000 0.0000 40.4000
#
#
#
# Elastic Compliance Matrix: (Units=1/GPa)
#
#
# Indices 1 2 3 4 5 6 
#
# 1 0.012449 -0.008547 -0.004181 0.000000 0.000000 0.000000
# 2 -0.008547 0.014246 -0.001478 0.000000 0.000000 0.000000
# 3 -0.004181 -0.001478 0.012943 0.000000 0.000000 0.000000
# 4 0.000000 0.000000 0.000000 0.027277 0.000000 0.000000
# 5 0.000000 0.000000 0.000000 0.000000 0.031465 0.000000
# 6 0.000000 0.000000 0.000000 0.000000 0.000000 0.024752
#
#
# Mechanical properties :
#
#
# Convention : Reuss Voigt Hill
#
# Bulk Modulus (GPa) = 89.07976 105.18414 97.13195
# Shear Modulus (GPa) = 32.19884 34.64751 33.42317
#
# Velocity S-wave (km/s) = 4.09457 4.24741 4.17169
# Velocity P-wave (km/s) = 8.29076 8.87817 8.58949
#
# Compressibility (1/GPa) = 0.01122589
#
# Stress axis : x y z
#
# Youngs Moduli (GPa) = 80.32993 70.19516 77.26230
#
# Poissons Ratio (x) = 0.59995 0.32303
# Poissons Ratio (y) = 0.68657 0.11420
# Poissons Ratio (z) = 0.33585 0.10376
#
# Static dielectric constant tensor:
#      x y z
#    x 4.036070 0.000000 0.000000 
#    y 0.000000 3.288240 0.000000 
#    z 0.000000 0.000000 3.629380 
# 
# 
# High freq. dielectric constant tensor:
#      x y z
#    x 1.767950 0.000000 0.000000 
#    y 0.000000 1.746730 0.000000 
#    z 0.000000 0.000000 1.763230 
# 
# From -- ./inp_files/10040.got.cif
#   From: 2010.03.12/outbox.cif.g09.slc.cpg/sg57_6_cif.got.tgz:10040.got - 2010.04.16 15:48:40.
