data_PCOD8233456
_publ_section_title
;
Structure prediction by ZEFSAII (Michael W. Deem and Ramdas Pophale) SiO2 
 PCOD8233456
Probable space group: P B C M
;
_chemical_formula_sum "Si O2"
_cell_formula_units_Z 64
_cell_length_a 14.728134
_cell_length_b 8.883681
_cell_length_c 26.610153
_cell_angle_alpha 90.000000
_cell_angle_beta 90.000000
_cell_angle_gamma 90.000000
_cell_volume 3481.673594
_symmetry_space_group_name_H-M "P B C M"
_symmetry_group_IT_number 57
_symmetry_cell_setting 'orthorhombic'
loop_
_space_group_symop_operation_xyz
x,y,z
-x,-y,1/2+z
x,1/2-y,-z
-x,1/2+y,1/2-z
-x,-y,-z
x,y,1/2-z
-x,1/2+y,z
x,1/2-y,1/2+z
loop_
_atom_site_type_symbol
_atom_site_label
_atom_site_fract_x
_atom_site_fract_y
_atom_site_fract_z
Si Si1 0.256322 0.832851 0.447707
Si Si2 0.374871 0.440050 0.304508
Si Si3 0.568125 0.087800 0.900437
Si Si4 0.093649 0.450154 0.945694
Si Si5 0.268854 0.529575 0.403534
Si Si6 0.491409 0.175854 0.162147
Si Si7 0.579905 0.595945 0.972186
Si Si8 0.086176 0.391234 0.436719
O O1 0.233610 0.750000 0.500000
O O2 0.356285 0.910532 0.445203
O O3 0.257274 0.709484 0.403415
O O4 0.185023 0.960266 0.432643
O O5 0.324590 0.449315 0.250000
O O6 0.308539 0.472253 0.350997
O O7 0.458418 0.556764 0.302344
O O8 0.417504 0.273582 0.308446
O O9 0.575560 0.222139 0.859687
O O10 0.468083 0.135680 0.919917
O O11 0.565297 0.919315 0.879427
O O12 0.091672 0.284089 0.922650
O O13 0.011083 0.542166 0.920295
O O14 0.091339 0.432493 0.005136
O O15 0.328066 0.490200 0.454496
O O16 0.168506 0.463912 0.407005
O O17 0.607436 0.750000 0.000000
O O18 0.500000 0.500000 0.000000
#
# Coordination Sequence:
#
# PCOD8233456 Si02
#       8
#     8   8   8   8   8   8   8   8
#     4  12  22  34  53  85 119 162 191 233 277 347
#     4  11  23  40  61  82 109 153 205 258 299 338
#     4  11  20  35  51  76 114 153 194 231 280 334
#     4  10  22  37  59  80 121 152 197 228 282 344
#     4  12  23  37  56  83 121 153 200 241 292 345
#     4  10  20  38  57  75 111 148 194 247 292 337
#     4  12  24  33  50  77 119 164 195 228 277 344
#     4  10  22  38  56  85 112 156 191 240 279 341
#
# _framework density 18.381964
#
# number of rings (size 3 to 8) (size 9 to 14) (size 15 to 20)
#    0.000    1.000    5.000    3.750    5.250    0.000 
#    0.000    0.000    0.000    0.000    0.000    3.500 
#    0.000    0.000    0.000    0.000    0.000    0.000 
#
# Total GULP energy -793001.571159 kJ/mol
# GULP energy per Si atom -12390.649549 kJ/mol
# Density = 1.834013 g / cm^3
# Si number density = 18.381964 Si / 1000 Ang^3
#
#
#
# Elastic Constant Matrix: (Units=GPa)
#
#
# Indices 1 2 3 4 5 6 
#
# 1 104.2940 42.2725 17.4910 0.0000 0.0000 0.0000
# 2 42.2725 122.7781 18.3057 0.0000 0.0000 0.0000
# 3 17.4910 18.3057 57.8764 0.0000 0.0000 0.0000
# 4 0.0000 0.0000 0.0000 9.7324 0.0000 0.0000
# 5 0.0000 0.0000 0.0000 0.0000 10.4642 0.0000
# 6 0.0000 0.0000 0.0000 0.0000 0.0000 30.3938
#
#
#
# Elastic Compliance Matrix: (Units=1/GPa)
#
#
# Indices 1 2 3 4 5 6 
#
# 1 0.011433 -0.003590 -0.002319 0.000000 0.000000 0.000000
# 2 -0.003590 0.009675 -0.001975 0.000000 0.000000 0.000000
# 3 -0.002319 -0.001975 0.018604 0.000000 0.000000 0.000000
# 4 0.000000 0.000000 0.000000 0.102750 0.000000 0.000000
# 5 0.000000 0.000000 0.000000 0.000000 0.095564 0.000000
# 6 0.000000 0.000000 0.000000 0.000000 0.000000 0.032901
#
#
# Mechanical properties :
#
#
# Convention : Reuss Voigt Hill
#
# Bulk Modulus (GPa) = 41.76791 49.00963 45.38877
# Shear Modulus (GPa) = 16.96767 23.91002 20.43885
#
# Velocity S-wave (km/s) = 3.04149 3.61048 3.33813
# Velocity P-wave (km/s) = 5.92501 6.64082 6.29310
#
# Compressibility (1/GPa) = 0.02394183
#
# Stress axis : x y z
#
# Youngs Moduli (GPa) = 87.46970 103.35453 53.75217
#
# Poissons Ratio (x) = 0.37108 0.12468
# Poissons Ratio (y) = 0.31405 0.10617
# Poissons Ratio (z) = 0.20288 0.20414
#
# Static dielectric constant tensor:
#      x y z
#    x 3.368160 0.000000 0.000000 
#    y 0.000000 3.677300 0.000000 
#    z 0.000000 0.000000 3.126420 
# 
# 
# High freq. dielectric constant tensor:
#      x y z
#    x 1.697710 0.000000 0.000000 
#    y 0.000000 1.739820 0.000000 
#    z 0.000000 0.000000 1.665800 
# 
# From -- ./inp_files/29894.got.cif
#   From: 2010.03.12/outbox.cif.g09.slc.cpg/sg57_15_cif.got.tgz:29894.got - 2010.04.16 15:48:40.
