data_PCOD8233425
_publ_section_title
;
Structure prediction by ZEFSAII (Michael W. Deem and Ramdas Pophale) SiO2 
 PCOD8233425
Probable space group: P B C M
;
_chemical_formula_sum "Si O2"
_cell_formula_units_Z 64
_cell_length_a 23.590994
_cell_length_b 15.155249
_cell_length_c 8.847625
_cell_angle_alpha 90.000000
_cell_angle_beta 90.000000
_cell_angle_gamma 90.000000
_cell_volume 3163.268258
_symmetry_space_group_name_H-M "P B C M"
_symmetry_group_IT_number 57
_symmetry_cell_setting 'orthorhombic'
loop_
_space_group_symop_operation_xyz
x,y,z
-x,-y,1/2+z
x,1/2-y,-z
-x,1/2+y,1/2-z
-x,-y,-z
x,y,1/2-z
-x,1/2+y,z
x,1/2-y,1/2+z
loop_
_atom_site_type_symbol
_atom_site_label
_atom_site_fract_x
_atom_site_fract_y
_atom_site_fract_z
Si Si1 0.277851 0.662100 0.072252
Si Si2 0.382333 0.091820 0.922065
Si Si3 0.078407 0.989922 0.074560
Si Si4 0.381339 0.915321 0.074843
Si Si5 0.210414 0.505769 0.926068
Si Si6 0.263132 0.161704 0.577099
Si Si7 0.000770 0.849142 0.928883
Si Si8 0.498836 0.660259 0.574196
O O1 0.277262 0.669684 0.250000
O O2 0.251459 0.750000 0.000000
O O3 0.342915 0.653197 0.016989
O O4 0.238862 0.582104 0.022225
O O5 0.392271 0.058552 0.750000
O O6 0.331850 0.162456 0.928101
O O7 0.440776 0.129264 0.992403
O O8 0.361799 0.012036 0.026290
O O9 0.065613 0.972916 0.250000
O O10 0.144249 0.996586 0.038067
O O11 0.051193 0.084762 0.025812
O O12 0.055781 0.903619 0.985310
O O13 0.369067 0.899443 0.250000
O O14 0.448251 0.907568 0.036756
O O15 0.223076 0.521157 0.750000
O O16 0.237128 0.414898 0.977951
O O17 0.240481 0.250000 0.500000
O O18 0.241958 0.155169 0.750000
O O19 0.004569 0.835148 0.750000
O O20 0.995098 0.750000 0.000000
O O21 0.479257 0.750000 0.500000
O O22 0.506321 0.676805 0.750000
#
# Coordination Sequence:
#
# PCOD8233425 Si02
#       8
#     8   8   8   8   8   8   8   8
#     4  12  25  42  63  88 119 158 204 253 309 370
#     4  10  21  38  58  82 114 150 194 246 300 366
#     4   9  21  40  62  91 126 165 207 253 301 351
#     4  11  22  37  59  85 113 150 195 244 304 369
#     4  11  23  42  65  91 125 161 206 258 306 359
#     4  11  23  39  61  88 120 161 206 252 306 364
#     4  10  20  37  63  94 129 168 207 248 296 351
#     4  10  22  37  54  81 112 146 191 241 300 365
#
# _framework density 20.232237999999999
#
# number of rings (size 3 to 8) (size 9 to 14) (size 15 to 20)
#    0.000    1.500    1.250    3.750    0.000    5.500 
#    0.000    1.250    0.000    0.000    0.000    0.000 
#    0.000    0.000    0.000    0.000    0.000    0.000 
#
# Total GULP energy -793559.848750 kJ/mol
# GULP energy per Si atom -12399.372637 kJ/mol
# Density = 2.018619 g / cm^3
# Si number density = 20.232238 Si / 1000 Ang^3
#
#
#
# Elastic Constant Matrix: (Units=GPa)
#
#
# Indices 1 2 3 4 5 6 
#
# 1 105.8851 33.2445 42.6973 0.0000 0.0000 0.0000
# 2 33.2445 135.4232 47.0322 0.0000 0.0000 0.0000
# 3 42.6973 47.0322 102.9466 0.0000 0.0000 0.0000
# 4 0.0000 0.0000 0.0000 35.0921 0.0000 0.0000
# 5 0.0000 0.0000 0.0000 0.0000 44.5463 0.0000
# 6 0.0000 0.0000 0.0000 0.0000 0.0000 34.2020
#
#
#
# Elastic Compliance Matrix: (Units=1/GPa)
#
#
# Indices 1 2 3 4 5 6 
#
# 1 0.011558 -0.001394 -0.004157 0.000000 0.000000 0.000000
# 2 -0.001394 0.008945 -0.003509 0.000000 0.000000 0.000000
# 3 -0.004157 -0.003509 0.013041 0.000000 0.000000 0.000000
# 4 0.000000 0.000000 0.000000 0.028496 0.000000 0.000000
# 5 0.000000 0.000000 0.000000 0.000000 0.022449 0.000000
# 6 0.000000 0.000000 0.000000 0.000000 0.000000 0.029238
#
#
# Mechanical properties :
#
#
# Convention : Reuss Voigt Hill
#
# Bulk Modulus (GPa) = 64.82834 65.57810 65.20322
# Shear Modulus (GPa) = 36.49981 37.52014 37.00998
#
# Velocity S-wave (km/s) = 4.25201 4.31103 4.28162
# Velocity P-wave (km/s) = 7.49785 7.56723 7.53262
#
# Compressibility (1/GPa) = 0.01542535
#
# Stress axis : x y z
#
# Youngs Moduli (GPa) = 86.51993 111.79568 76.68219
#
# Poissons Ratio (x) = 0.15580 0.31877
# Poissons Ratio (y) = 0.12057 0.26904
# Poissons Ratio (z) = 0.35967 0.39224
#
# Static dielectric constant tensor:
#      x y z
#    x 3.755760 0.000000 0.000000 
#    y 0.000000 3.533940 0.000000 
#    z 0.000000 0.000000 3.691880 
# 
# 
# High freq. dielectric constant tensor:
#      x y z
#    x 1.789590 0.000000 0.000000 
#    y 0.000000 1.794490 0.000000 
#    z 0.000000 0.000000 1.794880 
# 
# From -- ./inp_files/9478.got.cif
#   From: 2010.03.12/outbox.cif.g09.slc.cpg/sg57_5_cif.got.tgz:9478.got - 2010.04.16 15:48:40.
