data_PCOD8233881
_publ_section_title
;
Structure prediction by ZEFSAII (Michael W. Deem and Ramdas Pophale) SiO2 
 PCOD8233881
Probable space group: P B C M
;
_chemical_formula_sum "Si O2"
_cell_formula_units_Z 32
_cell_length_a 6.977418
_cell_length_b 27.786191
_cell_length_c 8.889473
_cell_angle_alpha 90.000000
_cell_angle_beta 90.000000
_cell_angle_gamma 90.000000
_cell_volume 1723.454305
_symmetry_space_group_name_H-M "P B C M"
_symmetry_group_IT_number 57
_symmetry_cell_setting 'orthorhombic'
loop_
_space_group_symop_operation_xyz
x,y,z
-x,-y,1/2+z
x,1/2-y,-z
-x,1/2+y,1/2-z
-x,-y,-z
x,y,1/2-z
-x,1/2+y,z
x,1/2-y,1/2+z
loop_
_atom_site_type_symbol
_atom_site_label
_atom_site_fract_x
_atom_site_fract_y
_atom_site_fract_z
Si Si1 0.965715 0.800209 0.574850
Si Si2 0.953760 0.949768 0.074927
Si Si3 0.743188 0.367408 0.074895
Si Si4 0.663032 0.882517 0.925113
O O1 0.910731 0.750000 0.500000
O O2 0.006821 0.793079 0.750000
O O3 0.787144 0.835030 0.544777
O O4 0.156851 0.821214 0.499273
O O5 0.913421 0.957179 0.250000
O O6 0.132059 0.914800 0.044963
O O7 0.762590 0.928543 0.000399
O O8 0.000000 0.000000 0.000000
O O9 0.716123 0.356826 0.250000
O O10 0.540651 0.375012 0.999107
O O11 0.638178 0.893365 0.750000
#
# Coordination Sequence:
#
# PCOD8233881 Si02
#       4
#     8   8   8   8
#     4  10  21  37  57  81 109 142 180 222 268 318
#     4  10  21  37  57  81 109 143 182 225 273 323
#     4  10  21  37  57  81 110 143 180 223 270 321
#     4  10  21  37  57  81 110 144 182 224 270 322
#
# _framework density 18.567363
#
# number of rings (size 3 to 8) (size 9 to 14) (size 15 to 20)
#    0.000    2.000    0.000    3.000    0.000    8.000 
#    0.000    2.500    0.000    0.000    0.000    0.000 
#    0.000    0.000    0.000    0.000    0.000    0.000 
#
# Total GULP energy -396977.970878 kJ/mol
# GULP energy per Si atom -12405.561590 kJ/mol
# Density = 1.852510 g / cm^3
# Si number density = 18.567363 Si / 1000 Ang^3
#
#
#
# Elastic Constant Matrix: (Units=GPa)
#
#
# Indices 1 2 3 4 5 6 
#
# 1 117.4516 19.5684 63.9512 0.0000 0.0000 0.0000
# 2 19.5684 95.7369 57.3246 0.0000 0.0000 0.0000
# 3 63.9512 57.3246 136.4687 0.0000 0.0000 0.0000
# 4 0.0000 0.0000 0.0000 39.5943 0.0000 0.0000
# 5 0.0000 0.0000 0.0000 0.0000 39.3609 0.0000
# 6 0.0000 0.0000 0.0000 0.0000 0.0000 15.4600
#
#
#
# Elastic Compliance Matrix: (Units=1/GPa)
#
#
# Indices 1 2 3 4 5 6 
#
# 1 0.011529 0.001174 -0.005895 0.000000 0.000000 0.000000
# 2 0.001174 0.014075 -0.006462 0.000000 0.000000 0.000000
# 3 -0.005895 -0.006462 0.012805 0.000000 0.000000 0.000000
# 4 0.000000 0.000000 0.000000 0.025256 0.000000 0.000000
# 5 0.000000 0.000000 0.000000 0.000000 0.025406 0.000000
# 6 0.000000 0.000000 0.000000 0.000000 0.000000 0.064683
#
#
# Mechanical properties :
#
#
# Convention : Reuss Voigt Hill
#
# Bulk Modulus (GPa) = 62.34327 70.14951 66.24639
# Shear Modulus (GPa) = 27.55302 32.80391 30.17846
#
# Velocity S-wave (km/s) = 3.85638 4.20783 4.03594
# Velocity P-wave (km/s) = 7.31291 7.84034 7.58121
#
# Compressibility (1/GPa) = 0.01604022
#
# Stress axis : x y z
#
# Youngs Moduli (GPa) = 86.74049 71.04904 78.09520
#
# Poissons Ratio (x) = -0.08338 0.46041
# Poissons Ratio (y) = -0.10180 0.50467
# Poissons Ratio (z) = 0.51138 0.45913
#
# Static dielectric constant tensor:
#      x y z
#    x 3.406170 0.000000 0.000000 
#    y 0.000000 3.452110 0.000000 
#    z 0.000000 0.000000 1.946360 
# 
# 
# High freq. dielectric constant tensor:
#      x y z
#    x 1.723470 0.000000 0.000000 
#    y 0.000000 1.723520 0.000000 
#    z 0.000000 0.000000 1.742810 
# 
# From -- ./inp_files/769.got.cif
#   From: 2010.03.12/outbox.cif.g09.slc.cpg/sg57_1_cif.got.tgz:769.got - 2010.04.16 15:48:40.
