data_PCOD8233877
_publ_section_title
;
Structure prediction by ZEFSAII (Michael W. Deem and Ramdas Pophale) SiO2 
 PCOD8233877
Probable space group: P B C M
;
_chemical_formula_sum "Si O2"
_cell_formula_units_Z 64
_cell_length_a 15.470346
_cell_length_b 23.840172
_cell_length_c 8.735654
_cell_angle_alpha 90.000000
_cell_angle_beta 90.000000
_cell_angle_gamma 90.000000
_cell_volume 3221.846428
_symmetry_space_group_name_H-M "P B C M"
_symmetry_group_IT_number 57
_symmetry_cell_setting 'orthorhombic'
loop_
_space_group_symop_operation_xyz
x,y,z
-x,-y,1/2+z
x,1/2-y,-z
-x,1/2+y,1/2-z
-x,-y,-z
x,y,1/2-z
-x,1/2+y,z
x,1/2-y,1/2+z
loop_
_atom_site_type_symbol
_atom_site_label
_atom_site_fract_x
_atom_site_fract_y
_atom_site_fract_z
Si Si1 0.058459 0.378909 0.069988
Si Si2 0.386363 0.379566 0.070770
Si Si3 0.690771 0.507646 0.928117
Si Si4 0.223374 0.310405 0.430803
Si Si5 0.306653 0.881118 0.927741
Si Si6 0.452273 0.689032 0.569452
Si Si7 0.889630 0.394012 0.929035
Si Si8 0.869893 0.511906 0.428949
O O1 0.064068 0.390056 0.250000
O O2 0.130252 0.334107 0.017084
O O3 0.071590 0.436287 0.978317
O O4 0.962432 0.357823 0.020097
O O5 0.389056 0.369029 0.250000
O O6 0.384248 0.446648 0.035577
O O7 0.299604 0.350453 0.005258
O O8 0.472336 0.351264 0.000374
O O9 0.719707 0.511018 0.750000
O O10 0.660706 0.444425 0.966738
O O11 0.770904 0.525877 0.031885
O O12 0.238092 0.250000 0.500000
O O13 0.227638 0.305967 0.250000
O O14 0.320654 0.867905 0.750000
O O15 0.206412 0.873469 0.974756
O O16 0.360111 0.836871 0.025698
O O17 0.464334 0.750000 0.500000
O O18 0.457667 0.694364 0.750000
O O19 0.904932 0.386739 0.750000
O O20 0.900496 0.458646 0.974583
O O21 0.880842 0.499489 0.250000
#
# Coordination Sequence:
#
# PCOD8233877 Si02
#       8
#     8   8   8   8   8   8   8   8
#     4  11  21  35  55  79 111 153 192 233 280 335
#     4   9  18  36  60  86 115 151 187 228 286 344
#     4   9  17  35  59  83 118 157 188 224 287 353
#     4  10  21  37  57  79 112 152 191 233 283 340
#     4   9  20  38  60  84 115 152 187 233 292 348
#     4  11  23  39  62  86 113 148 193 243 286 339
#     4  10  21  37  57  81 112 149 187 234 285 339
#     4  11  20  31  51  83 118 151 189 232 275 332
#
# _framework density 19.864386
#
# number of rings (size 3 to 8) (size 9 to 14) (size 15 to 20)
#    0.000    2.000    1.250    3.750    0.000    4.000 
#    0.000    2.500    0.000    1.500    0.000    0.000 
#    0.000    0.000    0.000    0.000    0.000    0.000 
#
# Total GULP energy -793510.805271 kJ/mol
# GULP energy per Si atom -12398.606332 kJ/mol
# Density = 1.981917 g / cm^3
# Si number density = 19.864386 Si / 1000 Ang^3
#
#
#
# Elastic Constant Matrix: (Units=GPa)
#
#
# Indices 1 2 3 4 5 6 
#
# 1 90.5961 29.4112 24.7857 0.0000 0.0000 0.0000
# 2 29.4112 46.3382 12.8141 0.0000 0.0000 0.0000
# 3 24.7857 12.8141 45.5525 0.0000 0.0000 0.0000
# 4 0.0000 0.0000 0.0000 26.1888 0.0000 0.0000
# 5 0.0000 0.0000 0.0000 0.0000 26.9674 0.0000
# 6 0.0000 0.0000 0.0000 0.0000 0.0000 24.7505
#
#
#
# Elastic Compliance Matrix: (Units=1/GPa)
#
#
# Indices 1 2 3 4 5 6 
#
# 1 0.015307 -0.008038 -0.006068 0.000000 0.000000 0.000000
# 2 -0.008038 0.027621 -0.003397 0.000000 0.000000 0.000000
# 3 -0.006068 -0.003397 0.026210 0.000000 0.000000 0.000000
# 4 0.000000 0.000000 0.000000 0.038184 0.000000 0.000000
# 5 0.000000 0.000000 0.000000 0.000000 0.037082 0.000000
# 6 0.000000 0.000000 0.000000 0.000000 0.000000 0.040403
#
#
# Mechanical properties :
#
#
# Convention : Reuss Voigt Hill
#
# Bulk Modulus (GPa) = 29.29619 35.16764 32.23191
# Shear Modulus (GPa) = 21.62718 23.27972 22.45345
#
# Velocity S-wave (km/s) = 3.30319 3.42706 3.36570
# Velocity P-wave (km/s) = 5.41555 5.77944 5.60045
#
# Compressibility (1/GPa) = 0.03413413
#
# Stress axis : x y z
#
# Youngs Moduli (GPa) = 65.32747 36.20388 38.15371
#
# Poissons Ratio (x) = 0.29100 0.23151
# Poissons Ratio (y) = 0.52509 0.12959
# Poissons Ratio (z) = 0.39640 0.12297
#
# Static dielectric constant tensor:
#      x y z
#    x 3.909890 0.000000 0.000000 
#    y 0.000000 3.689560 0.000000 
#    z 0.000000 0.000000 3.411820 
# 
# 
# High freq. dielectric constant tensor:
#      x y z
#    x 1.781830 0.000000 0.000000 
#    y 0.000000 1.759010 0.000000 
#    z 0.000000 0.000000 1.759440 
# 
# From -- ./inp_files/5676.got.cif
#   From: 2010.03.12/outbox.cif.g09.slc.cpg/sg57_3_cif.got.tgz:5676.got - 2010.04.16 15:48:40.
