data_PCOD8233883
_publ_section_title
;
Structure prediction by ZEFSAII (Michael W. Deem and Ramdas Pophale) SiO2 
 PCOD8233883
Probable space group: P B C M
;
_chemical_formula_sum "Si O2"
_cell_formula_units_Z 48
_cell_length_a 29.897385
_cell_length_b 9.368654
_cell_length_c 8.901623
_cell_angle_alpha 90.000000
_cell_angle_beta 90.000000
_cell_angle_gamma 90.000000
_cell_volume 2493.329074
_symmetry_space_group_name_H-M "P B C M"
_symmetry_group_IT_number 57
_symmetry_cell_setting 'orthorhombic'
loop_
_space_group_symop_operation_xyz
x,y,z
-x,-y,1/2+z
x,1/2-y,-z
-x,1/2+y,1/2-z
-x,-y,-z
x,y,1/2-z
-x,1/2+y,z
x,1/2-y,1/2+z
loop_
_atom_site_type_symbol
_atom_site_label
_atom_site_fract_x
_atom_site_fract_y
_atom_site_fract_z
Si Si1 0.703402 0.895501 0.075876
Si Si2 0.038059 0.094725 0.425617
Si Si3 0.876247 0.098486 0.574619
Si Si4 0.535780 0.098583 0.922494
Si Si5 0.365056 0.900254 0.422464
Si Si6 0.806982 0.899262 0.425616
O O1 0.693407 0.881677 0.250000
O O2 0.755073 0.929955 0.043502
O O3 0.688475 0.750000 0.000000
O O4 0.673259 0.016665 0.007256
O O5 0.040456 0.250000 0.500000
O O6 0.027612 0.113611 0.250000
O O7 0.084169 0.012981 0.454059
O O8 0.000000 0.000000 0.500000
O O9 0.888160 0.250000 0.500000
O O10 0.867532 0.123678 0.750000
O O11 0.832249 0.032312 0.499417
O O12 0.522480 0.118804 0.750000
O O13 0.585533 0.029245 0.937191
O O14 0.534148 0.250000 0.000000
O O15 0.500000 0.000000 0.000000
O O16 0.367802 0.750000 0.500000
O O17 0.350840 0.883891 0.250000
O O18 0.822051 0.750000 0.500000
O O19 0.818321 0.889857 0.250000
#
# Coordination Sequence:
#
# PCOD8233883 Si02
#       6
#     8   8   8   8   8   8
#     4  10  21  37  58  84 113 147 187 231 279 332
#     4  11  24  41  63  90 120 155 194 237 286 339
#     4  11  24  40  60  87 118 153 193 237 284 336
#     4  10  21  37  57  81 109 143 183 227 276 330
#     4  10  21  37  57  81 110 145 184 227 277 332
#     4  10  21  38  60  85 114 149 189 233 282 335
#
# _framework density 19.251370999999999
#
# number of rings (size 3 to 8) (size 9 to 14) (size 15 to 20)
#    0.000    1.667    0.000    4.000    0.000   10.667 
#    0.000    0.000    0.000    0.000    0.000    0.000 
#    0.000    0.000    0.000    0.000    0.000    0.000 
#
# Total GULP energy -595320.715181 kJ/mol
# GULP energy per Si atom -12402.514900 kJ/mol
# Density = 1.920755 g / cm^3
# Si number density = 19.251371 Si / 1000 Ang^3
#
#
#
# Elastic Constant Matrix: (Units=GPa)
#
#
# Indices 1 2 3 4 5 6 
#
# 1 90.0353 55.8410 67.5467 0.0000 0.0000 0.0000
# 2 55.8410 116.8972 67.5034 0.0000 0.0000 0.0000
# 3 67.5467 67.5034 144.4595 0.0000 0.0000 0.0000
# 4 0.0000 0.0000 0.0000 43.4480 0.0000 0.0000
# 5 0.0000 0.0000 0.0000 0.0000 34.6201 0.0000
# 6 0.0000 0.0000 0.0000 0.0000 0.0000 41.1478
#
#
#
# Elastic Compliance Matrix: (Units=1/GPa)
#
#
# Indices 1 2 3 4 5 6 
#
# 1 0.019400 -0.005518 -0.006493 0.000000 0.000000 0.000000
# 2 -0.005518 0.013285 -0.003628 0.000000 0.000000 0.000000
# 3 -0.006493 -0.003628 0.011653 0.000000 0.000000 0.000000
# 4 0.000000 0.000000 0.000000 0.023016 0.000000 0.000000
# 5 0.000000 0.000000 0.000000 0.000000 0.028885 0.000000
# 6 0.000000 0.000000 0.000000 0.000000 0.000000 0.024303
#
#
# Mechanical properties :
#
#
# Convention : Reuss Voigt Hill
#
# Bulk Modulus (GPa) = 76.55937 81.46381 79.01159
# Shear Modulus (GPa) = 32.01567 34.54326 33.27947
#
# Velocity S-wave (km/s) = 4.08245 4.24055 4.16225
# Velocity P-wave (km/s) = 7.87887 8.14764 8.01438
#
# Compressibility (1/GPa) = 0.01306176
#
# Stress axis : x y z
#
# Youngs Moduli (GPa) = 51.54632 75.27046 85.81152
#
# Poissons Ratio (x) = 0.41535 0.55714
# Poissons Ratio (y) = 0.28443 0.31132
# Poissons Ratio (z) = 0.33467 0.27307
#
# Static dielectric constant tensor:
#      x y z
#    x 3.735610 0.000000 0.000000 
#    y 0.000000 3.469150 0.000000 
#    z 0.000000 0.000000 3.774050 
# 
# 
# High freq. dielectric constant tensor:
#      x y z
#    x 1.759680 0.000000 0.000000 
#    y 0.000000 1.749080 0.000000 
#    z 0.000000 0.000000 1.771630 
# 
# From -- ./inp_files/9884.got.cif
#   From: 2010.03.12/outbox.cif.g09.slc.cpg/sg57_5_cif.got.tgz:9884.got - 2010.04.16 15:48:40.
