data_PCOD8233661
_publ_section_title
;
Structure prediction by ZEFSAII (Michael W. Deem and Ramdas Pophale) SiO2 
 PCOD8233661
Probable space group: P B C M
;
_chemical_formula_sum "Si O2"
_cell_formula_units_Z 40
_cell_length_a 10.888192
_cell_length_b 9.333538
_cell_length_c 17.904744
_cell_angle_alpha 90.000000
_cell_angle_beta 90.000000
_cell_angle_gamma 90.000000
_cell_volume 1819.575943
_symmetry_space_group_name_H-M "P B C M"
_symmetry_group_IT_number 57
_symmetry_cell_setting 'orthorhombic'
loop_
_space_group_symop_operation_xyz
x,y,z
-x,-y,1/2+z
x,1/2-y,-z
-x,1/2+y,1/2-z
-x,-y,-z
x,y,1/2-z
-x,1/2+y,z
x,1/2-y,1/2+z
loop_
_atom_site_type_symbol
_atom_site_label
_atom_site_fract_x
_atom_site_fract_y
_atom_site_fract_z
Si Si1 0.745117 0.639532 0.066274
Si Si2 0.620003 0.653358 0.663764
Si Si3 0.869858 0.994671 0.162419
Si Si4 0.419378 0.607611 0.954206
Si Si5 0.992929 0.261588 0.917071
O O1 0.676864 0.693324 0.141033
O O2 0.710288 0.473119 0.056130
O O3 0.890076 0.634250 0.074508
O O4 0.702393 0.750000 0.000000
O O5 0.587690 0.653455 0.750000
O O6 0.726267 0.535986 0.644006
O O7 0.490073 0.631694 0.623392
O O8 0.895979 0.976086 0.250000
O O9 0.960464 0.887752 0.117812
O O10 0.896253 0.157782 0.136776
O O11 0.393390 0.750000 0.000000
O O12 0.500000 0.500000 0.000000
O O13 0.934626 0.250000 0.000000
#
# Coordination Sequence:
#
# PCOD8233661 Si02
#       5
#     8   8   8   8   8
#     4  10  20  40  62  86 119 158 201 249 305 359
#     4  10  21  37  61  87 121 161 200 245 302 362
#     4  10  21  40  62  87 123 163 200 247 312 369
#     4  12  21  40  64  88 119 162 201 247 302 360
#     4  10  21  39  62  91 120 156 208 256 300 362
#
# _framework density 21.983146000000001
#
# number of rings (size 3 to 8) (size 9 to 14) (size 15 to 20)
#    0.000    1.600    4.000    1.200    0.000    1.600 
#    3.600    1.000    0.000    0.000    0.000    0.000 
#    0.000    0.000    0.000    0.000    0.000    0.000 
#
# Total GULP energy -495866.490688 kJ/mol
# GULP energy per Si atom -12396.662267 kJ/mol
# Density = 2.193311 g / cm^3
# Si number density = 21.983146 Si / 1000 Ang^3
#
#
#
# Elastic Constant Matrix: (Units=GPa)
#
#
# Indices 1 2 3 4 5 6 
#
# 1 51.1600 29.9845 24.0868 0.0000 0.0000 0.0000
# 2 29.9845 94.4268 28.6052 0.0000 0.0000 0.0000
# 3 24.0868 28.6052 113.7349 0.0000 0.0000 0.0000
# 4 0.0000 0.0000 0.0000 32.2261 0.0000 0.0000
# 5 0.0000 0.0000 0.0000 0.0000 20.0554 0.0000
# 6 0.0000 0.0000 0.0000 0.0000 0.0000 33.6635
#
#
#
# Elastic Compliance Matrix: (Units=1/GPa)
#
#
# Indices 1 2 3 4 5 6 
#
# 1 0.025319 -0.006945 -0.003615 0.000000 0.000000 0.000000
# 2 -0.006945 0.013368 -0.001892 0.000000 0.000000 0.000000
# 3 -0.003615 -0.001892 0.010034 0.000000 0.000000 0.000000
# 4 0.000000 0.000000 0.000000 0.031031 0.000000 0.000000
# 5 0.000000 0.000000 0.000000 0.000000 0.049862 0.000000
# 6 0.000000 0.000000 0.000000 0.000000 0.000000 0.029706
#
#
# Mechanical properties :
#
#
# Convention : Reuss Voigt Hill
#
# Bulk Modulus (GPa) = 41.98505 47.18610 44.58557
# Shear Modulus (GPa) = 26.01973 28.96534 27.49254
#
# Velocity S-wave (km/s) = 3.44411 3.63384 3.54025
# Velocity P-wave (km/s) = 5.91237 6.25441 6.08579
#
# Compressibility (1/GPa) = 0.02381800
#
# Stress axis : x y z
#
# Youngs Moduli (GPa) = 39.49626 74.80314 99.66325
#
# Poissons Ratio (x) = 0.51948 0.36032
# Poissons Ratio (y) = 0.27428 0.18852
# Poissons Ratio (z) = 0.14280 0.14149
#
# Static dielectric constant tensor:
#      x y z
#    x 4.719870 0.000000 0.000000 
#    y 0.000000 -12.872840 0.000000 
#    z 0.000000 0.000000 3.793360 
# 
# 
# High freq. dielectric constant tensor:
#      x y z
#    x 1.857480 0.000000 0.000000 
#    y 0.000000 1.855680 0.000000 
#    z 0.000000 0.000000 1.865820 
# 
# From -- ./inp_files/24855.got.cif
#   From: 2010.03.12/outbox.cif.g09.slc.cpg/sg57_13_cif.got.tgz:24855.got - 2010.04.16 15:48:40.
