data_PCOD8233041
_publ_section_title
;
Structure prediction by ZEFSAII (Michael W. Deem and Ramdas Pophale) SiO2 
 PCOD8233041
Probable space group: P B C M
;
_chemical_formula_sum "Si O2"
_cell_formula_units_Z 40
_cell_length_a 11.560421
_cell_length_b 20.996642
_cell_length_c 8.383771
_cell_angle_alpha 90.000000
_cell_angle_beta 90.000000
_cell_angle_gamma 90.000000
_cell_volume 2034.992912
_symmetry_space_group_name_H-M "P B C M"
_symmetry_group_IT_number 57
_symmetry_cell_setting 'orthorhombic'
loop_
_space_group_symop_operation_xyz
x,y,z
-x,-y,1/2+z
x,1/2-y,-z
-x,1/2+y,1/2-z
-x,-y,-z
x,y,1/2-z
-x,1/2+y,z
x,1/2-y,1/2+z
loop_
_atom_site_type_symbol
_atom_site_label
_atom_site_fract_x
_atom_site_fract_y
_atom_site_fract_z
Si Si1 0.816494 0.034246 0.568179
Si Si2 0.784297 0.680204 0.064180
Si Si3 0.545389 0.820629 0.437516
Si Si4 0.057294 0.417636 0.067314
Si Si5 0.573256 0.440658 0.934438
O O1 0.774036 0.041436 0.750000
O O2 0.709237 0.045257 0.452373
O O3 0.920577 0.083372 0.526211
O O4 0.870168 0.964258 0.546180
O O5 0.811003 0.676316 0.250000
O O6 0.769516 0.750000 0.000000
O O7 0.659815 0.649561 0.022200
O O8 0.891273 0.651534 0.966219
O O9 0.509472 0.750000 0.500000
O O10 0.566746 0.814841 0.250000
O O11 0.448838 0.873845 0.474516
O O12 0.074758 0.438635 0.250000
O O13 0.543062 0.431949 0.750000
O O14 0.500000 0.500000 0.000000
#
# Coordination Sequence:
#
# PCOD8233041 Si02
#       5
#     8   8   8   8   8
#     4  10  21  37  57  82 111 144 183 226 275 328
#     4  11  21  35  56  82 111 143 183 226 271 323
#     4  11  22  39  60  84 115 150 189 232 283 338
#     4  10  20  36  57  81 111 144 179 223 275 328
#     4  12  24  39  59  85 116 150 191 236 283 334
#
# _framework density 19.656088
#
# number of rings (size 3 to 8) (size 9 to 14) (size 15 to 20)
#    0.000    1.200    0.000    9.000    0.000    2.400 
#    0.000    1.000    0.000    4.800    0.000    0.000 
#    0.000    0.000    0.000    0.000    0.000    0.000 
#
# Total GULP energy -496024.823968 kJ/mol
# GULP energy per Si atom -12400.620599 kJ/mol
# Density = 1.961135 g / cm^3
# Si number density = 19.656088 Si / 1000 Ang^3
#
#
#
# Elastic Constant Matrix: (Units=GPa)
#
#
# Indices 1 2 3 4 5 6 
#
# 1 112.7386 36.1029 26.5469 0.0000 0.0000 0.0000
# 2 36.1029 63.7670 25.5699 0.0000 0.0000 0.0000
# 3 26.5469 25.5699 92.1814 0.0000 0.0000 0.0000
# 4 0.0000 0.0000 0.0000 33.1966 0.0000 0.0000
# 5 0.0000 0.0000 0.0000 0.0000 30.4429 0.0000
# 6 0.0000 0.0000 0.0000 0.0000 0.0000 33.1626
#
#
#
# Elastic Compliance Matrix: (Units=1/GPa)
#
#
# Indices 1 2 3 4 5 6 
#
# 1 0.011047 -0.005602 -0.001628 0.000000 0.000000 0.000000
# 2 -0.005602 0.020485 -0.004069 0.000000 0.000000 0.000000
# 3 -0.001628 -0.004069 0.012446 0.000000 0.000000 0.000000
# 4 0.000000 0.000000 0.000000 0.030124 0.000000 0.000000
# 5 0.000000 0.000000 0.000000 0.000000 0.032848 0.000000
# 6 0.000000 0.000000 0.000000 0.000000 0.000000 0.030154
#
#
# Mechanical properties :
#
#
# Convention : Reuss Voigt Hill
#
# Bulk Modulus (GPa) = 46.77037 49.45848 48.11442
# Shear Modulus (GPa) = 29.97080 31.39156 30.68118
#
# Velocity S-wave (km/s) = 3.90905 4.00063 3.95511
# Velocity P-wave (km/s) = 6.64983 6.82324 6.73709
#
# Compressibility (1/GPa) = 0.02138106
#
# Stress axis : x y z
#
# Youngs Moduli (GPa) = 90.52003 48.81515 80.34980
#
# Poissons Ratio (x) = 0.27346 0.13077
# Poissons Ratio (y) = 0.50709 0.32695
# Poissons Ratio (z) = 0.14732 0.19863
#
# Static dielectric constant tensor:
#      x y z
#    x 3.989450 0.000000 0.000000 
#    y 0.000000 3.497530 0.000000 
#    z 0.000000 0.000000 3.602260 
# 
# 
# High freq. dielectric constant tensor:
#      x y z
#    x 1.764250 0.000000 0.000000 
#    y 0.000000 1.755890 0.000000 
#    z 0.000000 0.000000 1.782850 
# 
# From -- ./inp_files/2879.got.cif
#   From: 2010.03.12/outbox.cif.g09.slc.cpg/sg57_2_cif.got.tgz:2879.got - 2010.04.16 15:48:40.
