data_PCOD8233858
_publ_section_title
;
Structure prediction by ZEFSAII (Michael W. Deem and Ramdas Pophale) SiO2 
 PCOD8233858
Probable space group: P B C M
;
_chemical_formula_sum "Si O2"
_cell_formula_units_Z 64
_cell_length_a 20.238456
_cell_length_b 19.768775
_cell_length_c 8.834265
_cell_angle_alpha 90.000000
_cell_angle_beta 90.000000
_cell_angle_gamma 90.000000
_cell_volume 3534.496517
_symmetry_space_group_name_H-M "P B C M"
_symmetry_group_IT_number 57
_symmetry_cell_setting 'orthorhombic'
loop_
_space_group_symop_operation_xyz
x,y,z
-x,-y,1/2+z
x,1/2-y,-z
-x,1/2+y,1/2-z
-x,-y,-z
x,y,1/2-z
-x,1/2+y,z
x,1/2-y,1/2+z
loop_
_atom_site_type_symbol
_atom_site_label
_atom_site_fract_x
_atom_site_fract_y
_atom_site_fract_z
Si Si1 0.314864 0.038917 0.429836
Si Si2 0.802801 0.037573 0.431780
Si Si3 0.053698 0.684773 0.081284
Si Si4 0.790582 0.185754 0.414705
Si Si5 0.437213 0.963441 0.929358
Si Si6 0.631171 0.817834 0.572141
Si Si7 0.943851 0.454414 0.429803
Si Si8 0.518500 0.317389 0.926819
O O1 0.313421 0.029765 0.250000
O O2 0.327236 0.116577 0.477266
O O3 0.245428 0.019214 0.503681
O O4 0.371035 0.991293 0.497557
O O5 0.806619 0.036057 0.250000
O O6 0.777226 0.111883 0.488724
O O7 0.874669 0.022363 0.498377
O O8 0.023339 0.674958 0.250000
O O9 0.131439 0.695702 0.097914
O O10 0.021568 0.750000 0.000000
O O11 0.037773 0.621759 0.974698
O O12 0.758559 0.250000 0.500000
O O13 0.757389 0.186757 0.250000
O O14 0.437547 0.975461 0.750000
O O15 0.439478 0.883671 0.969241
O O16 0.500000 0.000000 0.000000
O O17 0.662556 0.750000 0.500000
O O18 0.632676 0.809071 0.750000
O O19 0.556302 0.827988 0.512629
O O20 0.940754 0.461762 0.250000
O O21 0.000000 0.500000 0.500000
O O22 0.517391 0.305574 0.750000
O O23 0.550379 0.250000 0.000000
#
# Coordination Sequence:
#
# PCOD8233858 Si02
#       8
#     8   8   8   8   8   8   8   8
#     4  11  22  37  55  80 110 141 179 223 271 325
#     4  10  21  37  54  79 110 143 182 224 271 327
#     4   9  16  28  47  75 107 139 176 220 263 314
#     4   8  15  27  46  70  99 131 170 213 252 300
#     4  11  21  35  54  78 107 139 176 220 268 318
#     4   9  18  33  52  77 105 133 174 223 266 317
#     4  11  21  35  56  82 111 146 183 227 278 329
#     4   9  18  33  51  75 105 137 176 223 267 316
#
# _framework density 18.107247000000001
#
# number of rings (size 3 to 8) (size 9 to 14) (size 15 to 20)
#    0.000    2.250    1.250    3.375    0.000    5.500 
#    0.000    0.625    0.000    0.750    0.000    3.500 
#    0.000    0.000    0.000    0.000    0.000    0.000 
#
# Total GULP energy -793393.690440 kJ/mol
# GULP energy per Si atom -12396.776413 kJ/mol
# Density = 1.806603 g / cm^3
# Si number density = 18.107247 Si / 1000 Ang^3
#
#
#
# Elastic Constant Matrix: (Units=GPa)
#
#
# Indices 1 2 3 4 5 6 
#
# 1 78.6417 64.5330 40.0636 0.0000 0.0000 0.0000
# 2 64.5330 154.7225 61.5234 0.0000 0.0000 0.0000
# 3 40.0636 61.5234 98.3036 0.0000 0.0000 0.0000
# 4 0.0000 0.0000 0.0000 35.1090 0.0000 0.0000
# 5 0.0000 0.0000 0.0000 0.0000 25.7407 0.0000
# 6 0.0000 0.0000 0.0000 0.0000 0.0000 21.7395
#
#
#
# Elastic Compliance Matrix: (Units=1/GPa)
#
#
# Indices 1 2 3 4 5 6 
#
# 1 0.020443 -0.006941 -0.003988 0.000000 0.000000 0.000000
# 2 -0.006941 0.010961 -0.004031 0.000000 0.000000 0.000000
# 3 -0.003988 -0.004031 0.014321 0.000000 0.000000 0.000000
# 4 0.000000 0.000000 0.000000 0.028483 0.000000 0.000000
# 5 0.000000 0.000000 0.000000 0.000000 0.038849 0.000000
# 6 0.000000 0.000000 0.000000 0.000000 0.000000 0.045999
#
#
# Mechanical properties :
#
#
# Convention : Reuss Voigt Hill
#
# Bulk Modulus (GPa) = 63.26983 73.76752 68.51867
# Shear Modulus (GPa) = 25.74085 27.55436 26.64761
#
# Velocity S-wave (km/s) = 3.77447 3.90517 3.84038
# Velocity P-wave (km/s) = 7.34936 7.82058 7.58863
#
# Compressibility (1/GPa) = 0.01580532
#
# Stress axis : x y z
#
# Youngs Moduli (GPa) = 48.91635 91.23112 69.82924
#
# Poissons Ratio (x) = 0.63323 0.27845
# Poissons Ratio (y) = 0.33953 0.28150
# Poissons Ratio (z) = 0.19506 0.36778
#
# Static dielectric constant tensor:
#      x y z
#    x 3.017310 0.000000 0.000000 
#    y 0.000000 2.954390 0.000000 
#    z 0.000000 0.000000 3.506470 
# 
# 
# High freq. dielectric constant tensor:
#      x y z
#    x 1.656570 0.000000 0.000000 
#    y 0.000000 1.714240 0.000000 
#    z 0.000000 0.000000 1.710470 
# 
# From -- ./inp_files/8535.got.cif
#   From: 2010.03.12/outbox.cif.g09.slc.cpg/sg57_5_cif.got.tgz:8535.got - 2010.04.16 15:48:40.
