data_PCOD8233311
_publ_section_title
;
Structure prediction by ZEFSAII (Michael W. Deem and Ramdas Pophale) SiO2 
 PCOD8233311
Probable space group: P B C M
;
_chemical_formula_sum "Si O2"
_cell_formula_units_Z 56
_cell_length_a 8.205450
_cell_length_b 16.785175
_cell_length_c 21.172992
_cell_angle_alpha 90.000000
_cell_angle_beta 90.000000
_cell_angle_gamma 90.000000
_cell_volume 2916.154372
_symmetry_space_group_name_H-M "P B C M"
_symmetry_group_IT_number 57
_symmetry_cell_setting 'orthorhombic'
loop_
_space_group_symop_operation_xyz
x,y,z
-x,-y,1/2+z
x,1/2-y,-z
-x,1/2+y,1/2-z
-x,-y,-z
x,y,1/2-z
-x,1/2+y,z
x,1/2-y,1/2+z
loop_
_atom_site_type_symbol
_atom_site_label
_atom_site_fract_x
_atom_site_fract_y
_atom_site_fract_z
Si Si1 0.916310 0.578924 0.025352
Si Si2 0.853989 0.773497 0.819343
Si Si3 0.556909 0.235471 0.430939
Si Si4 0.726304 0.644311 0.905150
Si Si5 0.849797 0.154363 0.377215
Si Si6 0.645753 0.009908 0.174966
Si Si7 0.355323 0.099045 0.381286
O O1 0.786959 0.554504 0.079768
O O2 0.053891 0.635254 0.057133
O O3 0.816352 0.624269 0.970687
O O4 0.000000 0.500000 0.000000
O O5 0.828568 0.737521 0.750000
O O6 0.849195 0.702967 0.869757
O O7 0.715855 0.840126 0.829728
O O8 0.030044 0.813365 0.824100
O O9 0.626354 0.250000 0.500000
O O10 0.446405 0.310877 0.412386
O O11 0.714555 0.223403 0.386744
O O12 0.458496 0.152054 0.430730
O O13 0.695173 0.568877 0.861818
O O14 0.771901 0.075997 0.347523
O O15 0.654155 0.996311 0.250000
O O16 0.462619 0.033586 0.154712
#
# Coordination Sequence:
#
# PCOD8233311 Si02
#       7
#     8   8   8   8   8   8   8
#     4  11  21  39  61  94 123 148 197 252 312 357
#     4  10  21  40  60  86 121 160 200 247 299 356
#     4  10  20  37  59  89 116 151 191 241 295 361
#     4  11  23  38  62  89 123 158 197 253 307 355
#     4  10  23  37  63  89 116 160 201 245 299 362
#     4  11  22  41  61  87 119 162 209 246 292 358
#     4   9  21  37  63  86 115 159 198 240 295 360
#
# _framework density 19.203374
#
# number of rings (size 3 to 8) (size 9 to 14) (size 15 to 20)
#    0.000    1.714    2.857    1.286    2.000    1.714 
#    0.000    2.143    0.000    0.000    0.000    0.000 
#    0.000    0.000    0.000    0.000    0.000    0.000 
#
# Total GULP energy -694233.633052 kJ/mol
# GULP energy per Si atom -12397.029162 kJ/mol
# Density = 1.915967 g / cm^3
# Si number density = 19.203374 Si / 1000 Ang^3
#
#
#
# Elastic Constant Matrix: (Units=GPa)
#
#
# Indices 1 2 3 4 5 6 
#
# 1 95.5268 27.7551 24.9743 0.0000 0.0000 0.0000
# 2 27.7551 67.2419 23.6290 0.0000 0.0000 0.0000
# 3 24.9743 23.6290 104.2819 0.0000 0.0000 0.0000
# 4 0.0000 0.0000 0.0000 11.4884 0.0000 0.0000
# 5 0.0000 0.0000 0.0000 0.0000 19.1572 0.0000
# 6 0.0000 0.0000 0.0000 0.0000 0.0000 30.8444
#
#
#
# Elastic Compliance Matrix: (Units=1/GPa)
#
#
# Indices 1 2 3 4 5 6 
#
# 1 0.012246 -0.004372 -0.001942 0.000000 0.000000 0.000000
# 2 -0.004372 0.017719 -0.002968 0.000000 0.000000 0.000000
# 3 -0.001942 -0.002968 0.010727 0.000000 0.000000 0.000000
# 4 0.000000 0.000000 0.000000 0.087045 0.000000 0.000000
# 5 0.000000 0.000000 0.000000 0.000000 0.052200 0.000000
# 6 0.000000 0.000000 0.000000 0.000000 0.000000 0.032421
#
#
# Mechanical properties :
#
#
# Convention : Reuss Voigt Hill
#
# Bulk Modulus (GPa) = 45.19168 46.64081 45.91625
# Shear Modulus (GPa) = 20.98207 25.01080 22.99643
#
# Velocity S-wave (km/s) = 3.30907 3.61282 3.46428
# Velocity P-wave (km/s) = 6.17934 6.46094 6.32171
#
# Compressibility (1/GPa) = 0.02212797
#
# Stress axis : x y z
#
# Youngs Moduli (GPa) = 81.65654 56.43539 93.22278
#
# Poissons Ratio (x) = 0.24676 0.18105
# Poissons Ratio (y) = 0.35704 0.27667
# Poissons Ratio (z) = 0.15859 0.16749
#
# Static dielectric constant tensor:
#      x y z
#    x 3.725960 0.000000 0.000000 
#    y 0.000000 3.407020 0.000000 
#    z 0.000000 0.000000 3.533230 
# 
# 
# High freq. dielectric constant tensor:
#      x y z
#    x 1.758120 0.000000 0.000000 
#    y 0.000000 1.737310 0.000000 
#    z 0.000000 0.000000 1.748820 
# 
# From -- ./inp_files/24416.got.cif
#   From: 2010.03.12/outbox.cif.g09.slc.cpg/sg57_13_cif.got.tgz:24416.got - 2010.04.16 15:48:40.
