data_PCOD8233650
_publ_section_title
;
Structure prediction by ZEFSAII (Michael W. Deem and Ramdas Pophale) SiO2 
 PCOD8233650
Probable space group: P B C M
;
_chemical_formula_sum "Si O2"
_cell_formula_units_Z 48
_cell_length_a 28.500095
_cell_length_b 8.869711
_cell_length_c 9.221784
_cell_angle_alpha 90.000000
_cell_angle_beta 90.000000
_cell_angle_gamma 90.000000
_cell_volume 2331.152702
_symmetry_space_group_name_H-M "P B C M"
_symmetry_group_IT_number 57
_symmetry_cell_setting 'orthorhombic'
loop_
_space_group_symop_operation_xyz
x,y,z
-x,-y,1/2+z
x,1/2-y,-z
-x,1/2+y,1/2-z
-x,-y,-z
x,y,1/2-z
-x,1/2+y,z
x,1/2-y,1/2+z
loop_
_atom_site_type_symbol
_atom_site_label
_atom_site_fract_x
_atom_site_fract_y
_atom_site_fract_z
Si Si1 0.966674 0.155203 0.750000
Si Si2 0.198188 0.095422 0.086584
Si Si3 0.633017 0.596114 0.916142
Si Si4 0.891391 0.419957 0.026961
Si Si5 0.724363 0.091418 0.423127
Si Si6 0.459663 0.908090 0.578733
Si Si7 0.061203 0.993902 0.750000
O O1 0.940462 0.086873 0.611782
O O2 0.964706 0.334396 0.750000
O O3 0.021658 0.121021 0.750000
O O4 0.218162 0.123838 0.250000
O O5 0.193044 0.250000 0.000000
O O6 0.148314 0.013772 0.108430
O O7 0.230421 0.986115 0.992010
O O8 0.635532 0.641848 0.750000
O O9 0.680007 0.511080 0.963591
O O10 0.589262 0.489948 0.948882
O O11 0.627055 0.750000 0.000000
O O12 0.903420 0.511816 0.882930
O O13 0.872506 0.250000 0.000000
O O14 0.716232 0.250000 0.500000
O O15 0.730656 0.112234 0.250000
O O16 0.456083 0.750000 0.500000
O O17 0.470630 0.889254 0.750000
O O18 0.500000 0.000000 0.500000
#
# Coordination Sequence:
#
# PCOD8233650 Si02
#       7
#     4   8   8   8   8   8   4
#     4  10  20  40  56  90 118 160 196 250 297 362
#     4  12  26  43  64  92 126 160 205 259 314 373
#     4  10  23  41  63  93 129 169 213 266 320 377
#     4  10  22  40  62  87 120 160 202 246 304 365
#     4  11  24  43  68  96 127 166 210 256 313 374
#     4  11  23  40  62  92 129 171 221 271 327 385
#     4  10  22  34  64  86 122 154 202 242 301 362
#
# _framework density 20.590672999999999
#
# number of rings (size 3 to 8) (size 9 to 14) (size 15 to 20)
#    0.000    1.333    0.833    4.000    2.333    6.667 
#    0.000    0.000    0.000    0.000    0.000    0.000 
#    0.000    0.000    0.000    0.000    0.000    0.000 
#
# Total GULP energy -595284.864820 kJ/mol
# GULP energy per Si atom -12401.768017 kJ/mol
# Density = 2.054381 g / cm^3
# Si number density = 20.590673 Si / 1000 Ang^3
#
#
#
# Elastic Constant Matrix: (Units=GPa)
#
#
# Indices 1 2 3 4 5 6 
#
# 1 85.5411 32.7728 37.3866 0.0000 0.0000 0.0000
# 2 32.7728 120.4878 57.8546 0.0000 0.0000 0.0000
# 3 37.3866 57.8546 133.3312 0.0000 0.0000 0.0000
# 4 0.0000 0.0000 0.0000 37.7011 0.0000 0.0000
# 5 0.0000 0.0000 0.0000 0.0000 43.2674 0.0000
# 6 0.0000 0.0000 0.0000 0.0000 0.0000 24.0269
#
#
#
# Elastic Compliance Matrix: (Units=1/GPa)
#
#
# Indices 1 2 3 4 5 6 
#
# 1 0.013853 -0.002404 -0.002841 0.000000 0.000000 0.000000
# 2 -0.002404 0.010901 -0.004056 0.000000 0.000000 0.000000
# 3 -0.002841 -0.004056 0.010057 0.000000 0.000000 0.000000
# 4 0.000000 0.000000 0.000000 0.026524 0.000000 0.000000
# 5 0.000000 0.000000 0.000000 0.000000 0.023112 0.000000
# 6 0.000000 0.000000 0.000000 0.000000 0.000000 0.041620
#
#
# Mechanical properties :
#
#
# Convention : Reuss Voigt Hill
#
# Bulk Modulus (GPa) = 61.69616 66.15424 63.92520
# Shear Modulus (GPa) = 33.31715 35.08882 34.20298
#
# Velocity S-wave (km/s) = 4.02689 4.13257 4.08007
# Velocity P-wave (km/s) = 7.18674 7.41410 7.30131
#
# Compressibility (1/GPa) = 0.01620847
#
# Stress axis : x y z
#
# Youngs Moduli (GPa) = 72.18612 91.73443 99.43421
#
# Poissons Ratio (x) = 0.22050 0.28254
# Poissons Ratio (y) = 0.17351 0.40332
# Poissons Ratio (z) = 0.20511 0.37209
#
# Static dielectric constant tensor:
#      x y z
#    x 3.806090 0.000000 0.000000 
#    y 0.000000 3.719180 0.000000 
#    z 0.000000 0.000000 3.860350 
# 
# 
# High freq. dielectric constant tensor:
#      x y z
#    x 1.811800 0.000000 0.000000 
#    y 0.000000 1.812070 0.000000 
#    z 0.000000 0.000000 1.823450 
# 
# From -- ./inp_files/10127.got.cif
#   From: 2010.03.12/outbox.cif.g09.slc.cpg/sg57_6_cif.got.tgz:10127.got - 2010.04.16 15:48:40.
