data_PCOD8233678
_publ_section_title
;
Structure prediction by ZEFSAII (Michael W. Deem and Ramdas Pophale) SiO2 
 PCOD8233678
Probable space group: P B C M
;
_chemical_formula_sum "Si O2"
_cell_formula_units_Z 64
_cell_length_a 12.135425
_cell_length_b 9.114309
_cell_length_c 24.743064
_cell_angle_alpha 90.000000
_cell_angle_beta 90.000000
_cell_angle_gamma 90.000000
_cell_volume 2736.731666
_symmetry_space_group_name_H-M "P B C M"
_symmetry_group_IT_number 57
_symmetry_cell_setting 'orthorhombic'
loop_
_space_group_symop_operation_xyz
x,y,z
-x,-y,1/2+z
x,1/2-y,-z
-x,1/2+y,1/2-z
-x,-y,-z
x,y,1/2-z
-x,1/2+y,z
x,1/2-y,1/2+z
loop_
_atom_site_type_symbol
_atom_site_label
_atom_site_fract_x
_atom_site_fract_y
_atom_site_fract_z
Si Si1 0.010310 0.145855 0.885498
Si Si2 0.762636 0.601619 0.309209
Si Si3 0.458612 0.642933 0.127847
Si Si4 0.837839 0.090970 0.523934
Si Si5 0.790803 0.844407 0.449913
Si Si6 0.645084 0.859976 0.350585
Si Si7 0.977845 0.395979 0.688270
Si Si8 0.359980 0.934739 0.096252
O O1 0.110424 0.233540 0.915544
O O2 0.944029 0.248594 0.843505
O O3 0.926411 0.073508 0.928277
O O4 0.073013 0.025620 0.847999
O O5 0.720298 0.556802 0.250000
O O6 0.741194 0.778064 0.317519
O O7 0.891971 0.578336 0.312994
O O8 0.699406 0.494814 0.350053
O O9 0.387561 0.528448 0.166007
O O10 0.541284 0.750616 0.159777
O O11 0.378697 0.757688 0.097419
O O12 0.527866 0.530711 0.088715
O O13 0.842939 0.250000 0.500000
O O14 0.718085 0.040798 0.545304
O O15 0.855467 0.987878 0.472010
O O16 0.749924 0.750000 0.500000
O O17 0.682892 0.871117 0.413555
O O18 0.932438 0.392986 0.750000
#
# Coordination Sequence:
#
# PCOD8233678 Si02
#       8
#     8   8   8   8   8   8   8   8
#     4  12  23  42  64  93 126 165 206 254 306 367
#     4  10  20  40  66  90 122 165 204 253 319 374
#     4   9  20  38  67  87 123 164 206 257 314 365
#     4  12  24  39  60  92 127 165 209 255 305 363
#     4  12  23  39  62  90 124 169 209 249 308 369
#     4  10  20  41  61  92 125 163 206 261 309 362
#     4  11  23  41  64  94 125 165 206 251 312 374
#     4  10  20  42  61  91 125 162 204 261 309 360
#
# _framework density 23.385559000000001
#
# number of rings (size 3 to 8) (size 9 to 14) (size 15 to 20)
#    0.000    1.250    2.500    4.875    0.000    0.000 
#    0.000   23.125    0.000    0.000    0.000    0.000 
#    0.000    0.000    0.000    0.000    0.000    0.000 
#
# Total GULP energy -792838.518577 kJ/mol
# GULP energy per Si atom -12388.101853 kJ/mol
# Density = 2.333233 g / cm^3
# Si number density = 23.385559 Si / 1000 Ang^3
#
#
#
# Elastic Constant Matrix: (Units=GPa)
#
#
# Indices 1 2 3 4 5 6 
#
# 1 51.8572 2.3456 4.0814 0.0000 0.0000 0.0000
# 2 2.3456 124.6700 16.8458 0.0000 0.0000 0.0000
# 3 4.0814 16.8458 98.5833 0.0000 0.0000 0.0000
# 4 0.0000 0.0000 0.0000 29.3021 0.0000 0.0000
# 5 0.0000 0.0000 0.0000 0.0000 3.4062 0.0000
# 6 0.0000 0.0000 0.0000 0.0000 0.0000 22.4210
#
#
#
# Elastic Compliance Matrix: (Units=1/GPa)
#
#
# Indices 1 2 3 4 5 6 
#
# 1 0.019355 -0.000262 -0.000757 0.000000 0.000000 0.000000
# 2 -0.000262 0.008214 -0.001393 0.000000 0.000000 0.000000
# 3 -0.000757 -0.001393 0.010413 0.000000 0.000000 0.000000
# 4 0.000000 0.000000 0.000000 0.034127 0.000000 0.000000
# 5 0.000000 0.000000 0.000000 0.000000 0.293585 0.000000
# 6 0.000000 0.000000 0.000000 0.000000 0.000000 0.044601
#
#
# Mechanical properties :
#
#
# Convention : Reuss Voigt Hill
#
# Bulk Modulus (GPa) = 30.15693 35.73956 32.94825
# Shear Modulus (GPa) = 11.73237 27.81505 19.77371
#
# Velocity S-wave (km/s) = 2.24228 3.45253 2.91099
# Velocity P-wave (km/s) = 4.43027 5.58652 5.04165
#
# Compressibility (1/GPa) = 0.03315988
#
# Stress axis : x y z
#
# Youngs Moduli (GPa) = 51.66590 121.73891 96.03356
#
# Poissons Ratio (x) = 0.03189 0.07265
# Poissons Ratio (y) = 0.01353 0.13376
# Poissons Ratio (z) = 0.03909 0.16956
#
# Static dielectric constant tensor:
#      x y z
#    x 4.201840 0.000000 0.000000 
#    y 0.000000 4.594790 0.000000 
#    z 0.000000 0.000000 4.590860 
# 
# 
# High freq. dielectric constant tensor:
#      x y z
#    x 1.920160 0.000000 0.000000 
#    y 0.000000 1.936270 0.000000 
#    z 0.000000 0.000000 1.902360 
# 
# From -- ./inp_files/27467.got.cif
#   From: 2010.03.12/outbox.cif.g09.slc.cpg/sg57_14_cif.got.tgz:27467.got - 2010.04.16 15:48:40.
