data_PCOD8233951
_publ_section_title
;
Structure prediction by ZEFSAII (Michael W. Deem and Ramdas Pophale) SiO2 
 PCOD8233951
Probable space group: P B C M
;
_chemical_formula_sum "Si O2"
_cell_formula_units_Z 40
_cell_length_a 25.097253
_cell_length_b 9.678113
_cell_length_c 8.517601
_cell_angle_alpha 90.000000
_cell_angle_beta 90.000000
_cell_angle_gamma 90.000000
_cell_volume 2068.874608
_symmetry_space_group_name_H-M "P B C M"
_symmetry_group_IT_number 57
_symmetry_cell_setting 'orthorhombic'
loop_
_space_group_symop_operation_xyz
x,y,z
-x,-y,1/2+z
x,1/2-y,-z
-x,1/2+y,1/2-z
-x,-y,-z
x,y,1/2-z
-x,1/2+y,z
x,1/2-y,1/2+z
loop_
_atom_site_type_symbol
_atom_site_label
_atom_site_fract_x
_atom_site_fract_y
_atom_site_fract_z
Si Si1 0.044388 0.600393 0.935931
Si Si2 0.541897 0.104809 0.433634
Si Si3 0.249071 0.404559 0.935663
Si Si4 0.663148 0.399724 0.563889
Si Si5 0.841283 0.100008 0.435725
O O1 0.044602 0.601361 0.750000
O O2 0.029870 0.750000 0.000000
O O3 0.101998 0.552533 0.996630
O O4 0.000000 0.500000 0.000000
O O5 0.523846 0.250000 0.500000
O O6 0.537414 0.108571 0.250000
O O7 0.602207 0.069213 0.484534
O O8 0.500000 0.000000 0.500000
O O9 0.241409 0.402605 0.750000
O O10 0.250952 0.250000 0.000000
O O11 0.303603 0.480775 0.980406
O O12 0.200572 0.484762 0.015201
O O13 0.681070 0.250000 0.500000
O O14 0.672563 0.403369 0.750000
O O15 0.823926 0.250000 0.500000
O O16 0.844924 0.110471 0.250000
#
# Coordination Sequence:
#
# PCOD8233951 Si02
#       5
#     8   8   8   8   8
#     4  11  22  39  61  89 120 155 196 240 288 341
#     4  10  21  37  59  85 116 151 192 236 285 339
#     4  12  25  41  60  86 117 151 190 239 291 343
#     4  10  21  39  61  86 114 151 193 236 283 341
#     4  11  22  40  63  88 117 154 195 237 284 342
#
# _framework density 19.334182999999999
#
# number of rings (size 3 to 8) (size 9 to 14) (size 15 to 20)
#    0.000    1.200    0.000    8.400    0.000    4.000 
#    0.000    4.000    0.000    0.000    0.000    0.000 
#    0.000    0.000    0.000    0.000    0.000    0.000 
#
# Total GULP energy -496162.316156 kJ/mol
# GULP energy per Si atom -12404.057904 kJ/mol
# Density = 1.929018 g / cm^3
# Si number density = 19.334183 Si / 1000 Ang^3
#
#
#
# Elastic Constant Matrix: (Units=GPa)
#
#
# Indices 1 2 3 4 5 6 
#
# 1 132.1451 97.4809 49.4785 0.0000 0.0000 0.0000
# 2 97.4809 145.5253 53.1625 0.0000 0.0000 0.0000
# 3 49.4785 53.1625 145.6505 0.0000 0.0000 0.0000
# 4 0.0000 0.0000 0.0000 39.8690 0.0000 0.0000
# 5 0.0000 0.0000 0.0000 0.0000 37.7720 0.0000
# 6 0.0000 0.0000 0.0000 0.0000 0.0000 51.3312
#
#
#
# Elastic Compliance Matrix: (Units=1/GPa)
#
#
# Indices 1 2 3 4 5 6 
#
# 1 0.015308 -0.009640 -0.001682 0.000000 0.000000 0.000000
# 2 -0.009640 0.013999 -0.001835 0.000000 0.000000 0.000000
# 3 -0.001682 -0.001835 0.008107 0.000000 0.000000 0.000000
# 4 0.000000 0.000000 0.000000 0.025082 0.000000 0.000000
# 5 0.000000 0.000000 0.000000 0.000000 0.026475 0.000000
# 6 0.000000 0.000000 0.000000 0.000000 0.000000 0.019481
#
#
# Mechanical properties :
#
#
# Convention : Reuss Voigt Hill
#
# Bulk Modulus (GPa) = 90.08143 91.50717 90.79430
# Shear Modulus (GPa) = 36.10975 40.67439 38.39207
#
# Velocity S-wave (km/s) = 4.32634 4.59165 4.46096
# Velocity P-wave (km/s) = 8.46458 8.69154 8.57881
#
# Compressibility (1/GPa) = 0.01110107
#
# Stress axis : x y z
#
# Youngs Moduli (GPa) = 65.32361 71.43139 123.35274
#
# Poissons Ratio (x) = 0.68860 0.20745
# Poissons Ratio (y) = 0.62972 0.22635
# Poissons Ratio (z) = 0.10986 0.13108
#
# Static dielectric constant tensor:
#      x y z
#    x 3.639890 0.000000 0.000000 
#    y 0.000000 3.631960 0.000000 
#    z 0.000000 0.000000 3.809160 
# 
# 
# High freq. dielectric constant tensor:
#      x y z
#    x 1.766320 0.000000 0.000000 
#    y 0.000000 1.754600 0.000000 
#    z 0.000000 0.000000 1.778060 
# 
# From -- ./inp_files/8882.got.cif
#   From: 2010.03.12/outbox.cif.g09.slc.cpg/sg57_5_cif.got.tgz:8882.got - 2010.04.16 15:48:40.
