data_PCOD8233866
_publ_section_title
;
Structure prediction by ZEFSAII (Michael W. Deem and Ramdas Pophale) SiO2 
 PCOD8233866
Probable space group: P B C M
;
_chemical_formula_sum "Si O2"
_cell_formula_units_Z 56
_cell_length_a 19.622658
_cell_length_b 17.965867
_cell_length_c 8.758532
_cell_angle_alpha 90.000000
_cell_angle_beta 90.000000
_cell_angle_gamma 90.000000
_cell_volume 3087.715913
_symmetry_space_group_name_H-M "P B C M"
_symmetry_group_IT_number 57
_symmetry_cell_setting 'orthorhombic'
loop_
_space_group_symop_operation_xyz
x,y,z
-x,-y,1/2+z
x,1/2-y,-z
-x,1/2+y,1/2-z
-x,-y,-z
x,y,1/2-z
-x,1/2+y,z
x,1/2-y,1/2+z
loop_
_atom_site_type_symbol
_atom_site_label
_atom_site_fract_x
_atom_site_fract_y
_atom_site_fract_z
Si Si1 0.563107 0.456419 0.069175
Si Si2 0.649616 0.670122 0.931044
Si Si3 0.846781 0.026547 0.928100
Si Si4 0.954580 0.936634 0.071231
Si Si5 0.069605 0.669445 0.571270
Si Si6 0.297534 0.468035 0.928282
Si Si7 0.507080 0.829440 0.568493
O O1 0.556018 0.454388 0.250000
O O2 0.635807 0.487627 0.017861
O O3 0.500000 0.500000 0.000000
O O4 0.556974 0.375153 0.995194
O O5 0.641925 0.677686 0.750000
O O6 0.670045 0.750000 0.000000
O O7 0.706656 0.609369 0.977074
O O8 0.579229 0.639857 0.005216
O O9 0.862316 0.022671 0.750000
O O10 0.877643 0.105343 0.990391
O O11 0.766754 0.020837 0.966223
O O12 0.880037 0.951175 0.000449
O O13 0.949889 0.947894 0.250000
O O14 0.991637 0.857506 0.033605
O O15 0.000000 0.000000 0.000000
O O16 0.084500 0.750000 0.500000
O O17 0.080375 0.678989 0.750000
O O18 0.299773 0.447905 0.750000
O O19 0.494526 0.750000 0.500000
O O20 0.509800 0.829636 0.750000
#
# Coordination Sequence:
#
# PCOD8233866 Si02
#       7
#     8   8   8   8   8   8   8
#     4  11  21  34  54  79 106 139 182 231 279 331
#     4  11  21  34  54  77 103 132 173 222 275 334
#     4   9  19  36  55  78 109 145 181 221 268 322
#     4   9  17  31  52  78 105 135 174 217 258 306
#     4   9  18  32  53  81 110 140 177 216 259 307
#     4  10  21  37  56  77 108 147 183 221 277 333
#     4  11  21  35  54  76 103 134 174 225 283 336
#
# _framework density 18.136382999999999
#
# number of rings (size 3 to 8) (size 9 to 14) (size 15 to 20)
#    0.000    2.000    1.429    5.143    0.000    4.000 
#    0.000    1.429    0.000    3.429    0.000    0.000 
#    0.000    0.000    0.000    0.000    0.000    0.000 
#
# Total GULP energy -693972.478508 kJ/mol
# GULP energy per Si atom -12392.365688 kJ/mol
# Density = 1.809510 g / cm^3
# Si number density = 18.136383 Si / 1000 Ang^3
#
#
#
# Elastic Constant Matrix: (Units=GPa)
#
#
# Indices 1 2 3 4 5 6 
#
# 1 114.0338 66.4364 42.0842 0.0000 0.0000 0.0000
# 2 66.4364 107.1513 39.8134 0.0000 0.0000 0.0000
# 3 42.0842 39.8134 88.2086 0.0000 0.0000 0.0000
# 4 0.0000 0.0000 0.0000 33.1720 0.0000 0.0000
# 5 0.0000 0.0000 0.0000 0.0000 22.3090 0.0000
# 6 0.0000 0.0000 0.0000 0.0000 0.0000 25.9038
#
#
#
# Elastic Compliance Matrix: (Units=1/GPa)
#
#
# Indices 1 2 3 4 5 6 
#
# 1 0.014552 -0.007741 -0.003449 0.000000 0.000000 0.000000
# 2 -0.007741 0.015331 -0.003226 0.000000 0.000000 0.000000
# 3 -0.003449 -0.003226 0.014438 0.000000 0.000000 0.000000
# 4 0.000000 0.000000 0.000000 0.030146 0.000000 0.000000
# 5 0.000000 0.000000 0.000000 0.000000 0.044825 0.000000
# 6 0.000000 0.000000 0.000000 0.000000 0.000000 0.038604
#
#
# Mechanical properties :
#
#
# Convention : Reuss Voigt Hill
#
# Bulk Modulus (GPa) = 64.56266 67.34019 65.95142
# Shear Modulus (GPa) = 26.05618 27.01428 26.53523
#
# Velocity S-wave (km/s) = 3.79447 3.86360 3.82919
# Velocity P-wave (km/s) = 7.40763 7.55736 7.48287
#
# Compressibility (1/GPa) = 0.01548883
#
# Stress axis : x y z
#
# Youngs Moduli (GPa) = 68.71819 65.22637 69.25953
#
# Poissons Ratio (x) = 0.50494 0.23886
# Poissons Ratio (y) = 0.53197 0.22346
# Poissons Ratio (z) = 0.23699 0.21045
#
# Static dielectric constant tensor:
#      x y z
#    x 3.645920 0.000000 0.000000 
#    y 0.000000 3.601230 0.000000 
#    z 0.000000 0.000000 3.393550 
# 
# 
# High freq. dielectric constant tensor:
#      x y z
#    x 1.684030 0.000000 0.000000 
#    y 0.000000 1.701680 0.000000 
#    z 0.000000 0.000000 1.707830 
# 
# From -- ./inp_files/8289.got.cif
#   From: 2010.03.12/outbox.cif.g09.slc.cpg/sg57_5_cif.got.tgz:8289.got - 2010.04.16 15:48:40.
