data_PCOD8233240
_publ_section_title
;
Structure prediction by ZEFSAII (Michael W. Deem and Ramdas Pophale) SiO2 
 PCOD8233240
Probable space group: P B C M
;
_chemical_formula_sum "Si O2"
_cell_formula_units_Z 40
_cell_length_a 8.814938
_cell_length_b 11.979029
_cell_length_c 18.338937
_cell_angle_alpha 90.000000
_cell_angle_beta 90.000000
_cell_angle_gamma 90.000000
_cell_volume 1936.489011
_symmetry_space_group_name_H-M "P B C M"
_symmetry_group_IT_number 57
_symmetry_cell_setting 'orthorhombic'
loop_
_space_group_symop_operation_xyz
x,y,z
-x,-y,1/2+z
x,1/2-y,-z
-x,1/2+y,1/2-z
-x,-y,-z
x,y,1/2-z
-x,1/2+y,z
x,1/2-y,1/2+z
loop_
_atom_site_type_symbol
_atom_site_label
_atom_site_fract_x
_atom_site_fract_y
_atom_site_fract_z
Si Si1 0.338966 0.022631 0.035831
Si Si2 0.229043 0.160900 0.164848
Si Si3 0.876982 0.122683 0.166508
Si Si4 0.177382 0.394569 0.101342
Si Si5 0.857713 0.316765 0.069272
O O1 0.341012 0.087193 0.113680
O O2 0.275443 0.899069 0.047307
O O3 0.239028 0.097676 0.980996
O O4 0.500000 0.000000 0.000000
O O5 0.270925 0.142569 0.250000
O O6 0.251828 0.291205 0.144450
O O7 0.056817 0.122339 0.148364
O O8 0.847415 0.143435 0.250000
O O9 0.795413 0.226365 0.126804
O O10 0.790811 0.010083 0.143039
O O11 0.996268 0.385591 0.102367
O O12 0.920859 0.250000 0.000000
#
# Coordination Sequence:
#
# PCOD8233240 Si02
#       5
#     8   8   8   8   8
#     4  12  25  41  65  89 131 174 215 259 314 390
#     4  10  22  40  64  97 130 163 209 268 327 378
#     4  10  20  36  66 101 128 158 208 270 328 378
#     4  11  20  40  66  95 124 163 214 268 321 377
#     4  11  21  37  64  92 124 162 212 270 315 372
#
# _framework density 20.655937999999999
#
# number of rings (size 3 to 8) (size 9 to 14) (size 15 to 20)
#    0.000    1.200    4.000    4.200    0.000    3.200 
#    0.000    2.000    0.000    0.000    0.000    0.000 
#    0.000    0.000    0.000    0.000    0.000    0.000 
#
# Total GULP energy -496024.357704 kJ/mol
# GULP energy per Si atom -12400.608943 kJ/mol
# Density = 2.060892 g / cm^3
# Si number density = 20.655938 Si / 1000 Ang^3
#
#
#
# Elastic Constant Matrix: (Units=GPa)
#
#
# Indices 1 2 3 4 5 6 
#
# 1 57.7367 37.6031 25.5822 0.0000 0.0000 0.0000
# 2 37.6031 124.6490 58.9095 0.0000 0.0000 0.0000
# 3 25.5822 58.9095 149.6959 0.0000 0.0000 0.0000
# 4 0.0000 0.0000 0.0000 40.2177 0.0000 0.0000
# 5 0.0000 0.0000 0.0000 0.0000 25.3590 0.0000
# 6 0.0000 0.0000 0.0000 0.0000 0.0000 19.0973
#
#
#
# Elastic Compliance Matrix: (Units=1/GPa)
#
#
# Indices 1 2 3 4 5 6 
#
# 1 0.021790 -0.005913 -0.001397 0.000000 0.000000 0.000000
# 2 -0.005913 0.011460 -0.003499 0.000000 0.000000 0.000000
# 3 -0.001397 -0.003499 0.008296 0.000000 0.000000 0.000000
# 4 0.000000 0.000000 0.000000 0.024865 0.000000 0.000000
# 5 0.000000 0.000000 0.000000 0.000000 0.039434 0.000000
# 6 0.000000 0.000000 0.000000 0.000000 0.000000 0.052363
#
#
# Mechanical properties :
#
#
# Convention : Reuss Voigt Hill
#
# Bulk Modulus (GPa) = 50.18201 64.03015 57.10608
# Shear Modulus (GPa) = 26.81402 30.93393 28.87397
#
# Velocity S-wave (km/s) = 3.60686 3.87406 3.74284
# Velocity P-wave (km/s) = 6.45700 7.14680 6.81064
#
# Compressibility (1/GPa) = 0.01992746
#
# Stress axis : x y z
#
# Youngs Moduli (GPa) = 45.89216 87.25816 120.53999
#
# Poissons Ratio (x) = 0.51599 0.16836
# Poissons Ratio (y) = 0.27138 0.42181
# Poissons Ratio (z) = 0.06410 0.30535
#
# Static dielectric constant tensor:
#      x y z
#    x 3.240850 0.000000 0.000000 
#    y 0.000000 3.944320 0.000000 
#    z 0.000000 0.000000 3.855880 
# 
# 
# High freq. dielectric constant tensor:
#      x y z
#    x 1.756310 0.000000 0.000000 
#    y 0.000000 1.828900 0.000000 
#    z 0.000000 0.000000 1.819410 
# 
# From -- ./inp_files/20524.got.cif
#   From: 2010.03.12/outbox.cif.g09.slc.cpg/sg57_11_cif.got.tgz:20524.got - 2010.04.16 15:48:40.
