data_PCOD8233463
_publ_section_title
;
Structure prediction by ZEFSAII (Michael W. Deem and Ramdas Pophale) SiO2 
 PCOD8233463
Probable space group: P B C M
;
_chemical_formula_sum "Si O2"
_cell_formula_units_Z 32
_cell_length_a 18.623929
_cell_length_b 8.839462
_cell_length_c 9.536069
_cell_angle_alpha 90.000000
_cell_angle_beta 90.000000
_cell_angle_gamma 90.000000
_cell_volume 1569.880248
_symmetry_space_group_name_H-M "P B C M"
_symmetry_group_IT_number 57
_symmetry_cell_setting 'orthorhombic'
loop_
_space_group_symop_operation_xyz
x,y,z
-x,-y,1/2+z
x,1/2-y,-z
-x,1/2+y,1/2-z
-x,-y,-z
x,y,1/2-z
-x,1/2+y,z
x,1/2-y,1/2+z
loop_
_atom_site_type_symbol
_atom_site_label
_atom_site_fract_x
_atom_site_fract_y
_atom_site_fract_z
Si Si1 0.302060 0.396073 0.594753
Si Si2 0.439144 0.907774 0.080303
Si Si3 0.906713 0.486326 0.750000
Si Si4 0.835306 0.077962 0.523813
Si Si5 0.053204 0.856550 0.250000
O O1 0.297744 0.250000 0.500000
O O2 0.317621 0.335717 0.750000
O O3 0.365251 0.506918 0.547459
O O4 0.228259 0.488691 0.597200
O O5 0.453048 0.890666 0.250000
O O6 0.434270 0.750000 0.000000
O O7 0.500000 0.000000 0.000000
O O8 0.854412 0.508670 0.618679
O O9 0.943182 0.323214 0.750000
O O10 0.969132 0.609557 0.750000
O O11 0.809329 0.250000 0.500000
O O12 0.907845 0.075019 0.614623
#
# Coordination Sequence:
#
# PCOD8233463 Si02
#       5
#     8   8   4   8   4
#     4  11  25  42  63  92 127 164 209 260 311 371
#     4  11  24  44  69 100 134 173 214 260 313 373
#     4  10  22  34  60  88 115 160 199 254 312 378
#     4  10  21  40  60  86 120 161 207 254 313 371
#     4  10  20  38  58  84 121 154 203 254 312 374
#
# _framework density 20.383718999999999
#
# number of rings (size 3 to 8) (size 9 to 14) (size 15 to 20)
#    0.000    1.500    1.250    3.000    1.750    6.000 
#    0.000    0.000    0.000    0.000    0.000    0.000 
#    0.000    0.000    0.000    0.000    0.000    0.000 
#
# Total GULP energy -396804.704035 kJ/mol
# GULP energy per Si atom -12400.147001 kJ/mol
# Density = 2.033732 g / cm^3
# Si number density = 20.383719 Si / 1000 Ang^3
#
#
#
# Elastic Constant Matrix: (Units=GPa)
#
#
# Indices 1 2 3 4 5 6 
#
# 1 91.1123 35.5866 14.8817 0.0000 0.0000 0.0000
# 2 35.5866 95.0804 30.8306 0.0000 0.0000 0.0000
# 3 14.8817 30.8306 99.0860 0.0000 0.0000 0.0000
# 4 0.0000 0.0000 0.0000 31.4304 0.0000 0.0000
# 5 0.0000 0.0000 0.0000 0.0000-1689.0695 0.0000
# 6 0.0000 0.0000 0.0000 0.0000 0.0000 35.9309
#
#
#
# Elastic Compliance Matrix: (Units=1/GPa)
#
#
# Indices 1 2 3 4 5 6 
#
# 1 0.012875 -0.004662 -0.000483 0.000000 0.000000 0.000000
# 2 -0.004662 0.013386 -0.003465 0.000000 0.000000 0.000000
# 3 -0.000483 -0.003465 0.011243 0.000000 0.000000 0.000000
# 4 0.000000 0.000000 0.000000 0.031816 0.000000 0.000000
# 5 0.000000 0.000000 0.000000 0.000000 -0.000592 0.000000
# 6 0.000000 0.000000 0.000000 0.000000 0.000000 0.027831
#
#
# Mechanical properties :
#
#
# Convention : Reuss Voigt Hill
#
# Bulk Modulus (GPa) = 49.30051 49.76405 49.53228
# Shear Modulus (GPa) = 41.47956 -310.74297 -134.63171
#
# Velocity S-wave (km/s) = 4.51592 -12.36032 -8.13585
# Velocity P-wave (km/s) = 7.17148 13.38794 7.99396
#
# Compressibility (1/GPa) = 0.02028377
#
# Stress axis : x y z
#
# Youngs Moduli (GPa) = 77.66757 74.70534 88.94532
#
# Poissons Ratio (x) = 0.34830 0.04297
# Poissons Ratio (y) = 0.36211 0.30818
# Poissons Ratio (z) = 0.03752 0.25884
#
# Static dielectric constant tensor:
#      x y z
#    x 3.649340 0.000000 0.000000 
#    y 0.000000 3.712590 0.000000 
#    z 0.000000 0.000000 3.183350 
# 
# 
# High freq. dielectric constant tensor:
#      x y z
#    x 1.802590 0.000000 0.000000 
#    y 0.000000 1.795680 0.000000 
#    z 0.000000 0.000000 1.815900 
# 
# From -- ./inp_files/7569.got.cif
#   From: 2010.03.12/outbox.cif.g09.slc.cpg/sg57_4_cif.got.tgz:7569.got - 2010.04.16 15:48:40.
