data_PCOD8233971
_publ_section_title
;
Structure prediction by ZEFSAII (Michael W. Deem and Ramdas Pophale) SiO2 
 PCOD8233971
Probable space group: P B C M
;
_chemical_formula_sum "Si O2"
_cell_formula_units_Z 64
_cell_length_a 11.942794
_cell_length_b 14.410612
_cell_length_c 17.691654
_cell_angle_alpha 90.000000
_cell_angle_beta 90.000000
_cell_angle_gamma 90.000000
_cell_volume 3044.786207
_symmetry_space_group_name_H-M "P B C M"
_symmetry_group_IT_number 57
_symmetry_cell_setting 'orthorhombic'
loop_
_space_group_symop_operation_xyz
x,y,z
-x,-y,1/2+z
x,1/2-y,-z
-x,1/2+y,1/2-z
-x,-y,-z
x,y,1/2-z
-x,1/2+y,z
x,1/2-y,1/2+z
loop_
_atom_site_type_symbol
_atom_site_label
_atom_site_fract_x
_atom_site_fract_y
_atom_site_fract_z
Si Si1 0.376382 0.406342 0.335736
Si Si2 0.311435 0.784242 0.916456
Si Si3 0.109869 0.696389 0.838127
Si Si4 0.603974 0.506265 0.161737
Si Si5 0.997772 0.615958 0.161473
Si Si6 0.534466 0.710976 0.164759
Si Si7 0.796544 0.475062 0.585329
Si Si8 0.164046 0.985120 0.087076
O O1 0.357727 0.440891 0.250000
O O2 0.493175 0.451108 0.365093
O O3 0.377521 0.294840 0.340484
O O4 0.269667 0.435252 0.385166
O O5 0.233662 0.733451 0.855705
O O6 0.438074 0.763703 0.894239
O O7 0.294580 0.893908 0.913687
O O8 0.282019 0.750000 0.000000
O O9 0.100373 0.672895 0.750000
O O10 0.021661 0.776940 0.862229
O O11 0.088127 0.602339 0.885398
O O12 0.627719 0.488260 0.250000
O O13 0.593695 0.615155 0.142835
O O14 0.708664 0.468104 0.114083
O O15 0.979180 0.608653 0.250000
O O16 0.100481 0.549503 0.139329
O O17 0.885031 0.580408 0.121270
O O18 0.485011 0.703293 0.250000
O O19 0.844437 0.493413 0.502433
#
# Coordination Sequence:
#
# PCOD8233971 Si02
#       8
#     8   8   8   8   8   8   8   8
#     4  10  21  39  63  93 128 169 214 256 306 375
#     4  11  20  35  57  91 125 161 204 259 308 362
#     4  10  21  38  64  91 117 159 211 256 304 368
#     4  10  21  37  61  90 124 165 207 257 306 362
#     4  10  23  42  65  90 118 161 210 260 311 374
#     4  10  21  37  59  88 125 169 213 254 302 367
#     4  11  23  39  63  90 127 162 203 260 320 378
#     4  12  23  41  64  94 127 160 206 260 322 378
#
# _framework density 21.019539000000002
#
# number of rings (size 3 to 8) (size 9 to 14) (size 15 to 20)
#    0.000    1.500    2.500    3.000    0.000    3.500 
#    2.250    0.000    0.000    0.000    0.000    0.000 
#    0.000    0.000    0.000    0.000    0.000    0.000 
#
# Total GULP energy -793824.732174 kJ/mol
# GULP energy per Si atom -12403.511440 kJ/mol
# Density = 2.097170 g / cm^3
# Si number density = 21.019539 Si / 1000 Ang^3
#
#
#
# Elastic Constant Matrix: (Units=GPa)
#
#
# Indices 1 2 3 4 5 6 
#
# 1 52.0191 18.1586 19.8583 0.0000 0.0000 0.0000
# 2 18.1586 109.7174 32.8338 0.0000 0.0000 0.0000
# 3 19.8583 32.8338 69.8778 0.0000 0.0000 0.0000
# 4 0.0000 0.0000 0.0000 22.0300 0.0000 0.0000
# 5 0.0000 0.0000 0.0000 0.0000 14.3320 0.0000
# 6 0.0000 0.0000 0.0000 0.0000 0.0000 19.2206
#
#
#
# Elastic Compliance Matrix: (Units=1/GPa)
#
#
# Indices 1 2 3 4 5 6 
#
# 1 0.021954 -0.002055 -0.005273 0.000000 0.000000 0.000000
# 2 -0.002055 0.010798 -0.004490 0.000000 0.000000 0.000000
# 3 -0.005273 -0.004490 0.017919 0.000000 0.000000 0.000000
# 4 0.000000 0.000000 0.000000 0.045393 0.000000 0.000000
# 5 0.000000 0.000000 0.000000 0.000000 0.069774 0.000000
# 6 0.000000 0.000000 0.000000 0.000000 0.000000 0.052027
#
#
# Mechanical properties :
#
#
# Convention : Reuss Voigt Hill
#
# Bulk Modulus (GPa) = 36.98979 41.47954 39.23467
# Shear Modulus (GPa) = 19.95900 21.83410 20.89655
#
# Velocity S-wave (km/s) = 3.08481 3.22646 3.15643
# Velocity P-wave (km/s) = 5.50673 5.80144 5.65601
#
# Compressibility (1/GPa) = 0.02703449
#
# Stress axis : x y z
#
# Youngs Moduli (GPa) = 45.54920 92.60931 55.80720
#
# Poissons Ratio (x) = 0.19035 0.29429
# Poissons Ratio (y) = 0.09362 0.25055
# Poissons Ratio (z) = 0.24019 0.41578
#
# Static dielectric constant tensor:
#      x y z
#    x 3.505210 0.000000 0.000000 
#    y 0.000000 3.964000 0.000000 
#    z 0.000000 0.000000 3.695330 
# 
# 
# High freq. dielectric constant tensor:
#      x y z
#    x 1.803720 0.000000 0.000000 
#    y 0.000000 1.833660 0.000000 
#    z 0.000000 0.000000 1.818470 
# 
# From -- ./inp_files/22027.got.cif
#   From: 2010.03.12/outbox.cif.g09.slc.cpg/sg57_12_cif.got.tgz:22027.got - 2010.04.16 15:48:40.
