data_PCOD8233837
_publ_section_title
;
Structure prediction by ZEFSAII (Michael W. Deem and Ramdas Pophale) SiO2 
 PCOD8233837
Probable space group: P B C M
;
_chemical_formula_sum "Si O2"
_cell_formula_units_Z 64
_cell_length_a 9.055242
_cell_length_b 24.003062
_cell_length_c 15.353703
_cell_angle_alpha 90.000000
_cell_angle_beta 90.000000
_cell_angle_gamma 90.000000
_cell_volume 3337.181625
_symmetry_space_group_name_H-M "P B C M"
_symmetry_group_IT_number 57
_symmetry_cell_setting 'orthorhombic'
loop_
_space_group_symop_operation_xyz
x,y,z
-x,-y,1/2+z
x,1/2-y,-z
-x,1/2+y,1/2-z
-x,-y,-z
x,y,1/2-z
-x,1/2+y,z
x,1/2-y,1/2+z
loop_
_atom_site_type_symbol
_atom_site_label
_atom_site_fract_x
_atom_site_fract_y
_atom_site_fract_z
Si Si1 0.332286 0.135341 0.848358
Si Si2 0.828515 0.632687 0.344344
Si Si3 0.672583 0.367233 0.148169
Si Si4 0.178279 0.563186 0.995344
Si Si5 0.815542 0.745782 0.598178
Si Si6 0.821677 0.362792 0.846701
Si Si7 0.828787 0.564647 0.991474
Si Si8 0.859292 0.239375 0.648907
O O1 0.315473 0.113380 0.750000
O O2 0.501953 0.135680 0.877271
O O3 0.272390 0.197907 0.852434
O O4 0.239725 0.093953 0.907993
O O5 0.769798 0.611563 0.250000
O O6 0.777819 0.696326 0.355140
O O7 0.765650 0.593631 0.420875
O O8 0.003795 0.630164 0.345226
O O9 0.697529 0.380074 0.250000
O O10 0.747196 0.416390 0.093466
O O11 0.745612 0.308472 0.121505
O O12 0.003973 0.571425 0.985458
O O13 0.243284 0.596595 0.079028
O O14 0.221035 0.499129 0.008492
O O15 0.758588 0.750000 0.500000
O O16 0.989738 0.731332 0.595786
O O17 0.758004 0.377690 0.750000
O O18 0.782931 0.298907 0.871654
O O19 0.903084 0.236601 0.750000
#
# Coordination Sequence:
#
# PCOD8233837 Si02
#       8
#     8   8   8   8   8   8   8   8
#     4  11  23  40  57  79 117 156 190 230 278 337
#     4   9  17  32  53  79 111 141 173 224 285 338
#     4  10  23  39  56  81 116 156 190 228 280 337
#     4  10  21  36  58  85 112 143 188 246 278 330
#     4  11  19  32  57  86 111 141 182 234 281 341
#     4   8  16  31  52  80 111 141 174 222 286 340
#     4  10  21  37  58  86 110 142 194 237 286 325
#     4   9  18  33  55  83 110 142 183 228 282 341
#
# _framework density 19.177859000000002
#
# number of rings (size 3 to 8) (size 9 to 14) (size 15 to 20)
#    0.000    2.250    1.250    2.625    3.500    3.000 
#    2.250    2.500    0.000    0.750    0.000    0.000 
#    0.000    0.000    0.000    0.000    0.000    0.000 
#
# Total GULP energy -793604.579880 kJ/mol
# GULP energy per Si atom -12400.071561 kJ/mol
# Density = 1.913421 g / cm^3
# Si number density = 19.177859 Si / 1000 Ang^3
#
#
#
# Elastic Constant Matrix: (Units=GPa)
#
#
# Indices 1 2 3 4 5 6 
#
# 1 41.5120 40.2614 28.6274 0.0000 0.0000 0.0000
# 2 40.2614 132.3273 59.1749 0.0000 0.0000 0.0000
# 3 28.6274 59.1749 111.1949 0.0000 0.0000 0.0000
# 4 0.0000 0.0000 0.0000 18.4540 0.0000 0.0000
# 5 0.0000 0.0000 0.0000 0.0000 21.9886 0.0000
# 6 0.0000 0.0000 0.0000 0.0000 0.0000 -0.5656
#
#
#
# Elastic Compliance Matrix: (Units=1/GPa)
#
#
# Indices 1 2 3 4 5 6 
#
# 1 0.035803 -0.008886 -0.004489 0.000000 0.000000 0.000000
# 2 -0.008886 0.012123 -0.004164 0.000000 0.000000 0.000000
# 3 -0.004489 -0.004164 0.012365 0.000000 0.000000 0.000000
# 4 0.000000 0.000000 0.000000 0.054189 0.000000 0.000000
# 5 0.000000 0.000000 0.000000 0.000000 0.045478 0.000000
# 6 0.000000 0.000000 0.000000 0.000000 0.000000 -1.768101
#
#
# Mechanical properties :
#
#
# Convention : Reuss Voigt Hill
#
# Bulk Modulus (GPa) = 39.66091 60.12909 49.89500
# Shear Modulus (GPa) = -3.19558 18.44009 7.62225
#
# Velocity S-wave (km/s) = -1.29225 3.10422 1.99578
# Velocity P-wave (km/s) = 4.30104 6.65355 5.60217
#
# Compressibility (1/GPa) = 0.02521374
#
# Stress axis : x y z
#
# Youngs Moduli (GPa) = 27.93032 82.49088 80.87620
#
# Poissons Ratio (x) = 0.73302 0.36303
# Poissons Ratio (y) = 0.24819 0.33673
# Poissons Ratio (z) = 0.12537 0.34345
#
# Static dielectric constant tensor:
#      x y z
#    x 3.140110 0.000000 0.000000 
#    y 0.000000 3.583270 0.000000 
#    z 0.000000 0.000000 3.736570 
# 
# 
# High freq. dielectric constant tensor:
#      x y z
#    x 1.705290 0.000000 0.000000 
#    y 0.000000 1.745110 0.000000 
#    z 0.000000 0.000000 1.761830 
# 
# From -- ./inp_files/16984.got.cif
#   From: 2010.03.12/outbox.cif.g09.slc.cpg/sg57_9_cif.got.tgz:16984.got - 2010.04.16 15:48:40.
