data_PCOD8233624
_publ_section_title
;
Structure prediction by ZEFSAII (Michael W. Deem and Ramdas Pophale) SiO2 
 PCOD8233624
Probable space group: P B C M
;
_chemical_formula_sum "Si O2"
_cell_formula_units_Z 56
_cell_length_a 12.468284
_cell_length_b 13.575771
_cell_length_c 15.834699
_cell_angle_alpha 90.000000
_cell_angle_beta 90.000000
_cell_angle_gamma 90.000000
_cell_volume 2680.285161
_symmetry_space_group_name_H-M "P B C M"
_symmetry_group_IT_number 57
_symmetry_cell_setting 'orthorhombic'
loop_
_space_group_symop_operation_xyz
x,y,z
-x,-y,1/2+z
x,1/2-y,-z
-x,1/2+y,1/2-z
-x,-y,-z
x,y,1/2-z
-x,1/2+y,z
x,1/2-y,1/2+z
loop_
_atom_site_type_symbol
_atom_site_label
_atom_site_fract_x
_atom_site_fract_y
_atom_site_fract_z
Si Si1 0.337163 0.301487 0.150697
Si Si2 0.156041 0.350509 0.651904
Si Si3 0.602215 0.002889 0.440199
Si Si4 0.541168 0.311481 0.847993
Si Si5 0.938574 0.334237 0.936533
Si Si6 0.196631 0.960532 0.453894
Si Si7 0.242937 0.778167 0.349271
O O1 0.348655 0.325816 0.250000
O O2 0.220906 0.251019 0.133034
O O3 0.354151 0.400783 0.097955
O O4 0.426818 0.224869 0.115848
O O5 0.173692 0.380651 0.750000
O O6 0.196948 0.431836 0.586399
O O7 0.029427 0.343470 0.634609
O O8 0.565954 0.074759 0.365226
O O9 0.698234 0.052631 0.490501
O O10 0.500000 0.000000 0.500000
O O11 0.532424 0.298006 0.750000
O O12 0.635744 0.240218 0.881722
O O13 0.829065 0.305761 0.890865
O O14 0.978785 0.250000 0.000000
O O15 0.908935 0.434434 0.988895
O O16 0.202328 0.884818 0.376471
O O17 0.232978 0.768296 0.250000
#
# Coordination Sequence:
#
# PCOD8233624 Si02
#       7
#     8   8   8   8   8   8   8
#     4  10  24  43  63  92 130 171 214 263 321 387
#     4  11  24  43  63  88 128 174 214 258 324 389
#     4  12  24  38  64  97 128 167 213 263 324 392
#     4  10  21  40  64  88 124 164 205 259 317 376
#     4  10  22  40  65  90 125 162 211 271 319 366
#     4  11  23  38  62  95 128 160 211 269 317 375
#     4  10  20  39  64  91 122 162 208 255 311 381
#
# _framework density 20.893298999999999
#
# number of rings (size 3 to 8) (size 9 to 14) (size 15 to 20)
#    0.000    1.429    1.429    3.429    2.000    2.857 
#    0.000    5.714    0.000    0.000    0.000    0.000 
#    0.000    0.000    0.000    0.000    0.000    0.000 
#
# Total GULP energy -694129.054391 kJ/mol
# GULP energy per Si atom -12395.161686 kJ/mol
# Density = 2.084575 g / cm^3
# Si number density = 20.893299 Si / 1000 Ang^3
#
#
#
# Elastic Constant Matrix: (Units=GPa)
#
#
# Indices 1 2 3 4 5 6 
#
# 1 83.7991 7.7983 31.8228 0.0000 0.0000 0.0000
# 2 7.7983 84.6120 37.9319 0.0000 0.0000 0.0000
# 3 31.8228 37.9319 66.2407 0.0000 0.0000 0.0000
# 4 0.0000 0.0000 0.0000 20.5954 0.0000 0.0000
# 5 0.0000 0.0000 0.0000 0.0000 34.3345 0.0000
# 6 0.0000 0.0000 0.0000 0.0000 0.0000 24.5243
#
#
#
# Elastic Compliance Matrix: (Units=1/GPa)
#
#
# Indices 1 2 3 4 5 6 
#
# 1 0.014974 0.002482 -0.008615 0.000000 0.000000 0.000000
# 2 0.002482 0.016312 -0.010533 0.000000 0.000000 0.000000
# 3 -0.008615 -0.010533 0.025267 0.000000 0.000000 0.000000
# 4 0.000000 0.000000 0.000000 0.048555 0.000000 0.000000
# 5 0.000000 0.000000 0.000000 0.000000 0.029125 0.000000
# 6 0.000000 0.000000 0.000000 0.000000 0.000000 0.040776
#
#
# Mechanical properties :
#
#
# Convention : Reuss Voigt Hill
#
# Bulk Modulus (GPa) = 43.06546 43.30643 43.18595
# Shear Modulus (GPa) = 23.13949 26.36410 24.75180
#
# Velocity S-wave (km/s) = 3.33153 3.55610 3.44565
# Velocity P-wave (km/s) = 5.95447 6.13462 6.04521
#
# Compressibility (1/GPa) = 0.02322046
#
# Stress axis : x y z
#
# Youngs Moduli (GPa) = 66.78307 61.30459 39.57747
#
# Poissons Ratio (x) = -0.15216 0.34096
# Poissons Ratio (y) = -0.16576 0.41688
# Poissons Ratio (z) = 0.57533 0.64574
#
# Static dielectric constant tensor:
#      x y z
#    x 4.040160 0.000000 0.000000 
#    y 0.000000 4.148450 0.000000 
#    z 0.000000 0.000000 3.769090 
# 
# 
# High freq. dielectric constant tensor:
#      x y z
#    x 1.828540 0.000000 0.000000 
#    y 0.000000 1.812740 0.000000 
#    z 0.000000 0.000000 1.823230 
# 
# From -- ./inp_files/17731.got.cif
#   From: 2010.03.12/outbox.cif.g09.slc.cpg/sg57_9_cif.got.tgz:17731.got - 2010.04.16 15:48:40.
