data_PCOD8233076
_publ_section_title
;
Structure prediction by ZEFSAII (Michael W. Deem and Ramdas Pophale) SiO2 
 PCOD8233076
Probable space group: P B C M
;
_chemical_formula_sum "Si O2"
_cell_formula_units_Z 48
_cell_length_a 9.682772
_cell_length_b 30.695796
_cell_length_c 8.836564
_cell_angle_alpha 90.000000
_cell_angle_beta 90.000000
_cell_angle_gamma 90.000000
_cell_volume 2626.407034
_symmetry_space_group_name_H-M "P B C M"
_symmetry_group_IT_number 57
_symmetry_cell_setting 'orthorhombic'
loop_
_space_group_symop_operation_xyz
x,y,z
-x,-y,1/2+z
x,1/2-y,-z
-x,1/2+y,1/2-z
-x,-y,-z
x,y,1/2-z
-x,1/2+y,z
x,1/2-y,1/2+z
loop_
_atom_site_type_symbol
_atom_site_label
_atom_site_fract_x
_atom_site_fract_y
_atom_site_fract_z
Si Si1 0.995771 0.126815 0.426725
Si Si2 0.589191 0.365972 0.924253
Si Si3 0.297695 0.101988 0.076163
Si Si4 0.645995 0.988016 0.071611
Si Si5 0.216589 0.933707 0.428305
Si Si6 0.196784 0.796377 0.574789
O O1 0.965003 0.119786 0.250000
O O2 0.927267 0.086717 0.515788
O O3 0.927322 0.172157 0.481683
O O4 0.158319 0.128216 0.463040
O O5 0.625069 0.377465 0.750000
O O6 0.424819 0.364695 0.951853
O O7 0.656476 0.319275 0.965778
O O8 0.653973 0.403415 0.027905
O O9 0.296718 0.085732 0.250000
O O10 0.311170 0.060927 0.967394
O O11 0.634670 0.993746 0.250000
O O12 0.500000 0.000000 0.000000
O O13 0.764512 0.019488 0.006426
O O14 0.212530 0.940107 0.250000
O O15 0.185134 0.750000 0.500000
O O16 0.182500 0.787522 0.750000
#
# Coordination Sequence:
#
# PCOD8233076 Si02
#       6
#     8   8   8   8   8   8
#     4   9  20  38  57  79 109 145 183 225 277 330
#     4   9  18  34  56  79 106 138 177 225 273 322
#     4  10  20  36  58  80 106 143 184 229 278 323
#     4  12  23  35  53  79 111 146 187 231 271 317
#     4  11  21  34  54  79 107 146 188 226 268 316
#     4   9  18  34  56  81 107 139 178 221 270 327
#
# _framework density 18.275918000000001
#
# number of rings (size 3 to 8) (size 9 to 14) (size 15 to 20)
#    0.000    2.000    1.667    4.000    0.000    4.000 
#    0.000    0.833    0.000    0.000    0.000    0.000 
#    0.000    0.000    0.000    0.000    0.000    0.000 
#
# Total GULP energy -595213.304363 kJ/mol
# GULP energy per Si atom -12400.277174 kJ/mol
# Density = 1.823432 g / cm^3
# Si number density = 18.275918 Si / 1000 Ang^3
#
#
#
# Elastic Constant Matrix: (Units=GPa)
#
#
# Indices 1 2 3 4 5 6 
#
# 1 151.3315 59.6766 38.2647 0.0000 0.0000 0.0000
# 2 59.6766 119.0067 41.8928 0.0000 0.0000 0.0000
# 3 38.2647 41.8928 94.0177 0.0000 0.0000 0.0000
# 4 0.0000 0.0000 0.0000 32.5068 0.0000 0.0000
# 5 0.0000 0.0000 0.0000 0.0000 22.3830 0.0000
# 6 0.0000 0.0000 0.0000 0.0000 0.0000 20.3369
#
#
#
# Elastic Compliance Matrix: (Units=1/GPa)
#
#
# Indices 1 2 3 4 5 6 
#
# 1 0.008500 -0.003611 -0.001850 0.000000 0.000000 0.000000
# 2 -0.003611 0.011500 -0.003655 0.000000 0.000000 0.000000
# 3 -0.001850 -0.003655 0.013018 0.000000 0.000000 0.000000
# 4 0.000000 0.000000 0.000000 0.030763 0.000000 0.000000
# 5 0.000000 0.000000 0.000000 0.000000 0.044677 0.000000
# 6 0.000000 0.000000 0.000000 0.000000 0.000000 0.049172
#
#
# Mechanical properties :
#
#
# Convention : Reuss Voigt Hill
#
# Bulk Modulus (GPa) = 67.63222 71.55822 69.59522
# Shear Modulus (GPa) = 27.65646 30.01347 28.83497
#
# Velocity S-wave (km/s) = 3.89430 4.05685 3.97641
# Velocity P-wave (km/s) = 7.57016 7.82199 7.69710
#
# Compressibility (1/GPa) = 0.01478585
#
# Stress axis : x y z
#
# Youngs Moduli (GPa) = 117.64936 86.95569 76.81756
#
# Poissons Ratio (x) = 0.31399 0.14215
# Poissons Ratio (y) = 0.42482 0.28074
# Poissons Ratio (z) = 0.21770 0.31779
#
# Static dielectric constant tensor:
#      x y z
#    x 3.562310 0.000000 0.000000 
#    y 0.000000 3.340070 0.000000 
#    z 0.000000 0.000000 2.468590 
# 
# 
# High freq. dielectric constant tensor:
#      x y z
#    x 1.711090 0.000000 0.000000 
#    y 0.000000 1.690180 0.000000 
#    z 0.000000 0.000000 1.705650 
# 
# From -- ./inp_files/2081.got.cif
#   From: 2010.03.12/outbox.cif.g09.slc.cpg/sg57_2_cif.got.tgz:2081.got - 2010.04.16 15:48:40.
