data_PCOD8233493
_publ_section_title
;
Structure prediction by ZEFSAII (Michael W. Deem and Ramdas Pophale) SiO2 
 PCOD8233493
Probable space group: P B C M
;
_chemical_formula_sum "Si O2"
_cell_formula_units_Z 40
_cell_length_a 14.189736
_cell_length_b 8.892167
_cell_length_c 15.682396
_cell_angle_alpha 90.000000
_cell_angle_beta 90.000000
_cell_angle_gamma 90.000000
_cell_volume 1978.765556
_symmetry_space_group_name_H-M "P B C M"
_symmetry_group_IT_number 57
_symmetry_cell_setting 'orthorhombic'
loop_
_space_group_symop_operation_xyz
x,y,z
-x,-y,1/2+z
x,1/2-y,-z
-x,1/2+y,1/2-z
-x,-y,-z
x,y,1/2-z
-x,1/2+y,z
x,1/2-y,1/2+z
loop_
_atom_site_type_symbol
_atom_site_label
_atom_site_fract_x
_atom_site_fract_y
_atom_site_fract_z
Si Si1 0.270066 0.444903 0.087141
Si Si2 0.284910 0.410286 0.598940
Si Si3 0.585601 0.616916 0.250000
Si Si4 0.088600 0.129277 0.344292
Si Si5 0.057099 0.443709 0.082567
Si Si6 0.384910 0.472558 0.250000
O O1 0.271328 0.268002 0.101085
O O2 0.163506 0.507634 0.085480
O O3 0.327511 0.520635 0.164693
O O4 0.315536 0.476794 0.993421
O O5 0.364401 0.455779 0.666999
O O6 0.180028 0.466009 0.623953
O O7 0.477809 0.571620 0.250000
O O8 0.591001 0.796741 0.250000
O O9 0.109062 0.195107 0.250000
O O10 0.062235 0.263188 0.409713
O O11 0.001361 0.013558 0.338821
O O12 0.000000 0.500000 0.000000
#
# Coordination Sequence:
#
# PCOD8233493 Si02
#       6
#     8   8   4   8   8   4
#     4   9  19  34  56  83 111 150 187 233 281 346
#     4   9  17  34  58  82 107 145 198 230 271 344
#     4  10  20  38  61  82 106 142 187 246 289 346
#     4  11  21  34  55  86 115 156 195 236 279 339
#     4  11  21  35  56  83 119 155 195 228 284 343
#     4  10  22  38  61  82 110 144 193 240 297 342
#
# _framework density 20.214624000000001
#
# number of rings (size 3 to 8) (size 9 to 14) (size 15 to 20)
#    0.000    2.000    3.000    1.200    5.600    0.800 
#    0.000    2.000    0.000    0.000    0.000    0.000 
#    0.000    0.000    0.000    0.000    0.000    0.000 
#
# Total GULP energy -495694.422798 kJ/mol
# GULP energy per Si atom -12392.360570 kJ/mol
# Density = 2.016861 g / cm^3
# Si number density = 20.214624 Si / 1000 Ang^3
#
#
#
# Elastic Constant Matrix: (Units=GPa)
#
#
# Indices 1 2 3 4 5 6 
#
# 1 161.3690 25.0958 83.1290 0.0000 0.0000 0.0000
# 2 25.0958 19.2672 12.1112 0.0000 0.0000 0.0000
# 3 83.1290 12.1112 178.4745 0.0000 0.0000 0.0000
# 4 0.0000 0.0000 0.0000 15.4118 0.0000 0.0000
# 5 0.0000 0.0000 0.0000 0.0000 37.5787 0.0000
# 6 0.0000 0.0000 0.0000 0.0000 0.0000 30.9378
#
#
#
# Elastic Compliance Matrix: (Units=1/GPa)
#
#
# Indices 1 2 3 4 5 6 
#
# 1 0.009791 -0.010327 -0.003860 0.000000 0.000000 0.000000
# 2 -0.010327 0.065106 0.000392 0.000000 0.000000 0.000000
# 3 -0.003860 0.000392 0.007374 0.000000 0.000000 0.000000
# 4 0.000000 0.000000 0.000000 0.064885 0.000000 0.000000
# 5 0.000000 0.000000 0.000000 0.000000 0.026611 0.000000
# 6 0.000000 0.000000 0.000000 0.000000 0.000000 0.032323
#
#
# Mechanical properties :
#
#
# Convention : Reuss Voigt Hill
#
# Bulk Modulus (GPa) = 18.28748 66.64252 42.46500
# Shear Modulus (GPa) = 19.84850 32.70399 26.27625
#
# Velocity S-wave (km/s) = 3.13691 4.02660 3.60927
# Velocity P-wave (km/s) = 4.71026 7.39304 6.19853
#
# Compressibility (1/GPa) = 0.05468222
#
# Stress axis : x y z
#
# Youngs Moduli (GPa) = 102.13038 15.35947 135.60733
#
# Poissons Ratio (x) = 0.15862 0.52342
# Poissons Ratio (y) = 1.05472 -0.05317
# Poissons Ratio (z) = 0.39420 -0.00602
#
# Static dielectric constant tensor:
#      x y z
#    x 3.771790 0.000000 0.000000 
#    y 0.000000 3.173840 0.000000 
#    z 0.000000 0.000000 4.073470 
# 
# 
# High freq. dielectric constant tensor:
#      x y z
#    x 1.787680 0.000000 0.000000 
#    y 0.000000 1.728910 0.000000 
#    z 0.000000 0.000000 1.814240 
# 
# From -- ./inp_files/17449.got.cif
#   From: 2010.03.12/outbox.cif.g09.slc.cpg/sg57_9_cif.got.tgz:17449.got - 2010.04.16 15:48:40.
