data_PCOD8233698
_publ_section_title
;
Structure prediction by ZEFSAII (Michael W. Deem and Ramdas Pophale) SiO2 
 PCOD8233698
Probable space group: P B C M
;
_chemical_formula_sum "Si O2"
_cell_formula_units_Z 64
_cell_length_a 11.910437
_cell_length_b 14.843101
_cell_length_c 17.965817
_cell_angle_alpha 90.000000
_cell_angle_beta 90.000000
_cell_angle_gamma 90.000000
_cell_volume 3176.137610
_symmetry_space_group_name_H-M "P B C M"
_symmetry_group_IT_number 57
_symmetry_cell_setting 'orthorhombic'
loop_
_space_group_symop_operation_xyz
x,y,z
-x,-y,1/2+z
x,1/2-y,-z
-x,1/2+y,1/2-z
-x,-y,-z
x,y,1/2-z
-x,1/2+y,z
x,1/2-y,1/2+z
loop_
_atom_site_type_symbol
_atom_site_label
_atom_site_fract_x
_atom_site_fract_y
_atom_site_fract_z
Si Si1 0.250441 0.253230 0.667451
Si Si2 0.043043 0.559152 0.663680
Si Si3 0.500121 0.700838 0.837623
Si Si4 0.484817 0.990028 0.412771
Si Si5 0.353259 0.872365 0.837834
Si Si6 0.268980 0.458771 0.832404
Si Si7 0.965398 0.769416 0.413751
Si Si8 0.902065 0.387166 0.663056
O O1 0.232325 0.211772 0.750000
O O2 0.376910 0.236382 0.641008
O O3 0.223102 0.358247 0.668863
O O4 0.162402 0.208650 0.611082
O O5 0.034106 0.589187 0.750000
O O6 0.165425 0.520945 0.645568
O O7 0.036107 0.643155 0.608389
O O8 0.945432 0.487480 0.644598
O O9 0.489145 0.678609 0.750000
O O10 0.478061 0.613322 0.886942
O O11 0.411262 0.778094 0.861151
O O12 0.500000 0.000000 0.500000
O O13 0.586071 0.041646 0.373090
O O14 0.366667 0.034510 0.392401
O O15 0.360840 0.885494 0.750000
O O16 0.224924 0.873655 0.866414
O O17 0.315375 0.484603 0.750000
O O18 0.970316 0.750000 0.500000
O O19 0.014725 0.682969 0.373715
O O20 0.907166 0.368040 0.750000
#
# Coordination Sequence:
#
# PCOD8233698 Si02
#       8
#     8   8   8   8   8   8   8   8
#     4  10  20  41  68  90 119 160 215 268 302 355
#     4  10  22  41  69  96 120 164 222 267 307 365
#     4  10  22  41  68  94 119 164 222 267 308 366
#     4  12  26  40  60  95 134 170 199 254 323 393
#     4  10  22  43  66  91 125 165 216 270 310 361
#     4  10  20  41  69  90 117 162 219 268 301 357
#     4  12  26  40  60  95 134 170 199 254 321 391
#     4  10  22  43  66  91 125 165 217 271 310 359
#
# _framework density 20.150261
#
# number of rings (size 3 to 8) (size 9 to 14) (size 15 to 20)
#    0.000    1.500    2.500    2.250    3.500    3.000 
#    0.000    0.000    0.000    0.000    0.000    0.000 
#    0.000    0.000    0.000    0.000    0.000    0.000 
#
# Total GULP energy -793733.925990 kJ/mol
# GULP energy per Si atom -12402.092594 kJ/mol
# Density = 2.010440 g / cm^3
# Si number density = 20.150261 Si / 1000 Ang^3
#
#
#
# Elastic Constant Matrix: (Units=GPa)
#
#
# Indices 1 2 3 4 5 6 
#
# 1 101.8184 5.3281 35.6743 0.0000 0.0000 0.0000
# 2 5.3281 58.4490 31.4148 0.0000 0.0000 0.0000
# 3 35.6743 31.4148 63.7157 0.0000 0.0000 0.0000
# 4 0.0000 0.0000 0.0000 -78.6254 0.0000 0.0000
# 5 0.0000 0.0000 0.0000 0.0000 20.8674 0.0000
# 6 0.0000 0.0000 0.0000 0.0000 0.0000 31.2413
#
#
#
# Elastic Compliance Matrix: (Units=1/GPa)
#
#
# Indices 1 2 3 4 5 6 
#
# 1 0.012764 0.003643 -0.008943 0.000000 0.000000 0.000000
# 2 0.003643 0.024317 -0.014029 0.000000 0.000000 0.000000
# 3 -0.008943 -0.014029 0.027619 0.000000 0.000000 0.000000
# 4 0.000000 0.000000 0.000000 -0.012719 0.000000 0.000000
# 5 0.000000 0.000000 0.000000 0.000000 0.047922 0.000000
# 6 0.000000 0.000000 0.000000 0.000000 0.000000 0.032009
#
#
# Mechanical properties :
#
#
# Convention : Reuss Voigt Hill
#
# Bulk Modulus (GPa) = 38.39938 40.97972 39.68955
# Shear Modulus (GPa) = 27.89393 4.80106 16.34750
#
# Velocity S-wave (km/s) = 3.72465 1.54525 2.85139
# Velocity P-wave (km/s) = 6.13150 4.85437 5.52993
#
# Compressibility (1/GPa) = 0.02604208
#
# Stress axis : x y z
#
# Youngs Moduli (GPa) = 78.34508 41.12325 36.20727
#
# Poissons Ratio (x) = -0.14981 0.32379
# Poissons Ratio (y) = -0.28541 0.50796
# Poissons Ratio (z) = 0.70062 0.57692
#
# Static dielectric constant tensor:
#      x y z
#    x 3.842430 0.000000 0.000000 
#    y 0.000000 3.691180 0.000000 
#    z 0.000000 0.000000 3.428630 
# 
# 
# High freq. dielectric constant tensor:
#      x y z
#    x 1.802380 0.000000 0.000000 
#    y 0.000000 1.792520 0.000000 
#    z 0.000000 0.000000 1.763650 
# 
# From -- ./inp_files/22088.got.cif
#   From: 2010.03.12/outbox.cif.g09.slc.cpg/sg57_12_cif.got.tgz:22088.got - 2010.04.16 15:48:40.
