data_PCOD8233123
_publ_section_title
;
Structure prediction by ZEFSAII (Michael W. Deem and Ramdas Pophale) SiO2 
 PCOD8233123
Probable space group: P B C M
;
_chemical_formula_sum "Si O2"
_cell_formula_units_Z 36
_cell_length_a 10.541285
_cell_length_b 15.125235
_cell_length_c 11.102153
_cell_angle_alpha 90.000000
_cell_angle_beta 90.000000
_cell_angle_gamma 90.000000
_cell_volume 1770.120755
_symmetry_space_group_name_H-M "P B C M"
_symmetry_group_IT_number 57
_symmetry_cell_setting 'orthorhombic'
loop_
_space_group_symop_operation_xyz
x,y,z
-x,-y,1/2+z
x,1/2-y,-z
-x,1/2+y,1/2-z
-x,-y,-z
x,y,1/2-z
-x,1/2+y,z
x,1/2-y,1/2+z
loop_
_atom_site_type_symbol
_atom_site_label
_atom_site_fract_x
_atom_site_fract_y
_atom_site_fract_z
Si Si1 0.840460 0.750000 0.500000
Si Si2 0.340544 0.123570 0.114695
Si Si3 0.791219 0.028406 0.028402
Si Si4 0.623417 0.184382 0.110739
Si Si5 0.008407 0.402200 0.382246
O O1 0.749839 0.790222 0.603484
O O2 0.934101 0.673083 0.536300
O O3 0.330202 0.086611 0.250000
O O4 0.481664 0.153465 0.083695
O O5 0.302934 0.046938 0.021363
O O6 0.864929 0.074729 0.918643
O O7 0.713304 0.099029 0.105197
O O8 0.900066 0.987761 0.114179
O O9 0.634140 0.222930 0.250000
O O10 0.661991 0.250000 0.000000
O O11 0.001300 0.363163 0.250000
#
# Coordination Sequence:
#
# PCOD8233123 Si02
#       5
#     4   8   8   8   8
#     4  10  20  36  58  88 122 158 210 244 306 354
#     4  10  20  38  62  87 122 162 207 253 305 367
#     4  10  22  39  60  89 121 159 205 250 304 363
#     4  11  24  42  63  93 125 161 205 256 311 365
#     4  10  21  38  60  87 121 161 203 248 299 356
#
# _framework density 20.337596000000001
#
# number of rings (size 3 to 8) (size 9 to 14) (size 15 to 20)
#    0.000    1.778    1.111    2.667    1.556    1.778 
#    0.000    3.333    0.000    0.000    0.000    0.000 
#    0.000    0.000    0.000    0.000    0.000    0.000 
#
# Total GULP energy -446233.108068 kJ/mol
# GULP energy per Si atom -12395.364113 kJ/mol
# Density = 2.029131 g / cm^3
# Si number density = 20.337596 Si / 1000 Ang^3
#
#
#
# Elastic Constant Matrix: (Units=GPa)
#
#
# Indices 1 2 3 4 5 6 
#
# 1 48.0437 33.2317 8.5759 0.0000 0.0000 0.0000
# 2 33.2317 82.0643 22.0043 0.0000 0.0000 0.0000
# 3 8.5759 22.0043 93.9620 0.0000 0.0000 0.0000
# 4 0.0000 0.0000 0.0000 23.8163 0.0000 0.0000
# 5 0.0000 0.0000 0.0000 0.0000 7.8150 0.0000
# 6 0.0000 0.0000 0.0000 0.0000 0.0000 27.7669
#
#
#
# Elastic Compliance Matrix: (Units=1/GPa)
#
#
# Indices 1 2 3 4 5 6 
#
# 1 0.028914 -0.011738 0.000110 0.000000 0.000000 0.000000
# 2 -0.011738 0.017767 -0.003089 0.000000 0.000000 0.000000
# 3 0.000110 -0.003089 0.011356 0.000000 0.000000 0.000000
# 4 0.000000 0.000000 0.000000 0.041988 0.000000 0.000000
# 5 0.000000 0.000000 0.000000 0.000000 0.127959 0.000000
# 6 0.000000 0.000000 0.000000 0.000000 0.000000 0.036014
#
#
# Mechanical properties :
#
#
# Convention : Reuss Voigt Hill
#
# Bulk Modulus (GPa) = 34.96261 39.07709 37.01985
# Shear Modulus (GPa) = 16.50344 22.56353 19.53348
#
# Velocity S-wave (km/s) = 2.85173 3.33445 3.10249
# Velocity P-wave (km/s) = 5.29826 5.83787 5.57460
#
# Compressibility (1/GPa) = 0.02860198
#
# Stress axis : x y z
#
# Youngs Moduli (GPa) = 34.58542 56.28338 88.05858
#
# Poissons Ratio (x) = 0.66066 -0.00968
# Poissons Ratio (y) = 0.40597 0.27205
# Poissons Ratio (z) = -0.00380 0.17389
#
# Static dielectric constant tensor:
#      x y z
#    x 3.799210 0.000000 0.000000 
#    y 0.000000 3.711360 0.000000 
#    z 0.000000 0.000000 3.665960 
# 
# 
# High freq. dielectric constant tensor:
#      x y z
#    x 1.808220 0.000000 0.000000 
#    y 0.000000 1.788890 0.000000 
#    z 0.000000 0.000000 1.788820 
# 
# From -- ./inp_files/12521.got.cif
#   From: 2010.03.12/outbox.cif.g09.slc.cpg/sg57_7_cif.got.tgz:12521.got - 2010.04.16 15:48:40.
