data_PCOD8233904
_publ_section_title
;
Structure prediction by ZEFSAII (Michael W. Deem and Ramdas Pophale) SiO2 
 PCOD8233904
Probable space group: P B C M
;
_chemical_formula_sum "Si O2"
_cell_formula_units_Z 64
_cell_length_a 9.326165
_cell_length_b 14.686504
_cell_length_c 24.037095
_cell_angle_alpha 90.000000
_cell_angle_beta 90.000000
_cell_angle_gamma 90.000000
_cell_volume 3292.331086
_symmetry_space_group_name_H-M "P B C M"
_symmetry_group_IT_number 57
_symmetry_cell_setting 'orthorhombic'
loop_
_space_group_symop_operation_xyz
x,y,z
-x,-y,1/2+z
x,1/2-y,-z
-x,1/2+y,1/2-z
-x,-y,-z
x,y,1/2-z
-x,1/2+y,z
x,1/2-y,1/2+z
loop_
_atom_site_type_symbol
_atom_site_label
_atom_site_fract_x
_atom_site_fract_y
_atom_site_fract_z
Si Si1 0.330760 0.807602 0.685601
Si Si2 0.657890 0.812147 0.686667
Si Si3 0.329400 0.488547 0.618583
Si Si4 0.991667 0.149395 0.975371
Si Si5 0.824341 0.867194 0.311577
Si Si6 0.873988 0.352483 0.146734
Si Si7 0.653677 0.009791 0.379016
Si Si8 0.775163 0.996938 0.005235
O O1 0.297629 0.828681 0.750000
O O2 0.495493 0.777025 0.677111
O O3 0.226084 0.730620 0.663350
O O4 0.300243 0.896361 0.649299
O O5 0.675103 0.847857 0.750000
O O6 0.702568 0.889856 0.643575
O O7 0.766690 0.731976 0.672844
O O8 0.221043 0.557181 0.647739
O O9 0.490662 0.517428 0.635201
O O10 0.309423 0.486466 0.552343
O O11 0.948180 0.163962 0.912063
O O12 0.142099 0.097087 0.981860
O O13 0.002479 0.250000 0.000000
O O14 0.875647 0.086007 0.005992
O O15 0.770211 0.895257 0.250000
O O16 0.764845 0.936117 0.356859
O O17 0.996824 0.865377 0.310029
O O18 0.662959 0.015598 0.445631
#
# Coordination Sequence:
#
# PCOD8233904 Si02
#       8
#     8   8   8   8   8   8   8   8
#     4  10  21  38  61  85 115 156 200 242 295 354
#     4   9  21  40  59  84 116 155 197 244 297 353
#     4  10  23  38  63  88 119 156 198 244 298 354
#     4  10  21  37  57  85 117 157 187 239 302 347
#     4  11  23  38  58  85 118 153 197 244 297 353
#     4  11  22  38  57  87 118 151 196 246 297 349
#     4  11  21  40  60  88 120 158 195 246 298 351
#     4  10  21  37  59  89 119 151 201 241 289 357
#
# _framework density 19.439112999999999
#
# number of rings (size 3 to 8) (size 9 to 14) (size 15 to 20)
#    0.000    1.750    1.250    2.625    1.750    2.500 
#    0.000    1.250    0.000    6.000    0.000    0.000 
#    0.000    0.000    0.000    0.000    0.000    0.000 
#
# Total GULP energy -793701.333017 kJ/mol
# GULP energy per Si atom -12401.583328 kJ/mol
# Density = 1.939487 g / cm^3
# Si number density = 19.439113 Si / 1000 Ang^3
#
#
#
# Elastic Constant Matrix: (Units=GPa)
#
#
# Indices 1 2 3 4 5 6 
#
# 1 106.3169 66.2786 34.8888 0.0000 0.0000 0.0000
# 2 66.2786 117.2127 62.2737 0.0000 0.0000 0.0000
# 3 34.8888 62.2737 82.7870 0.0000 0.0000 0.0000
# 4 0.0000 0.0000 0.0000 34.0324 0.0000 0.0000
# 5 0.0000 0.0000 0.0000 0.0000 31.4451 0.0000
# 6 0.0000 0.0000 0.0000 0.0000 0.0000 47.1922
#
#
#
# Elastic Compliance Matrix: (Units=1/GPa)
#
#
# Indices 1 2 3 4 5 6 
#
# 1 0.014527 -0.008265 0.000095 0.000000 0.000000 0.000000
# 2 -0.008265 0.018913 -0.010743 0.000000 0.000000 0.000000
# 3 0.000095 -0.010743 0.020121 0.000000 0.000000 0.000000
# 4 0.000000 0.000000 0.000000 0.029384 0.000000 0.000000
# 5 0.000000 0.000000 0.000000 0.000000 0.031802 0.000000
# 6 0.000000 0.000000 0.000000 0.000000 0.000000 0.021190
#
#
# Mechanical properties :
#
#
# Convention : Reuss Voigt Hill
#
# Bulk Modulus (GPa) = 63.55846 70.35542 66.95694
# Shear Modulus (GPa) = 27.93190 32.05899 29.99544
#
# Velocity S-wave (km/s) = 3.79475 4.06544 3.93242
# Velocity P-wave (km/s) = 7.20884 7.63599 7.42549
#
# Compressibility (1/GPa) = 0.01573355
#
# Stress axis : x y z
#
# Youngs Moduli (GPa) = 68.83722 52.87453 49.70026
#
# Poissons Ratio (x) = 0.43699 -0.00471
# Poissons Ratio (y) = 0.56892 0.53395
# Poissons Ratio (z) = -0.00652 0.56805
#
# Static dielectric constant tensor:
#      x y z
#    x 3.618080 0.000000 0.000000 
#    y 0.000000 3.479680 0.000000 
#    z 0.000000 0.000000 3.619130 
# 
# 
# High freq. dielectric constant tensor:
#      x y z
#    x 1.762420 0.000000 0.000000 
#    y 0.000000 1.756350 0.000000 
#    z 0.000000 0.000000 1.767850 
# 
# From -- ./inp_files/26879.got.cif
#   From: 2010.03.12/outbox.cif.g09.slc.cpg/sg57_14_cif.got.tgz:26879.got - 2010.04.16 15:48:40.
