data_PCOD8233740
_publ_section_title
;
Structure prediction by ZEFSAII (Michael W. Deem and Ramdas Pophale) SiO2 
 PCOD8233740
Probable space group: P B C M
;
_chemical_formula_sum "Si O2"
_cell_formula_units_Z 48
_cell_length_a 8.680962
_cell_length_b 9.651675
_cell_length_c 28.560737
_cell_angle_alpha 90.000000
_cell_angle_beta 90.000000
_cell_angle_gamma 90.000000
_cell_volume 2392.984881
_symmetry_space_group_name_H-M "P B C M"
_symmetry_group_IT_number 57
_symmetry_cell_setting 'orthorhombic'
loop_
_space_group_symop_operation_xyz
x,y,z
-x,-y,1/2+z
x,1/2-y,-z
-x,1/2+y,1/2-z
-x,-y,-z
x,y,1/2-z
-x,1/2+y,z
x,1/2-y,1/2+z
loop_
_atom_site_type_symbol
_atom_site_label
_atom_site_fract_x
_atom_site_fract_y
_atom_site_fract_z
Si Si1 0.687711 0.747618 0.302835
Si Si2 0.544499 0.011867 0.054132
Si Si3 0.193600 0.608360 0.115154
Si Si4 0.928779 0.688238 0.880288
Si Si5 0.675965 0.734848 0.444547
Si Si6 0.419746 0.547774 0.196761
O O1 0.750726 0.741344 0.250000
O O2 0.838399 0.754754 0.335060
O O3 0.587879 0.610954 0.314639
O O4 0.577409 0.881734 0.309973
O O5 0.701867 0.096293 0.067621
O O6 0.399316 0.094151 0.075611
O O7 0.567795 0.859551 0.076044
O O8 0.500000 0.000000 0.000000
O O9 0.073584 0.478951 0.117970
O O10 0.297740 0.612408 0.161228
O O11 0.101386 0.753095 0.116484
O O12 0.847581 0.750955 0.926356
O O13 0.679390 0.750000 0.500000
O O14 0.372059 0.587604 0.250000
#
# Coordination Sequence:
#
# PCOD8233740 Si02
#       6
#     8   8   8   8   8   8
#     4   9  18  33  53  76 102 133 170 212 253 296
#     4   9  18  34  54  75  97 127 170 212 252 299
#     4  10  21  35  51  75 106 138 170 208 254 306
#     4  10  21  35  50  73 106 136 166 205 254 305
#     4   9  18  34  53  74  99 128 165 210 252 297
#     4   9  18  33  53  77 103 134 175 217 253 295
#
# _framework density 20.058630999999998
#
# number of rings (size 3 to 8) (size 9 to 14) (size 15 to 20)
#    0.000    2.667    0.000    1.000    0.000    3.333 
#    0.000   10.000    0.000    0.000    0.000    0.000 
#    0.000    0.000    0.000    0.000    0.000    0.000 
#
# Total GULP energy -594641.052023 kJ/mol
# GULP energy per Si atom -12388.355250 kJ/mol
# Density = 2.001298 g / cm^3
# Si number density = 20.058631 Si / 1000 Ang^3
#
#
#
# Elastic Constant Matrix: (Units=GPa)
#
#
# Indices 1 2 3 4 5 6 
#
# 1 50.3866 8.5611 32.5965 0.0000 0.0000 0.0000
# 2 8.5611 30.1878 18.9653 0.0000 0.0000 0.0000
# 3 32.5965 18.9653 79.7327 0.0000 0.0000 0.0000
# 4 0.0000 0.0000 0.0000 18.8859 0.0000 0.0000
# 5 0.0000 0.0000 0.0000 0.0000 24.8972 0.0000
# 6 0.0000 0.0000 0.0000 0.0000 0.0000 44.2841
#
#
#
# Elastic Compliance Matrix: (Units=1/GPa)
#
#
# Indices 1 2 3 4 5 6 
#
# 1 0.027001 -0.000849 -0.010837 0.000000 0.000000 0.000000
# 2 -0.000849 0.038972 -0.008923 0.000000 0.000000 0.000000
# 3 -0.010837 -0.008923 0.019095 0.000000 0.000000 0.000000
# 4 0.000000 0.000000 0.000000 0.052949 0.000000 0.000000
# 5 0.000000 0.000000 0.000000 0.000000 0.040165 0.000000
# 6 0.000000 0.000000 0.000000 0.000000 0.000000 0.022581
#
#
# Mechanical properties :
#
#
# Convention : Reuss Voigt Hill
#
# Bulk Modulus (GPa) = 22.80466 31.17255 26.98860
# Shear Modulus (GPa) = 19.48564 24.29241 21.88903
#
# Velocity S-wave (km/s) = 3.12017 3.48382 3.30699
# Velocity P-wave (km/s) = 4.93703 5.63534 5.29771
#
# Compressibility (1/GPa) = 0.04385069
#
# Stress axis : x y z
#
# Youngs Moduli (GPa) = 37.03506 25.65913 52.37087
#
# Poissons Ratio (x) = 0.02179 0.56753
# Poissons Ratio (y) = 0.03146 0.46729
# Poissons Ratio (z) = 0.40134 0.22895
#
# Static dielectric constant tensor:
#      x y z
#    x 3.340520 0.000000 0.000000 
#    y 0.000000 3.975950 0.000000 
#    z 0.000000 0.000000 3.932980 
# 
# 
# High freq. dielectric constant tensor:
#      x y z
#    x 1.749940 0.000000 0.000000 
#    y 0.000000 1.786190 0.000000 
#    z 0.000000 0.000000 1.791790 
# 
# From -- ./inp_files/29485.got.cif
#   From: 2010.03.12/outbox.cif.g09.slc.cpg/sg57_15_cif.got.tgz:29485.got - 2010.04.16 15:48:40.
