data_PCOD8233047
_publ_section_title
;
Structure prediction by ZEFSAII (Michael W. Deem and Ramdas Pophale) SiO2 
 PCOD8233047
Probable space group: P B C M
;
_chemical_formula_sum "Si O2"
_cell_formula_units_Z 40
_cell_length_a 24.844209
_cell_length_b 9.649748
_cell_length_c 8.907581
_cell_angle_alpha 90.000000
_cell_angle_beta 90.000000
_cell_angle_gamma 90.000000
_cell_volume 2135.506641
_symmetry_space_group_name_H-M "P B C M"
_symmetry_group_IT_number 57
_symmetry_cell_setting 'orthorhombic'
loop_
_space_group_symop_operation_xyz
x,y,z
-x,-y,1/2+z
x,1/2-y,-z
-x,1/2+y,1/2-z
-x,-y,-z
x,y,1/2-z
-x,1/2+y,z
x,1/2-y,1/2+z
loop_
_atom_site_type_symbol
_atom_site_label
_atom_site_fract_x
_atom_site_fract_y
_atom_site_fract_z
Si Si1 0.740963 0.891857 0.072827
Si Si2 0.661770 0.396804 0.076923
Si Si3 0.863134 0.609221 0.924503
Si Si4 0.044559 0.597984 0.072174
Si Si5 0.459594 0.603316 0.922463
O O1 0.735037 0.881588 0.250000
O O2 0.802343 0.923396 0.023120
O O3 0.720870 0.750000 0.000000
O O4 0.703166 0.009798 0.011243
O O5 0.679037 0.385418 0.250000
O O6 0.601107 0.455298 0.061435
O O7 0.665242 0.250000 0.000000
O O8 0.865771 0.640689 0.750000
O O9 0.898580 0.475132 0.965952
O O10 0.885499 0.750000 0.000000
O O11 0.034831 0.611153 0.250000
O O12 0.043558 0.750000 0.000000
O O13 0.000000 0.500000 0.000000
O O14 0.475904 0.620751 0.750000
O O15 0.465415 0.750000 0.000000
O O16 0.500000 0.500000 0.000000
#
# Coordination Sequence:
#
# PCOD8233047 Si02
#       5
#     8   8   8   8   8
#     4  10  20  36  57  82 111 145 183 224 269 320
#     4  10  21  37  56  80 109 143 180 223 272 323
#     4   9  20  37  57  81 110 143 181 224 271 320
#     4  11  23  39  58  83 113 146 184 226 272 324
#     4  10  21  37  57  80 108 141 180 223 271 323
#
# _framework density 18.730919
#
# number of rings (size 3 to 8) (size 9 to 14) (size 15 to 20)
#    0.000    2.000    0.000    3.000    0.000    8.000 
#    0.000    2.000    0.000    0.000    0.000    0.000 
#    0.000    0.000    0.000    0.000    0.000    0.000 
#
# Total GULP energy -496044.122881 kJ/mol
# GULP energy per Si atom -12401.103072 kJ/mol
# Density = 1.868829 g / cm^3
# Si number density = 18.730919 Si / 1000 Ang^3
#
#
#
# Elastic Constant Matrix: (Units=GPa)
#
#
# Indices 1 2 3 4 5 6 
#
# 1 97.4020 69.0484 56.7938 0.0000 0.0000 0.0000
# 2 69.0484 121.0152 60.2212 0.0000 0.0000 0.0000
# 3 56.7938 60.2212 116.6795 0.0000 0.0000 0.0000
# 4 0.0000 0.0000 0.0000 41.9087 0.0000 0.0000
# 5 0.0000 0.0000 0.0000 0.0000 28.3553 0.0000
# 6 0.0000 0.0000 0.0000 0.0000 0.0000 42.4355
#
#
#
# Elastic Compliance Matrix: (Units=1/GPa)
#
#
# Indices 1 2 3 4 5 6 
#
# 1 0.019157 -0.008464 -0.004956 0.000000 0.000000 0.000000
# 2 -0.008464 0.014859 -0.003549 0.000000 0.000000 0.000000
# 3 -0.004956 -0.003549 0.012815 0.000000 0.000000 0.000000
# 4 0.000000 0.000000 0.000000 0.023861 0.000000 0.000000
# 5 0.000000 0.000000 0.000000 0.000000 0.035267 0.000000
# 6 0.000000 0.000000 0.000000 0.000000 0.000000 0.023565
#
#
# Mechanical properties :
#
#
# Convention : Reuss Voigt Hill
#
# Bulk Modulus (GPa) = 77.56883 78.58040 78.07461
# Shear Modulus (GPa) = 29.80454 32.47545 31.13999
#
# Velocity S-wave (km/s) = 3.99331 4.16840 4.08179
# Velocity P-wave (km/s) = 7.92238 8.07531 7.99921
#
# Compressibility (1/GPa) = 0.01289178
#
# Stress axis : x y z
#
# Youngs Moduli (GPa) = 52.20104 67.29914 78.03548
#
# Poissons Ratio (x) = 0.56962 0.38675
# Poissons Ratio (y) = 0.44183 0.27697
# Poissons Ratio (z) = 0.25871 0.23886
#
# Static dielectric constant tensor:
#      x y z
#    x 3.752660 0.000000 0.000000 
#    y 0.000000 3.403170 0.000000 
#    z 0.000000 0.000000 3.619560 
# 
# 
# High freq. dielectric constant tensor:
#      x y z
#    x 1.735480 0.000000 0.000000 
#    y 0.000000 1.728090 0.000000 
#    z 0.000000 0.000000 1.744030 
# 
# From -- ./inp_files/8855.got.cif
#   From: 2010.03.12/outbox.cif.g09.slc.cpg/sg57_5_cif.got.tgz:8855.got - 2010.04.16 15:48:40.
