data_PCOD8233965
_publ_section_title
;
Structure prediction by ZEFSAII (Michael W. Deem and Ramdas Pophale) SiO2 
 PCOD8233965
Probable space group: P B C M
;
_chemical_formula_sum "Si O2"
_cell_formula_units_Z 48
_cell_length_a 9.856641
_cell_length_b 29.095387
_cell_length_c 8.743046
_cell_angle_alpha 90.000000
_cell_angle_beta 90.000000
_cell_angle_gamma 90.000000
_cell_volume 2507.355076
_symmetry_space_group_name_H-M "P B C M"
_symmetry_group_IT_number 57
_symmetry_cell_setting 'orthorhombic'
loop_
_space_group_symop_operation_xyz
x,y,z
-x,-y,1/2+z
x,1/2-y,-z
-x,1/2+y,1/2-z
-x,-y,-z
x,y,1/2-z
-x,1/2+y,z
x,1/2-y,1/2+z
loop_
_atom_site_type_symbol
_atom_site_label
_atom_site_fract_x
_atom_site_fract_y
_atom_site_fract_z
Si Si1 0.219195 0.202844 0.428833
Si Si2 0.710223 0.117461 0.071230
Si Si3 0.025294 0.379175 0.571908
Si Si4 0.117599 0.470270 0.070419
Si Si5 0.525308 0.298488 0.569098
Si Si6 0.365006 0.520229 0.930913
O O1 0.167509 0.250000 0.500000
O O2 0.223280 0.209486 0.250000
O O3 0.109136 0.165413 0.477366
O O4 0.371460 0.190236 0.486003
O O5 0.684822 0.109120 0.250000
O O6 0.621962 0.160436 0.009972
O O7 0.867097 0.128580 0.036947
O O8 0.664347 0.071819 0.984789
O O9 0.048009 0.391990 0.750000
O O10 0.085920 0.417621 0.462092
O O11 0.130216 0.479769 0.250000
O O12 0.253350 0.484547 0.986331
O O13 0.000000 0.500000 0.000000
O O14 0.574906 0.250000 0.500000
O O15 0.535804 0.294396 0.750000
O O16 0.373167 0.520179 0.750000
O O17 0.500000 0.500000 0.000000
#
# Coordination Sequence:
#
# PCOD8233965 Si02
#       6
#     8   8   8   8   8   8
#     4   9  19  36  57  83 114 152 195 244 299 354
#     4  10  21  38  59  85 119 156 199 247 299 355
#     4  10  21  37  59  86 118 157 199 246 299 354
#     4  12  24  41  63  90 123 162 203 247 300 358
#     4   9  19  36  57  82 113 153 195 244 300 355
#     4  12  26  43  63  90 123 160 203 252 303 360
#
# _framework density 19.143678000000001
#
# number of rings (size 3 to 8) (size 9 to 14) (size 15 to 20)
#    0.000    1.667    1.667    3.000    2.333    2.000 
#    0.000    0.000    0.000    0.000    0.000    0.000 
#    0.000    0.000    0.000    0.000    0.000    0.000 
#
# Total GULP energy -595284.506872 kJ/mol
# GULP energy per Si atom -12401.760560 kJ/mol
# Density = 1.910011 g / cm^3
# Si number density = 19.143678 Si / 1000 Ang^3
#
#
#
# Elastic Constant Matrix: (Units=GPa)
#
#
# Indices 1 2 3 4 5 6 
#
# 1 154.5136 89.0116 51.4757 0.0000 0.0000 0.0000
# 2 89.0116 148.7534 54.2295 0.0000 0.0000 0.0000
# 3 51.4757 54.2295 83.3122 0.0000 0.0000 0.0000
# 4 0.0000 0.0000 0.0000 38.5461 0.0000 0.0000
# 5 0.0000 0.0000 0.0000 0.0000 24.0796 0.0000
# 6 0.0000 0.0000 0.0000 0.0000 0.0000 49.5280
#
#
#
# Elastic Compliance Matrix: (Units=1/GPa)
#
#
# Indices 1 2 3 4 5 6 
#
# 1 0.010465 -0.005120 -0.003133 0.000000 0.000000 0.000000
# 2 -0.005120 0.011319 -0.004204 0.000000 0.000000 0.000000
# 3 -0.003133 -0.004204 0.016676 0.000000 0.000000 0.000000
# 4 0.000000 0.000000 0.000000 0.025943 0.000000 0.000000
# 5 0.000000 0.000000 0.000000 0.000000 0.041529 0.000000
# 6 0.000000 0.000000 0.000000 0.000000 0.000000 0.020191
#
#
# Mechanical properties :
#
#
# Convention : Reuss Voigt Hill
#
# Bulk Modulus (GPa) = 73.83013 86.22364 80.02688
# Shear Modulus (GPa) = 32.14345 35.22157 33.68251
#
# Velocity S-wave (km/s) = 4.10208 4.29401 4.19914
# Velocity P-wave (km/s) = 7.81576 8.35001 8.08730
#
# Compressibility (1/GPa) = 0.01354461
#
# Stress axis : x y z
#
# Youngs Moduli (GPa) = 95.55393 88.34763 59.96720
#
# Poissons Ratio (x) = 0.45233 0.18791
# Poissons Ratio (y) = 0.48923 0.25212
# Poissons Ratio (z) = 0.29942 0.37144
#
# Static dielectric constant tensor:
#      x y z
#    x 3.761860 0.000000 0.000000 
#    y 0.000000 3.552780 0.000000 
#    z 0.000000 0.000000 3.338200 
# 
# 
# High freq. dielectric constant tensor:
#      x y z
#    x 1.756980 0.000000 0.000000 
#    y 0.000000 1.753240 0.000000 
#    z 0.000000 0.000000 1.740410 
# 
# From -- ./inp_files/2071.got.cif
#   From: 2010.03.12/outbox.cif.g09.slc.cpg/sg57_2_cif.got.tgz:2071.got - 2010.04.16 15:48:40.
