data_PCOD8233824
_publ_section_title
;
Structure prediction by ZEFSAII (Michael W. Deem and Ramdas Pophale) SiO2 
 PCOD8233824
Probable space group: P B C M
;
_chemical_formula_sum "Si O2"
_cell_formula_units_Z 60
_cell_length_a 17.804499
_cell_length_b 5.201492
_cell_length_c 30.384395
_cell_angle_alpha 90.000000
_cell_angle_beta 90.000000
_cell_angle_gamma 90.000000
_cell_volume 2813.897579
_symmetry_space_group_name_H-M "P B C M"
_symmetry_group_IT_number 57
_symmetry_cell_setting 'orthorhombic'
loop_
_space_group_symop_operation_xyz
x,y,z
-x,-y,1/2+z
x,1/2-y,-z
-x,1/2+y,1/2-z
-x,-y,-z
x,y,1/2-z
-x,1/2+y,z
x,1/2-y,1/2+z
loop_
_atom_site_type_symbol
_atom_site_label
_atom_site_fract_x
_atom_site_fract_y
_atom_site_fract_z
Si Si1 0.333201 0.951736 0.608869
Si Si2 0.461014 0.782690 0.551811
Si Si3 0.343161 0.456673 0.665609
Si Si4 0.914605 0.001814 0.480675
Si Si5 0.162125 0.991129 0.890855
Si Si6 0.030607 0.159013 0.299175
Si Si7 0.173607 0.491393 0.836508
Si Si8 0.448826 0.058618 0.250000
O O1 0.379773 0.891362 0.564957
O O2 0.357802 0.730627 0.643183
O O3 0.247270 0.939631 0.592483
O O4 0.353695 0.224170 0.631069
O O5 0.464846 0.750000 0.500000
O O6 0.480656 0.499436 0.570756
O O7 0.257112 0.466524 0.682572
O O8 0.397507 0.417700 0.706806
O O9 0.872615 0.250000 0.500000
O O10 0.902654 0.022307 0.428215
O O11 0.873392 0.750000 0.500000
O O12 0.000000 0.000000 0.500000
O O13 0.149903 0.773520 0.853788
O O14 0.157866 0.281905 0.874145
O O15 0.999160 0.204120 0.250000
O O16 0.117664 0.079882 0.296974
O O17 0.016152 0.430744 0.323893
O O18 0.509036 0.286917 0.250000
#
# Coordination Sequence:
#
# PCOD8233824 Si02
#       8
#     8   8   8   8   8   8   8   4
#     4  10  21  39  61  87 117 159 203 246 300 360
#     4  10  21  36  56  86 117 147 191 240 297 358
#     4  10  23  40  62  87 120 164 204 246 304 363
#     4  10  21  39  56  81 115 155 193 243 301 358
#     4  10  21  39  59  85 118 150 207 249 283 363
#     4  10  21  38  57  87 119 146 191 245 298 353
#     4  10  21  40  61  87 116 159 202 245 302 358
#     4  12  26  42  62  96 130 160 212 260 306 376
#
# _framework density 21.322738999999999
#
# number of rings (size 3 to 8) (size 9 to 14) (size 15 to 20)
#    0.000    1.867    0.000    3.200    0.933    3.733 
#   14.400    2.000    0.000    0.000    0.000    0.000 
#    0.000    0.000    0.000    0.000    0.000    0.000 
#
# Total GULP energy -743295.555813 kJ/mol
# GULP energy per Si atom -12388.259264 kJ/mol
# Density = 2.127421 g / cm^3
# Si number density = 21.322739 Si / 1000 Ang^3
#
#
#
# Elastic Constant Matrix: (Units=GPa)
#
#
# Indices 1 2 3 4 5 6 
#
# 1 81.1661 21.8508 27.5868 0.0000 0.0000 0.0000
# 2 21.8508 155.2851 20.2637 0.0000 0.0000 0.0000
# 3 27.5868 20.2637 42.2364 0.0000 0.0000 0.0000
# 4 0.0000 0.0000 0.0000 22.2727 0.0000 0.0000
# 5 0.0000 0.0000 0.0000 0.0000 43.4181 0.0000
# 6 0.0000 0.0000 0.0000 0.0000 0.0000 29.1210
#
#
#
# Elastic Compliance Matrix: (Units=1/GPa)
#
#
# Indices 1 2 3 4 5 6 
#
# 1 0.015965 -0.000945 -0.009974 0.000000 0.000000 0.000000
# 2 -0.000945 0.006926 -0.002706 0.000000 0.000000 0.000000
# 3 -0.009974 -0.002706 0.031489 0.000000 0.000000 0.000000
# 4 0.000000 0.000000 0.000000 0.044898 0.000000 0.000000
# 5 0.000000 0.000000 0.000000 0.000000 0.023032 0.000000
# 6 0.000000 0.000000 0.000000 0.000000 0.000000 0.034339
#
#
# Mechanical properties :
#
#
# Convention : Reuss Voigt Hill
#
# Bulk Modulus (GPa) = 36.85921 46.45450 41.65685
# Shear Modulus (GPa) = 25.91459 32.89479 29.40469
#
# Velocity S-wave (km/s) = 3.48997 3.93200 3.71756
# Velocity P-wave (km/s) = 5.79342 6.51520 6.16488
#
# Compressibility (1/GPa) = 0.02713026
#
# Stress axis : x y z
#
# Youngs Moduli (GPa) = 62.63779 144.38772 31.75718
#
# Poissons Ratio (x) = 0.13643 0.31675
# Poissons Ratio (y) = 0.05919 0.08592
# Poissons Ratio (z) = 0.62476 0.39066
#
# Static dielectric constant tensor:
#      x y z
#    x 3.908320 0.000000 0.000000 
#    y 0.000000 4.905690 0.000000 
#    z 0.000000 0.000000 3.415730 
# 
# 
# High freq. dielectric constant tensor:
#      x y z
#    x 1.830850 0.000000 0.000000 
#    y 0.000000 1.875050 0.000000 
#    z 0.000000 0.000000 1.804890 
# 
# From -- ./inp_files/28858.got.cif
#   From: 2010.03.12/outbox.cif.g09.slc.cpg/sg57_15_cif.got.tgz:28858.got - 2010.04.16 15:48:40.
