data_PCOD8233176
_publ_section_title
;
Structure prediction by ZEFSAII (Michael W. Deem and Ramdas Pophale) SiO2 
 PCOD8233176
Probable space group: P B C M
;
_chemical_formula_sum "Si O2"
_cell_formula_units_Z 36
_cell_length_a 11.875181
_cell_length_b 4.941605
_cell_length_c 26.713229
_cell_angle_alpha 90.000000
_cell_angle_beta 90.000000
_cell_angle_gamma 90.000000
_cell_volume 1567.597827
_symmetry_space_group_name_H-M "P B C M"
_symmetry_group_IT_number 57
_symmetry_cell_setting 'orthorhombic'
loop_
_space_group_symop_operation_xyz
x,y,z
-x,-y,1/2+z
x,1/2-y,-z
-x,1/2+y,1/2-z
-x,-y,-z
x,y,1/2-z
-x,1/2+y,z
x,1/2-y,1/2+z
loop_
_atom_site_type_symbol
_atom_site_label
_atom_site_fract_x
_atom_site_fract_y
_atom_site_fract_z
Si Si1 0.077280 0.050550 0.250000
Si Si2 0.273731 0.994586 0.966784
Si Si3 0.574803 0.554675 0.626136
Si Si4 0.923347 0.418887 0.605860
Si Si5 0.217811 0.073389 0.694530
O O1 0.152199 0.136387 0.298708
O O2 0.963198 0.240850 0.250000
O O3 0.366810 0.095312 0.927457
O O4 0.163628 0.877364 0.939312
O O5 0.239314 0.250000 0.000000
O O6 0.323767 0.750000 0.000000
O O7 0.467254 0.747950 0.631175
O O8 0.660768 0.625763 0.670634
O O9 0.857350 0.383852 0.658536
O O10 0.973303 0.717819 0.601794
O O11 0.232347 0.935675 0.750000
#
# Coordination Sequence:
#
# PCOD8233176 Si02
#       5
#     4   8   8   8   8
#     4  10  20  36  60  88 120 158 198 238 288 352
#     4  11  24  42  64  93 124 159 209 259 309 377
#     4  11  25  44  65  92 124 161 209 263 317 364
#     4  11  23  39  62  93 129 166 203 250 308 370
#     4   9  23  42  62  96 124 168 209 257 297 371
#
# _framework density 22.965074999999999
#
# number of rings (size 3 to 8) (size 9 to 14) (size 15 to 20)
#    0.667    0.889    0.000    4.000    0.000   13.333 
#    0.000    0.000    0.000    0.000    0.000    0.000 
#    0.000    0.000    0.000    0.000    0.000    0.000 
#
# Total GULP energy -446384.909125 kJ/mol
# GULP energy per Si atom -12399.580809 kJ/mol
# Density = 2.291281 g / cm^3
# Si number density = 22.965075 Si / 1000 Ang^3
#
#
#
# Elastic Constant Matrix: (Units=GPa)
#
#
# Indices 1 2 3 4 5 6 
#
# 1 112.9183 10.5197 52.3376 0.0000 0.0000 0.0000
# 2 10.5197 69.8432 28.7502 0.0000 0.0000 0.0000
# 3 52.3376 28.7502 139.2133 0.0000 0.0000 0.0000
# 4 0.0000 0.0000 0.0000 21.4160 0.0000 0.0000
# 5 0.0000 0.0000 0.0000 0.0000 17.3776 0.0000
# 6 0.0000 0.0000 0.0000 0.0000 0.0000 27.5760
#
#
#
# Elastic Compliance Matrix: (Units=1/GPa)
#
#
# Indices 1 2 3 4 5 6 
#
# 1 0.010725 0.000049 -0.004042 0.000000 0.000000 0.000000
# 2 0.000049 0.015648 -0.003250 0.000000 0.000000 0.000000
# 3 -0.004042 -0.003250 0.009374 0.000000 0.000000 0.000000
# 4 0.000000 0.000000 0.000000 0.046694 0.000000 0.000000
# 5 0.000000 0.000000 0.000000 0.000000 0.057545 0.000000
# 6 0.000000 0.000000 0.000000 0.000000 0.000000 0.036263
#
#
# Mechanical properties :
#
#
# Convention : Reuss Voigt Hill
#
# Bulk Modulus (GPa) = 47.03607 56.13219 51.58413
# Shear Modulus (GPa) = 25.27500 28.63173 26.95336
#
# Velocity S-wave (km/s) = 3.32110 3.53477 3.42960
# Velocity P-wave (km/s) = 5.93568 6.41521 6.18010
#
# Compressibility (1/GPa) = 0.02126028
#
# Stress axis : x y z
#
# Youngs Moduli (GPa) = 93.24056 63.90480 106.67778
#
# Poissons Ratio (x) = -0.00310 0.43120
# Poissons Ratio (y) = -0.00452 0.34669
# Poissons Ratio (z) = 0.37689 0.20768
#
# Static dielectric constant tensor:
#      x y z
#    x 4.033170 0.000000 0.000000 
#    y 0.000000 3.744220 0.000000 
#    z 0.000000 0.000000 4.312050 
# 
# 
# High freq. dielectric constant tensor:
#      x y z
#    x 1.908930 0.000000 0.000000 
#    y 0.000000 1.896280 0.000000 
#    z 0.000000 0.000000 1.917100 
# 
# From -- ./inp_files/29670.got.cif
#   From: 2010.03.12/outbox.cif.g09.slc.cpg/sg57_15_cif.got.tgz:29670.got - 2010.04.16 15:48:40.
