data_PCOD8233326
_publ_section_title
;
Structure prediction by ZEFSAII (Michael W. Deem and Ramdas Pophale) SiO2 
 PCOD8233326
Probable space group: P B C M
;
_chemical_formula_sum "Si O2"
_cell_formula_units_Z 56
_cell_length_a 20.471005
_cell_length_b 8.809870
_cell_length_c 14.925023
_cell_angle_alpha 90.000000
_cell_angle_beta 90.000000
_cell_angle_gamma 90.000000
_cell_volume 2691.681523
_symmetry_space_group_name_H-M "P B C M"
_symmetry_group_IT_number 57
_symmetry_cell_setting 'orthorhombic'
loop_
_space_group_symop_operation_xyz
x,y,z
-x,-y,1/2+z
x,1/2-y,-z
-x,1/2+y,1/2-z
-x,-y,-z
x,y,1/2-z
-x,1/2+y,z
x,1/2-y,1/2+z
loop_
_atom_site_type_symbol
_atom_site_label
_atom_site_fract_x
_atom_site_fract_y
_atom_site_fract_z
Si Si1 0.445707 0.578907 0.147655
Si Si2 0.783262 0.072863 0.483148
Si Si3 0.888830 0.347905 0.848287
Si Si4 0.348932 0.070767 0.513247
Si Si5 0.025259 0.375261 0.565731
Si Si6 0.149290 0.994976 0.347175
Si Si7 0.417477 0.926859 0.352428
O O1 0.424302 0.547988 0.250000
O O2 0.404886 0.469007 0.083941
O O3 0.521157 0.537496 0.133979
O O4 0.436371 0.754721 0.121657
O O5 0.769458 0.250000 0.500000
O O6 0.845196 0.051138 0.416298
O O7 0.799498 0.976020 0.573248
O O8 0.718465 0.993729 0.444705
O O9 0.887869 0.426205 0.750000
O O10 0.856816 0.184802 0.843212
O O11 0.962781 0.319502 0.878775
O O12 0.345712 0.250000 0.500000
O O13 0.360997 0.986441 0.418234
O O14 0.055548 0.250000 0.500000
O O15 0.079776 0.427810 0.634992
O O16 0.000000 0.500000 0.500000
O O17 0.174609 0.054139 0.250000
O O18 0.391936 0.934383 0.250000
#
# Coordination Sequence:
#
# PCOD8233326 Si02
#       7
#     8   8   8   8   8   8   8
#     4  10  21  39  64  93 124 158 199 247 298 355
#     4  10  21  40  59  80 112 157 203 249 293 351
#     4  10  20  37  60  86 116 153 195 240 294 354
#     4  12  25  39  60  87 123 162 203 249 302 357
#     4  12  20  36  61  86 120 151 187 240 295 352
#     4  10  21  38  61  87 114 150 195 242 298 355
#     4  10  21  39  64  93 124 158 199 248 300 355
#
# _framework density 20.804836999999999
#
# number of rings (size 3 to 8) (size 9 to 14) (size 15 to 20)
#    0.000    1.429    2.857    3.429    0.000    3.429 
#    0.000    2.857    0.000    0.000    0.000    0.000 
#    0.000    0.000    0.000    0.000    0.000    0.000 
#
# Total GULP energy -694296.386697 kJ/mol
# GULP energy per Si atom -12398.149762 kJ/mol
# Density = 2.075748 g / cm^3
# Si number density = 20.804837 Si / 1000 Ang^3
#
#
#
# Elastic Constant Matrix: (Units=GPa)
#
#
# Indices 1 2 3 4 5 6 
#
# 1 70.8480 13.0282 26.2011 0.0000 0.0000 0.0000
# 2 13.0282 85.1257 23.9771 0.0000 0.0000 0.0000
# 3 26.2011 23.9771 120.0798 0.0000 0.0000 0.0000
# 4 0.0000 0.0000 0.0000 23.3565 0.0000 0.0000
# 5 0.0000 0.0000 0.0000 0.0000 19.7826 0.0000
# 6 0.0000 0.0000 0.0000 0.0000 0.0000 27.3293
#
#
#
# Elastic Compliance Matrix: (Units=1/GPa)
#
#
# Indices 1 2 3 4 5 6 
#
# 1 0.015534 -0.001508 -0.003088 0.000000 0.000000 0.000000
# 2 -0.001508 0.012594 -0.002186 0.000000 0.000000 0.000000
# 3 -0.003088 -0.002186 0.009438 0.000000 0.000000 0.000000
# 4 0.000000 0.000000 0.000000 0.042815 0.000000 0.000000
# 5 0.000000 0.000000 0.000000 0.000000 0.050549 0.000000
# 6 0.000000 0.000000 0.000000 0.000000 0.000000 0.036591
#
#
# Mechanical properties :
#
#
# Convention : Reuss Voigt Hill
#
# Bulk Modulus (GPa) = 41.66236 44.71848 43.19042
# Shear Modulus (GPa) = 26.44312 28.28349 27.36330
#
# Velocity S-wave (km/s) = 3.56899 3.69110 3.63055
# Velocity P-wave (km/s) = 6.08706 6.30131 6.19511
#
# Compressibility (1/GPa) = 0.02400248
#
# Stress axis : x y z
#
# Youngs Moduli (GPa) = 64.37439 79.40479 105.95319
#
# Poissons Ratio (x) = 0.11970 0.32724
# Poissons Ratio (y) = 0.09705 0.23158
# Poissons Ratio (z) = 0.19882 0.17356
#
# Static dielectric constant tensor:
#      x y z
#    x 3.600640 0.000000 0.000000 
#    y 0.000000 3.601250 0.000000 
#    z 0.000000 0.000000 4.261280 
# 
# 
# High freq. dielectric constant tensor:
#      x y z
#    x 1.804260 0.000000 0.000000 
#    y 0.000000 1.802490 0.000000 
#    z 0.000000 0.000000 1.826210 
# 
# From -- ./inp_files/19322.got.cif
#   From: 2010.03.12/outbox.cif.g09.slc.cpg/sg57_10_cif.got.tgz:19322.got - 2010.04.16 15:48:40.
