data_PCOD8233786
_publ_section_title
;
Structure prediction by ZEFSAII (Michael W. Deem and Ramdas Pophale) SiO2 
 PCOD8233786
Probable space group: P B C M
;
_chemical_formula_sum "Si O2"
_cell_formula_units_Z 64
_cell_length_a 23.161047
_cell_length_b 15.319532
_cell_length_c 8.719735
_cell_angle_alpha 90.000000
_cell_angle_beta 90.000000
_cell_angle_gamma 90.000000
_cell_volume 3093.904987
_symmetry_space_group_name_H-M "P B C M"
_symmetry_group_IT_number 57
_symmetry_cell_setting 'orthorhombic'
loop_
_space_group_symop_operation_xyz
x,y,z
-x,-y,1/2+z
x,1/2-y,-z
-x,1/2+y,1/2-z
-x,-y,-z
x,y,1/2-z
-x,1/2+y,z
x,1/2-y,1/2+z
loop_
_atom_site_type_symbol
_atom_site_label
_atom_site_fract_x
_atom_site_fract_y
_atom_site_fract_z
Si Si1 0.583427 0.069540 0.076150
Si Si2 0.305824 0.977391 0.069937
Si Si3 0.869023 0.842513 0.567598
Si Si4 0.462197 0.098469 0.424499
Si Si5 0.812417 0.007434 0.070433
Si Si6 0.010933 0.094735 0.932283
Si Si7 0.343987 0.165703 0.422056
Si Si8 0.101966 0.837145 0.930954
O O1 0.604926 0.077281 0.250000
O O2 0.528001 0.133748 0.043082
O O3 0.640189 0.086471 0.971872
O O4 0.555533 0.974937 0.046376
O O5 0.295193 0.972513 0.250000
O O6 0.321940 0.074318 0.008256
O O7 0.248069 0.949787 0.981631
O O8 0.847611 0.750000 0.500000
O O9 0.872988 0.836912 0.750000
O O10 0.823569 0.917701 0.520769
O O11 0.930824 0.864970 0.497551
O O12 0.459650 0.059869 0.250000
O O13 0.413798 0.173737 0.437114
O O14 0.812214 0.987249 0.250000
O O15 0.860923 0.077897 0.027453
O O16 0.015752 0.088552 0.750000
O O17 0.959142 0.156913 0.983320
O O18 0.000000 0.000000 0.000000
O O19 0.315325 0.250000 0.500000
O O20 0.322067 0.168586 0.250000
O O21 0.093280 0.828358 0.750000
O O22 0.132188 0.750000 0.000000
#
# Coordination Sequence:
#
# PCOD8233786 Si02
#       8
#     8   8   8   8   8   8   8   8
#     4   9  15  26  47  72  96 126 168 217 270 329
#     4  10  21  36  53  75 107 145 188 236 288 343
#     4  12  25  42  64  90 125 166 205 249 302 360
#     4   8  15  27  43  67  99 129 162 211 270 327
#     4  11  24  42  63  88 119 155 204 256 302 357
#     4  12  23  39  64  94 128 163 201 245 301 363
#     4   9  18  31  47  71 104 142 181 226 277 336
#     4  11  24  42  66  94 124 156 197 248 305 366
#
# _framework density 20.685832999999999
#
# number of rings (size 3 to 8) (size 9 to 14) (size 15 to 20)
#    0.000    1.750    1.250    4.875    0.000    5.000 
#    0.000    1.250    0.000    0.750    0.000    1.750 
#    0.000    0.000    0.000    0.000    0.000    0.000 
#
# Total GULP energy -793218.662076 kJ/mol
# GULP energy per Si atom -12394.041595 kJ/mol
# Density = 2.063875 g / cm^3
# Si number density = 20.685833 Si / 1000 Ang^3
#
#
#
# Elastic Constant Matrix: (Units=GPa)
#
#
# Indices 1 2 3 4 5 6 
#
# 1 99.9258 -1.0517 31.3177 0.0000 0.0000 0.0000
# 2 -1.0517 58.5865 30.1164 0.0000 0.0000 0.0000
# 3 31.3177 30.1164 106.5683 0.0000 0.0000 0.0000
# 4 0.0000 0.0000 0.0000 28.6543 0.0000 0.0000
# 5 0.0000 0.0000 0.0000 0.0000 33.7857 0.0000
# 6 0.0000 0.0000 0.0000 0.0000 0.0000 11.0079
#
#
#
# Elastic Compliance Matrix: (Units=1/GPa)
#
#
# Indices 1 2 3 4 5 6 
#
# 1 0.011266 0.002228 -0.003940 0.000000 0.000000 0.000000
# 2 0.002228 0.020410 -0.006423 0.000000 0.000000 0.000000
# 3 -0.003940 -0.006423 0.012357 0.000000 0.000000 0.000000
# 4 0.000000 0.000000 0.000000 0.034899 0.000000 0.000000
# 5 0.000000 0.000000 0.000000 0.000000 0.029598 0.000000
# 6 0.000000 0.000000 0.000000 0.000000 0.000000 0.090844
#
#
# Mechanical properties :
#
#
# Convention : Reuss Voigt Hill
#
# Bulk Modulus (GPa) = 36.02000 42.87169 39.44584
# Shear Modulus (GPa) = 22.23229 28.33614 25.28422
#
# Velocity S-wave (km/s) = 3.28191 3.70514 3.49993
# Velocity P-wave (km/s) = 5.64021 6.25094 5.95341
#
# Compressibility (1/GPa) = 0.02776236
#
# Stress axis : x y z
#
# Youngs Moduli (GPa) = 88.76429 48.99476 80.92798
#
# Poissons Ratio (x) = -0.10915 0.31888
# Poissons Ratio (y) = -0.19774 0.51977
# Poissons Ratio (z) = 0.34976 0.31468
#
# Static dielectric constant tensor:
#      x y z
#    x 3.934390 0.000000 0.000000 
#    y 0.000000 3.812000 0.000000 
#    z 0.000000 0.000000 3.747240 
# 
# 
# High freq. dielectric constant tensor:
#      x y z
#    x 1.817780 0.000000 0.000000 
#    y 0.000000 1.773840 0.000000 
#    z 0.000000 0.000000 1.816690 
# 
# From -- ./inp_files/9358.got.cif
#   From: 2010.03.12/outbox.cif.g09.slc.cpg/sg57_5_cif.got.tgz:9358.got - 2010.04.16 15:48:40.
