data_PCOD8233535
_publ_section_title
;
Structure prediction by ZEFSAII (Michael W. Deem and Ramdas Pophale) SiO2 
 PCOD8233535
Probable space group: P B C M
;
_chemical_formula_sum "Si O2"
_cell_formula_units_Z 64
_cell_length_a 11.552184
_cell_length_b 20.714036
_cell_length_c 12.994207
_cell_angle_alpha 90.000000
_cell_angle_beta 90.000000
_cell_angle_gamma 90.000000
_cell_volume 3109.414398
_symmetry_space_group_name_H-M "P B C M"
_symmetry_group_IT_number 57
_symmetry_cell_setting 'orthorhombic'
loop_
_space_group_symop_operation_xyz
x,y,z
-x,-y,1/2+z
x,1/2-y,-z
-x,1/2+y,1/2-z
-x,-y,-z
x,y,1/2-z
-x,1/2+y,z
x,1/2-y,1/2+z
loop_
_atom_site_type_symbol
_atom_site_label
_atom_site_fract_x
_atom_site_fract_y
_atom_site_fract_z
Si Si1 0.752554 0.212397 0.633020
Si Si2 0.141449 0.658816 0.438222
Si Si3 0.501252 0.586815 0.368979
Si Si4 0.271013 0.087456 0.008749
Si Si5 0.718540 0.787440 0.129970
Si Si6 0.521971 0.230005 0.129925
Si Si7 0.111128 0.328584 0.630341
Si Si8 0.256558 0.971324 0.867624
O O1 0.758833 0.185562 0.750000
O O2 0.808258 0.283471 0.630618
O O3 0.818563 0.163376 0.557601
O O4 0.621044 0.220891 0.589695
O O5 0.181320 0.591657 0.390684
O O6 0.003420 0.665938 0.438003
O O7 0.544104 0.588360 0.250000
O O8 0.605715 0.566454 0.443716
O O9 0.456812 0.656910 0.405779
O O10 0.393995 0.538779 0.382461
O O11 0.190065 0.109375 0.103179
O O12 0.271941 0.145883 0.928489
O O13 0.218129 0.026928 0.946868
O O14 0.712839 0.803261 0.250000
O O15 0.602488 0.752425 0.090668
O O16 0.823185 0.738499 0.104305
O O17 0.532174 0.232863 0.250000
O O18 0.079264 0.332135 0.750000
O O19 0.231583 0.992301 0.750000
#
# Coordination Sequence:
#
# PCOD8233535 Si02
#       8
#     8   8   8   8   8   8   8   8
#     4  10  21  38  64  97 128 158 212 270 315 369
#     4  11  24  40  67  89 125 173 216 251 321 376
#     4  10  20  38  62  89 123 164 210 257 316 384
#     4  12  24  37  63  91 126 165 215 259 318 376
#     4  10  22  38  60  94 132 161 200 261 323 378
#     4   9  17  34  61  92 124 159 197 255 319 371
#     4  11  24  43  64  91 124 164 215 268 321 382
#     4  11  24  44  63  88 126 170 215 257 312 391
#
# _framework density 20.582654999999999
#
# number of rings (size 3 to 8) (size 9 to 14) (size 15 to 20)
#    0.000    1.500    2.500    2.625    5.250    0.500 
#    0.000    1.875    0.000    0.000    0.000    0.000 
#    0.000    0.000    0.000    0.000    0.000    0.000 
#
# Total GULP energy -793471.157054 kJ/mol
# GULP energy per Si atom -12397.986829 kJ/mol
# Density = 2.053581 g / cm^3
# Si number density = 20.582655 Si / 1000 Ang^3
#
#
#
# Elastic Constant Matrix: (Units=GPa)
#
#
# Indices 1 2 3 4 5 6 
#
# 1 96.9542 9.6117 17.1847 0.0000 0.0000 0.0000
# 2 9.6117 70.4834 21.4636 0.0000 0.0000 0.0000
# 3 17.1847 21.4636 105.0256 0.0000 0.0000 0.0000
# 4 0.0000 0.0000 0.0000 33.1125 0.0000 0.0000
# 5 0.0000 0.0000 0.0000 0.0000 20.5504 0.0000
# 6 0.0000 0.0000 0.0000 0.0000 0.0000 10.1495
#
#
#
# Elastic Compliance Matrix: (Units=1/GPa)
#
#
# Indices 1 2 3 4 5 6 
#
# 1 0.010686 -0.000986 -0.001547 0.000000 0.000000 0.000000
# 2 -0.000986 0.015220 -0.002949 0.000000 0.000000 0.000000
# 3 -0.001547 -0.002949 0.010377 0.000000 0.000000 0.000000
# 4 0.000000 0.000000 0.000000 0.030200 0.000000 0.000000
# 5 0.000000 0.000000 0.000000 0.000000 0.048661 0.000000
# 6 0.000000 0.000000 0.000000 0.000000 0.000000 0.098527
#
#
# Mechanical properties :
#
#
# Convention : Reuss Voigt Hill
#
# Bulk Modulus (GPa) = 39.49577 40.99814 40.24695
# Shear Modulus (GPa) = 21.45225 27.70936 24.58081
#
# Velocity S-wave (km/s) = 3.23189 3.67311 3.45954
# Velocity P-wave (km/s) = 5.75824 6.16044 5.96273
#
# Compressibility (1/GPa) = 0.02531917
#
# Stress axis : x y z
#
# Youngs Moduli (GPa) = 93.57943 65.70177 96.36408
#
# Poissons Ratio (x) = 0.06479 0.14907
# Poissons Ratio (y) = 0.09228 0.28419
# Poissons Ratio (z) = 0.14476 0.19376
#
# Static dielectric constant tensor:
#      x y z
#    x 3.936330 0.000000 0.000000 
#    y 0.000000 3.406360 0.000000 
#    z 0.000000 0.000000 3.927860 
# 
# 
# High freq. dielectric constant tensor:
#      x y z
#    x 1.803990 0.000000 0.000000 
#    y 0.000000 1.775120 0.000000 
#    z 0.000000 0.000000 1.827080 
# 
# From -- ./inp_files/17974.got.cif
#   From: 2010.03.12/outbox.cif.g09.slc.cpg/sg57_9_cif.got.tgz:17974.got - 2010.04.16 15:48:40.
