data_PCOD8233949
_publ_section_title
;
Structure prediction by ZEFSAII (Michael W. Deem and Ramdas Pophale) SiO2 
 PCOD8233949
Probable space group: P B C M
;
_chemical_formula_sum "Si O2"
_cell_formula_units_Z 64
_cell_length_a 14.149658
_cell_length_b 25.515863
_cell_length_c 9.162756
_cell_angle_alpha 90.000000
_cell_angle_beta 90.000000
_cell_angle_gamma 90.000000
_cell_volume 3308.128161
_symmetry_space_group_name_H-M "P B C M"
_symmetry_group_IT_number 57
_symmetry_cell_setting 'orthorhombic'
loop_
_space_group_symop_operation_xyz
x,y,z
-x,-y,1/2+z
x,1/2-y,-z
-x,1/2+y,1/2-z
-x,-y,-z
x,y,1/2-z
-x,1/2+y,z
x,1/2-y,1/2+z
loop_
_atom_site_type_symbol
_atom_site_label
_atom_site_fract_x
_atom_site_fract_y
_atom_site_fract_z
Si Si1 0.299087 0.802956 0.077764
Si Si2 0.913659 0.301010 0.082231
Si Si3 0.586029 0.096914 0.922313
Si Si4 0.277693 0.995993 0.079513
Si Si5 0.740737 0.696220 0.078204
Si Si6 0.094111 0.481796 0.421512
Si Si7 0.903938 0.639074 0.582263
Si Si8 0.390180 0.400250 0.918327
O O1 0.308442 0.795136 0.250000
O O2 0.191594 0.817093 0.030874
O O3 0.364500 0.850057 0.021339
O O4 0.333696 0.750000 0.000000
O O5 0.911061 0.285333 0.250000
O O6 0.985766 0.348396 0.051894
O O7 0.951266 0.250000 0.000000
O O8 0.576005 0.097341 0.750000
O O9 0.647413 0.047278 0.973215
O O10 0.482859 0.092152 0.987560
O O11 0.253465 0.989387 0.250000
O O12 0.318350 0.053186 0.043752
O O13 0.182334 0.986614 0.988081
O O14 0.750420 0.705707 0.250000
O O15 0.659198 0.654449 0.041073
O O16 0.711815 0.750000 0.000000
O O17 0.840637 0.675518 0.019915
O O18 0.085333 0.492806 0.250000
O O19 0.111747 0.421060 0.456894
O O20 0.000000 0.500000 0.500000
O O21 0.877207 0.650957 0.750000
O O22 0.419648 0.402309 0.750000
#
# Coordination Sequence:
#
# PCOD8233949 Si02
#       8
#     8   8   8   8   8   8   8   8
#     4   9  19  36  56  81 113 149 187 231 286 343
#     4   9  18  33  53  78 108 143 183 226 276 333
#     4  10  22  37  62  89 112 151 197 243 298 358
#     4  10  21  41  64  87 118 154 194 245 299 354
#     4  11  23  39  60  87 120 160 200 248 302 358
#     4  11  24  39  60  90 123 160 196 240 295 355
#     4  10  21  37  59  85 114 153 197 243 291 349
#     4  10  22  40  60  85 118 152 191 247 304 351
#
# _framework density 19.346288000000001
#
# number of rings (size 3 to 8) (size 9 to 14) (size 15 to 20)
#    0.000    2.000    1.250    1.500    1.750    5.000 
#    0.000    2.500    0.000    0.000    0.000    0.000 
#    0.000    0.000    0.000    0.000    0.000    0.000 
#
# Total GULP energy -793829.290487 kJ/mol
# GULP energy per Si atom -12403.582664 kJ/mol
# Density = 1.930226 g / cm^3
# Si number density = 19.346288 Si / 1000 Ang^3
#
#
#
# Elastic Constant Matrix: (Units=GPa)
#
#
# Indices 1 2 3 4 5 6 
#
# 1 115.0180 43.1946 51.5446 0.0000 0.0000 0.0000
# 2 43.1946 102.0693 46.9738 0.0000 0.0000 0.0000
# 3 51.5446 46.9738 66.4002 0.0000 0.0000 0.0000
# 4 0.0000 0.0000 0.0000 30.9596 0.0000 0.0000
# 5 0.0000 0.0000 0.0000 0.0000 37.5749 0.0000
# 6 0.0000 0.0000 0.0000 0.0000 0.0000 26.7575
#
#
#
# Elastic Compliance Matrix: (Units=1/GPa)
#
#
# Indices 1 2 3 4 5 6 
#
# 1 0.013450 -0.001315 -0.009511 0.000000 0.000000 0.000000
# 2 -0.001315 0.014655 -0.009347 0.000000 0.000000 0.000000
# 3 -0.009511 -0.009347 0.029056 0.000000 0.000000 0.000000
# 4 0.000000 0.000000 0.000000 0.032300 0.000000 0.000000
# 5 0.000000 0.000000 0.000000 0.000000 0.026614 0.000000
# 6 0.000000 0.000000 0.000000 0.000000 0.000000 0.037373
#
#
# Mechanical properties :
#
#
# Convention : Reuss Voigt Hill
#
# Bulk Modulus (GPa) = 59.46816 62.99037 61.22927
# Shear Modulus (GPa) = 25.07545 28.51005 26.79275
#
# Velocity S-wave (km/s) = 3.60410 3.84301 3.72547
# Velocity P-wave (km/s) = 6.93721 7.23337 7.08684
#
# Compressibility (1/GPa) = 0.01681572
#
# Stress axis : x y z
#
# Youngs Moduli (GPa) = 74.34738 68.23454 34.41689
#
# Poissons Ratio (x) = 0.08973 0.32733
# Poissons Ratio (y) = 0.09777 0.32169
# Poissons Ratio (z) = 0.70711 0.63778
#
# Static dielectric constant tensor:
#      x y z
#    x 3.515880 0.000000 0.000000 
#    y 0.000000 3.712050 0.000000 
#    z 0.000000 0.000000 3.534010 
# 
# 
# High freq. dielectric constant tensor:
#      x y z
#    x 1.758950 0.000000 0.000000 
#    y 0.000000 1.758720 0.000000 
#    z 0.000000 0.000000 1.747710 
# 
# From -- ./inp_files/5654.got.cif
#   From: 2010.03.12/outbox.cif.g09.slc.cpg/sg57_3_cif.got.tgz:5654.got - 2010.04.16 15:48:40.
