data_PCOD8233345
_publ_section_title
;
Structure prediction by ZEFSAII (Michael W. Deem and Ramdas Pophale) SiO2 
 PCOD8233345
Probable space group: P B C M
;
_chemical_formula_sum "Si O2"
_cell_formula_units_Z 48
_cell_length_a 14.433414
_cell_length_b 20.362690
_cell_length_c 8.641786
_cell_angle_alpha 90.000000
_cell_angle_beta 90.000000
_cell_angle_gamma 90.000000
_cell_volume 2539.847997
_symmetry_space_group_name_H-M "P B C M"
_symmetry_group_IT_number 57
_symmetry_cell_setting 'orthorhombic'
loop_
_space_group_symop_operation_xyz
x,y,z
-x,-y,1/2+z
x,1/2-y,-z
-x,1/2+y,1/2-z
-x,-y,-z
x,y,1/2-z
-x,1/2+y,z
x,1/2-y,1/2+z
loop_
_atom_site_type_symbol
_atom_site_label
_atom_site_fract_x
_atom_site_fract_y
_atom_site_fract_z
Si Si1 0.941139 0.680619 0.567981
Si Si2 0.445644 0.938649 0.067662
Si Si3 0.744409 0.024184 0.068423
Si Si4 0.938234 0.057957 0.566425
Si Si5 0.743769 0.629088 0.931851
Si Si6 0.557862 0.819866 0.932381
O O1 0.972299 0.750000 0.500000
O O2 0.937566 0.686020 0.750000
O O3 0.839671 0.659859 0.507629
O O4 0.015671 0.626577 0.516349
O O5 0.456241 0.941023 0.250000
O O6 0.338890 0.940386 0.019552
O O7 0.489115 0.872118 0.005911
O O8 0.500000 0.000000 0.000000
O O9 0.733901 0.035973 0.250000
O O10 0.744507 0.947538 0.027549
O O11 0.837654 0.057477 0.008885
O O12 0.932028 0.050208 0.750000
O O13 0.000000 0.000000 0.500000
O O14 0.727737 0.640529 0.750000
O O15 0.663745 0.664697 0.026232
O O16 0.545579 0.820008 0.750000
O O17 0.528593 0.750000 0.000000
#
# Coordination Sequence:
#
# PCOD8233345 Si02
#       6
#     8   8   8   8   8   8
#     4  10  22  39  58  86 122 160 200 248 301 359
#     4  12  24  41  64  92 124 162 206 254 305 366
#     4  11  22  39  63  93 125 157 202 256 307 360
#     4  11  22  39  61  88 122 160 205 253 305 364
#     4  10  20  37  60  89 126 160 197 252 307 366
#     4  12  25  41  62  91 126 166 206 252 309 369
#
# _framework density 18.898769000000001
#
# number of rings (size 3 to 8) (size 9 to 14) (size 15 to 20)
#    0.000    1.000    3.333    4.500    0.000    4.000 
#    0.000    0.833    0.000    2.000    0.000    0.000 
#    0.000    0.000    0.000    0.000    0.000    0.000 
#
# Total GULP energy -595494.790572 kJ/mol
# GULP energy per Si atom -12406.141470 kJ/mol
# Density = 1.885575 g / cm^3
# Si number density = 18.898769 Si / 1000 Ang^3
#
#
#
# Elastic Constant Matrix: (Units=GPa)
#
#
# Indices 1 2 3 4 5 6 
#
# 1 133.9209 74.3507 48.8637 0.0000 0.0000 0.0000
# 2 74.3507 161.4632 64.9983 0.0000 0.0000 0.0000
# 3 48.8637 64.9983 113.8981 0.0000 0.0000 0.0000
# 4 0.0000 0.0000 0.0000 33.2891 0.0000 0.0000
# 5 0.0000 0.0000 0.0000 0.0000 35.9444 0.0000
# 6 0.0000 0.0000 0.0000 0.0000 0.0000 27.4771
#
#
#
# Elastic Compliance Matrix: (Units=1/GPa)
#
#
# Indices 1 2 3 4 5 6 
#
# 1 0.010460 -0.003908 -0.002257 0.000000 0.000000 0.000000
# 2 -0.003908 0.009501 -0.003745 0.000000 0.000000 0.000000
# 3 -0.002257 -0.003745 0.011885 0.000000 0.000000 0.000000
# 4 0.000000 0.000000 0.000000 0.030040 0.000000 0.000000
# 5 0.000000 0.000000 0.000000 0.000000 0.027821 0.000000
# 6 0.000000 0.000000 0.000000 0.000000 0.000000 0.036394
#
#
# Mechanical properties :
#
#
# Convention : Reuss Voigt Hill
#
# Bulk Modulus (GPa) = 83.15815 87.30083 85.22949
# Shear Modulus (GPa) = 33.34874 34.08010 33.71442
#
# Velocity S-wave (km/s) = 4.20527 4.25113 4.22826
# Velocity P-wave (km/s) = 8.22657 8.38990 8.30864
#
# Compressibility (1/GPa) = 0.01202528
#
# Stress axis : x y z
#
# Youngs Moduli (GPa) = 95.59801 105.25683 84.13655
#
# Poissons Ratio (x) = 0.41135 0.18993
# Poissons Ratio (y) = 0.37361 0.31510
# Poissons Ratio (z) = 0.21581 0.39419
#
# Static dielectric constant tensor:
#      x y z
#    x 3.661690 0.000000 0.000000 
#    y 0.000000 3.718290 0.000000 
#    z 0.000000 0.000000 3.361400 
# 
# 
# High freq. dielectric constant tensor:
#      x y z
#    x 1.741420 0.000000 0.000000 
#    y 0.000000 1.737980 0.000000 
#    z 0.000000 0.000000 1.744430 
# 
# From -- ./inp_files/4696.got.cif
#   From: 2010.03.12/outbox.cif.g09.slc.cpg/sg57_3_cif.got.tgz:4696.got - 2010.04.16 15:48:40.
