data_PCOD8233763
_publ_section_title
;
Structure prediction by ZEFSAII (Michael W. Deem and Ramdas Pophale) SiO2 
 PCOD8233763
Probable space group: P B C M
;
_chemical_formula_sum "Si O2"
_cell_formula_units_Z 56
_cell_length_a 13.931327
_cell_length_b 20.854260
_cell_length_c 9.564112
_cell_angle_alpha 90.000000
_cell_angle_beta 90.000000
_cell_angle_gamma 90.000000
_cell_volume 2778.637696
_symmetry_space_group_name_H-M "P B C M"
_symmetry_group_IT_number 57
_symmetry_cell_setting 'orthorhombic'
loop_
_space_group_symop_operation_xyz
x,y,z
-x,-y,1/2+z
x,1/2-y,-z
-x,1/2+y,1/2-z
-x,-y,-z
x,y,1/2-z
-x,1/2+y,z
x,1/2-y,1/2+z
loop_
_atom_site_type_symbol
_atom_site_label
_atom_site_fract_x
_atom_site_fract_y
_atom_site_fract_z
Si Si1 0.132549 0.516376 0.601378
Si Si2 0.593827 0.683408 0.919648
Si Si3 0.967743 0.897363 0.995096
Si Si4 0.266339 0.582854 0.409720
Si Si5 0.187326 0.193434 0.903770
Si Si6 0.126617 0.809787 0.595770
Si Si7 0.511866 0.067546 0.418414
O O1 0.182371 0.528933 0.750000
O O2 0.091080 0.445049 0.602916
O O3 0.216955 0.523308 0.488247
O O4 0.043740 0.565007 0.589567
O O5 0.569712 0.685975 0.750000
O O6 0.706185 0.670130 0.945634
O O7 0.564075 0.750000 0.000000
O O8 0.544697 0.623271 0.998883
O O9 0.027066 0.848666 0.898647
O O10 0.889360 0.863466 0.092871
O O11 0.239346 0.571177 0.250000
O O12 0.215511 0.648082 0.462866
O O13 0.378212 0.587705 0.435375
O O14 0.191862 0.222804 0.750000
O O15 0.149263 0.250000 0.000000
O O16 0.111305 0.750000 0.500000
O O17 0.151099 0.784961 0.750000
O O18 0.485439 0.062808 0.250000
O O19 0.500000 0.000000 0.500000
#
# Coordination Sequence:
#
# PCOD8233763 Si02
#       7
#     8   8   8   8   8   8   8
#     4  10  21  36  57  85 114 152 202 245 288 349
#     4  10  22  42  65  92 125 165 208 256 311 376
#     4  10  21  35  55  83 118 157 194 241 294 349
#     4   9  22  42  60  82 118 155 190 238 305 362
#     4  10  22  38  58  84 116 155 197 241 295 352
#     4  10  21  38  58  83 116 153 193 240 288 346
#     4  11  24  43  66  95 126 162 205 260 321 381
#
# _framework density 20.153759999999998
#
# number of rings (size 3 to 8) (size 9 to 14) (size 15 to 20)
#    0.000    2.000    0.000    2.143    2.000   11.429 
#    0.000    1.429    0.000    0.000    0.000    0.000 
#    0.000    0.000    0.000    0.000    0.000    0.000 
#
# Total GULP energy -693927.542669 kJ/mol
# GULP energy per Si atom -12391.563262 kJ/mol
# Density = 2.010789 g / cm^3
# Si number density = 20.153760 Si / 1000 Ang^3
#
#
#
# Elastic Constant Matrix: (Units=GPa)
#
#
# Indices 1 2 3 4 5 6 
#
# 1 91.5269 43.3605 34.5624 0.0000 0.0000 0.0000
# 2 43.3605 120.2950 55.6028 0.0000 0.0000 0.0000
# 3 34.5624 55.6028 111.0832 0.0000 0.0000 0.0000
# 4 0.0000 0.0000 0.0000 18.4255 0.0000 0.0000
# 5 0.0000 0.0000 0.0000 0.0000 12.9909 0.0000
# 6 0.0000 0.0000 0.0000 0.0000 0.0000 24.9278
#
#
#
# Elastic Compliance Matrix: (Units=1/GPa)
#
#
# Indices 1 2 3 4 5 6 
#
# 1 0.013619 -0.003838 -0.002316 0.000000 0.000000 0.000000
# 2 -0.003838 0.011897 -0.004761 0.000000 0.000000 0.000000
# 3 -0.002316 -0.004761 0.012106 0.000000 0.000000 0.000000
# 4 0.000000 0.000000 0.000000 0.054273 0.000000 0.000000
# 5 0.000000 0.000000 0.000000 0.000000 0.076977 0.000000
# 6 0.000000 0.000000 0.000000 0.000000 0.000000 0.040116
#
#
# Mechanical properties :
#
#
# Convention : Reuss Voigt Hill
#
# Bulk Modulus (GPa) = 63.32626 65.55073 64.43850
# Shear Modulus (GPa) = 21.17916 23.89414 22.53665
#
# Velocity S-wave (km/s) = 3.24524 3.44698 3.34763
# Velocity P-wave (km/s) = 6.74773 6.95975 6.85456
#
# Compressibility (1/GPa) = 0.01579124
#
# Stress axis : x y z
#
# Youngs Moduli (GPa) = 73.42823 84.05510 82.60454
#
# Poissons Ratio (x) = 0.32263 0.19132
# Poissons Ratio (y) = 0.28184 0.39326
# Poissons Ratio (z) = 0.17006 0.40017
#
# Static dielectric constant tensor:
#      x y z
#    x 3.727180 0.000000 0.000000 
#    y 0.000000 3.733670 0.000000 
#    z 0.000000 0.000000 3.826470 
# 
# 
# High freq. dielectric constant tensor:
#      x y z
#    x 1.786900 0.000000 0.000000 
#    y 0.000000 1.786230 0.000000 
#    z 0.000000 0.000000 1.794250 
# 
# From -- ./inp_files/5103.got.cif
#   From: 2010.03.12/outbox.cif.g09.slc.cpg/sg57_3_cif.got.tgz:5103.got - 2010.04.16 15:48:40.
