data_PCOD8233010
_publ_section_title
;
Structure prediction by ZEFSAII (Michael W. Deem and Ramdas Pophale) SiO2 
 PCOD8233010
Probable space group: P B C M
;
_chemical_formula_sum "Si O2"
_cell_formula_units_Z 48
_cell_length_a 29.764110
_cell_length_b 9.555863
_cell_length_c 8.706713
_cell_angle_alpha 90.000000
_cell_angle_beta 90.000000
_cell_angle_gamma 90.000000
_cell_volume 2476.378613
_symmetry_space_group_name_H-M "P B C M"
_symmetry_group_IT_number 57
_symmetry_cell_setting 'orthorhombic'
loop_
_space_group_symop_operation_xyz
x,y,z
-x,-y,1/2+z
x,1/2-y,-z
-x,1/2+y,1/2-z
-x,-y,-z
x,y,1/2-z
-x,1/2+y,z
x,1/2-y,1/2+z
loop_
_atom_site_type_symbol
_atom_site_label
_atom_site_fract_x
_atom_site_fract_y
_atom_site_fract_z
Si Si1 0.715524 0.097482 0.568380
Si Si2 0.463903 0.101749 0.430938
Si Si3 0.960639 0.094863 0.567124
Si Si4 0.890328 0.602767 0.571010
Si Si5 0.214857 0.104184 0.572053
Si Si6 0.636929 0.898122 0.930531
O O1 0.712703 0.250000 0.500000
O O2 0.717109 0.106937 0.750000
O O3 0.760522 0.023236 0.510378
O O4 0.671650 0.014101 0.509171
O O5 0.475894 0.250000 0.500000
O O6 0.468947 0.106854 0.250000
O O7 0.413415 0.056825 0.480426
O O8 0.500000 0.000000 0.500000
O O9 0.964252 0.250000 0.500000
O O10 0.963943 0.101709 0.750000
O O11 0.913751 0.025580 0.516080
O O12 0.000000 0.000000 0.500000
O O13 0.906750 0.750000 0.500000
O O14 0.903305 0.601419 0.750000
O O15 0.837705 0.581913 0.544015
O O16 0.231350 0.250000 0.500000
O O17 0.227427 0.105768 0.750000
O O18 0.640122 0.881191 0.750000
O O19 0.650899 0.750000 0.000000
#
# Coordination Sequence:
#
# PCOD8233010 Si02
#       6
#     8   8   8   8   8   8
#     4  11  23  38  56  81 113 148 187 232 282 333
#     4  10  20  36  56  81 111 144 183 226 276 331
#     4  12  25  42  63  88 119 155 195 238 286 338
#     4  10  21  39  62  89 119 152 191 234 282 335
#     4  10  21  38  61  87 116 151 190 232 279 335
#     4   9  20  37  57  80 107 142 184 228 275 332
#
# _framework density 19.383141999999999
#
# number of rings (size 3 to 8) (size 9 to 14) (size 15 to 20)
#    0.000    1.667    0.000    4.500    0.000    6.667 
#    0.000    1.667    0.000    0.000    0.000    0.000 
#    0.000    0.000    0.000    0.000    0.000    0.000 
#
# Total GULP energy -595390.464997 kJ/mol
# GULP energy per Si atom -12403.968021 kJ/mol
# Density = 1.933902 g / cm^3
# Si number density = 19.383142 Si / 1000 Ang^3
#
#
#
# Elastic Constant Matrix: (Units=GPa)
#
#
# Indices 1 2 3 4 5 6 
#
# 1 99.8292 85.8788 56.1421 0.0000 0.0000 0.0000
# 2 85.8788 175.2015 73.3562 0.0000 0.0000 0.0000
# 3 56.1421 73.3562 116.6353 0.0000 0.0000 0.0000
# 4 0.0000 0.0000 0.0000 41.4693 0.0000 0.0000
# 5 0.0000 0.0000 0.0000 0.0000 26.2130 0.0000
# 6 0.0000 0.0000 0.0000 0.0000 0.0000 39.4901
#
#
#
# Elastic Compliance Matrix: (Units=1/GPa)
#
#
# Indices 1 2 3 4 5 6 
#
# 1 0.018871 -0.007394 -0.004433 0.000000 0.000000 0.000000
# 2 -0.007394 0.010645 -0.003136 0.000000 0.000000 0.000000
# 3 -0.004433 -0.003136 0.012680 0.000000 0.000000 0.000000
# 4 0.000000 0.000000 0.000000 0.024114 0.000000 0.000000
# 5 0.000000 0.000000 0.000000 0.000000 0.038149 0.000000
# 6 0.000000 0.000000 0.000000 0.000000 0.000000 0.025323
#
#
# Mechanical properties :
#
#
# Convention : Reuss Voigt Hill
#
# Bulk Modulus (GPa) = 81.50112 91.38001 86.44057
# Shear Modulus (GPa) = 30.52544 33.18706 31.85625
#
# Velocity S-wave (km/s) = 3.97274 4.14232 4.05841
# Velocity P-wave (km/s) = 7.94872 8.37405 8.16416
#
# Compressibility (1/GPa) = 0.01226977
#
# Stress axis : x y z
#
# Youngs Moduli (GPa) = 52.99193 93.94111 78.86429
#
# Poissons Ratio (x) = 0.69458 0.34962
# Poissons Ratio (y) = 0.39181 0.24732
# Poissons Ratio (z) = 0.23492 0.29460
#
# Static dielectric constant tensor:
#      x y z
#    x 3.784900 0.000000 0.000000 
#    y 0.000000 3.442440 0.000000 
#    z 0.000000 0.000000 3.683590 
# 
# 
# High freq. dielectric constant tensor:
#      x y z
#    x 1.767310 0.000000 0.000000 
#    y 0.000000 1.756570 0.000000 
#    z 0.000000 0.000000 1.768720 
# 
# From -- ./inp_files/9896.got.cif
#   From: 2010.03.12/outbox.cif.g09.slc.cpg/sg57_5_cif.got.tgz:9896.got - 2010.04.16 15:48:40.
