data_PCOD8233486
_publ_section_title
;
Structure prediction by ZEFSAII (Michael W. Deem and Ramdas Pophale) SiO2 
 PCOD8233486
Probable space group: P B C M
;
_chemical_formula_sum "Si O2"
_cell_formula_units_Z 64
_cell_length_a 9.023564
_cell_length_b 18.955013
_cell_length_c 19.353162
_cell_angle_alpha 90.000000
_cell_angle_beta 90.000000
_cell_angle_gamma 90.000000
_cell_volume 3310.199140
_symmetry_space_group_name_H-M "P B C M"
_symmetry_group_IT_number 57
_symmetry_cell_setting 'orthorhombic'
loop_
_space_group_symop_operation_xyz
x,y,z
-x,-y,1/2+z
x,1/2-y,-z
-x,1/2+y,1/2-z
-x,-y,-z
x,y,1/2-z
-x,1/2+y,z
x,1/2-y,1/2+z
loop_
_atom_site_type_symbol
_atom_site_label
_atom_site_fract_x
_atom_site_fract_y
_atom_site_fract_z
Si Si1 0.610573 0.626236 0.826773
Si Si2 0.114755 0.872470 0.089526
Si Si3 0.270493 0.915461 0.961253
Si Si4 0.255151 0.766819 0.577945
Si Si5 0.314832 0.955055 0.328261
Si Si6 0.197087 0.429712 0.052414
Si Si7 0.390843 0.411951 0.919516
Si Si8 0.466225 0.219034 0.170362
O O1 0.655413 0.601502 0.750000
O O2 0.443681 0.601778 0.842634
O O3 0.723307 0.589843 0.877480
O O4 0.631689 0.710476 0.832643
O O5 0.121874 0.787097 0.097598
O O6 0.156097 0.915012 0.159290
O O7 0.962796 0.893510 0.053113
O O8 0.253273 0.897277 0.041751
O O9 0.201767 0.848781 0.918932
O O10 0.442832 0.927599 0.944717
O O11 0.178064 0.985854 0.945332
O O12 0.315325 0.750000 0.500000
O O13 0.380672 0.758926 0.635008
O O14 0.316666 0.982332 0.250000
O O15 0.331245 0.022880 0.376275
O O16 0.286372 0.401577 0.986041
O O17 0.384038 0.342259 0.872275
O O18 0.493014 0.195236 0.250000
#
# Coordination Sequence:
#
# PCOD8233486 Si02
#       8
#     8   8   8   8   8   8   8   8
#     4  10  22  39  58  85 122 155 199 255 306 360
#     4  11  22  38  57  88 123 162 205 245 300 373
#     4  10  20  38  60  86 119 155 200 253 303 352
#     4   9  20  36  60  85 117 155 204 250 292 360
#     4  11  21  37  62  87 117 160 206 251 305 363
#     4  12  23  37  62  92 124 160 202 252 313 364
#     4  11  22  37  63  91 121 154 204 264 305 359
#     4  10  21  38  61  90 119 154 200 254 308 358
#
# _framework density 19.334185000000002
#
# number of rings (size 3 to 8) (size 9 to 14) (size 15 to 20)
#    0.000    1.500    3.750    1.875    3.500    0.500 
#    6.750    0.000    0.000    0.000    0.000    0.000 
#    0.000    0.000    0.000    0.000    0.000    0.000 
#
# Total GULP energy -793269.884848 kJ/mol
# GULP energy per Si atom -12394.841951 kJ/mol
# Density = 1.929018 g / cm^3
# Si number density = 19.334185 Si / 1000 Ang^3
#
#
#
# Elastic Constant Matrix: (Units=GPa)
#
#
# Indices 1 2 3 4 5 6 
#
# 1 73.1825 42.9451 34.7806 0.0000 0.0000 0.0000
# 2 42.9451 139.7013 43.8838 0.0000 0.0000 0.0000
# 3 34.7806 43.8838 102.8222 0.0000 0.0000 0.0000
# 4 0.0000 0.0000 0.0000 27.0100 0.0000 0.0000
# 5 0.0000 0.0000 0.0000 0.0000 13.9121 0.0000
# 6 0.0000 0.0000 0.0000 0.0000 0.0000 24.8225
#
#
#
# Elastic Compliance Matrix: (Units=1/GPa)
#
#
# Indices 1 2 3 4 5 6 
#
# 1 0.018218 -0.004232 -0.004356 0.000000 0.000000 0.000000
# 2 -0.004232 0.009249 -0.002516 0.000000 0.000000 0.000000
# 3 -0.004356 -0.002516 0.012273 0.000000 0.000000 0.000000
# 4 0.000000 0.000000 0.000000 0.037023 0.000000 0.000000
# 5 0.000000 0.000000 0.000000 0.000000 0.071880 0.000000
# 6 0.000000 0.000000 0.000000 0.000000 0.000000 0.040286
#
#
# Mechanical properties :
#
#
# Convention : Reuss Voigt Hill
#
# Bulk Modulus (GPa) = 57.03900 62.10277 59.57088
# Shear Modulus (GPa) = 23.04331 26.08869 24.56600
#
# Velocity S-wave (km/s) = 3.45605 3.67734 3.56841
# Velocity P-wave (km/s) = 6.74473 7.08667 6.91781
#
# Compressibility (1/GPa) = 0.01753187
#
# Stress axis : x y z
#
# Youngs Moduli (GPa) = 54.88997 108.11466 81.48015
#
# Poissons Ratio (x) = 0.45754 0.35495
# Poissons Ratio (y) = 0.23229 0.20501
# Poissons Ratio (z) = 0.23912 0.27203
#
# Static dielectric constant tensor:
#      x y z
#    x 3.240600 0.000000 0.000000 
#    y 0.000000 3.904860 0.000000 
#    z 0.000000 0.000000 3.655750 
# 
# 
# High freq. dielectric constant tensor:
#      x y z
#    x 1.714650 0.000000 0.000000 
#    y 0.000000 1.773350 0.000000 
#    z 0.000000 0.000000 1.757580 
# 
# From -- ./inp_files/24636.got.cif
#   From: 2010.03.12/outbox.cif.g09.slc.cpg/sg57_13_cif.got.tgz:24636.got - 2010.04.16 15:48:40.
