data_PCOD8233350
_publ_section_title
;
Structure prediction by ZEFSAII (Michael W. Deem and Ramdas Pophale) SiO2 
 PCOD8233350
Probable space group: P B C M
;
_chemical_formula_sum "Si O2"
_cell_formula_units_Z 48
_cell_length_a 28.440283
_cell_length_b 8.512325
_cell_length_c 9.925981
_cell_angle_alpha 90.000000
_cell_angle_beta 90.000000
_cell_angle_gamma 90.000000
_cell_volume 2403.009843
_symmetry_space_group_name_H-M "P B C M"
_symmetry_group_IT_number 57
_symmetry_cell_setting 'orthorhombic'
loop_
_space_group_symop_operation_xyz
x,y,z
-x,-y,1/2+z
x,1/2-y,-z
-x,1/2+y,1/2-z
-x,-y,-z
x,y,1/2-z
-x,1/2+y,z
x,1/2-y,1/2+z
loop_
_atom_site_type_symbol
_atom_site_label
_atom_site_fract_x
_atom_site_fract_y
_atom_site_fract_z
Si Si1 0.463856 0.904161 0.589646
Si Si2 0.052531 0.437969 0.502197
Si Si3 0.105101 0.933726 0.750000
Si Si4 0.217141 0.430739 0.750000
Si Si5 0.888222 0.437509 0.250000
Si Si6 0.264143 0.563581 0.010288
Si Si7 0.793994 0.563057 0.750000
Si Si8 0.638686 0.103278 0.096832
O O1 0.459509 0.750000 0.500000
O O2 0.479054 0.879330 0.750000
O O3 0.411878 0.986353 0.589089
O O4 0.500000 0.000000 0.500000
O O5 0.053686 0.250000 0.500000
O O6 0.074981 0.518877 0.375731
O O7 0.082729 0.500218 0.625096
O O8 0.000000 0.500000 0.500000
O O9 0.116390 0.749632 0.750000
O O10 0.150860 0.040020 0.750000
O O11 0.164589 0.497175 0.750000
O O12 0.247612 0.486326 0.625616
O O13 0.216790 0.245149 0.750000
O O14 0.225981 0.520052 0.119661
O O15 0.316354 0.498311 0.050976
O O16 0.266390 0.750000 0.000000
O O17 0.647234 0.161465 0.250000
O O18 0.636007 0.250000 0.000000
#
# Coordination Sequence:
#
# PCOD8233350 Si02
#       8
#     8   8   4   4   4   8   4   8
#     4  10  20  37  60  90 124 166 213 267 325 389
#     4  12  25  44  67  96 130 166 206 256 315 376
#     4  12  25  43  68  94 121 167 211 260 309 368
#     4  12  26  41  61  92 127 167 201 254 322 378
#     4  12  25  45  66  94 127 163 215 260 309 374
#     4  11  22  40  64  91 118 160 212 258 306 371
#     4  12  24  43  63  88 129 161 201 256 316 378
#     4   9  19  35  61  90 121 158 211 266 314 372
#
# _framework density 19.974948999999999
#
# number of rings (size 3 to 8) (size 9 to 14) (size 15 to 20)
#    0.000    1.000    0.833    7.000    3.500    0.667 
#    0.000    1.667    0.000    0.000    0.000    0.000 
#    0.000    0.000    0.000    0.000    0.000    0.000 
#
# Total GULP energy -594753.086531 kJ/mol
# GULP energy per Si atom -12390.689303 kJ/mol
# Density = 1.992949 g / cm^3
# Si number density = 19.974949 Si / 1000 Ang^3
#
#
#
# Elastic Constant Matrix: (Units=GPa)
#
#
# Indices 1 2 3 4 5 6 
#
# 1 173.2905 28.2017 83.0976 0.0000 0.0000 0.0000
# 2 28.2017 90.1916 32.0569 0.0000 0.0000 0.0000
# 3 83.0976 32.0569 190.0841 0.0000 0.0000 0.0000
# 4 0.0000 0.0000 0.0000 35.1723 0.0000 0.0000
# 5 0.0000 0.0000 0.0000 0.0000 44.7565 0.0000
# 6 0.0000 0.0000 0.0000 0.0000 0.0000 25.9356
#
#
#
# Elastic Compliance Matrix: (Units=1/GPa)
#
#
# Indices 1 2 3 4 5 6 
#
# 1 0.007430 -0.001243 -0.003038 0.000000 0.000000 0.000000
# 2 -0.001243 0.012003 -0.001481 0.000000 0.000000 0.000000
# 3 -0.003038 -0.001481 0.006839 0.000000 0.000000 0.000000
# 4 0.000000 0.000000 0.000000 0.028431 0.000000 0.000000
# 5 0.000000 0.000000 0.000000 0.000000 0.022343 0.000000
# 6 0.000000 0.000000 0.000000 0.000000 0.000000 0.038557
#
#
# Mechanical properties :
#
#
# Convention : Reuss Voigt Hill
#
# Bulk Modulus (GPa) = 67.81234 82.25317 75.03276
# Shear Modulus (GPa) = 37.86635 41.85356 39.85995
#
# Velocity S-wave (km/s) = 4.35868 4.58241 4.47195
# Velocity P-wave (km/s) = 7.70410 8.32259 8.01931
#
# Compressibility (1/GPa) = 0.01474658
#
# Stress axis : x y z
#
# Youngs Moduli (GPa) = 134.58927 83.31573 146.22397
#
# Poissons Ratio (x) = 0.10359 0.44429
# Poissons Ratio (y) = 0.16734 0.21651
# Poissons Ratio (z) = 0.40894 0.12336
#
# Static dielectric constant tensor:
#      x y z
#    x 4.473780 0.000000 0.000000 
#    y 0.000000 3.220070 0.000000 
#    z 0.000000 0.000000 4.049760 
# 
# 
# High freq. dielectric constant tensor:
#      x y z
#    x 1.810200 0.000000 0.000000 
#    y 0.000000 1.759300 0.000000 
#    z 0.000000 0.000000 1.808020 
# 
# From -- ./inp_files/10198.got.cif
#   From: 2010.03.12/outbox.cif.g09.slc.cpg/sg57_6_cif.got.tgz:10198.got - 2010.04.16 15:48:40.
