data_PCOD8233675
_publ_section_title
;
Structure prediction by ZEFSAII (Michael W. Deem and Ramdas Pophale) SiO2 
 PCOD8233675
Probable space group: P B C M
;
_chemical_formula_sum "Si O2"
_cell_formula_units_Z 56
_cell_length_a 18.990910
_cell_length_b 8.532636
_cell_length_c 15.824986
_cell_angle_alpha 90.000000
_cell_angle_beta 90.000000
_cell_angle_gamma 90.000000
_cell_volume 2564.320647
_symmetry_space_group_name_H-M "P B C M"
_symmetry_group_IT_number 57
_symmetry_cell_setting 'orthorhombic'
loop_
_space_group_symop_operation_xyz
x,y,z
-x,-y,1/2+z
x,1/2-y,-z
-x,1/2+y,1/2-z
-x,-y,-z
x,y,1/2-z
-x,1/2+y,z
x,1/2-y,1/2+z
loop_
_atom_site_type_symbol
_atom_site_label
_atom_site_fract_x
_atom_site_fract_y
_atom_site_fract_z
Si Si1 0.978558 0.028505 0.403780
Si Si2 0.534424 0.125714 0.060136
Si Si3 0.227497 0.594384 0.538547
Si Si4 0.156217 0.354202 0.422290
Si Si5 0.722403 0.661062 0.153382
Si Si6 0.417993 0.162187 0.848662
Si Si7 0.905385 0.166007 0.845828
O O1 0.955940 0.206009 0.388550
O O2 0.912543 0.919348 0.375257
O O3 0.000000 0.000000 0.500000
O O4 0.046955 0.991328 0.346581
O O5 0.475602 0.226520 0.108692
O O6 0.581547 0.021939 0.123721
O O7 0.577154 0.250000 0.000000
O O8 0.500000 0.000000 0.000000
O O9 0.264157 0.750000 0.500000
O O10 0.201654 0.497952 0.457733
O O11 0.282332 0.492542 0.593812
O O12 0.163519 0.644598 0.598666
O O13 0.129541 0.250000 0.500000
O O14 0.203855 0.251229 0.359227
O O15 0.716496 0.605733 0.250000
O O16 0.658866 0.774215 0.127258
O O17 0.432810 0.168671 0.750000
O O18 0.883351 0.207827 0.750000
#
# Coordination Sequence:
#
# PCOD8233675 Si02
#       7
#     8   8   8   8   8   8   8
#     4  12  22  41  62  85 119 160 209 257 324 390
#     4   9  19  35  64  98 135 172 220 266 306 365
#     4  11  21  43  63  87 117 164 212 259 321 386
#     4  10  21  38  63  86 116 166 208 250 311 389
#     4  10  24  42  65  94 131 167 209 265 322 386
#     4  10  20  40  65  98 138 179 215 263 330 386
#     4  12  25  38  59  90 119 152 203 267 327 381
#
# _framework density 21.838142999999999
#
# number of rings (size 3 to 8) (size 9 to 14) (size 15 to 20)
#    0.000    1.429    2.857    2.571    2.000    6.286 
#    0.000    5.714    0.000    6.857    0.000    0.000 
#    0.000    0.000    0.000    0.000    0.000    0.000 
#
# Total GULP energy -694181.586175 kJ/mol
# GULP energy per Si atom -12396.099753 kJ/mol
# Density = 2.178844 g / cm^3
# Si number density = 21.838143 Si / 1000 Ang^3
#
#
#
# Elastic Constant Matrix: (Units=GPa)
#
#
# Indices 1 2 3 4 5 6 
#
# 1 76.8750 32.4647 27.5710 0.0000 0.0000 0.0000
# 2 32.4647 128.8409 46.1559 0.0000 0.0000 0.0000
# 3 27.5710 46.1559 96.3922 0.0000 0.0000 0.0000
# 4 0.0000 0.0000 0.0000 34.8879 0.0000 0.0000
# 5 0.0000 0.0000 0.0000 0.0000 21.3119 0.0000
# 6 0.0000 0.0000 0.0000 0.0000 0.0000 34.7065
#
#
#
# Elastic Compliance Matrix: (Units=1/GPa)
#
#
# Indices 1 2 3 4 5 6 
#
# 1 0.015264 -0.002755 -0.003047 0.000000 0.000000 0.000000
# 2 -0.002755 0.009866 -0.003936 0.000000 0.000000 0.000000
# 3 -0.003047 -0.003936 0.013131 0.000000 0.000000 0.000000
# 4 0.000000 0.000000 0.000000 0.028663 0.000000 0.000000
# 5 0.000000 0.000000 0.000000 0.000000 0.046922 0.000000
# 6 0.000000 0.000000 0.000000 0.000000 0.000000 0.028813
#
#
# Mechanical properties :
#
#
# Convention : Reuss Voigt Hill
#
# Bulk Modulus (GPa) = 53.23411 57.16569 55.19990
# Shear Modulus (GPa) = 29.69192 31.24238 30.46715
#
# Velocity S-wave (km/s) = 3.69132 3.78647 3.73920
# Velocity P-wave (km/s) = 6.52667 6.73427 6.63128
#
# Compressibility (1/GPa) = 0.01878495
#
# Stress axis : x y z
#
# Youngs Moduli (GPa) = 65.51268 101.36145 76.15823
#
# Poissons Ratio (x) = 0.27922 0.23205
# Poissons Ratio (y) = 0.18046 0.29977
# Poissons Ratio (z) = 0.19962 0.39897
#
# Static dielectric constant tensor:
#      x y z
#    x 3.814460 0.000000 0.000000 
#    y 0.000000 4.130750 0.000000 
#    z 0.000000 0.000000 4.002660 
# 
# 
# High freq. dielectric constant tensor:
#      x y z
#    x 1.836240 0.000000 0.000000 
#    y 0.000000 1.875550 0.000000 
#    z 0.000000 0.000000 1.855310 
# 
# From -- ./inp_files/19323.got.cif
#   From: 2010.03.12/outbox.cif.g09.slc.cpg/sg57_10_cif.got.tgz:19323.got - 2010.04.16 15:48:40.
