data_PCOD8233422
_publ_section_title
;
Structure prediction by ZEFSAII (Michael W. Deem and Ramdas Pophale) SiO2 
 PCOD8233422
Probable space group: P B C M
;
_chemical_formula_sum "Si O2"
_cell_formula_units_Z 64
_cell_length_a 23.587778
_cell_length_b 15.229730
_cell_length_c 8.857830
_cell_angle_alpha 90.000000
_cell_angle_beta 90.000000
_cell_angle_gamma 90.000000
_cell_volume 3182.046903
_symmetry_space_group_name_H-M "P B C M"
_symmetry_group_IT_number 57
_symmetry_cell_setting 'orthorhombic'
loop_
_space_group_symop_operation_xyz
x,y,z
-x,-y,1/2+z
x,1/2-y,-z
-x,1/2+y,1/2-z
-x,-y,-z
x,y,1/2-z
-x,1/2+y,z
x,1/2-y,1/2+z
loop_
_atom_site_type_symbol
_atom_site_label
_atom_site_fract_x
_atom_site_fract_y
_atom_site_fract_z
Si Si1 0.502320 0.337279 0.927236
Si Si2 0.077920 0.504613 0.924841
Si Si3 0.612489 0.882272 0.079586
Si Si4 0.386911 0.576689 0.072796
Si Si5 0.209429 0.503291 0.925802
Si Si6 0.726149 0.340419 0.929331
Si Si7 0.005485 0.849229 0.571016
Si Si8 0.736940 0.836324 0.423841
O O1 0.502378 0.329099 0.750000
O O2 0.548713 0.407788 0.986963
O O3 0.526677 0.250000 0.000000
O O4 0.437695 0.350736 0.973707
O O5 0.065027 0.523197 0.750000
O O6 0.143495 0.488986 0.958075
O O7 0.047593 0.412767 0.974493
O O8 0.059100 0.593004 0.014156
O O9 0.588638 0.881588 0.250000
O O10 0.668818 0.824780 0.064889
O O11 0.630637 0.979107 0.028008
O O12 0.387175 0.591195 0.250000
O O13 0.337370 0.638822 0.006758
O O14 0.222272 0.517698 0.750000
O O15 0.229551 0.586798 0.019162
O O16 0.242801 0.418862 0.982501
O O17 0.727150 0.335353 0.750000
O O18 0.747135 0.250000 0.000000
O O19 0.001697 0.750000 0.500000
O O20 0.009646 0.835652 0.750000
O O21 0.764111 0.750000 0.500000
O O22 0.756238 0.844824 0.250000
#
# Coordination Sequence:
#
# PCOD8233422 Si02
#       8
#     8   8   8   8   8   8   8   8
#     4  11  22  35  53  79 109 142 183 235 292 358
#     4   9  21  40  61  89 125 162 203 250 295 345
#     4  10  20  38  59  80 109 145 186 239 297 356
#     4   9  19  37  58  80 110 144 186 239 296 356
#     4  11  23  41  63  90 123 159 204 253 300 353
#     4  11  22  40  62  87 118 157 201 248 303 360
#     4  10  20  37  63  93 126 164 202 244 293 347
#     4  11  23  40  62  86 118 158 200 249 302 359
#
# _framework density 20.112841
#
# number of rings (size 3 to 8) (size 9 to 14) (size 15 to 20)
#    0.000    1.750    1.250    3.000    0.000    4.500 
#    0.000    3.750    0.000    0.000    0.000    0.000 
#    0.000    0.000    0.000    0.000    0.000    0.000 
#
# Total GULP energy -793236.772148 kJ/mol
# GULP energy per Si atom -12394.324565 kJ/mol
# Density = 2.006706 g / cm^3
# Si number density = 20.112841 Si / 1000 Ang^3
#
#
#
# Elastic Constant Matrix: (Units=GPa)
#
#
# Indices 1 2 3 4 5 6 
#
# 1 73.9090 24.7666 31.1798 0.0000 0.0000 0.0000
# 2 24.7666 132.4626 45.2310 0.0000 0.0000 0.0000
# 3 31.1798 45.2310 85.6910 0.0000 0.0000 0.0000
# 4 0.0000 0.0000 0.0000 36.5039 0.0000 0.0000
# 5 0.0000 0.0000 0.0000 0.0000 36.7254 0.0000
# 6 0.0000 0.0000 0.0000 0.0000 0.0000 27.6495
#
#
#
# Elastic Compliance Matrix: (Units=1/GPa)
#
#
# Indices 1 2 3 4 5 6 
#
# 1 0.016148 -0.001236 -0.005223 0.000000 0.000000 0.000000
# 2 -0.001236 0.009304 -0.004461 0.000000 0.000000 0.000000
# 3 -0.005223 -0.004461 0.015925 0.000000 0.000000 0.000000
# 4 0.000000 0.000000 0.000000 0.027394 0.000000 0.000000
# 5 0.000000 0.000000 0.000000 0.000000 0.027229 0.000000
# 6 0.000000 0.000000 0.000000 0.000000 0.000000 0.036167
#
#
# Mechanical properties :
#
#
# Convention : Reuss Voigt Hill
#
# Bulk Modulus (GPa) = 51.18689 54.93527 53.06108
# Shear Modulus (GPa) = 31.14881 32.90142 32.02511
#
# Velocity S-wave (km/s) = 3.93963 4.04894 3.99466
# Velocity P-wave (km/s) = 6.79701 7.01651 6.90763
#
# Compressibility (1/GPa) = 0.01953625
#
# Stress axis : x y z
#
# Youngs Moduli (GPa) = 61.92803 107.48447 62.79324
#
# Poissons Ratio (x) = 0.13280 0.32800
# Poissons Ratio (y) = 0.07652 0.28014
# Poissons Ratio (z) = 0.32348 0.47952
#
# Static dielectric constant tensor:
#      x y z
#    x 3.681020 0.000000 0.000000 
#    y 0.000000 3.688310 0.000000 
#    z 0.000000 0.000000 3.592140 
# 
# 
# High freq. dielectric constant tensor:
#      x y z
#    x 1.782690 0.000000 0.000000 
#    y 0.000000 1.796310 0.000000 
#    z 0.000000 0.000000 1.779810 
# 
# From -- ./inp_files/9366.got.cif
#   From: 2010.03.12/outbox.cif.g09.slc.cpg/sg57_5_cif.got.tgz:9366.got - 2010.04.16 15:48:40.
