data_PCOD8233578
_publ_section_title
;
Structure prediction by ZEFSAII (Michael W. Deem and Ramdas Pophale) SiO2 
 PCOD8233578
Probable space group: P B C M
;
_chemical_formula_sum "Si O2"
_cell_formula_units_Z 24
_cell_length_a 7.657242
_cell_length_b 14.642392
_cell_length_c 10.741600
_cell_angle_alpha 90.000000
_cell_angle_beta 90.000000
_cell_angle_gamma 90.000000
_cell_volume 1204.351833
_symmetry_space_group_name_H-M "P B C M"
_symmetry_group_IT_number 57
_symmetry_cell_setting 'orthorhombic'
loop_
_space_group_symop_operation_xyz
x,y,z
-x,-y,1/2+z
x,1/2-y,-z
-x,1/2+y,1/2-z
-x,-y,-z
x,y,1/2-z
-x,1/2+y,z
x,1/2-y,1/2+z
loop_
_atom_site_type_symbol
_atom_site_label
_atom_site_fract_x
_atom_site_fract_y
_atom_site_fract_z
Si Si1 0.199293 0.458241 0.250000
Si Si2 0.483110 0.192786 0.750000
Si Si3 0.686639 0.048061 0.004875
Si Si4 0.182657 0.578427 0.750000
Si Si5 0.435100 0.750000 0.000000
O O1 0.371970 0.398283 0.250000
O O2 0.202862 0.519398 0.374530
O O3 0.023833 0.396747 0.250000
O O4 0.690592 0.167128 0.750000
O O5 0.442938 0.249155 0.624173
O O6 0.678332 0.158212 0.007394
O O7 0.781574 0.019466 0.875630
O O8 0.500000 0.000000 0.000000
#
# Coordination Sequence:
#
# PCOD8233578 Si02
#       5
#     4   4   8   4   4
#     4  12  21  39  65  90 121 165 198 257 304 361
#     4  10  21  40  59  89 122 159 208 244 309 360
#     4  11  20  40  66  87 122 165 201 249 311 354
#     4  10  22  37  62  91 119 156 210 245 301 369
#     4  10  20  38  66  84 122 164 200 250 302 364
#
# _framework density 19.927731999999999
#
# number of rings (size 3 to 8) (size 9 to 14) (size 15 to 20)
#    0.000    1.333    6.667    2.000    0.000    0.000 
#    0.000    6.667   14.667    0.000    0.000    0.000 
#    0.000    0.000    0.000    0.000    0.000    0.000 
#
# Total GULP energy -297325.338892 kJ/mol
# GULP energy per Si atom -12388.555787 kJ/mol
# Density = 1.988238 g / cm^3
# Si number density = 19.927732 Si / 1000 Ang^3
#
#
#
# Elastic Constant Matrix: (Units=GPa)
#
#
# Indices 1 2 3 4 5 6 
#
# 1 77.5766 40.6119 29.0495 0.0000 0.0000 0.0000
# 2 40.6119 87.8920 42.2476 0.0000 0.0000 0.0000
# 3 29.0495 42.2476 244.3108 0.0000 0.0000 0.0000
# 4 0.0000 0.0000 0.0000 30.5389 0.0000 0.0000
# 5 0.0000 0.0000 0.0000 0.0000 6.9980 0.0000
# 6 0.0000 0.0000 0.0000 0.0000 0.0000 10.3578
#
#
#
# Elastic Compliance Matrix: (Units=1/GPa)
#
#
# Indices 1 2 3 4 5 6 
#
# 1 0.017122 -0.007561 -0.000728 0.000000 0.000000 0.000000
# 2 -0.007561 0.015748 -0.001824 0.000000 0.000000 0.000000
# 3 -0.000728 -0.001824 0.004495 0.000000 0.000000 0.000000
# 4 0.000000 0.000000 0.000000 0.032745 0.000000 0.000000
# 5 0.000000 0.000000 0.000000 0.000000 0.142898 0.000000
# 6 0.000000 0.000000 0.000000 0.000000 0.000000 0.096545
#
#
# Mechanical properties :
#
#
# Convention : Reuss Voigt Hill
#
# Bulk Modulus (GPa) = 58.35141 70.39970 64.37556
# Shear Modulus (GPa) = 14.90342 29.43698 22.17020
#
# Velocity S-wave (km/s) = 2.73769 3.84759 3.33908
# Velocity P-wave (km/s) = 6.27203 7.42582 6.87318
#
# Compressibility (1/GPa) = 0.01713755
#
# Stress axis : x y z
#
# Youngs Moduli (GPa) = 58.40587 63.49916 222.45962
#
# Poissons Ratio (x) = 0.48013 0.16202
# Poissons Ratio (y) = 0.44162 0.40581
# Poissons Ratio (z) = 0.04254 0.11584
#
# Static dielectric constant tensor:
#      x y z
#    x 3.312940 0.000000 0.000000 
#    y 0.000000 3.395820 0.000000 
#    z 0.000000 0.000000 5.032300 
# 
# 
# High freq. dielectric constant tensor:
#      x y z
#    x 1.743120 0.000000 0.000000 
#    y 0.000000 1.743590 0.000000 
#    z 0.000000 0.000000 1.828180 
# 
# From -- ./inp_files/11191.got.cif
#   From: 2010.03.12/outbox.cif.g09.slc.cpg/sg57_6_cif.got.tgz:11191.got - 2010.04.16 15:48:40.
