data_PCOD8233472
_publ_section_title
;
Structure prediction by ZEFSAII (Michael W. Deem and Ramdas Pophale) SiO2 
 PCOD8233472
Probable space group: P B C M
;
_chemical_formula_sum "Si O2"
_cell_formula_units_Z 64
_cell_length_a 9.779391
_cell_length_b 18.519715
_cell_length_c 18.273079
_cell_angle_alpha 90.000000
_cell_angle_beta 90.000000
_cell_angle_gamma 90.000000
_cell_volume 3309.465372
_symmetry_space_group_name_H-M "P B C M"
_symmetry_group_IT_number 57
_symmetry_cell_setting 'orthorhombic'
loop_
_space_group_symop_operation_xyz
x,y,z
-x,-y,1/2+z
x,1/2-y,-z
-x,1/2+y,1/2-z
-x,-y,-z
x,y,1/2-z
-x,1/2+y,z
x,1/2-y,1/2+z
loop_
_atom_site_type_symbol
_atom_site_label
_atom_site_fract_x
_atom_site_fract_y
_atom_site_fract_z
Si Si1 0.386870 0.893100 0.901944
Si Si2 0.320366 0.117657 0.062075
Si Si3 0.780433 0.844356 0.408392
Si Si4 0.147857 0.197006 0.333277
Si Si5 0.420611 0.046120 0.835498
Si Si6 0.329403 0.549872 0.940013
Si Si7 0.913671 0.355241 0.444976
Si Si8 0.867541 0.302236 0.601414
O O1 0.538112 0.858425 0.898454
O O2 0.275776 0.836067 0.871333
O O3 0.372629 0.965323 0.854366
O O4 0.368647 0.907107 0.987697
O O5 0.204610 0.127787 0.123457
O O6 0.325261 0.033956 0.039656
O O7 0.289230 0.162254 0.988237
O O8 0.783439 0.765578 0.372808
O O9 0.699765 0.899056 0.356492
O O10 0.936111 0.871988 0.414677
O O11 0.196014 0.195084 0.250000
O O12 0.983291 0.194513 0.336089
O O13 0.451080 0.052354 0.750000
O O14 0.560095 0.066383 0.877424
O O15 0.180217 0.578844 0.916389
O O16 0.923340 0.348646 0.532753
O O17 0.844828 0.281508 0.416617
#
# Coordination Sequence:
#
# PCOD8233472 Si02
#       8
#     8   8   8   8   8   8   8   8
#     4  10  20  38  61  89 116 151 198 238 291 348
#     4  11  20  36  62  88 115 153 197 244 289 349
#     4  11  20  39  59  86 115 155 199 243 289 353
#     4  11  24  39  56  84 121 156 193 244 300 347
#     4  11  22  37  58  85 121 158 193 243 303 353
#     4  10  20  38  59  88 117 149 194 246 289 346
#     4   9  19  35  61  88 113 146 199 240 287 340
#     4   9  19  37  59  85 115 150 190 242 287 350
#
# _framework density 19.338470000000001
#
# number of rings (size 3 to 8) (size 9 to 14) (size 15 to 20)
#    0.000    1.750    3.750    1.500    0.000    5.000 
#    4.500    3.125    0.000    0.000    0.000    0.000 
#    0.000    0.000    0.000    0.000    0.000    0.000 
#
# Total GULP energy -793598.698360 kJ/mol
# GULP energy per Si atom -12399.979662 kJ/mol
# Density = 1.929445 g / cm^3
# Si number density = 19.338470 Si / 1000 Ang^3
#
#
#
# Elastic Constant Matrix: (Units=GPa)
#
#
# Indices 1 2 3 4 5 6 
#
# 1 94.8440 40.0761 26.1691 0.0000 0.0000 0.0000
# 2 40.0761 45.3611 21.0115 0.0000 0.0000 0.0000
# 3 26.1691 21.0115 95.7760 0.0000 0.0000 0.0000
# 4 0.0000 0.0000 0.0000 12.4045 0.0000 0.0000
# 5 0.0000 0.0000 0.0000 0.0000 21.6862 0.0000
# 6 0.0000 0.0000 0.0000 0.0000 0.0000 38.1218
#
#
#
# Elastic Compliance Matrix: (Units=1/GPa)
#
#
# Indices 1 2 3 4 5 6 
#
# 1 0.017017 -0.014338 -0.001504 0.000000 0.000000 0.000000
# 2 -0.014338 0.036619 -0.004116 0.000000 0.000000 0.000000
# 3 -0.001504 -0.004116 0.011755 0.000000 0.000000 0.000000
# 4 0.000000 0.000000 0.000000 0.080616 0.000000 0.000000
# 5 0.000000 0.000000 0.000000 0.000000 0.046112 0.000000
# 6 0.000000 0.000000 0.000000 0.000000 0.000000 0.026232
#
#
# Mechanical properties :
#
#
# Convention : Reuss Voigt Hill
#
# Bulk Modulus (GPa) = 39.25361 45.61051 42.43206
# Shear Modulus (GPa) = 18.74354 24.35746 21.55050
#
# Velocity S-wave (km/s) = 3.11663 3.55284 3.34186
# Velocity P-wave (km/s) = 5.77005 6.36135 6.07290
#
# Compressibility (1/GPa) = 0.02547536
#
# Stress axis : x y z
#
# Youngs Moduli (GPa) = 58.76485 27.30816 85.07005
#
# Poissons Ratio (x) = 0.39153 0.12796
# Poissons Ratio (y) = 0.84255 0.35015
# Poissons Ratio (z) = 0.08839 0.11240
#
# Static dielectric constant tensor:
#      x y z
#    x 3.792750 0.000000 0.000000 
#    y 0.000000 3.470830 0.000000 
#    z 0.000000 0.000000 3.299160 
# 
# 
# High freq. dielectric constant tensor:
#      x y z
#    x 1.764130 0.000000 0.000000 
#    y 0.000000 1.744480 0.000000 
#    z 0.000000 0.000000 1.732030 
# 
# From -- ./inp_files/21386.got.cif
#   From: 2010.03.12/outbox.cif.g09.slc.cpg/sg57_11_cif.got.tgz:21386.got - 2010.04.16 15:48:40.
