data_PCOD8233655
_publ_section_title
;
Structure prediction by ZEFSAII (Michael W. Deem and Ramdas Pophale) SiO2 
 PCOD8233655
Probable space group: P B C M
;
_chemical_formula_sum "Si O2"
_cell_formula_units_Z 48
_cell_length_a 9.111109
_cell_length_b 9.809251
_cell_length_c 28.417396
_cell_angle_alpha 90.000000
_cell_angle_beta 90.000000
_cell_angle_gamma 90.000000
_cell_volume 2539.752339
_symmetry_space_group_name_H-M "P B C M"
_symmetry_group_IT_number 57
_symmetry_cell_setting 'orthorhombic'
loop_
_space_group_symop_operation_xyz
x,y,z
-x,-y,1/2+z
x,1/2-y,-z
-x,1/2+y,1/2-z
-x,-y,-z
x,y,1/2-z
-x,1/2+y,z
x,1/2-y,1/2+z
loop_
_atom_site_type_symbol
_atom_site_label
_atom_site_fract_x
_atom_site_fract_y
_atom_site_fract_z
Si Si1 0.613579 0.736822 0.303448
Si Si2 0.697550 0.114211 0.024967
Si Si3 0.122490 0.522450 0.115113
Si Si4 0.842778 0.791194 0.878935
Si Si5 0.638447 0.635915 0.463140
Si Si6 0.352387 0.546277 0.195568
O O1 0.641760 0.695903 0.250000
O O2 0.765265 0.698215 0.328523
O O3 0.473625 0.653451 0.322233
O O4 0.577797 0.896363 0.310193
O O5 0.800915 0.070644 0.067380
O O6 0.535362 0.133260 0.046230
O O7 0.758136 0.250000 0.000000
O O8 0.697429 0.006046 0.982851
O O9 0.094528 0.360441 0.112384
O O10 0.213255 0.563370 0.161559
O O11 0.968172 0.597059 0.118495
O O12 0.714540 0.827227 0.914869
O O13 0.682456 0.750000 0.500000
O O14 0.304604 0.572532 0.250000
#
# Coordination Sequence:
#
# PCOD8233655 Si02
#       6
#     8   8   8   8   8   8
#     4   9  19  38  62  87 113 145 186 234 282 331
#     4  10  22  38  62  85 108 146 192 238 283 334
#     4  11  24  39  54  84 118 153 188 228 280 335
#     4  11  24  38  56  82 118 154 187 229 279 337
#     4  10  20  40  60  82 111 146 187 237 283 325
#     4   9  19  38  63  87 113 144 186 235 281 331
#
# _framework density 18.899481000000002
#
# number of rings (size 3 to 8) (size 9 to 14) (size 15 to 20)
#    0.000    2.000    1.667    1.000    2.333    3.333 
#    0.000    0.000    0.000    0.000    0.000    0.000 
#    0.000    0.000    0.000    0.000    0.000    0.000 
#
# Total GULP energy -595286.288670 kJ/mol
# GULP energy per Si atom -12401.797681 kJ/mol
# Density = 1.885646 g / cm^3
# Si number density = 18.899481 Si / 1000 Ang^3
#
#
#
# Elastic Constant Matrix: (Units=GPa)
#
#
# Indices 1 2 3 4 5 6 
#
# 1 43.5811 15.5683 12.2604 0.0000 0.0000 0.0000
# 2 15.5683 82.4794 13.3506 0.0000 0.0000 0.0000
# 3 12.2604 13.3506 52.3015 0.0000 0.0000 0.0000
# 4 0.0000 0.0000 0.0000 21.5547 0.0000 0.0000
# 5 0.0000 0.0000 0.0000 0.0000 20.7099 0.0000
# 6 0.0000 0.0000 0.0000 0.0000 0.0000 47.9971
#
#
#
# Elastic Compliance Matrix: (Units=1/GPa)
#
#
# Indices 1 2 3 4 5 6 
#
# 1 0.025806 -0.004060 -0.005013 0.000000 0.000000 0.000000
# 2 -0.004060 0.013285 -0.002440 0.000000 0.000000 0.000000
# 3 -0.005013 -0.002440 0.020918 0.000000 0.000000 0.000000
# 4 0.000000 0.000000 0.000000 0.046394 0.000000 0.000000
# 5 0.000000 0.000000 0.000000 0.000000 0.048286 0.000000
# 6 0.000000 0.000000 0.000000 0.000000 0.000000 0.020835
#
#
# Mechanical properties :
#
#
# Convention : Reuss Voigt Hill
#
# Bulk Modulus (GPa) = 27.03820 28.96896 28.00358
# Shear Modulus (GPa) = 23.71053 27.19785 25.45419
#
# Velocity S-wave (km/s) = 3.54582 3.79764 3.67389
# Velocity P-wave (km/s) = 5.57684 5.88137 5.73113
#
# Compressibility (1/GPa) = 0.03698472
#
# Stress axis : x y z
#
# Youngs Moduli (GPa) = 38.75028 75.27066 47.80613
#
# Poissons Ratio (x) = 0.30557 0.23966
# Poissons Ratio (y) = 0.15731 0.11663
# Poissons Ratio (z) = 0.19426 0.18363
#
# Static dielectric constant tensor:
#      x y z
#    x 3.304070 0.000000 0.000000 
#    y 0.000000 3.682880 0.000000 
#    z 0.000000 0.000000 3.497040 
# 
# 
# High freq. dielectric constant tensor:
#      x y z
#    x 1.720150 0.000000 0.000000 
#    y 0.000000 1.748440 0.000000 
#    z 0.000000 0.000000 1.744680 
# 
# From -- ./inp_files/29484.got.cif
#   From: 2010.03.12/outbox.cif.g09.slc.cpg/sg57_15_cif.got.tgz:29484.got - 2010.04.16 15:48:40.
