data_PCOD8233964
_publ_section_title
;
Structure prediction by ZEFSAII (Michael W. Deem and Ramdas Pophale) SiO2 
 PCOD8233964
Probable space group: P B C M
;
_chemical_formula_sum "Si O2"
_cell_formula_units_Z 64
_cell_length_a 14.297235
_cell_length_b 25.731777
_cell_length_c 8.956672
_cell_angle_alpha 90.000000
_cell_angle_beta 90.000000
_cell_angle_gamma 90.000000
_cell_volume 3295.099285
_symmetry_space_group_name_H-M "P B C M"
_symmetry_group_IT_number 57
_symmetry_cell_setting 'orthorhombic'
loop_
_space_group_symop_operation_xyz
x,y,z
-x,-y,1/2+z
x,1/2-y,-z
-x,1/2+y,1/2-z
-x,-y,-z
x,y,1/2-z
-x,1/2+y,z
x,1/2-y,1/2+z
loop_
_atom_site_type_symbol
_atom_site_label
_atom_site_fract_x
_atom_site_fract_y
_atom_site_fract_z
Si Si1 0.413068 0.098247 0.427551
Si Si2 0.088754 0.630198 0.078226
Si Si3 0.909398 0.023522 0.924688
Si Si4 0.270865 0.805563 0.924194
Si Si5 0.706895 0.802814 0.574820
Si Si6 0.082619 0.302086 0.575794
Si Si7 0.292624 0.001175 0.073830
Si Si8 0.613039 0.104202 0.927903
O O1 0.431134 0.095635 0.250000
O O2 0.358642 0.150176 0.474351
O O3 0.507644 0.097527 0.519015
O O4 0.352289 0.049513 0.486896
O O5 0.090409 0.611436 0.250000
O O6 0.165523 0.674544 0.049898
O O7 0.986662 0.651325 0.033015
O O8 0.109468 0.582525 0.970758
O O9 0.925877 0.020716 0.750000
O O10 0.816287 0.991585 0.972098
O O11 0.000000 0.000000 0.000000
O O12 0.294852 0.800693 0.750000
O O13 0.282515 0.750000 0.000000
O O14 0.344068 0.844766 0.998023
O O15 0.669812 0.750000 0.500000
O O16 0.703935 0.794178 0.750000
O O17 0.812626 0.815939 0.521457
O O18 0.045325 0.250000 0.500000
O O19 0.079657 0.291532 0.750000
O O20 0.301392 0.999919 0.250000
O O21 0.331616 0.946469 0.011929
O O22 0.617494 0.109604 0.750000
#
# Coordination Sequence:
#
# PCOD8233964 Si02
#       8
#     8   8   8   8   8   8   8   8
#     4  10  21  38  61  87 111 151 200 243 298 358
#     4  10  21  37  59  86 118 154 196 241 292 352
#     4  11  23  39  60  88 122 159 195 239 293 352
#     4  11  23  39  61  90 122 160 203 250 300 360
#     4   9  19  35  57  81 113 150 187 232 286 345
#     4   9  18  33  54  81 111 148 188 230 279 338
#     4   9  20  39  63  86 115 154 196 242 297 357
#     4  11  22  40  61  87 118 152 194 247 305 357
#
# _framework density 19.422782999999999
#
# number of rings (size 3 to 8) (size 9 to 14) (size 15 to 20)
#    0.000    2.000    1.250    1.875    1.750    2.000 
#    0.000    3.125    0.000    0.000    0.000    0.000 
#    0.000    0.000    0.000    0.000    0.000    0.000 
#
# Total GULP energy -793683.910238 kJ/mol
# GULP energy per Si atom -12401.311097 kJ/mol
# Density = 1.937858 g / cm^3
# Si number density = 19.422783 Si / 1000 Ang^3
#
#
#
# Elastic Constant Matrix: (Units=GPa)
#
#
# Indices 1 2 3 4 5 6 
#
# 1 138.2645 72.0540 51.0046 0.0000 0.0000 0.0000
# 2 72.0540 142.5745 48.0712 0.0000 0.0000 0.0000
# 3 51.0046 48.0712 65.3482 0.0000 0.0000 0.0000
# 4 0.0000 0.0000 0.0000 32.7522 0.0000 0.0000
# 5 0.0000 0.0000 0.0000 0.0000 30.3379 0.0000
# 6 0.0000 0.0000 0.0000 0.0000 0.0000 27.2547
#
#
#
# Elastic Compliance Matrix: (Units=1/GPa)
#
#
# Indices 1 2 3 4 5 6 
#
# 1 0.011451 -0.003688 -0.006224 0.000000 0.000000 0.000000
# 2 -0.003688 0.010515 -0.004856 0.000000 0.000000 0.000000
# 3 -0.006224 -0.004856 0.023733 0.000000 0.000000 0.000000
# 4 0.000000 0.000000 0.000000 0.030532 0.000000 0.000000
# 5 0.000000 0.000000 0.000000 0.000000 0.032962 0.000000
# 6 0.000000 0.000000 0.000000 0.000000 0.000000 0.036691
#
#
# Mechanical properties :
#
#
# Convention : Reuss Voigt Hill
#
# Bulk Modulus (GPa) = 61.87643 76.49408 69.18526
# Shear Modulus (GPa) = 27.65346 29.73945 28.69646
#
# Velocity S-wave (km/s) = 3.77737 3.91725 3.84795
# Velocity P-wave (km/s) = 7.13804 7.74138 7.44582
#
# Compressibility (1/GPa) = 0.01616124
#
# Stress axis : x y z
#
# Youngs Moduli (GPa) = 87.33136 95.09933 42.13532
#
# Poissons Ratio (x) = 0.35076 0.26225
# Poissons Ratio (y) = 0.32211 0.20463
# Poissons Ratio (z) = 0.54356 0.46185
#
# Static dielectric constant tensor:
#      x y z
#    x 3.824540 0.000000 0.000000 
#    y 0.000000 3.697900 0.000000 
#    z 0.000000 0.000000 3.443690 
# 
# 
# High freq. dielectric constant tensor:
#      x y z
#    x 1.769510 0.000000 0.000000 
#    y 0.000000 1.761540 0.000000 
#    z 0.000000 0.000000 1.742970 
# 
# From -- ./inp_files/5698.got.cif
#   From: 2010.03.12/outbox.cif.g09.slc.cpg/sg57_3_cif.got.tgz:5698.got - 2010.04.16 15:48:40.
