data_PCOD8233104
_publ_section_title
;
Structure prediction by ZEFSAII (Michael W. Deem and Ramdas Pophale) SiO2 
 PCOD8233104
Probable space group: P B C M
;
_chemical_formula_sum "Si O2"
_cell_formula_units_Z 48
_cell_length_a 30.667283
_cell_length_b 9.123327
_cell_length_c 8.650912
_cell_angle_alpha 90.000000
_cell_angle_beta 90.000000
_cell_angle_gamma 90.000000
_cell_volume 2420.418348
_symmetry_space_group_name_H-M "P B C M"
_symmetry_group_IT_number 57
_symmetry_cell_setting 'orthorhombic'
loop_
_space_group_symop_operation_xyz
x,y,z
-x,-y,1/2+z
x,1/2-y,-z
-x,1/2+y,1/2-z
-x,-y,-z
x,y,1/2-z
-x,1/2+y,z
x,1/2-y,1/2+z
loop_
_atom_site_type_symbol
_atom_site_label
_atom_site_fract_x
_atom_site_fract_y
_atom_site_fract_z
Si Si1 0.459914 0.911225 0.933117
Si Si2 0.624016 0.909330 0.067729
Si Si3 0.118488 0.089375 0.430717
Si Si4 0.959833 0.411333 0.932975
Si Si5 0.796998 0.405229 0.070195
Si Si6 0.705930 0.091452 0.066933
O O1 0.463710 0.904805 0.750000
O O2 0.415509 0.988696 0.988410
O O3 0.460454 0.750000 0.000000
O O4 0.500000 0.000000 0.000000
O O5 0.624320 0.896186 0.250000
O O6 0.669321 0.978616 0.007508
O O7 0.617409 0.750000 0.000000
O O8 0.115686 0.250000 0.500000
O O9 0.106739 0.092828 0.250000
O O10 0.085002 0.986411 0.519151
O O11 0.166480 0.026416 0.460989
O O12 0.963522 0.404685 0.750000
O O13 0.961176 0.250000 0.000000
O O14 0.000000 0.500000 0.000000
O O15 0.788316 0.380203 0.250000
O O16 0.811957 0.250000 0.000000
O O17 0.752788 0.464268 0.992327
O O18 0.706524 0.102178 0.250000
O O19 0.694716 0.250000 0.000000
#
# Coordination Sequence:
#
# PCOD8233104 Si02
#       6
#     8   8   8   8   8   8
#     4  11  23  40  61  87 117 151 192 237 289 345
#     4  10  23  39  57  83 115 151 191 236 286 342
#     4  11  24  41  61  88 121 158 199 243 294 348
#     4  12  25  43  66  92 123 158 198 243 293 348
#     4  10  21  37  59  86 116 152 194 240 291 346
#     4  10  20  36  58  84 113 148 191 237 287 343
#
# _framework density 19.831282000000002
#
# number of rings (size 3 to 8) (size 9 to 14) (size 15 to 20)
#    0.000    1.333    0.000    6.500    0.000    8.667 
#    0.000    3.333    0.000    0.000    0.000    0.000 
#    0.000    0.000    0.000    0.000    0.000    0.000 
#
# Total GULP energy -595437.072873 kJ/mol
# GULP energy per Si atom -12404.939018 kJ/mol
# Density = 1.978614 g / cm^3
# Si number density = 19.831282 Si / 1000 Ang^3
#
#
#
# Elastic Constant Matrix: (Units=GPa)
#
#
# Indices 1 2 3 4 5 6 
#
# 1 140.7918 88.9464 66.0732 0.0000 0.0000 0.0000
# 2 88.9464 173.7065 64.0583 0.0000 0.0000 0.0000
# 3 66.0732 64.0583 123.3582 0.0000 0.0000 0.0000
# 4 0.0000 0.0000 0.0000 38.5899 0.0000 0.0000
# 5 0.0000 0.0000 0.0000 0.0000 32.6886 0.0000
# 6 0.0000 0.0000 0.0000 0.0000 0.0000 46.7892
#
#
#
# Elastic Compliance Matrix: (Units=1/GPa)
#
#
# Indices 1 2 3 4 5 6 
#
# 1 0.011884 -0.004623 -0.003965 0.000000 0.000000 0.000000
# 2 -0.004623 0.008919 -0.002155 0.000000 0.000000 0.000000
# 3 -0.003965 -0.002155 0.011349 0.000000 0.000000 0.000000
# 4 0.000000 0.000000 0.000000 0.025913 0.000000 0.000000
# 5 0.000000 0.000000 0.000000 0.000000 0.030592 0.000000
# 6 0.000000 0.000000 0.000000 0.000000 0.000000 0.021372
#
#
# Mechanical properties :
#
#
# Convention : Reuss Voigt Hill
#
# Bulk Modulus (GPa) = 93.75439 97.33469 95.54454
# Shear Modulus (GPa) = 37.01759 38.19878 37.60819
#
# Velocity S-wave (km/s) = 4.32513 4.39360 4.35950
# Velocity P-wave (km/s) = 8.50418 8.65599 8.58042
#
# Compressibility (1/GPa) = 0.01066617
#
# Stress axis : x y z
#
# Youngs Moduli (GPa) = 84.14706 112.12127 88.11243
#
# Poissons Ratio (x) = 0.51835 0.34933
# Poissons Ratio (y) = 0.38903 0.18990
# Poissons Ratio (z) = 0.33360 0.24165
#
# Static dielectric constant tensor:
#      x y z
#    x 4.013730 0.000000 0.000000 
#    y 0.000000 3.642510 0.000000 
#    z 0.000000 0.000000 3.741770 
# 
# 
# High freq. dielectric constant tensor:
#      x y z
#    x 1.792940 0.000000 0.000000 
#    y 0.000000 1.781820 0.000000 
#    z 0.000000 0.000000 1.787220 
# 
# From -- ./inp_files/10023.got.cif
#   From: 2010.03.12/outbox.cif.g09.slc.cpg/sg57_6_cif.got.tgz:10023.got - 2010.04.16 15:48:40.
