data_PCOD8233811
_publ_section_title
;
Structure prediction by ZEFSAII (Michael W. Deem and Ramdas Pophale) SiO2 
 PCOD8233811
Probable space group: P B C M
;
_chemical_formula_sum "Si O2"
_cell_formula_units_Z 56
_cell_length_a 20.829108
_cell_length_b 15.369400
_cell_length_c 9.028988
_cell_angle_alpha 90.000000
_cell_angle_beta 90.000000
_cell_angle_gamma 90.000000
_cell_volume 2890.457987
_symmetry_space_group_name_H-M "P B C M"
_symmetry_group_IT_number 57
_symmetry_cell_setting 'orthorhombic'
loop_
_space_group_symop_operation_xyz
x,y,z
-x,-y,1/2+z
x,1/2-y,-z
-x,1/2+y,1/2-z
-x,-y,-z
x,y,1/2-z
-x,1/2+y,z
x,1/2-y,1/2+z
loop_
_atom_site_type_symbol
_atom_site_label
_atom_site_fract_x
_atom_site_fract_y
_atom_site_fract_z
Si Si1 0.783273 0.991012 0.078055
Si Si2 0.590670 0.335214 0.418763
Si Si3 0.120129 0.334694 0.076234
Si Si4 0.002444 0.593488 0.426032
Si Si5 0.535733 0.577713 0.920936
Si Si6 0.650731 0.983902 0.925181
Si Si7 0.858399 0.161471 0.076757
O O1 0.763568 0.992522 0.250000
O O2 0.836154 0.918057 0.047086
O O3 0.811725 0.083376 0.026108
O O4 0.722383 0.967497 0.979069
O O5 0.616852 0.250000 0.500000
O O6 0.610511 0.324141 0.250000
O O7 0.512917 0.340777 0.436826
O O8 0.626396 0.421236 0.480507
O O9 0.109085 0.319128 0.250000
O O10 0.152635 0.250000 0.000000
O O11 0.052470 0.346808 0.994759
O O12 0.994516 0.583596 0.250000
O O13 0.069293 0.638434 0.469194
O O14 0.000000 0.500000 0.500000
O O15 0.547699 0.554874 0.750000
O O16 0.500000 0.500000 0.000000
O O17 0.604476 0.590138 0.001808
O O18 0.646257 0.974072 0.750000
O O19 0.852977 0.175646 0.250000
O O20 0.835381 0.250000 0.000000
#
# Coordination Sequence:
#
# PCOD8233811 Si02
#       7
#     8   8   8   8   8   8   8
#     4  10  22  41  59  79 115 156 194 239 290 346
#     4   9  19  33  52  81 113 141 177 223 269 325
#     4  11  23  41  62  87 116 149 195 246 300 360
#     4  11  21  37  61  88 118 152 192 242 299 355
#     4   9  17  32  53  78 106 138 176 218 266 316
#     4  10  21  36  55  81 109 143 190 231 273 334
#     4  10  22  39  57  83 116 152 192 236 290 349
#
# _framework density 19.374091
#
# number of rings (size 3 to 8) (size 9 to 14) (size 15 to 20)
#    0.000    2.000    1.429    3.000    0.000    8.000 
#    0.000    3.571    0.000    0.000    0.000    0.000 
#    0.000    0.000    0.000    0.000    0.000    0.000 
#
# Total GULP energy -694340.422012 kJ/mol
# GULP energy per Si atom -12398.936107 kJ/mol
# Density = 1.932999 g / cm^3
# Si number density = 19.374091 Si / 1000 Ang^3
#
#
#
# Elastic Constant Matrix: (Units=GPa)
#
#
# Indices 1 2 3 4 5 6 
#
# 1 82.7136 -3.4599 29.6798 0.0000 0.0000 0.0000
# 2 -3.4599 66.8791 18.8896 0.0000 0.0000 0.0000
# 3 29.6798 18.8896 75.9038 0.0000 0.0000 0.0000
# 4 0.0000 0.0000 0.0000 34.7387 0.0000 0.0000
# 5 0.0000 0.0000 0.0000 0.0000 32.9465 0.0000
# 6 0.0000 0.0000 0.0000 0.0000 0.0000 14.7425
#
#
#
# Elastic Compliance Matrix: (Units=1/GPa)
#
#
# Indices 1 2 3 4 5 6 
#
# 1 0.014447 0.002520 -0.006276 0.000000 0.000000 0.000000
# 2 0.002520 0.016522 -0.005097 0.000000 0.000000 0.000000
# 3 -0.006276 -0.005097 0.016897 0.000000 0.000000 0.000000
# 4 0.000000 0.000000 0.000000 0.028786 0.000000 0.000000
# 5 0.000000 0.000000 0.000000 0.000000 0.030352 0.000000
# 6 0.000000 0.000000 0.000000 0.000000 0.000000 0.067831
#
#
# Mechanical properties :
#
#
# Convention : Reuss Voigt Hill
#
# Bulk Modulus (GPa) = 33.15630 35.07950 34.11790
# Shear Modulus (GPa) = 24.67953 28.51133 26.59543
#
# Velocity S-wave (km/s) = 3.57296 3.84033 3.70906
# Velocity P-wave (km/s) = 5.84571 6.14898 5.99926
#
# Compressibility (1/GPa) = 0.03016018
#
# Stress axis : x y z
#
# Youngs Moduli (GPa) = 69.21637 60.52380 59.18122
#
# Poissons Ratio (x) = -0.15253 0.37144
# Poissons Ratio (y) = -0.17444 0.30166
# Poissons Ratio (z) = 0.43443 0.30850
#
# Static dielectric constant tensor:
#      x y z
#    x 3.642810 0.000000 0.000000 
#    y 0.000000 3.457310 0.000000 
#    z 0.000000 0.000000 3.576840 
# 
# 
# High freq. dielectric constant tensor:
#      x y z
#    x 1.751240 0.000000 0.000000 
#    y 0.000000 1.744840 0.000000 
#    z 0.000000 0.000000 1.759540 
# 
# From -- ./inp_files/8210.got.cif
#   From: 2010.03.12/outbox.cif.g09.slc.cpg/sg57_5_cif.got.tgz:8210.got - 2010.04.16 15:48:40.
