data_PCOD8233408
_publ_section_title
;
Structure prediction by ZEFSAII (Michael W. Deem and Ramdas Pophale) SiO2 
 PCOD8233408
Probable space group: P B C M
;
_chemical_formula_sum "Si O2"
_cell_formula_units_Z 56
_cell_length_a 8.879151
_cell_length_b 20.396698
_cell_length_c 14.469556
_cell_angle_alpha 90.000000
_cell_angle_beta 90.000000
_cell_angle_gamma 90.000000
_cell_volume 2620.514169
_symmetry_space_group_name_H-M "P B C M"
_symmetry_group_IT_number 57
_symmetry_cell_setting 'orthorhombic'
loop_
_space_group_symop_operation_xyz
x,y,z
-x,-y,1/2+z
x,1/2-y,-z
-x,1/2+y,1/2-z
-x,-y,-z
x,y,1/2-z
-x,1/2+y,z
x,1/2-y,1/2+z
loop_
_atom_site_type_symbol
_atom_site_label
_atom_site_fract_x
_atom_site_fract_y
_atom_site_fract_z
Si Si1 0.023242 0.616832 0.853015
Si Si2 0.512449 0.683916 0.643380
Si Si3 0.271003 0.103692 0.523532
Si Si4 0.836143 0.031442 0.992792
Si Si5 0.289541 0.624283 0.148341
Si Si6 0.194697 0.737290 0.896940
Si Si7 0.379981 0.172206 0.354806
O O1 0.989031 0.590279 0.750000
O O2 0.159962 0.574305 0.898650
O O3 0.072643 0.692468 0.845452
O O4 0.876552 0.613336 0.915680
O O5 0.496300 0.662342 0.750000
O O6 0.586404 0.625211 0.584965
O O7 0.351235 0.697703 0.599180
O O8 0.612684 0.749456 0.635059
O O9 0.258952 0.145871 0.428859
O O10 0.286400 0.027257 0.492990
O O11 0.799460 0.078376 0.078450
O O12 0.000000 0.000000 0.000000
O O13 0.282786 0.591649 0.250000
O O14 0.208526 0.694723 0.156991
O O15 0.461953 0.637338 0.118882
O O16 0.138278 0.750000 0.000000
O O17 0.332178 0.153894 0.250000
#
# Coordination Sequence:
#
# PCOD8233408 Si02
#       7
#     8   8   8   8   8   8   8
#     4  11  24  43  62  90 128 167 215 271 325 385
#     4  10  20  37  62  96 129 165 207 260 325 381
#     4  11  23  40  64  91 130 172 209 260 327 388
#     4  10  24  42  60  88 126 175 215 259 310 383
#     4  10  20  40  67  95 125 167 215 263 317 378
#     4  11  20  38  69  94 127 161 214 275 320 372
#     4   9  20  39  64  94 127 160 209 269 320 377
#
# _framework density 21.369852999999999
#
# number of rings (size 3 to 8) (size 9 to 14) (size 15 to 20)
#    0.000    1.714    1.429    4.714    0.000    5.143 
#    0.000    2.143    0.000    0.000    0.000    0.000 
#    0.000    0.000    0.000    0.000    0.000    0.000 
#
# Total GULP energy -694255.082081 kJ/mol
# GULP energy per Si atom -12397.412180 kJ/mol
# Density = 2.132121 g / cm^3
# Si number density = 21.369853 Si / 1000 Ang^3
#
#
#
# Elastic Constant Matrix: (Units=GPa)
#
#
# Indices 1 2 3 4 5 6 
#
# 1 41.6461 28.0708 30.7376 0.0000 0.0000 0.0000
# 2 28.0708 85.3881 33.1568 0.0000 0.0000 0.0000
# 3 30.7376 33.1568 150.1689 0.0000 0.0000 0.0000
# 4 0.0000 0.0000 0.0000 12.6292 0.0000 0.0000
# 5 0.0000 0.0000 0.0000 0.0000 30.8085 0.0000
# 6 0.0000 0.0000 0.0000 0.0000 0.0000 37.3342
#
#
#
# Elastic Compliance Matrix: (Units=1/GPa)
#
#
# Indices 1 2 3 4 5 6 
#
# 1 0.033839 -0.009226 -0.004889 0.000000 0.000000 0.000000
# 2 -0.009226 0.015325 -0.001495 0.000000 0.000000 0.000000
# 3 -0.004889 -0.001495 0.007990 0.000000 0.000000 0.000000
# 4 0.000000 0.000000 0.000000 0.079181 0.000000 0.000000
# 5 0.000000 0.000000 0.000000 0.000000 0.032459 0.000000
# 6 0.000000 0.000000 0.000000 0.000000 0.000000 0.026785
#
#
# Mechanical properties :
#
#
# Convention : Reuss Voigt Hill
#
# Bulk Modulus (GPa) = 38.56080 51.23704 44.89892
# Shear Modulus (GPa) = 21.23646 28.50358 24.87002
#
# Velocity S-wave (km/s) = 3.15581 3.65612 3.41514
# Velocity P-wave (km/s) = 5.60023 6.46926 6.05036
#
# Compressibility (1/GPa) = 0.02593307
#
# Stress axis : x y z
#
# Youngs Moduli (GPa) = 29.55166 65.25386 125.15472
#
# Poissons Ratio (x) = 0.60202 0.61193
# Poissons Ratio (y) = 0.27264 0.18714
# Poissons Ratio (z) = 0.14449 0.09757
#
# Static dielectric constant tensor:
#      x y z
#    x 3.649030 0.000000 0.000000 
#    y 0.000000 4.236670 0.000000 
#    z 0.000000 0.000000 3.991520 
# 
# 
# High freq. dielectric constant tensor:
#      x y z
#    x 1.813190 0.000000 0.000000 
#    y 0.000000 1.834640 0.000000 
#    z 0.000000 0.000000 1.853930 
# 
# From -- ./inp_files/16730.got.cif
#   From: 2010.03.12/outbox.cif.g09.slc.cpg/sg57_9_cif.got.tgz:16730.got - 2010.04.16 15:48:40.
