data_PCOD8233607
_publ_section_title
;
Structure prediction by ZEFSAII (Michael W. Deem and Ramdas Pophale) SiO2 
 PCOD8233607
Probable space group: P B C M
;
_chemical_formula_sum "Si O2"
_cell_formula_units_Z 40
_cell_length_a 8.632673
_cell_length_b 15.443447
_cell_length_c 13.882387
_cell_angle_alpha 90.000000
_cell_angle_beta 90.000000
_cell_angle_gamma 90.000000
_cell_volume 1850.775234
_symmetry_space_group_name_H-M "P B C M"
_symmetry_group_IT_number 57
_symmetry_cell_setting 'orthorhombic'
loop_
_space_group_symop_operation_xyz
x,y,z
-x,-y,1/2+z
x,1/2-y,-z
-x,1/2+y,1/2-z
-x,-y,-z
x,y,1/2-z
-x,1/2+y,z
x,1/2-y,1/2+z
loop_
_atom_site_type_symbol
_atom_site_label
_atom_site_fract_x
_atom_site_fract_y
_atom_site_fract_z
Si Si1 0.364564 0.371671 0.518157
Si Si2 0.213762 0.264535 0.136967
Si Si3 0.216332 0.508101 0.641367
Si Si4 0.718423 0.349843 0.011762
Si Si5 0.047148 0.871545 0.643037
O O1 0.241740 0.349115 0.430853
O O2 0.349674 0.301984 0.605229
O O3 0.332901 0.465581 0.563432
O O4 0.537789 0.369571 0.479813
O O5 0.228650 0.288271 0.250000
O O6 0.052850 0.214148 0.113598
O O7 0.282946 0.504958 0.750000
O O8 0.201230 0.608420 0.607429
O O9 0.054703 0.458313 0.636561
O O10 0.755383 0.250000 0.000000
O O11 0.802277 0.391712 0.919866
O O12 0.109157 0.857285 0.750000
#
# Coordination Sequence:
#
# PCOD8233607 Si02
#       5
#     8   8   8   8   8
#     4  10  20  39  62  93 127 164 212 254 314 375
#     4   9  18  37  63  90 124 167 210 252 307 375
#     4  10  23  44  65  85 123 175 212 253 315 380
#     4  12  24  38  62  98 129 159 203 271 323 367
#     4   9  21  40  63  89 123 168 210 254 312 374
#
# _framework density 21.612565
#
# number of rings (size 3 to 8) (size 9 to 14) (size 15 to 20)
#    0.000    2.000    2.000    3.000    5.600    3.200 
#    0.000    1.000    0.000    0.000    0.000    0.000 
#    0.000    0.000    0.000    0.000    0.000    0.000 
#
# Total GULP energy -495619.694244 kJ/mol
# GULP energy per Si atom -12390.492356 kJ/mol
# Density = 2.156337 g / cm^3
# Si number density = 21.612565 Si / 1000 Ang^3
#
#
#
# Elastic Constant Matrix: (Units=GPa)
#
#
# Indices 1 2 3 4 5 6 
#
# 1 37.5306 -1.6961 21.5539 0.0000 0.0000 0.0000
# 2 -1.6961 100.7772 47.2224 0.0000 0.0000 0.0000
# 3 21.5539 47.2224 143.2004 0.0000 0.0000 0.0000
# 4 0.0000 0.0000 0.0000 30.1834 0.0000 0.0000
# 5 0.0000 0.0000 0.0000 0.0000 20.1151 0.0000
# 6 0.0000 0.0000 0.0000 0.0000 0.0000 2.0845
#
#
#
# Elastic Compliance Matrix: (Units=1/GPa)
#
#
# Indices 1 2 3 4 5 6 
#
# 1 0.029961 0.003096 -0.005530 0.000000 0.000000 0.000000
# 2 0.003096 0.012056 -0.004442 0.000000 0.000000 0.000000
# 3 -0.005530 -0.004442 0.009280 0.000000 0.000000 0.000000
# 4 0.000000 0.000000 0.000000 0.033131 0.000000 0.000000
# 5 0.000000 0.000000 0.000000 0.000000 0.049714 0.000000
# 6 0.000000 0.000000 0.000000 0.000000 0.000000 0.479743
#
#
# Mechanical properties :
#
#
# Convention : Reuss Voigt Hill
#
# Bulk Modulus (GPa) = 26.63486 46.18541 36.41013
# Shear Modulus (GPa) = 7.81063 24.77178 16.29121
#
# Velocity S-wave (km/s) = 1.90310 3.38919 2.74849
# Velocity P-wave (km/s) = 4.14483 6.06066 5.19188
#
# Compressibility (1/GPa) = 0.03754479
#
# Stress axis : x y z
#
# Youngs Moduli (GPa) = 33.37673 82.94431 107.75451
#
# Poissons Ratio (x) = -0.25677 0.59593
# Poissons Ratio (y) = -0.10333 0.47861
# Poissons Ratio (z) = 0.18459 0.36841
#
# Static dielectric constant tensor:
#      x y z
#    x 3.625830 0.000000 0.000000 
#    y 0.000000 4.046460 0.000000 
#    z 0.000000 0.000000 3.995300 
# 
# 
# High freq. dielectric constant tensor:
#      x y z
#    x 1.827190 0.000000 0.000000 
#    y 0.000000 1.844040 0.000000 
#    z 0.000000 0.000000 1.851110 
# 
# From -- ./inp_files/15907.got.cif
#   From: 2010.03.12/outbox.cif.g09.slc.cpg/sg57_8_cif.got.tgz:15907.got - 2010.04.16 15:48:40.
