data_PCOD8233436
_publ_section_title
;
Structure prediction by ZEFSAII (Michael W. Deem and Ramdas Pophale) SiO2 
 PCOD8233436
Probable space group: P B C M
;
_chemical_formula_sum "Si O2"
_cell_formula_units_Z 52
_cell_length_a 21.449942
_cell_length_b 8.488875
_cell_length_c 13.954112
_cell_angle_alpha 90.000000
_cell_angle_beta 90.000000
_cell_angle_gamma 90.000000
_cell_volume 2540.846713
_symmetry_space_group_name_H-M "P B C M"
_symmetry_group_IT_number 57
_symmetry_cell_setting 'orthorhombic'
loop_
_space_group_symop_operation_xyz
x,y,z
-x,-y,1/2+z
x,1/2-y,-z
-x,1/2+y,1/2-z
-x,-y,-z
x,y,1/2-z
-x,1/2+y,z
x,1/2-y,1/2+z
loop_
_atom_site_type_symbol
_atom_site_label
_atom_site_fract_x
_atom_site_fract_y
_atom_site_fract_z
Si Si1 0.158061 0.250000 0.000000
Si Si2 0.456370 0.935339 0.359398
Si Si3 0.648053 0.929425 0.976650
Si Si4 0.124362 0.700025 0.641318
Si Si5 0.926963 0.017437 0.012715
Si Si6 0.767711 0.980155 0.638292
Si Si7 0.585541 0.413598 0.640645
O O1 0.109924 0.367449 0.053859
O O2 0.199722 0.161148 0.078762
O O3 0.438964 0.969436 0.250000
O O4 0.438780 0.758305 0.389801
O O5 0.417846 0.059373 0.422425
O O6 0.529587 0.962436 0.375868
O O7 0.700114 0.006658 0.908128
O O8 0.664769 0.750000 0.000000
O O9 0.643355 0.030515 0.075043
O O10 0.104250 0.729013 0.750000
O O11 0.091331 0.545340 0.598404
O O12 0.197615 0.651460 0.631770
O O13 0.099173 0.845035 0.580122
O O14 0.000000 0.000000 0.000000
O O15 0.762753 0.928735 0.750000
O O16 0.608970 0.414852 0.750000
#
# Coordination Sequence:
#
# PCOD8233436 Si02
#       7
#     4   8   8   8   8   8   8
#     4  10  20  40  60  90 126 162 202 248 310 358
#     4  10  21  40  63  89 123 161 202 264 322 380
#     4  12  23  38  60  89 122 165 210 259 318 376
#     4   9  20  39  61  87 123 166 205 248 304 360
#     4  10  20  37  64  95 129 159 200 253 305 365
#     4  10  22  42  61  84 121 168 215 259 306 366
#     4  10  22  40  62  90 122 158 208 261 324 385
#
# _framework density 20.465617999999999
#
# number of rings (size 3 to 8) (size 9 to 14) (size 15 to 20)
#    0.000    1.846    0.769    3.231    0.000    3.692 
#   11.077    3.077    0.000    0.000    0.000    0.000 
#    0.000    0.000    0.000    0.000    0.000    0.000 
#
# Total GULP energy -644283.307115 kJ/mol
# GULP energy per Si atom -12390.063598 kJ/mol
# Density = 2.041904 g / cm^3
# Si number density = 20.465618 Si / 1000 Ang^3
#
#
#
# Elastic Constant Matrix: (Units=GPa)
#
#
# Indices 1 2 3 4 5 6 
#
# 1 86.0938 34.5268 61.3018 0.0000 0.0000 0.0000
# 2 34.5268 84.2380 42.4605 0.0000 0.0000 0.0000
# 3 61.3018 42.4605 139.4505 0.0000 0.0000 0.0000
# 4 0.0000 0.0000 0.0000 29.2098 0.0000 0.0000
# 5 0.0000 0.0000 0.0000 0.0000 27.4124 0.0000
# 6 0.0000 0.0000 0.0000 0.0000 0.0000 20.1350
#
#
#
# Elastic Compliance Matrix: (Units=1/GPa)
#
#
# Indices 1 2 3 4 5 6 
#
# 1 0.017980 -0.003999 -0.006686 0.000000 0.000000 0.000000
# 2 -0.003999 0.014913 -0.002783 0.000000 0.000000 0.000000
# 3 -0.006686 -0.002783 0.010957 0.000000 0.000000 0.000000
# 4 0.000000 0.000000 0.000000 0.034235 0.000000 0.000000
# 5 0.000000 0.000000 0.000000 0.000000 0.036480 0.000000
# 6 0.000000 0.000000 0.000000 0.000000 0.000000 0.049665
#
#
# Mechanical properties :
#
#
# Convention : Reuss Voigt Hill
#
# Bulk Modulus (GPa) = 59.12237 65.15117 62.13677
# Shear Modulus (GPa) = 25.40596 26.78432 26.09514
#
# Velocity S-wave (km/s) = 3.52717 3.62159 3.57469
# Velocity P-wave (km/s) = 6.74828 7.02790 6.88951
#
# Compressibility (1/GPa) = 0.01691407
#
# Stress axis : x y z
#
# Youngs Moduli (GPa) = 55.61774 67.05578 91.26171
#
# Poissons Ratio (x) = 0.26817 0.61019
# Poissons Ratio (y) = 0.22243 0.25395
# Poissons Ratio (z) = 0.37187 0.18660
#
# Static dielectric constant tensor:
#      x y z
#    x 3.706130 0.000000 0.000000 
#    y 0.000000 3.921660 0.000000 
#    z 0.000000 0.000000 3.876880 
# 
# 
# High freq. dielectric constant tensor:
#      x y z
#    x 1.794520 0.000000 0.000000 
#    y 0.000000 1.798430 0.000000 
#    z 0.000000 0.000000 1.807960 
# 
# From -- ./inp_files/19282.got.cif
#   From: 2010.03.12/outbox.cif.g09.slc.cpg/sg57_10_cif.got.tgz:19282.got - 2010.04.16 15:48:40.
