data_PCOD8233398
_publ_section_title
;
Structure prediction by ZEFSAII (Michael W. Deem and Ramdas Pophale) SiO2 
 PCOD8233398
Probable space group: P B C M
;
_chemical_formula_sum "Si O2"
_cell_formula_units_Z 48
_cell_length_a 9.707735
_cell_length_b 17.124392
_cell_length_c 14.395628
_cell_angle_alpha 90.000000
_cell_angle_beta 90.000000
_cell_angle_gamma 90.000000
_cell_volume 2393.115661
_symmetry_space_group_name_H-M "P B C M"
_symmetry_group_IT_number 57
_symmetry_cell_setting 'orthorhombic'
loop_
_space_group_symop_operation_xyz
x,y,z
-x,-y,1/2+z
x,1/2-y,-z
-x,1/2+y,1/2-z
-x,-y,-z
x,y,1/2-z
-x,1/2+y,z
x,1/2-y,1/2+z
loop_
_atom_site_type_symbol
_atom_site_label
_atom_site_fract_x
_atom_site_fract_y
_atom_site_fract_z
Si Si1 0.568137 0.565087 0.436189
Si Si2 0.328936 0.835197 0.529286
Si Si3 0.276316 0.937044 0.351298
Si Si4 0.168540 0.158220 0.010402
Si Si5 0.957718 0.556272 0.645581
Si Si6 0.927648 0.118370 0.140706
O O1 0.500000 0.500000 0.500000
O O2 0.446879 0.624946 0.406158
O O3 0.637174 0.518202 0.351276
O O4 0.685524 0.614880 0.488043
O O5 0.376346 0.750000 0.500000
O O6 0.321373 0.879455 0.431616
O O7 0.187124 0.831392 0.586642
O O8 0.298691 0.897681 0.250000
O O9 0.118631 0.959668 0.366376
O O10 0.077371 0.141743 0.101846
O O11 0.193259 0.250000 0.000000
O O12 0.088725 0.125536 0.920812
O O13 0.919540 0.581967 0.750000
O O14 0.889566 0.472498 0.621316
O O15 0.926133 0.137623 0.250000
#
# Coordination Sequence:
#
# PCOD8233398 Si02
#       6
#     8   8   8   8   8   8
#     4  10  22  40  64  86 120 166 215 252 301 373
#     4  11  23  41  60  93 128 168 204 258 323 380
#     4  10  20  37  63  90 120 164 212 256 305 370
#     4  12  23  39  62  95 130 161 200 265 326 376
#     4  10  20  37  62  90 121 162 209 256 307 368
#     4  11  23  39  63  92 123 166 218 262 312 376
#
# _framework density 20.057535999999999
#
# number of rings (size 3 to 8) (size 9 to 14) (size 15 to 20)
#    0.000    1.333    3.333    3.500    0.000    2.000 
#    0.000    5.000    0.000    6.000    0.000    0.000 
#    0.000    0.000    0.000    0.000    0.000    0.000 
#
# Total GULP energy -595047.004839 kJ/mol
# GULP energy per Si atom -12396.812601 kJ/mol
# Density = 2.001188 g / cm^3
# Si number density = 20.057536 Si / 1000 Ang^3
#
#
#
# Elastic Constant Matrix: (Units=GPa)
#
#
# Indices 1 2 3 4 5 6 
#
# 1 107.6736 39.0961 34.2046 0.0000 0.0000 0.0000
# 2 39.0961 115.7689 42.6085 0.0000 0.0000 0.0000
# 3 34.2046 42.6085 98.5651 0.0000 0.0000 0.0000
# 4 0.0000 0.0000 0.0000 15.4505 0.0000 0.0000
# 5 0.0000 0.0000 0.0000 0.0000 6.4262 0.0000
# 6 0.0000 0.0000 0.0000 0.0000 0.0000 28.2045
#
#
#
# Elastic Compliance Matrix: (Units=1/GPa)
#
#
# Indices 1 2 3 4 5 6 
#
# 1 0.011144 -0.002783 -0.002664 0.000000 0.000000 0.000000
# 2 -0.002783 0.010967 -0.003775 0.000000 0.000000 0.000000
# 3 -0.002664 -0.003775 0.012702 0.000000 0.000000 0.000000
# 4 0.000000 0.000000 0.000000 0.064723 0.000000 0.000000
# 5 0.000000 0.000000 0.000000 0.000000 0.155612 0.000000
# 6 0.000000 0.000000 0.000000 0.000000 0.000000 0.035455
#
#
# Mechanical properties :
#
#
# Convention : Reuss Voigt Hill
#
# Bulk Modulus (GPa) = 61.09247 61.53621 61.31434
# Shear Modulus (GPa) = 15.89801 23.75614 19.82708
#
# Velocity S-wave (km/s) = 2.81841 3.44524 3.14747
# Velocity P-wave (km/s) = 6.41217 6.82442 6.62151
#
# Compressibility (1/GPa) = 0.01636863
#
# Stress axis : x y z
#
# Youngs Moduli (GPa) = 89.73317 91.18120 78.72682
#
# Poissons Ratio (x) = 0.25375 0.20975
# Poissons Ratio (y) = 0.24972 0.29721
# Poissons Ratio (z) = 0.23908 0.34423
#
# Static dielectric constant tensor:
#      x y z
#    x 3.893660 0.000000 0.000000 
#    y 0.000000 3.736570 0.000000 
#    z 0.000000 0.000000 3.671800 
# 
# 
# High freq. dielectric constant tensor:
#      x y z
#    x 1.788370 0.000000 0.000000 
#    y 0.000000 1.782920 0.000000 
#    z 0.000000 0.000000 1.772470 
# 
# From -- ./inp_files/16326.got.cif
#   From: 2010.03.12/outbox.cif.g09.slc.cpg/sg57_9_cif.got.tgz:16326.got - 2010.04.16 15:48:40.
