data_PCOD8233915
_publ_section_title
;
Structure prediction by ZEFSAII (Michael W. Deem and Ramdas Pophale) SiO2 
 PCOD8233915
Probable space group: P B C M
;
_chemical_formula_sum "Si O2"
_cell_formula_units_Z 48
_cell_length_a 30.348685
_cell_length_b 9.364166
_cell_length_c 8.652221
_cell_angle_alpha 90.000000
_cell_angle_beta 90.000000
_cell_angle_gamma 90.000000
_cell_volume 2458.875761
_symmetry_space_group_name_H-M "P B C M"
_symmetry_group_IT_number 57
_symmetry_cell_setting 'orthorhombic'
loop_
_space_group_symop_operation_xyz
x,y,z
-x,-y,1/2+z
x,1/2-y,-z
-x,1/2+y,1/2-z
-x,-y,-z
x,y,1/2-z
-x,1/2+y,z
x,1/2-y,1/2+z
loop_
_atom_site_type_symbol
_atom_site_label
_atom_site_fract_x
_atom_site_fract_y
_atom_site_fract_z
Si Si1 0.036628 0.403165 0.426446
Si Si2 0.207384 0.899769 0.431763
Si Si3 0.376108 0.094207 0.431995
Si Si4 0.539248 0.408035 0.431396
Si Si5 0.865165 0.594674 0.570771
Si Si6 0.698886 0.404392 0.933097
O O1 0.034492 0.250000 0.500000
O O2 0.024380 0.384296 0.250000
O O3 0.085591 0.470324 0.447143
O O4 0.000000 0.500000 0.500000
O O5 0.191723 0.750000 0.500000
O O6 0.215750 0.887300 0.250000
O O7 0.252470 0.948954 0.512719
O O8 0.168646 0.008006 0.467349
O O9 0.386110 0.250000 0.500000
O O10 0.369178 0.107790 0.250000
O O11 0.415926 0.988936 0.474424
O O12 0.332658 0.029123 0.508116
O O13 0.540285 0.250000 0.500000
O O14 0.500000 0.500000 0.500000
O O15 0.532280 0.394826 0.250000
O O16 0.864936 0.750000 0.500000
O O17 0.850554 0.596371 0.750000
O O18 0.696877 0.394711 0.750000
O O19 0.684937 0.250000 0.000000
#
# Coordination Sequence:
#
# PCOD8233915 Si02
#       6
#     8   8   8   8   8   8
#     4  10  21  37  58  82 112 147 187 233 283 338
#     4  11  22  38  60  86 116 151 191 237 285 340
#     4  11  24  41  61  89 121 156 197 243 291 344
#     4  11  24  41  64  91 123 159 199 244 293 347
#     4  10  21  38  58  83 113 148 188 233 284 340
#     4  11  22  39  62  87 117 153 192 238 288 343
#
# _framework density 19.521115999999999
#
# number of rings (size 3 to 8) (size 9 to 14) (size 15 to 20)
#    0.000    1.333    0.000    7.000    0.000    8.667 
#    0.000    3.333    0.000    0.000    0.000    0.000 
#    0.000    0.000    0.000    0.000    0.000    0.000 
#
# Total GULP energy -595336.265890 kJ/mol
# GULP energy per Si atom -12402.838873 kJ/mol
# Density = 1.947669 g / cm^3
# Si number density = 19.521116 Si / 1000 Ang^3
#
#
#
# Elastic Constant Matrix: (Units=GPa)
#
#
# Indices 1 2 3 4 5 6 
#
# 1 111.7910 70.5081 57.2772 0.0000 0.0000 0.0000
# 2 70.5081 121.5307 59.5720 0.0000 0.0000 0.0000
# 3 57.2772 59.5720 135.3029 0.0000 0.0000 0.0000
# 4 0.0000 0.0000 0.0000 39.5745 0.0000 0.0000
# 5 0.0000 0.0000 0.0000 0.0000 33.8499 0.0000
# 6 0.0000 0.0000 0.0000 0.0000 0.0000 59.8469
#
#
#
# Elastic Compliance Matrix: (Units=1/GPa)
#
#
# Indices 1 2 3 4 5 6 
#
# 1 0.015147 -0.007198 -0.003243 0.000000 0.000000 0.000000
# 2 -0.007198 0.013914 -0.003079 0.000000 0.000000 0.000000
# 3 -0.003243 -0.003079 0.010119 0.000000 0.000000 0.000000
# 4 0.000000 0.000000 0.000000 0.025269 0.000000 0.000000
# 5 0.000000 0.000000 0.000000 0.000000 0.029542 0.000000
# 6 0.000000 0.000000 0.000000 0.000000 0.000000 0.016709
#
#
# Mechanical properties :
#
#
# Convention : Reuss Voigt Hill
#
# Bulk Modulus (GPa) = 82.37175 82.59325 82.48250
# Shear Modulus (GPa) = 35.26448 38.73874 37.00161
#
# Velocity S-wave (km/s) = 4.25488 4.45955 4.35842
# Velocity P-wave (km/s) = 8.15025 8.30171 8.22633
#
# Compressibility (1/GPa) = 0.01214009
#
# Stress axis : x y z
#
# Youngs Moduli (GPa) = 66.02138 71.87197 98.82248
#
# Poissons Ratio (x) = 0.51734 0.32046
# Poissons Ratio (y) = 0.47522 0.30426
# Poissons Ratio (z) = 0.21409 0.22128
#
# Static dielectric constant tensor:
#      x y z
#    x 3.866710 0.000000 0.000000 
#    y 0.000000 3.625600 0.000000 
#    z 0.000000 0.000000 3.775820 
# 
# 
# High freq. dielectric constant tensor:
#      x y z
#    x 1.774440 0.000000 0.000000 
#    y 0.000000 1.761200 0.000000 
#    z 0.000000 0.000000 1.783370 
# 
# From -- ./inp_files/10010.got.cif
#   From: 2010.03.12/outbox.cif.g09.slc.cpg/sg57_6_cif.got.tgz:10010.got - 2010.04.16 15:48:40.
