data_PCOD8233737
_publ_section_title
;
Structure prediction by ZEFSAII (Michael W. Deem and Ramdas Pophale) SiO2 
 PCOD8233737
Probable space group: P B C M
;
_chemical_formula_sum "Si O2"
_cell_formula_units_Z 64
_cell_length_a 20.780346
_cell_length_b 18.407623
_cell_length_c 9.232748
_cell_angle_alpha 90.000000
_cell_angle_beta 90.000000
_cell_angle_gamma 90.000000
_cell_volume 3531.680989
_symmetry_space_group_name_H-M "P B C M"
_symmetry_group_IT_number 57
_symmetry_cell_setting 'orthorhombic'
loop_
_space_group_symop_operation_xyz
x,y,z
-x,-y,1/2+z
x,1/2-y,-z
-x,1/2+y,1/2-z
-x,-y,-z
x,y,1/2-z
-x,1/2+y,z
x,1/2-y,1/2+z
loop_
_atom_site_type_symbol
_atom_site_label
_atom_site_fract_x
_atom_site_fract_y
_atom_site_fract_z
Si Si1 0.995852 0.573207 0.415660
Si Si2 0.865315 0.417256 0.580445
Si Si3 0.747895 0.323761 0.580885
Si Si4 0.371440 0.922848 0.582452
Si Si5 0.633178 0.908184 0.415478
Si Si6 0.741885 0.826012 0.922290
Si Si7 0.856614 0.930574 0.580887
Si Si8 0.491577 0.574498 0.582874
O O1 0.996937 0.550445 0.250000
O O2 0.926272 0.609643 0.451054
O O3 0.000000 0.500000 0.500000
O O4 0.062532 0.616029 0.451305
O O5 0.854111 0.432129 0.750000
O O6 0.815276 0.357076 0.524799
O O7 0.852240 0.493309 0.501685
O O8 0.732804 0.250000 0.500000
O O9 0.749979 0.306834 0.750000
O O10 0.692996 0.381129 0.540880
O O11 0.389762 0.914688 0.750000
O O12 0.430023 0.886518 0.490608
O O13 0.360538 0.007119 0.542483
O O14 0.656422 0.895876 0.250000
O O15 0.675350 0.861116 0.524906
O O16 0.558783 0.881535 0.432456
O O17 0.739403 0.815131 0.750000
O O18 0.800720 0.877215 0.972351
O O19 0.753023 0.750000 0.000000
O O20 0.848492 0.947498 0.750000
O O21 0.500000 0.500000 0.500000
O O22 0.476233 0.559040 0.750000
#
# Coordination Sequence:
#
# PCOD8233737 Si02
#       8
#     8   8   8   8   8   8   8   8
#     4   8  14  27  48  73  99 124 155 199 246 290
#     4   9  17  31  53  76  98 129 165 201 245 294
#     4  10  21  35  49  70 101 135 170 205 243 288
#     4   9  18  33  53  76 102 131 163 202 246 292
#     4   9  18  34  55  77 100 126 160 203 246 291
#     4  11  23  36  50  70  99 134 168 204 246 292
#     4   9  18  32  51  76 101 125 160 205 248 291
#     4   9  17  30  51  78 104 128 158 199 245 292
#
# _framework density 18.121683000000001
#
# number of rings (size 3 to 8) (size 9 to 14) (size 15 to 20)
#    0.000    2.750    0.000    2.250    0.000    5.500 
#    0.000    1.250    0.000    1.500    0.000    0.000 
#    0.000    0.000    0.000    0.000    0.000    0.000 
#
# Total GULP energy -792987.594445 kJ/mol
# GULP energy per Si atom -12390.431163 kJ/mol
# Density = 1.808044 g / cm^3
# Si number density = 18.121683 Si / 1000 Ang^3
#
#
#
# Elastic Constant Matrix: (Units=GPa)
#
#
# Indices 1 2 3 4 5 6 
#
# 1 108.0692 18.3916 35.8267 0.0000 0.0000 0.0000
# 2 18.3916 48.2697 20.0066 0.0000 0.0000 0.0000
# 3 35.8267 20.0066 55.1816 0.0000 0.0000 0.0000
# 4 0.0000 0.0000 0.0000 25.6442 0.0000 0.0000
# 5 0.0000 0.0000 0.0000 0.0000 26.9206 0.0000
# 6 0.0000 0.0000 0.0000 0.0000 0.0000 4.6768
#
#
#
# Elastic Compliance Matrix: (Units=1/GPa)
#
#
# Indices 1 2 3 4 5 6 
#
# 1 0.011891 -0.001566 -0.007152 0.000000 0.000000 0.000000
# 2 -0.001566 0.024587 -0.007897 0.000000 0.000000 0.000000
# 3 -0.007152 -0.007897 0.025629 0.000000 0.000000 0.000000
# 4 0.000000 0.000000 0.000000 0.038995 0.000000 0.000000
# 5 0.000000 0.000000 0.000000 0.000000 0.037146 0.000000
# 6 0.000000 0.000000 0.000000 0.000000 0.000000 0.213823
#
#
# Mechanical properties :
#
#
# Convention : Reuss Voigt Hill
#
# Bulk Modulus (GPa) = 34.63207 39.99670 37.31439
# Shear Modulus (GPa) = 12.66053 20.60136 16.63094
#
# Velocity S-wave (km/s) = 2.64605 3.37536 3.03270
# Velocity P-wave (km/s) = 5.33739 6.10817 5.73575
#
# Compressibility (1/GPa) = 0.02887497
#
# Stress axis : x y z
#
# Youngs Moduli (GPa) = 84.09706 40.67200 39.01838
#
# Poissons Ratio (x) = 0.06370 0.27908
# Poissons Ratio (y) = 0.13171 0.30814
# Poissons Ratio (z) = 0.60150 0.32120
#
# Static dielectric constant tensor:
#      x y z
#    x 4.351410 0.000000 0.000000 
#    y 0.000000 2.941450 0.000000 
#    z 0.000000 0.000000 3.428540 
# 
# 
# High freq. dielectric constant tensor:
#      x y z
#    x 1.730410 0.000000 0.000000 
#    y 0.000000 1.654380 0.000000 
#    z 0.000000 0.000000 1.703600 
# 
# From -- ./inp_files/8618.got.cif
#   From: 2010.03.12/outbox.cif.g09.slc.cpg/sg57_5_cif.got.tgz:8618.got - 2010.04.16 15:48:40.
