data_PCOD8233156
_publ_section_title
;
Structure prediction by ZEFSAII (Michael W. Deem and Ramdas Pophale) SiO2 
 PCOD8233156
Probable space group: P B C M
;
_chemical_formula_sum "Si O2"
_cell_formula_units_Z 40
_cell_length_a 12.657222
_cell_length_b 17.400511
_cell_length_c 8.853199
_cell_angle_alpha 90.000000
_cell_angle_beta 90.000000
_cell_angle_gamma 90.000000
_cell_volume 1949.847411
_symmetry_space_group_name_H-M "P B C M"
_symmetry_group_IT_number 57
_symmetry_cell_setting 'orthorhombic'
loop_
_space_group_symop_operation_xyz
x,y,z
-x,-y,1/2+z
x,1/2-y,-z
-x,1/2+y,1/2-z
-x,-y,-z
x,y,1/2-z
-x,1/2+y,z
x,1/2-y,1/2+z
loop_
_atom_site_type_symbol
_atom_site_label
_atom_site_fract_x
_atom_site_fract_y
_atom_site_fract_z
Si Si1 0.149775 0.332288 0.428846
Si Si2 0.251005 0.664550 0.070619
Si Si3 0.452331 0.572065 0.084262
Si Si4 0.655334 0.672895 0.417813
Si Si5 0.964488 0.080114 0.428195
O O1 0.177255 0.250000 0.500000
O O2 0.134473 0.335561 0.250000
O O3 0.256393 0.376602 0.484410
O O4 0.044234 0.357075 0.510288
O O5 0.257052 0.676291 0.250000
O O6 0.352742 0.616912 0.008108
O O7 0.150837 0.611193 0.024809
O O8 0.243436 0.750000 0.000000
O O9 0.415164 0.544583 0.250000
O O10 0.547471 0.629500 0.097198
O O11 0.500000 0.500000 0.000000
O O12 0.621321 0.750000 0.500000
O O13 0.701862 0.689264 0.250000
O O14 0.973213 0.070936 0.250000
O O15 0.000000 0.000000 0.500000
#
# Coordination Sequence:
#
# PCOD8233156 Si02
#       5
#     8   8   8   8   8
#     4  11  22  38  61  88 120 159 202 252 306 366
#     4  10  23  43  66  93 126 165 211 259 311 376
#     4  10  23  40  60  90 125 160 203 253 308 368
#     4  10  20  36  59  88 119 155 200 248 300 366
#     4  11  24  41  62  91 127 163 207 259 312 374
#
# _framework density 20.514424999999999
#
# number of rings (size 3 to 8) (size 9 to 14) (size 15 to 20)
#    0.000    1.600    0.000    5.400    2.800    5.600 
#    0.000    0.000    0.000    0.000    0.000    0.000 
#    0.000    0.000    0.000    0.000    0.000    0.000 
#
# Total GULP energy -495583.628036 kJ/mol
# GULP energy per Si atom -12389.590701 kJ/mol
# Density = 2.046773 g / cm^3
# Si number density = 20.514425 Si / 1000 Ang^3
#
#
#
# Elastic Constant Matrix: (Units=GPa)
#
#
# Indices 1 2 3 4 5 6 
#
# 1 157.4838 57.4514 53.6700 0.0000 0.0000 0.0000
# 2 57.4514 110.4014 53.2491 0.0000 0.0000 0.0000
# 3 53.6700 53.2491 98.8327 0.0000 0.0000 0.0000
# 4 0.0000 0.0000 0.0000 32.5287 0.0000 0.0000
# 5 0.0000 0.0000 0.0000 0.0000 26.6594 0.0000
# 6 0.0000 0.0000 0.0000 0.0000 0.0000 26.3111
#
#
#
# Elastic Compliance Matrix: (Units=1/GPa)
#
#
# Indices 1 2 3 4 5 6 
#
# 1 0.008448 -0.002950 -0.002998 0.000000 0.000000 0.000000
# 2 -0.002950 0.013268 -0.005547 0.000000 0.000000 0.000000
# 3 -0.002998 -0.005547 0.014735 0.000000 0.000000 0.000000
# 4 0.000000 0.000000 0.000000 0.030742 0.000000 0.000000
# 5 0.000000 0.000000 0.000000 0.000000 0.037510 0.000000
# 6 0.000000 0.000000 0.000000 0.000000 0.000000 0.038007
#
#
# Mechanical properties :
#
#
# Convention : Reuss Voigt Hill
#
# Bulk Modulus (GPa) = 74.28819 77.27321 75.78070
# Shear Modulus (GPa) = 29.37951 30.58965 29.98458
#
# Velocity S-wave (km/s) = 3.78847 3.86570 3.82728
# Velocity P-wave (km/s) = 7.44499 7.59437 7.52005
#
# Compressibility (1/GPa) = 0.01346109
#
# Stress axis : x y z
#
# Youngs Moduli (GPa) = 118.37402 75.36723 67.86739
#
# Poissons Ratio (x) = 0.22234 0.20347
# Poissons Ratio (y) = 0.34922 0.37644
# Poissons Ratio (z) = 0.35489 0.41804
#
# Static dielectric constant tensor:
#      x y z
#    x 4.847590 0.000000 0.000000 
#    y 0.000000 3.607640 0.000000 
#    z 0.000000 0.000000 4.326950 
# 
# 
# High freq. dielectric constant tensor:
#      x y z
#    x 1.830680 0.000000 0.000000 
#    y 0.000000 1.793470 0.000000 
#    z 0.000000 0.000000 1.805330 
# 
# From -- ./inp_files/2694.got.cif
#   From: 2010.03.12/outbox.cif.g09.slc.cpg/sg57_2_cif.got.tgz:2694.got - 2010.04.16 15:48:40.
