data_PCOD8233203
_publ_section_title
;
Structure prediction by ZEFSAII (Michael W. Deem and Ramdas Pophale) SiO2 
 PCOD8233203
Probable space group: P B C M
;
_chemical_formula_sum "Si O2"
_cell_formula_units_Z 36
_cell_length_a 16.199782
_cell_length_b 4.994484
_cell_length_c 21.466920
_cell_angle_alpha 90.000000
_cell_angle_beta 90.000000
_cell_angle_gamma 90.000000
_cell_volume 1736.878880
_symmetry_space_group_name_H-M "P B C M"
_symmetry_group_IT_number 57
_symmetry_cell_setting 'orthorhombic'
loop_
_space_group_symop_operation_xyz
x,y,z
-x,-y,1/2+z
x,1/2-y,-z
-x,1/2+y,1/2-z
-x,-y,-z
x,y,1/2-z
-x,1/2+y,z
x,1/2-y,1/2+z
loop_
_atom_site_type_symbol
_atom_site_label
_atom_site_fract_x
_atom_site_fract_y
_atom_site_fract_z
Si Si1 0.448227 0.245198 0.572554
Si Si2 0.830084 0.750000 0.000000
Si Si3 0.944215 0.502691 0.408861
Si Si4 0.273396 0.415751 0.382577
Si Si5 0.798991 0.422606 0.321839
O O1 0.425379 0.250000 0.500000
O O2 0.477145 0.543689 0.589888
O O3 0.369504 0.150110 0.611141
O O4 0.773353 0.614629 0.947908
O O5 0.884674 0.990920 0.969589
O O6 0.892280 0.425771 0.347719
O O7 0.979146 0.804254 0.410103
O O8 0.259711 0.716950 0.358958
O O9 0.237491 0.217962 0.330476
O O10 0.802487 0.342882 0.250000
#
# Coordination Sequence:
#
# PCOD8233203 Si02
#       5
#     8   4   8   8   8
#     4  10  20  36  60  95 129 157 189 239 304 368
#     4  10  22  38  60  96 124 160 196 248 318 388
#     4  11  23  39  60  87 120 157 196 255 310 360
#     4  11  22  40  64  90 125 160 199 254 300 367
#     4  11  25  42  62  86 116 166 216 251 298 354
#
# _framework density 20.726834
#
# number of rings (size 3 to 8) (size 9 to 14) (size 15 to 20)
#    0.000    1.333    1.111    5.333    0.000    8.000 
#    0.000    0.000    0.000   13.333    0.000    0.000 
#    0.000    0.000    0.000    0.000    0.000    0.000 
#
# Total GULP energy -446422.490423 kJ/mol
# GULP energy per Si atom -12400.624734 kJ/mol
# Density = 2.067966 g / cm^3
# Si number density = 20.726834 Si / 1000 Ang^3
#
#
#
# Elastic Constant Matrix: (Units=GPa)
#
#
# Indices 1 2 3 4 5 6 
#
# 1 98.3306 8.4083 35.9732 0.0000 0.0000 0.0000
# 2 8.4083 72.3567 14.5324 0.0000 0.0000 0.0000
# 3 35.9732 14.5324 114.8888 0.0000 0.0000 0.0000
# 4 0.0000 0.0000 0.0000 26.5135 0.0000 0.0000
# 5 0.0000 0.0000 0.0000 0.0000 12.1150 0.0000
# 6 0.0000 0.0000 0.0000 0.0000 0.0000 29.6252
#
#
#
# Elastic Compliance Matrix: (Units=1/GPa)
#
#
# Indices 1 2 3 4 5 6 
#
# 1 0.011513 -0.000630 -0.003525 0.000000 0.000000 0.000000
# 2 -0.000630 0.014215 -0.001601 0.000000 0.000000 0.000000
# 3 -0.003525 -0.001601 0.010010 0.000000 0.000000 0.000000
# 4 0.000000 0.000000 0.000000 0.037717 0.000000 0.000000
# 5 0.000000 0.000000 0.000000 0.000000 0.082542 0.000000
# 6 0.000000 0.000000 0.000000 0.000000 0.000000 0.033755
#
#
# Mechanical properties :
#
#
# Convention : Reuss Voigt Hill
#
# Bulk Modulus (GPa) = 41.27670 44.82268 43.04969
# Shear Modulus (GPa) = 23.88455 28.76156 26.32306
#
# Velocity S-wave (km/s) = 3.39831 3.72916 3.56757
# Velocity P-wave (km/s) = 5.94608 6.34149 6.14697
#
# Compressibility (1/GPa) = 0.02422675
#
# Stress axis : x y z
#
# Youngs Moduli (GPa) = 86.85589 70.34754 99.89632
#
# Poissons Ratio (x) = 0.04431 0.35216
# Poissons Ratio (y) = 0.05471 0.15992
# Poissons Ratio (z) = 0.30619 0.11262
#
# Static dielectric constant tensor:
#      x y z
#    x 3.736120 0.000000 0.000000 
#    y 0.000000 3.767490 0.000000 
#    z 0.000000 0.000000 3.531850 
# 
# 
# High freq. dielectric constant tensor:
#      x y z
#    x 1.816960 0.000000 0.000000 
#    y 0.000000 1.823790 0.000000 
#    z 0.000000 0.000000 1.785500 
# 
# From -- ./inp_files/25220.got.cif
#   From: 2010.03.12/outbox.cif.g09.slc.cpg/sg57_13_cif.got.tgz:25220.got - 2010.04.16 15:48:40.
