data_PCOD8233576
_publ_section_title
;
Structure prediction by ZEFSAII (Michael W. Deem and Ramdas Pophale) SiO2 
 PCOD8233576
Probable space group: P B C M
;
_chemical_formula_sum "Si O2"
_cell_formula_units_Z 60
_cell_length_a 11.358350
_cell_length_b 9.066870
_cell_length_c 25.919430
_cell_angle_alpha 90.000000
_cell_angle_beta 90.000000
_cell_angle_gamma 90.000000
_cell_volume 2669.304279
_symmetry_space_group_name_H-M "P B C M"
_symmetry_group_IT_number 57
_symmetry_cell_setting 'orthorhombic'
loop_
_space_group_symop_operation_xyz
x,y,z
-x,-y,1/2+z
x,1/2-y,-z
-x,1/2+y,1/2-z
-x,-y,-z
x,y,1/2-z
-x,1/2+y,z
x,1/2-y,1/2+z
loop_
_atom_site_type_symbol
_atom_site_label
_atom_site_fract_x
_atom_site_fract_y
_atom_site_fract_z
Si Si1 0.607714 0.610478 0.807941
Si Si2 0.738798 0.129682 0.367141
Si Si3 0.649432 0.562639 0.060279
Si Si4 0.809329 0.750000 0.000000
Si Si5 0.085344 0.393366 0.097825
Si Si6 0.160630 0.564168 0.864420
Si Si7 0.166637 0.286678 0.806920
Si Si8 0.474786 0.700446 0.594513
O O1 0.555202 0.594637 0.750000
O O2 0.683945 0.463535 0.820159
O O3 0.694146 0.751030 0.811495
O O4 0.501463 0.630414 0.848759
O O5 0.812215 0.269317 0.345786
O O6 0.633103 0.185427 0.403628
O O7 0.825203 0.030777 0.402208
O O8 0.727778 0.504942 0.107118
O O9 0.554316 0.430396 0.052842
O O10 0.590707 0.718523 0.074873
O O11 0.730285 0.603750 0.011394
O O12 0.889643 0.711849 0.950821
O O13 0.094132 0.303629 0.150986
O O14 0.950017 0.445114 0.096184
O O15 0.141854 0.460783 0.814668
O O16 0.120849 0.242940 0.750000
#
# Coordination Sequence:
#
# PCOD8233576 Si02
#       8
#     8   8   8   4   8   8   8   8
#     4  10  20  38  65  98 137 185 229 278 343 410
#     4  10  23  40  66  98 139 177 224 290 338 416
#     4  11  24  43  69  98 132 177 223 279 341 414
#     4  12  26  46  76 100 136 186 238 286 358 404
#     4  11  24  47  71 101 138 184 231 292 343 413
#     4  11  22  43  69 101 135 176 231 280 347 408
#     4  10  21  41  69  99 138 183 229 279 345 414
#     4  11  21  43  66  95 141 177 225 283 344 416
#
# _framework density 22.477765999999999
#
# number of rings (size 3 to 8) (size 9 to 14) (size 15 to 20)
#    0.000    1.333    4.000    1.600    0.000    2.667 
#    0.000    6.000    0.000    0.000    0.000    0.000 
#    0.000    0.000    0.000    0.000    0.000    0.000 
#
# Total GULP energy -743865.866812 kJ/mol
# GULP energy per Si atom -12397.764447 kJ/mol
# Density = 2.242661 g / cm^3
# Si number density = 22.477766 Si / 1000 Ang^3
#
#
#
# Elastic Constant Matrix: (Units=GPa)
#
#
# Indices 1 2 3 4 5 6 
#
# 1 95.8846 46.3329 25.8281 0.0000 0.0000 0.0000
# 2 46.3329 139.1382 49.0362 0.0000 0.0000 0.0000
# 3 25.8281 49.0362 86.9577 0.0000 0.0000 0.0000
# 4 0.0000 0.0000 0.0000 21.1648 0.0000 0.0000
# 5 0.0000 0.0000 0.0000 0.0000 17.7712 0.0000
# 6 0.0000 0.0000 0.0000 0.0000 0.0000 30.9293
#
#
#
# Elastic Compliance Matrix: (Units=1/GPa)
#
#
# Indices 1 2 3 4 5 6 
#
# 1 0.012633 -0.003600 -0.001722 0.000000 0.000000 0.000000
# 2 -0.003600 0.009995 -0.004567 0.000000 0.000000 0.000000
# 3 -0.001722 -0.004567 0.014587 0.000000 0.000000 0.000000
# 4 0.000000 0.000000 0.000000 0.047248 0.000000 0.000000
# 5 0.000000 0.000000 0.000000 0.000000 0.056271 0.000000
# 6 0.000000 0.000000 0.000000 0.000000 0.000000 0.032332
#
#
# Mechanical properties :
#
#
# Convention : Reuss Voigt Hill
#
# Bulk Modulus (GPa) = 57.35112 62.70832 60.02972
# Shear Modulus (GPa) = 25.16909 27.35863 26.26386
#
# Velocity S-wave (km/s) = 3.34987 3.49254 3.42195
# Velocity P-wave (km/s) = 6.36649 6.64998 6.50978
#
# Compressibility (1/GPa) = 0.01743645
#
# Stress axis : x y z
#
# Youngs Moduli (GPa) = 79.16077 100.04558 68.55448
#
# Poissons Ratio (x) = 0.36013 0.11807
# Poissons Ratio (y) = 0.28495 0.31311
# Poissons Ratio (z) = 0.13633 0.45694
#
# Static dielectric constant tensor:
#      x y z
#    x 4.104740 0.000000 0.000000 
#    y 0.000000 4.419730 0.000000 
#    z 0.000000 0.000000 3.688840 
# 
# 
# High freq. dielectric constant tensor:
#      x y z
#    x 1.888370 0.000000 0.000000 
#    y 0.000000 1.898070 0.000000 
#    z 0.000000 0.000000 1.854890 
# 
# From -- ./inp_files/28603.got.cif
#   From: 2010.03.12/outbox.cif.g09.slc.cpg/sg57_15_cif.got.tgz:28603.got - 2010.04.16 15:48:40.
