data_PCOD8233319
_publ_section_title
;
Structure prediction by ZEFSAII (Michael W. Deem and Ramdas Pophale) SiO2 
 PCOD8233319
Probable space group: P B C M
;
_chemical_formula_sum "Si O2"
_cell_formula_units_Z 48
_cell_length_a 16.428381
_cell_length_b 17.839148
_cell_length_c 8.473184
_cell_angle_alpha 90.000000
_cell_angle_beta 90.000000
_cell_angle_gamma 90.000000
_cell_volume 2483.221800
_symmetry_space_group_name_H-M "P B C M"
_symmetry_group_IT_number 57
_symmetry_cell_setting 'orthorhombic'
loop_
_space_group_symop_operation_xyz
x,y,z
-x,-y,1/2+z
x,1/2-y,-z
-x,1/2+y,1/2-z
-x,-y,-z
x,y,1/2-z
-x,1/2+y,z
x,1/2-y,1/2+z
loop_
_atom_site_type_symbol
_atom_site_label
_atom_site_fract_x
_atom_site_fract_y
_atom_site_fract_z
Si Si1 0.818710 0.893692 0.566700
Si Si2 0.745257 0.462565 0.931449
Si Si3 0.661186 0.670375 0.934635
Si Si4 0.587145 0.521595 0.064328
Si Si5 0.861807 0.169418 0.432293
Si Si6 0.987922 0.917153 0.065516
O O1 0.807677 0.875631 0.750000
O O2 0.756859 0.841029 0.470371
O O3 0.910568 0.876793 0.514129
O O4 0.799516 0.980885 0.534675
O O5 0.750404 0.488907 0.750000
O O6 0.780321 0.379533 0.954185
O O7 0.652035 0.464299 0.987844
O O8 0.644705 0.665820 0.750000
O O9 0.631472 0.750000 0.000000
O O10 0.608477 0.606791 0.020412
O O11 0.589652 0.511620 0.250000
O O12 0.500000 0.500000 0.000000
O O13 0.839780 0.250000 0.500000
O O14 0.888029 0.173797 0.250000
O O15 0.934887 0.134120 0.531146
O O16 0.972192 0.923458 0.250000
O O17 0.000000 0.000000 0.000000
#
# Coordination Sequence:
#
# PCOD8233319 Si02
#       6
#     8   8   8   8   8   8
#     4  11  21  35  58  86 115 153 198 240 291 350
#     4  10  20  37  60  85 115 151 193 239 291 349
#     4  11  22  39  61  89 124 158 195 243 300 355
#     4  11  22  39  64  93 122 155 198 242 293 352
#     4  11  24  40  59  84 118 156 199 247 298 349
#     4  12  23  37  58  84 116 156 203 250 298 351
#
# _framework density 19.329726999999998
#
# number of rings (size 3 to 8) (size 9 to 14) (size 15 to 20)
#    0.000    1.000    1.667    9.000    0.000    2.667 
#    0.000    4.167    0.000    2.000    0.000    0.000 
#    0.000    0.000    0.000    0.000    0.000    0.000 
#
# Total GULP energy -595467.163544 kJ/mol
# GULP energy per Si atom -12405.565907 kJ/mol
# Density = 1.928573 g / cm^3
# Si number density = 19.329727 Si / 1000 Ang^3
#
#
#
# Elastic Constant Matrix: (Units=GPa)
#
#
# Indices 1 2 3 4 5 6 
#
# 1 130.6217 41.7090 22.4115 0.0000 0.0000 0.0000
# 2 41.7090 102.0962 15.6657 0.0000 0.0000 0.0000
# 3 22.4115 15.6657 92.6449 0.0000 0.0000 0.0000
# 4 0.0000 0.0000 0.0000 33.2822 0.0000 0.0000
# 5 0.0000 0.0000 0.0000 0.0000 33.5404 0.0000
# 6 0.0000 0.0000 0.0000 0.0000 0.0000 14.1271
#
#
#
# Elastic Compliance Matrix: (Units=1/GPa)
#
#
# Indices 1 2 3 4 5 6 
#
# 1 0.009030 -0.003443 -0.001602 0.000000 0.000000 0.000000
# 2 -0.003443 0.011368 -0.001089 0.000000 0.000000 0.000000
# 3 -0.001602 -0.001089 0.011366 0.000000 0.000000 0.000000
# 4 0.000000 0.000000 0.000000 0.030046 0.000000 0.000000
# 5 0.000000 0.000000 0.000000 0.000000 0.029815 0.000000
# 6 0.000000 0.000000 0.000000 0.000000 0.000000 0.070786
#
#
# Mechanical properties :
#
#
# Convention : Reuss Voigt Hill
#
# Bulk Modulus (GPa) = 51.29619 53.88169 52.58894
# Shear Modulus (GPa) = 27.59703 32.56171 30.07937
#
# Velocity S-wave (km/s) = 3.78259 4.10877 3.94905
# Velocity P-wave (km/s) = 6.75813 7.10245 6.93243
#
# Compressibility (1/GPa) = 0.01949463
#
# Stress axis : x y z
#
# Youngs Moduli (GPa) = 110.74150 87.96261 87.98398
#
# Poissons Ratio (x) = 0.30287 0.14097
# Poissons Ratio (y) = 0.38130 0.09585
# Poissons Ratio (z) = 0.17743 0.09583
#
# Static dielectric constant tensor:
#      x y z
#    x 3.578590 0.000000 0.000000 
#    y 0.000000 3.570900 0.000000 
#    z 0.000000 0.000000 3.650190 
# 
# 
# High freq. dielectric constant tensor:
#      x y z
#    x 1.747560 0.000000 0.000000 
#    y 0.000000 1.742360 0.000000 
#    z 0.000000 0.000000 1.775170 
# 
# From -- ./inp_files/6706.got.cif
#   From: 2010.03.12/outbox.cif.g09.slc.cpg/sg57_4_cif.got.tgz:6706.got - 2010.04.16 15:48:40.
