data_PCOD8233908
_publ_section_title
;
Structure prediction by ZEFSAII (Michael W. Deem and Ramdas Pophale) SiO2 
 PCOD8233908
Probable space group: P B C M
;
_chemical_formula_sum "Si O2"
_cell_formula_units_Z 48
_cell_length_a 9.060901
_cell_length_b 10.092799
_cell_length_c 27.149324
_cell_angle_alpha 90.000000
_cell_angle_beta 90.000000
_cell_angle_gamma 90.000000
_cell_volume 2482.801677
_symmetry_space_group_name_H-M "P B C M"
_symmetry_group_IT_number 57
_symmetry_cell_setting 'orthorhombic'
loop_
_space_group_symop_operation_xyz
x,y,z
-x,-y,1/2+z
x,1/2-y,-z
-x,1/2+y,1/2-z
-x,-y,-z
x,y,1/2-z
-x,1/2+y,z
x,1/2-y,1/2+z
loop_
_atom_site_type_symbol
_atom_site_label
_atom_site_fract_x
_atom_site_fract_y
_atom_site_fract_z
Si Si1 0.842152 0.709530 0.883250
Si Si2 0.051932 0.623254 0.532218
Si Si3 0.384721 0.827761 0.804918
Si Si4 0.251000 0.507208 0.887829
Si Si5 0.899375 0.323232 0.191751
Si Si6 0.451537 0.409001 0.353355
O O1 0.704960 0.610390 0.879081
O O2 0.920151 0.660076 0.931890
O O3 0.944444 0.706388 0.834275
O O4 0.786757 0.855408 0.893806
O O5 0.097050 0.750000 0.500000
O O6 0.192146 0.587795 0.565431
O O7 0.000000 0.500000 0.500000
O O8 0.418912 0.784751 0.750000
O O9 0.210529 0.802326 0.816164
O O10 0.492372 0.733626 0.835747
O O11 0.424487 0.981540 0.811103
O O12 0.181205 0.553982 0.835456
O O13 0.426908 0.528856 0.889843
O O14 0.924133 0.354865 0.250000
#
# Coordination Sequence:
#
# PCOD8233908 Si02
#       6
#     8   8   8   8   8   8
#     4  11  23  40  65  93 125 164 209 262 314 368
#     4  11  23  43  72  96 123 158 205 260 318 379
#     4  10  21  37  57  87 126 172 217 258 303 361
#     4  10  22  42  63  91 127 167 206 257 315 372
#     4   9  22  38  59  91 126 168 217 258 303 367
#     4  11  22  40  61  87 127 167 210 257 315 372
#
# _framework density 19.332996999999999
#
# number of rings (size 3 to 8) (size 9 to 14) (size 15 to 20)
#    0.000    1.667    3.333    0.500    4.667    4.000 
#    0.000    1.667    0.000    0.000    0.000    0.000 
#    0.000    0.000    0.000    0.000    0.000    0.000 
#
# Total GULP energy -595049.513789 kJ/mol
# GULP energy per Si atom -12396.864871 kJ/mol
# Density = 1.928899 g / cm^3
# Si number density = 19.332997 Si / 1000 Ang^3
#
#
#
# Elastic Constant Matrix: (Units=GPa)
#
#
# Indices 1 2 3 4 5 6 
#
# 1 136.8245 38.3150 51.2210 0.0000 0.0000 0.0000
# 2 38.3150 111.0450 42.1535 0.0000 0.0000 0.0000
# 3 51.2210 42.1535 114.8428 0.0000 0.0000 0.0000
# 4 0.0000 0.0000 0.0000 32.8296 0.0000 0.0000
# 5 0.0000 0.0000 0.0000 0.0000 19.9935 0.0000
# 6 0.0000 0.0000 0.0000 0.0000 0.0000 26.8658
#
#
#
# Elastic Compliance Matrix: (Units=1/GPa)
#
#
# Indices 1 2 3 4 5 6 
#
# 1 0.009091 -0.001856 -0.003373 0.000000 0.000000 0.000000
# 2 -0.001856 0.010842 -0.003152 0.000000 0.000000 0.000000
# 3 -0.003373 -0.003152 0.011369 0.000000 0.000000 0.000000
# 4 0.000000 0.000000 0.000000 0.030460 0.000000 0.000000
# 5 0.000000 0.000000 0.000000 0.000000 0.050016 0.000000
# 6 0.000000 0.000000 0.000000 0.000000 0.000000 0.037222
#
#
# Mechanical properties :
#
#
# Convention : Reuss Voigt Hill
#
# Bulk Modulus (GPa) = 68.77777 69.56570 69.17174
# Shear Modulus (GPa) = 29.30646 31.33931 30.32288
#
# Velocity S-wave (km/s) = 3.89765 4.03057 3.96467
# Velocity P-wave (km/s) = 7.47717 7.59747 7.53756
#
# Compressibility (1/GPa) = 0.01453958
#
# Stress axis : x y z
#
# Youngs Moduli (GPa) = 109.99503 92.23145 87.95829
#
# Poissons Ratio (x) = 0.17121 0.29672
# Poissons Ratio (y) = 0.20418 0.27723
# Poissons Ratio (z) = 0.37106 0.29069
#
# Static dielectric constant tensor:
#      x y z
#    x 3.739510 0.000000 0.000000 
#    y 0.000000 3.565200 0.000000 
#    z 0.000000 0.000000 3.465980 
# 
# 
# High freq. dielectric constant tensor:
#      x y z
#    x 1.759740 0.000000 0.000000 
#    y 0.000000 1.762940 0.000000 
#    z 0.000000 0.000000 1.740080 
# 
# From -- ./inp_files/26707.got.cif
#   From: 2010.03.12/outbox.cif.g09.slc.cpg/sg57_14_cif.got.tgz:26707.got - 2010.04.16 15:48:40.
