data_PCOD8233509
_publ_section_title
;
Structure prediction by ZEFSAII (Michael W. Deem and Ramdas Pophale) SiO2 
 PCOD8233509
Probable space group: P B C M
;
_chemical_formula_sum "Si O2"
_cell_formula_units_Z 56
_cell_length_a 15.108969
_cell_length_b 20.670731
_cell_length_c 8.669783
_cell_angle_alpha 90.000000
_cell_angle_beta 90.000000
_cell_angle_gamma 90.000000
_cell_volume 2707.689700
_symmetry_space_group_name_H-M "P B C M"
_symmetry_group_IT_number 57
_symmetry_cell_setting 'orthorhombic'
loop_
_space_group_symop_operation_xyz
x,y,z
-x,-y,1/2+z
x,1/2-y,-z
-x,1/2+y,1/2-z
-x,-y,-z
x,y,1/2-z
-x,1/2+y,z
x,1/2-y,1/2+z
loop_
_atom_site_type_symbol
_atom_site_label
_atom_site_fract_x
_atom_site_fract_y
_atom_site_fract_z
Si Si1 0.732049 0.514062 0.429354
Si Si2 0.053895 0.318574 0.566047
Si Si3 0.141682 0.689107 0.078005
Si Si4 0.543178 0.184966 0.571063
Si Si5 0.691972 0.112060 0.075272
Si Si6 0.917725 0.542705 0.566909
Si Si7 0.562116 0.944196 0.429857
O O1 0.751482 0.525386 0.250000
O O2 0.678382 0.447315 0.459358
O O3 0.824038 0.510630 0.522297
O O4 0.659586 0.564524 0.493038
O O5 0.093360 0.250000 0.500000
O O6 0.066417 0.319690 0.750000
O O7 0.095477 0.384089 0.497037
O O8 0.953413 0.325594 0.503628
O O9 0.121680 0.710649 0.250000
O O10 0.203976 0.627555 0.067492
O O11 0.189355 0.750000 0.000000
O O12 0.500574 0.250000 0.500000
O O13 0.562013 0.195002 0.750000
O O14 0.635686 0.172636 0.483615
O O15 0.479545 0.125315 0.537312
O O16 0.664549 0.093728 0.250000
O O17 0.929338 0.543502 0.750000
O O18 0.000000 0.500000 0.500000
O O19 0.573255 0.958878 0.250000
O O20 0.500000 0.000000 0.500000
#
# Coordination Sequence:
#
# PCOD8233509 Si02
#       7
#     8   8   8   8   8   8   8
#     4  12  25  41  64  94 125 165 215 265 325 392
#     4  10  20  38  61  87 122 166 216 268 327 389
#     4   9  19  32  50  78 113 155 199 247 305 373
#     4  11  24  40  61  91 127 167 212 263 323 385
#     4  11  21  35  57  86 123 163 206 259 318 383
#     4  12  25  43  66  96 132 171 219 277 334 390
#     4  11  23  42  67  94 126 167 215 264 317 379
#
# _framework density 20.681839
#
# number of rings (size 3 to 8) (size 9 to 14) (size 15 to 20)
#    0.000    1.143    1.429    5.571    0.000    5.714 
#    0.000    0.714    0.000    1.714    0.000    0.000 
#    0.000    0.000    0.000    0.000    0.000    0.000 
#
# Total GULP energy -694074.477281 kJ/mol
# GULP energy per Si atom -12394.187094 kJ/mol
# Density = 2.063477 g / cm^3
# Si number density = 20.681839 Si / 1000 Ang^3
#
#
#
# Elastic Constant Matrix: (Units=GPa)
#
#
# Indices 1 2 3 4 5 6 
#
# 1 92.3734 27.4090 36.0518 0.0000 0.0000 0.0000
# 2 27.4090 128.3675 51.7022 0.0000 0.0000 0.0000
# 3 36.0518 51.7022 131.4660 0.0000 0.0000 0.0000
# 4 0.0000 0.0000 0.0000 39.3930 0.0000 0.0000
# 5 0.0000 0.0000 0.0000 0.0000 29.1085 0.0000
# 6 0.0000 0.0000 0.0000 0.0000 0.0000 23.5329
#
#
#
# Elastic Compliance Matrix: (Units=1/GPa)
#
#
# Indices 1 2 3 4 5 6 
#
# 1 0.012366 -0.001514 -0.002796 0.000000 0.000000 0.000000
# 2 -0.001514 0.009442 -0.003298 0.000000 0.000000 0.000000
# 3 -0.002796 -0.003298 0.009670 0.000000 0.000000 0.000000
# 4 0.000000 0.000000 0.000000 0.025385 0.000000 0.000000
# 5 0.000000 0.000000 0.000000 0.000000 0.034354 0.000000
# 6 0.000000 0.000000 0.000000 0.000000 0.000000 0.042494
#
#
# Mechanical properties :
#
#
# Convention : Reuss Voigt Hill
#
# Bulk Modulus (GPa) = 61.49238 64.72589 63.10914
# Shear Modulus (GPa) = 32.39440 34.20980 33.30210
#
# Velocity S-wave (km/s) = 3.96197 4.07147 4.01710
# Velocity P-wave (km/s) = 7.12227 7.31208 7.21780
#
# Compressibility (1/GPa) = 0.01626218
#
# Stress axis : x y z
#
# Youngs Moduli (GPa) = 80.86658 105.91222 103.41124
#
# Poissons Ratio (x) = 0.16040 0.28909
# Poissons Ratio (y) = 0.12247 0.34104
# Poissons Ratio (z) = 0.22607 0.34929
#
# Static dielectric constant tensor:
#      x y z
#    x 3.727650 0.000000 0.000000 
#    y 0.000000 4.002100 0.000000 
#    z 0.000000 0.000000 3.784220 
# 
# 
# High freq. dielectric constant tensor:
#      x y z
#    x 1.799160 0.000000 0.000000 
#    y 0.000000 1.813720 0.000000 
#    z 0.000000 0.000000 1.818500 
# 
# From -- ./inp_files/5270.got.cif
#   From: 2010.03.12/outbox.cif.g09.slc.cpg/sg57_3_cif.got.tgz:5270.got - 2010.04.16 15:48:40.
