data_PCOD8233592
_publ_section_title
;
Structure prediction by ZEFSAII (Michael W. Deem and Ramdas Pophale) SiO2 
 PCOD8233592
Probable space group: P B C M
;
_chemical_formula_sum "Si O2"
_cell_formula_units_Z 40
_cell_length_a 22.665986
_cell_length_b 9.040260
_cell_length_c 9.849679
_cell_angle_alpha 90.000000
_cell_angle_beta 90.000000
_cell_angle_gamma 90.000000
_cell_volume 2018.262330
_symmetry_space_group_name_H-M "P B C M"
_symmetry_group_IT_number 57
_symmetry_cell_setting 'orthorhombic'
loop_
_space_group_symop_operation_xyz
x,y,z
-x,-y,1/2+z
x,1/2-y,-z
-x,1/2+y,1/2-z
-x,-y,-z
x,y,1/2-z
-x,1/2+y,z
x,1/2-y,1/2+z
loop_
_atom_site_type_symbol
_atom_site_label
_atom_site_fract_x
_atom_site_fract_y
_atom_site_fract_z
Si Si1 0.660341 0.420953 0.985308
Si Si2 0.062585 0.423461 0.996149
Si Si3 0.746664 0.116209 0.250000
Si Si4 0.855693 0.902522 0.750000
Si Si5 0.728482 0.455878 0.250000
Si Si6 0.545615 0.598453 0.585166
Si Si7 0.134421 0.444132 0.250000
O O1 0.714006 0.437580 0.883355
O O2 0.607802 0.517230 0.925237
O O3 0.639324 0.250000 0.000000
O O4 0.685115 0.488774 0.124423
O O5 0.106409 0.464977 0.874392
O O6 0.050845 0.250000 0.000000
O O7 0.095737 0.488791 0.123467
O O8 0.000000 0.500000 0.000000
O O9 0.752724 0.291102 0.250000
O O10 0.809822 0.046723 0.250000
O O11 0.849330 0.727142 0.750000
O O12 0.787328 0.947520 0.750000
O O13 0.548465 0.750000 0.500000
O O14 0.500000 0.500000 0.500000
O O15 0.530335 0.617841 0.750000
#
# Coordination Sequence:
#
# PCOD8233592 Si02
#       7
#     8   8   4   4   4   8   4
#     4  10  22  41  65  92 129 167 211 259 319 375
#     4  10  21  36  54  79 109 148 194 247 307 372
#     4  10  20  39  58  89 119 160 206 250 309 372
#     4  10  21  37  53  83 115 150 199 248 312 372
#     4  10  22  35  62  91 121 160 206 258 303 380
#     4  12  27  46  71 101 136 176 223 272 327 389
#     4  10  21  35  57  77 115 154 191 246 310 368
#
# _framework density 19.819029
#
# number of rings (size 3 to 8) (size 9 to 14) (size 15 to 20)
#    0.000    1.600    1.000    3.000    2.800    3.200 
#    0.000    0.000    0.000    0.000    0.000    0.000 
#    0.000    0.000    0.000    0.000    0.000    0.000 
#
# Total GULP energy -495735.957374 kJ/mol
# GULP energy per Si atom -12393.398934 kJ/mol
# Density = 1.977392 g / cm^3
# Si number density = 19.819029 Si / 1000 Ang^3
#
#
#
# Elastic Constant Matrix: (Units=GPa)
#
#
# Indices 1 2 3 4 5 6 
#
# 1 114.3804 47.6295 45.7066 0.0000 0.0000 0.0000
# 2 47.6295 61.2624 34.9987 0.0000 0.0000 0.0000
# 3 45.7066 34.9987 169.3894 0.0000 0.0000 0.0000
# 4 0.0000 0.0000 0.0000 30.6143 0.0000 0.0000
# 5 0.0000 0.0000 0.0000 0.0000 -9.7408 0.0000
# 6 0.0000 0.0000 0.0000 0.0000 0.0000 35.9415
#
#
#
# Elastic Compliance Matrix: (Units=1/GPa)
#
#
# Indices 1 2 3 4 5 6 
#
# 1 0.013323 -0.009416 -0.001649 0.000000 0.000000 0.000000
# 2 -0.009416 0.025162 -0.002658 0.000000 0.000000 0.000000
# 3 -0.001649 -0.002658 0.006898 0.000000 0.000000 0.000000
# 4 0.000000 0.000000 0.000000 0.032665 0.000000 0.000000
# 5 0.000000 0.000000 0.000000 0.000000 -0.102661 0.000000
# 6 0.000000 0.000000 0.000000 0.000000 0.000000 0.027823
#
#
# Mechanical properties :
#
#
# Convention : Reuss Voigt Hill
#
# Bulk Modulus (GPa) = 55.75370 66.85575 61.30472
# Shear Modulus (GPa) = 136.48259 25.80948 81.14604
#
# Velocity S-wave (km/s) = 8.30746 3.61260 6.40565
# Velocity P-wave (km/s) = 10.96408 7.15594 9.25793
#
# Compressibility (1/GPa) = 0.01793603
#
# Stress axis : x y z
#
# Youngs Moduli (GPa) = 75.06002 39.74208 144.97207
#
# Poissons Ratio (x) = 0.37420 0.23912
# Poissons Ratio (y) = 0.70674 0.38538
# Poissons Ratio (z) = 0.12381 0.10565
#
# Static dielectric constant tensor:
#      x y z
#    x 3.594110 0.000000 0.000000 
#    y 0.000000 3.624480 0.000000 
#    z 0.000000 0.000000 4.116270 
# 
# 
# High freq. dielectric constant tensor:
#      x y z
#    x 1.786180 0.000000 0.000000 
#    y 0.000000 1.765460 0.000000 
#    z 0.000000 0.000000 1.798480 
# 
# From -- ./inp_files/9034.got.cif
#   From: 2010.03.12/outbox.cif.g09.slc.cpg/sg57_5_cif.got.tgz:9034.got - 2010.04.16 15:48:40.
