data_PCOD8233646
_publ_section_title
;
Structure prediction by ZEFSAII (Michael W. Deem and Ramdas Pophale) SiO2 
 PCOD8233646
Probable space group: P B C M
;
_chemical_formula_sum "Si O2"
_cell_formula_units_Z 32
_cell_length_a 18.173630
_cell_length_b 9.546420
_cell_length_c 9.089973
_cell_angle_alpha 90.000000
_cell_angle_beta 90.000000
_cell_angle_gamma 90.000000
_cell_volume 1577.047639
_symmetry_space_group_name_H-M "P B C M"
_symmetry_group_IT_number 57
_symmetry_cell_setting 'orthorhombic'
loop_
_space_group_symop_operation_xyz
x,y,z
-x,-y,1/2+z
x,1/2-y,-z
-x,1/2+y,1/2-z
-x,-y,-z
x,y,1/2-z
-x,1/2+y,z
x,1/2-y,1/2+z
loop_
_atom_site_type_symbol
_atom_site_label
_atom_site_fract_x
_atom_site_fract_y
_atom_site_fract_z
Si Si1 0.440351 0.099416 0.428335
Si Si2 0.911038 0.477893 0.250000
Si Si3 0.293914 0.387728 0.416209
Si Si4 0.048610 0.834973 0.750000
Si Si5 0.169183 0.594473 0.025462
O O1 0.454781 0.250000 0.500000
O O2 0.444891 0.099792 0.250000
O O3 0.360221 0.048749 0.485361
O O4 0.500000 0.000000 0.500000
O O5 0.957028 0.333230 0.250000
O O6 0.853731 0.489024 0.381707
O O7 0.965931 0.608480 0.250000
O O8 0.263598 0.250000 0.500000
O O9 0.320704 0.348300 0.250000
O O10 0.230948 0.503629 0.395169
O O11 0.092659 0.890985 0.889121
O O12 0.202292 0.750000 0.000000
#
# Coordination Sequence:
#
# PCOD8233646 Si02
#       5
#     8   4   8   4   8
#     4  11  23  42  66  95 130 165 208 253 306 364
#     4  10  22  34  62  80 121 148 203 244 311 364
#     4  11  23  40  62  90 124 159 205 253 304 362
#     4  10  20  40  54  88 111 158 193 256 301 368
#     4  10  22  39  59  85 120 158 201 251 305 363
#
# _framework density 20.291079
#
# number of rings (size 3 to 8) (size 9 to 14) (size 15 to 20)
#    0.000    1.500    1.250    5.250    3.500    3.000 
#    0.000    2.500    0.000    0.000    0.000    0.000 
#    0.000    0.000    0.000    0.000    0.000    0.000 
#
# Total GULP energy -396636.910849 kJ/mol
# GULP energy per Si atom -12394.903464 kJ/mol
# Density = 2.024490 g / cm^3
# Si number density = 20.291079 Si / 1000 Ang^3
#
#
#
# Elastic Constant Matrix: (Units=GPa)
#
#
# Indices 1 2 3 4 5 6 
#
# 1 79.4010 46.3989 23.8985 0.0000 0.0000 0.0000
# 2 46.3989 64.4632 22.6376 0.0000 0.0000 0.0000
# 3 23.8985 22.6376 163.3718 0.0000 0.0000 0.0000
# 4 0.0000 0.0000 0.0000 30.2227 0.0000 0.0000
# 5 0.0000 0.0000 0.0000 0.0000 36.9797 0.0000
# 6 0.0000 0.0000 0.0000 0.0000 0.0000 45.8098
#
#
#
# Elastic Compliance Matrix: (Units=1/GPa)
#
#
# Indices 1 2 3 4 5 6 
#
# 1 0.021914 -0.015397 -0.001072 0.000000 0.000000 0.000000
# 2 -0.015397 0.027124 -0.001506 0.000000 0.000000 0.000000
# 3 -0.001072 -0.001506 0.006487 0.000000 0.000000 0.000000
# 4 0.000000 0.000000 0.000000 0.033088 0.000000 0.000000
# 5 0.000000 0.000000 0.000000 0.000000 0.027042 0.000000
# 6 0.000000 0.000000 0.000000 0.000000 0.000000 0.021829
#
#
# Mechanical properties :
#
#
# Convention : Reuss Voigt Hill
#
# Bulk Modulus (GPa) = 51.08718 54.78957 52.93838
# Shear Modulus (GPa) = 27.78411 36.88916 32.33664
#
# Velocity S-wave (km/s) = 3.70439 4.26843 3.99637
# Velocity P-wave (km/s) = 6.59761 7.16610 6.88773
#
# Compressibility (1/GPa) = 0.01957438
#
# Stress axis : x y z
#
# Youngs Moduli (GPa) = 45.63222 36.86788 154.16509
#
# Poissons Ratio (x) = 0.56765 0.16530
# Poissons Ratio (y) = 0.70259 0.23219
# Poissons Ratio (z) = 0.04893 0.05553
#
# Static dielectric constant tensor:
#      x y z
#    x 3.682330 0.000000 0.000000 
#    y 0.000000 3.580390 0.000000 
#    z 0.000000 0.000000 4.189510 
# 
# 
# High freq. dielectric constant tensor:
#      x y z
#    x 1.783480 0.000000 0.000000 
#    y 0.000000 1.785370 0.000000 
#    z 0.000000 0.000000 1.820170 
# 
# From -- ./inp_files/4054.got.cif
#   From: 2010.03.12/outbox.cif.g09.slc.cpg/sg57_3_cif.got.tgz:4054.got - 2010.04.16 15:48:40.
