data_PCOD8233777
_publ_section_title
;
Structure prediction by ZEFSAII (Michael W. Deem and Ramdas Pophale) SiO2 
 PCOD8233777
Probable space group: P B C M
;
_chemical_formula_sum "Si O2"
_cell_formula_units_Z 56
_cell_length_a 6.436681
_cell_length_b 15.831889
_cell_length_c 25.912398
_cell_angle_alpha 90.000000
_cell_angle_beta 90.000000
_cell_angle_gamma 90.000000
_cell_volume 2640.598231
_symmetry_space_group_name_H-M "P B C M"
_symmetry_group_IT_number 57
_symmetry_cell_setting 'orthorhombic'
loop_
_space_group_symop_operation_xyz
x,y,z
-x,-y,1/2+z
x,1/2-y,-z
-x,1/2+y,1/2-z
-x,-y,-z
x,y,1/2-z
-x,1/2+y,z
x,1/2-y,1/2+z
loop_
_atom_site_type_symbol
_atom_site_label
_atom_site_fract_x
_atom_site_fract_y
_atom_site_fract_z
Si Si1 0.236721 0.613399 0.560468
Si Si2 0.041843 0.116469 0.353260
Si Si3 0.573986 0.737189 0.944641
Si Si4 0.574844 0.522243 0.123047
Si Si5 0.745282 0.386340 0.555204
Si Si6 0.925553 0.703762 0.868663
Si Si7 0.214460 0.462965 0.189989
O O1 0.475234 0.644250 0.558177
O O2 0.240530 0.533947 0.598732
O O3 0.173549 0.589797 0.502000
O O4 0.081154 0.681470 0.584983
O O5 0.000488 0.214513 0.334357
O O6 0.953945 0.113588 0.411398
O O7 0.291031 0.099148 0.352896
O O8 0.921953 0.047824 0.318235
O O9 0.374185 0.797937 0.942210
O O10 0.724609 0.744539 0.896394
O O11 0.689498 0.750000 0.000000
O O12 0.415238 0.545198 0.077675
O O13 0.446737 0.476026 0.168227
O O14 0.885802 0.621218 0.834505
O O15 0.233954 0.445049 0.250000
#
# Coordination Sequence:
#
# PCOD8233777 Si02
#       7
#     8   8   8   8   8   8   8
#     4  11  22  37  61  97 138 179 216 259 315 395
#     4  11  24  41  69  99 134 169 221 273 328 398
#     4  10  21  35  59  94 137 176 213 255 309 389
#     4  11  22  43  63  93 130 178 220 280 322 387
#     4  10  22  37  61  97 140 181 219 254 319 396
#     4  12  23  41  70  98 134 175 220 266 335 399
#     4  11  27  49  68  92 125 167 227 292 344 390
#
# _framework density 21.207315000000001
#
# number of rings (size 3 to 8) (size 9 to 14) (size 15 to 20)
#    0.000    1.143    5.714    0.429    2.000    1.714 
#    0.000    0.000    0.000    0.000    0.000    0.000 
#    0.000    0.000    0.000    0.000    0.000    0.000 
#
# Total GULP energy -693978.122834 kJ/mol
# GULP energy per Si atom -12392.466479 kJ/mol
# Density = 2.115905 g / cm^3
# Si number density = 21.207315 Si / 1000 Ang^3
#
#
#
# Elastic Constant Matrix: (Units=GPa)
#
#
# Indices 1 2 3 4 5 6 
#
# 1 69.8678 33.2227 30.5180 0.0000 0.0000 0.0000
# 2 33.2227 116.8871 44.4471 0.0000 0.0000 0.0000
# 3 30.5180 44.4471 114.8258 0.0000 0.0000 0.0000
# 4 0.0000 0.0000 0.0000 20.0622 0.0000 0.0000
# 5 0.0000 0.0000 0.0000 0.0000 14.3792 0.0000
# 6 0.0000 0.0000 0.0000 0.0000 0.0000 35.1196
#
#
#
# Elastic Compliance Matrix: (Units=1/GPa)
#
#
# Indices 1 2 3 4 5 6 
#
# 1 0.017495 -0.003758 -0.003195 0.000000 0.000000 0.000000
# 2 -0.003758 0.010839 -0.003197 0.000000 0.000000 0.000000
# 3 -0.003195 -0.003197 0.010796 0.000000 0.000000 0.000000
# 4 0.000000 0.000000 0.000000 0.049845 0.000000 0.000000
# 5 0.000000 0.000000 0.000000 0.000000 0.069545 0.000000
# 6 0.000000 0.000000 0.000000 0.000000 0.000000 0.028474
#
#
# Mechanical properties :
#
#
# Convention : Reuss Voigt Hill
#
# Bulk Modulus (GPa) = 53.10648 57.55069 55.32858
# Shear Modulus (GPa) = 23.41151 26.80506 25.10829
#
# Velocity S-wave (km/s) = 3.32616 3.55907 3.44458
# Velocity P-wave (km/s) = 6.31245 6.63968 6.47813
#
# Compressibility (1/GPa) = 0.01883009
#
# Stress axis : x y z
#
# Youngs Moduli (GPa) = 57.15848 92.26019 92.63088
#
# Poissons Ratio (x) = 0.34668 0.29598
# Poissons Ratio (y) = 0.21478 0.29613
# Poissons Ratio (z) = 0.18264 0.29494
#
# Static dielectric constant tensor:
#      x y z
#    x 3.687420 0.000000 0.000000 
#    y 0.000000 4.125090 0.000000 
#    z 0.000000 0.000000 3.512500 
# 
# 
# High freq. dielectric constant tensor:
#      x y z
#    x 1.830630 0.000000 0.000000 
#    y 0.000000 1.848990 0.000000 
#    z 0.000000 0.000000 1.796440 
# 
# From -- ./inp_files/29148.got.cif
#   From: 2010.03.12/outbox.cif.g09.slc.cpg/sg57_15_cif.got.tgz:29148.got - 2010.04.16 15:48:40.
