data_PCOD8233293
_publ_section_title
;
Structure prediction by ZEFSAII (Michael W. Deem and Ramdas Pophale) SiO2 
 PCOD8233293
Probable space group: P B C M
;
_chemical_formula_sum "Si O2"
_cell_formula_units_Z 48
_cell_length_a 7.743166
_cell_length_b 34.563073
_cell_length_c 8.679638
_cell_angle_alpha 90.000000
_cell_angle_beta 90.000000
_cell_angle_gamma 90.000000
_cell_volume 2322.910788
_symmetry_space_group_name_H-M "P B C M"
_symmetry_group_IT_number 57
_symmetry_cell_setting 'orthorhombic'
loop_
_space_group_symop_operation_xyz
x,y,z
-x,-y,1/2+z
x,1/2-y,-z
-x,1/2+y,1/2-z
-x,-y,-z
x,y,1/2-z
-x,1/2+y,z
x,1/2-y,1/2+z
loop_
_atom_site_type_symbol
_atom_site_label
_atom_site_fract_x
_atom_site_fract_y
_atom_site_fract_z
Si Si1 0.136021 0.335670 0.565111
Si Si2 0.238158 0.846955 0.431594
Si Si3 0.187276 0.417581 0.583348
Si Si4 0.686684 0.502793 0.433098
Si Si5 0.552040 0.791158 0.067905
Si Si6 0.790092 0.074276 0.417924
O O1 0.130251 0.335156 0.750000
O O2 0.224027 0.376217 0.502139
O O3 0.261858 0.302530 0.502812
O O4 0.940066 0.330615 0.504166
O O5 0.211465 0.848378 0.250000
O O6 0.397119 0.819774 0.480774
O O7 0.292792 0.890022 0.488767
O O8 0.281185 0.418814 0.750000
O O9 0.240633 0.456796 0.494016
O O10 0.985422 0.415625 0.610760
O O11 0.500000 0.500000 0.500000
O O12 0.695070 0.503235 0.250000
O O13 0.791022 0.465818 0.489924
O O14 0.572336 0.788970 0.250000
O O15 0.498895 0.750000 0.000000
O O16 0.697738 0.069792 0.250000
#
# Coordination Sequence:
#
# PCOD8233293 Si02
#       6
#     8   8   8   8   8   8
#     4  10  21  40  66  94 124 163 205 250 306 365
#     4  10  22  41  64  93 126 162 206 255 306 365
#     4   8  18  36  57  81 111 151 197 241 291 349
#     4  11  22  35  51  80 117 155 199 247 297 351
#     4  11  25  43  65  94 125 160 200 247 305 367
#     4  10  20  37  59  83 111 153 201 248 303 357
#
# _framework density 20.663729
#
# number of rings (size 3 to 8) (size 9 to 14) (size 15 to 20)
#    0.000    2.000    0.000    4.000    2.333    3.333 
#    0.000   10.000    0.000    0.000    0.000    0.000 
#    0.000    0.000    0.000    0.000    0.000    0.000 
#
# Total GULP energy -594743.801113 kJ/mol
# GULP energy per Si atom -12390.495857 kJ/mol
# Density = 2.061670 g / cm^3
# Si number density = 20.663729 Si / 1000 Ang^3
#
#
#
# Elastic Constant Matrix: (Units=GPa)
#
#
# Indices 1 2 3 4 5 6 
#
# 1 56.3037 14.7684 19.5575 0.0000 0.0000 0.0000
# 2 14.7684 101.8197 24.9235 0.0000 0.0000 0.0000
# 3 19.5575 24.9235 86.1675 0.0000 0.0000 0.0000
# 4 0.0000 0.0000 0.0000 30.7808 0.0000 0.0000
# 5 0.0000 0.0000 0.0000 0.0000 27.5661 0.0000
# 6 0.0000 0.0000 0.0000 0.0000 0.0000 33.5688
#
#
#
# Elastic Compliance Matrix: (Units=1/GPa)
#
#
# Indices 1 2 3 4 5 6 
#
# 1 0.019613 -0.001889 -0.003905 0.000000 0.000000 0.000000
# 2 -0.001889 0.010752 -0.002681 0.000000 0.000000 0.000000
# 3 -0.003905 -0.002681 0.013267 0.000000 0.000000 0.000000
# 4 0.000000 0.000000 0.000000 0.032488 0.000000 0.000000
# 5 0.000000 0.000000 0.000000 0.000000 0.036276 0.000000
# 6 0.000000 0.000000 0.000000 0.000000 0.000000 0.029790
#
#
# Mechanical properties :
#
#
# Convention : Reuss Voigt Hill
#
# Bulk Modulus (GPa) = 37.47957 40.30999 38.89478
# Shear Modulus (GPa) = 29.75672 30.71923 30.23798
#
# Velocity S-wave (km/s) = 3.79891 3.85986 3.82951
# Velocity P-wave (km/s) = 6.11715 6.27811 6.19815
#
# Compressibility (1/GPa) = 0.02668120
#
# Stress axis : x y z
#
# Youngs Moduli (GPa) = 50.98719 93.01000 75.37405
#
# Poissons Ratio (x) = 0.17568 0.29435
# Poissons Ratio (y) = 0.09631 0.20209
# Poissons Ratio (z) = 0.19912 0.24937
#
# Static dielectric constant tensor:
#      x y z
#    x 3.470630 0.000000 0.000000 
#    y 0.000000 3.098630 0.000000 
#    z 0.000000 0.000000 3.817860 
# 
# 
# High freq. dielectric constant tensor:
#      x y z
#    x 1.804770 0.000000 0.000000 
#    y 0.000000 1.822120 0.000000 
#    z 0.000000 0.000000 1.800620 
# 
# From -- ./inp_files/2129.got.cif
#   From: 2010.03.12/outbox.cif.g09.slc.cpg/sg57_2_cif.got.tgz:2129.got - 2010.04.16 15:48:40.
