data_PCOD8233196
_publ_section_title
;
Structure prediction by ZEFSAII (Michael W. Deem and Ramdas Pophale) SiO2 
 PCOD8233196
Probable space group: P B C M
;
_chemical_formula_sum "Si O2"
_cell_formula_units_Z 64
_cell_length_a 11.856017
_cell_length_b 30.697268
_cell_length_c 8.734501
_cell_angle_alpha 90.000000
_cell_angle_beta 90.000000
_cell_angle_gamma 90.000000
_cell_volume 3178.898329
_symmetry_space_group_name_H-M "P B C M"
_symmetry_group_IT_number 57
_symmetry_cell_setting 'orthorhombic'
loop_
_space_group_symop_operation_xyz
x,y,z
-x,-y,1/2+z
x,1/2-y,-z
-x,1/2+y,1/2-z
-x,-y,-z
x,y,1/2-z
-x,1/2+y,z
x,1/2-y,1/2+z
loop_
_atom_site_type_symbol
_atom_site_label
_atom_site_fract_x
_atom_site_fract_y
_atom_site_fract_z
Si Si1 0.265813 0.204861 0.930992
Si Si2 0.501779 0.328883 0.430041
Si Si3 0.875298 0.373063 0.929480
Si Si4 0.745981 0.547031 0.425807
Si Si5 0.739513 0.204340 0.568733
Si Si6 0.883456 0.623118 0.570370
Si Si7 0.500722 0.579164 0.075739
Si Si8 0.262909 0.542196 0.071964
O O1 0.269354 0.208554 0.750000
O O2 0.390881 0.194783 0.998246
O O3 0.181839 0.166599 0.982019
O O4 0.220696 0.250000 0.000000
O O5 0.501858 0.323633 0.250000
O O6 0.615372 0.307413 0.498353
O O7 0.497311 0.379610 0.466164
O O8 0.861311 0.364589 0.750000
O O9 0.806141 0.415530 0.981389
O O10 0.829194 0.331687 0.019998
O O11 0.004419 0.380354 0.971471
O O12 0.780976 0.554996 0.250000
O O13 0.806798 0.581663 0.533707
O O14 0.612057 0.550787 0.450353
O O15 0.782689 0.498688 0.475650
O O16 0.779635 0.250000 0.500000
O O17 0.738095 0.207454 0.750000
O O18 0.911506 0.623847 0.750000
O O19 0.491114 0.596136 0.250000
O O20 0.394376 0.549243 0.034004
O O21 0.242945 0.532357 0.250000
#
# Coordination Sequence:
#
# PCOD8233196 Si02
#       8
#     8   8   8   8   8   8   8   8
#     4  10  22  39  61  90 121 157 196 242 298 355
#     4  10  20  36  60  91 124 158 196 241 298 360
#     4  11  24  43  65  88 119 158 206 256 303 356
#     4  11  23  38  62  94 123 157 201 248 301 362
#     4  11  23  39  63  93 125 161 201 246 300 359
#     4  11  24  43  64  86 120 161 205 253 304 360
#     4  10  20  36  60  91 124 158 196 242 301 362
#     4  10  22  40  62  89 123 161 197 244 305 364
#
# _framework density 20.132760000000001
#
# number of rings (size 3 to 8) (size 9 to 14) (size 15 to 20)
#    0.000    1.500    2.500    2.250    0.000    5.000 
#    0.000    1.250    0.000    0.000    0.000    0.000 
#    0.000    0.000    0.000    0.000    0.000    0.000 
#
# Total GULP energy -793935.281127 kJ/mol
# GULP energy per Si atom -12405.238768 kJ/mol
# Density = 2.008694 g / cm^3
# Si number density = 20.132760 Si / 1000 Ang^3
#
#
#
# Elastic Constant Matrix: (Units=GPa)
#
#
# Indices 1 2 3 4 5 6 
#
# 1 103.9389 38.0722 21.8736 0.0000 0.0000 0.0000
# 2 38.0722 143.9086 30.3388 0.0000 0.0000 0.0000
# 3 21.8736 30.3388 38.9593 0.0000 0.0000 0.0000
# 4 0.0000 0.0000 0.0000 36.0984 0.0000 0.0000
# 5 0.0000 0.0000 0.0000 0.0000 28.9066 0.0000
# 6 0.0000 0.0000 0.0000 0.0000 0.0000 8.4405
#
#
#
# Elastic Compliance Matrix: (Units=1/GPa)
#
#
# Indices 1 2 3 4 5 6 
#
# 1 0.011366 -0.001988 -0.004833 0.000000 0.000000 0.000000
# 2 -0.001988 0.008661 -0.005629 0.000000 0.000000 0.000000
# 3 -0.004833 -0.005629 0.032765 0.000000 0.000000 0.000000
# 4 0.000000 0.000000 0.000000 0.027702 0.000000 0.000000
# 5 0.000000 0.000000 0.000000 0.000000 0.034594 0.000000
# 6 0.000000 0.000000 0.000000 0.000000 0.000000 0.118477
#
#
# Mechanical properties :
#
#
# Convention : Reuss Voigt Hill
#
# Bulk Modulus (GPa) = 35.85240 51.93067 43.89154
# Shear Modulus (GPa) = 18.67318 27.79056 23.23187
#
# Velocity S-wave (km/s) = 3.04880 3.71936 3.40065
# Velocity P-wave (km/s) = 5.49911 6.65544 6.10472
#
# Compressibility (1/GPa) = 0.02789214
#
# Stress axis : x y z
#
# Youngs Moduli (GPa) = 87.97815 115.45370 30.52049
#
# Poissons Ratio (x) = 0.22953 0.14752
# Poissons Ratio (y) = 0.17491 0.17179
# Poissons Ratio (z) = 0.42524 0.64986
#
# Static dielectric constant tensor:
#      x y z
#    x 3.776320 0.000000 0.000000 
#    y 0.000000 3.638850 0.000000 
#    z 0.000000 0.000000 3.513590 
# 
# 
# High freq. dielectric constant tensor:
#      x y z
#    x 1.788230 0.000000 0.000000 
#    y 0.000000 1.794210 0.000000 
#    z 0.000000 0.000000 1.780820 
# 
# From -- ./inp_files/3913.got.cif
#   From: 2010.03.12/outbox.cif.g09.slc.cpg/sg57_2_cif.got.tgz:3913.got - 2010.04.16 15:48:40.
