data_PCOD8233514
_publ_section_title
;
Structure prediction by ZEFSAII (Michael W. Deem and Ramdas Pophale) SiO2 
 PCOD8233514
Probable space group: P B C M
;
_chemical_formula_sum "Si O2"
_cell_formula_units_Z 64
_cell_length_a 25.974605
_cell_length_b 14.706542
_cell_length_c 8.604565
_cell_angle_alpha 90.000000
_cell_angle_beta 90.000000
_cell_angle_gamma 90.000000
_cell_volume 3286.914741
_symmetry_space_group_name_H-M "P B C M"
_symmetry_group_IT_number 57
_symmetry_cell_setting 'orthorhombic'
loop_
_space_group_symop_operation_xyz
x,y,z
-x,-y,1/2+z
x,1/2-y,-z
-x,1/2+y,1/2-z
-x,-y,-z
x,y,1/2-z
-x,1/2+y,z
x,1/2-y,1/2+z
loop_
_atom_site_type_symbol
_atom_site_label
_atom_site_fract_x
_atom_site_fract_y
_atom_site_fract_z
Si Si1 0.629693 0.851825 0.934282
Si Si2 0.103813 0.160303 0.930956
Si Si3 0.827069 0.993338 0.931785
Si Si4 0.999515 0.598795 0.069783
Si Si5 0.632507 0.352256 0.064796
Si Si6 0.885964 0.155619 0.432281
Si Si7 0.288265 0.498148 0.567106
Si Si8 0.556877 0.002104 0.434892
O O1 0.621979 0.848128 0.750000
O O2 0.681925 0.905727 0.980269
O O3 0.631931 0.750000 0.000000
O O4 0.583171 0.908728 0.008125
O O5 0.099398 0.168231 0.750000
O O6 0.130612 0.250000 0.000000
O O7 0.139066 0.076674 0.973271
O O8 0.045995 0.155943 0.994722
O O9 0.828133 0.969316 0.750000
O O10 0.769227 0.993329 0.001594
O O11 0.852668 0.089145 0.962909
O O12 0.988145 0.590392 0.250000
O O13 0.053585 0.645947 0.033832
O O14 0.000000 0.500000 0.000000
O O15 0.628743 0.348249 0.250000
O O16 0.682229 0.410923 0.007865
O O17 0.635550 0.250000 0.000000
O O18 0.583107 0.406194 0.000556
O O19 0.867034 0.250000 0.500000
O O20 0.873685 0.143716 0.250000
O O21 0.284517 0.505856 0.750000
O O22 0.557399 0.005607 0.250000
O O23 0.500000 0.000000 0.500000
#
# Coordination Sequence:
#
# PCOD8233514 Si02
#       8
#     8   8   8   8   8   8   8   8
#     4  10  20  38  61  88 120 155 198 244 292 347
#     4  12  25  41  60  86 117 151 194 238 288 348
#     4  11  22  40  63  87 117 152 191 240 296 349
#     4  11  22  38  62  87 116 150 188 232 286 346
#     4  10  20  38  61  88 120 156 199 245 292 346
#     4  11  24  40  59  86 116 150 190 234 285 346
#     4   8  19  38  60  85 116 152 193 243 295 347
#     4  11  22  38  59  88 123 161 201 244 295 344
#
# _framework density 19.471146999999998
#
# number of rings (size 3 to 8) (size 9 to 14) (size 15 to 20)
#    0.000    1.500    1.250    5.250    0.000    4.000 
#    0.000   12.500    0.000    0.000    0.000    0.000 
#    0.000    0.000    0.000    0.000    0.000    0.000 
#
# Total GULP energy -793583.358597 kJ/mol
# GULP energy per Si atom -12399.739978 kJ/mol
# Density = 1.942683 g / cm^3
# Si number density = 19.471147 Si / 1000 Ang^3
#
#
#
# Elastic Constant Matrix: (Units=GPa)
#
#
# Indices 1 2 3 4 5 6 
#
# 1 134.9224 50.4337 48.8975 0.0000 0.0000 0.0000
# 2 50.4337 153.7210 41.2456 0.0000 0.0000 0.0000
# 3 48.8975 41.2456 110.1890 0.0000 0.0000 0.0000
# 4 0.0000 0.0000 0.0000 33.8730 0.0000 0.0000
# 5 0.0000 0.0000 0.0000 0.0000 53.2591 0.0000
# 6 0.0000 0.0000 0.0000 0.0000 0.0000 37.0791
#
#
#
# Elastic Compliance Matrix: (Units=1/GPa)
#
#
# Indices 1 2 3 4 5 6 
#
# 1 0.009456 -0.002197 -0.003374 0.000000 0.000000 0.000000
# 2 -0.002197 0.007742 -0.001923 0.000000 0.000000 0.000000
# 3 -0.003374 -0.001923 0.011292 0.000000 0.000000 0.000000
# 4 0.000000 0.000000 0.000000 0.029522 0.000000 0.000000
# 5 0.000000 0.000000 0.000000 0.000000 0.018776 0.000000
# 6 0.000000 0.000000 0.000000 0.000000 0.000000 0.026969
#
#
# Mechanical properties :
#
#
# Convention : Reuss Voigt Hill
#
# Bulk Modulus (GPa) = 74.06044 75.55399 74.80722
# Shear Modulus (GPa) = 40.56940 42.05929 41.31434
#
# Velocity S-wave (km/s) = 4.56956 4.65271 4.61132
# Velocity P-wave (km/s) = 8.12156 8.23109 8.17651
#
# Compressibility (1/GPa) = 0.01350248
#
# Stress axis : x y z
#
# Youngs Moduli (GPa) = 105.75795 129.16412 88.55660
#
# Poissons Ratio (x) = 0.28378 0.29875
# Poissons Ratio (y) = 0.23235 0.17030
# Poissons Ratio (z) = 0.35679 0.24839
#
# Static dielectric constant tensor:
#      x y z
#    x 3.751350 0.000000 0.000000 
#    y 0.000000 3.718830 0.000000 
#    z 0.000000 0.000000 3.576600 
# 
# 
# High freq. dielectric constant tensor:
#      x y z
#    x 1.758260 0.000000 0.000000 
#    y 0.000000 1.771750 0.000000 
#    z 0.000000 0.000000 1.764350 
# 
# From -- ./inp_files/9319.got.cif
#   From: 2010.03.12/outbox.cif.g09.slc.cpg/sg57_5_cif.got.tgz:9319.got - 2010.04.16 15:48:40.
