data_PCOD8233018
_publ_section_title
;
Structure prediction by ZEFSAII (Michael W. Deem and Ramdas Pophale) SiO2 
 PCOD8233018
Probable space group: P B C M
;
_chemical_formula_sum "Si O2"
_cell_formula_units_Z 48
_cell_length_a 30.101516
_cell_length_b 9.534167
_cell_length_c 8.699792
_cell_angle_alpha 90.000000
_cell_angle_beta 90.000000
_cell_angle_gamma 90.000000
_cell_volume 2496.778366
_symmetry_space_group_name_H-M "P B C M"
_symmetry_group_IT_number 57
_symmetry_cell_setting 'orthorhombic'
loop_
_space_group_symop_operation_xyz
x,y,z
-x,-y,1/2+z
x,1/2-y,-z
-x,1/2+y,1/2-z
-x,-y,-z
x,y,1/2-z
-x,1/2+y,z
x,1/2-y,1/2+z
loop_
_atom_site_type_symbol
_atom_site_label
_atom_site_fract_x
_atom_site_fract_y
_atom_site_fract_z
Si Si1 0.117870 0.394241 0.069944
Si Si2 0.962327 0.096228 0.071245
Si Si3 0.464169 0.398404 0.068778
Si Si4 0.286025 0.903433 0.567555
Si Si5 0.635432 0.897986 0.430361
Si Si6 0.786775 0.898616 0.567565
O O1 0.127108 0.371300 0.250000
O O2 0.084682 0.522195 0.039494
O O3 0.097752 0.250000 0.000000
O O4 0.163237 0.431891 0.983957
O O5 0.972291 0.111565 0.250000
O O6 0.961868 0.250000 0.000000
O O7 0.000000 0.000000 0.000000
O O8 0.468743 0.394218 0.250000
O O9 0.414257 0.442451 0.017684
O O10 0.476371 0.250000 0.000000
O O11 0.500000 0.500000 0.000000
O O12 0.289417 0.750000 0.500000
O O13 0.281457 0.898225 0.750000
O O14 0.330435 0.983942 0.513297
O O15 0.243235 0.977928 0.497620
O O16 0.649965 0.750000 0.500000
O O17 0.637602 0.878541 0.250000
O O18 0.770445 0.750000 0.500000
O O19 0.783620 0.893620 0.750000
#
# Coordination Sequence:
#
# PCOD8233018 Si02
#       6
#     8   8   8   8   8   8
#     4  10  21  38  60  87 116 150 191 236 282 335
#     4  11  24  40  61  87 118 154 194 237 285 337
#     4  10  20  36  56  82 112 146 185 228 277 331
#     4  11  23  39  57  82 114 148 186 232 282 334
#     4   9  20  37  58  81 108 143 186 229 275 332
#     4  11  22  38  61  87 115 151 190 232 279 335
#
# _framework density 19.224774
#
# number of rings (size 3 to 8) (size 9 to 14) (size 15 to 20)
#    0.000    1.667    0.000    5.500    0.000    8.667 
#    0.000    3.333    0.000    0.000    0.000    0.000 
#    0.000    0.000    0.000    0.000    0.000    0.000 
#
# Total GULP energy -595334.222899 kJ/mol
# GULP energy per Si atom -12402.796310 kJ/mol
# Density = 1.918102 g / cm^3
# Si number density = 19.224774 Si / 1000 Ang^3
#
#
#
# Elastic Constant Matrix: (Units=GPa)
#
#
# Indices 1 2 3 4 5 6 
#
# 1 111.5097 97.8318 61.5109 0.0000 0.0000 0.0000
# 2 97.8318 177.3781 74.6440 0.0000 0.0000 0.0000
# 3 61.5109 74.6440 115.4789 0.0000 0.0000 0.0000
# 4 0.0000 0.0000 0.0000 39.5301 0.0000 0.0000
# 5 0.0000 0.0000 0.0000 0.0000 26.0780 0.0000
# 6 0.0000 0.0000 0.0000 0.0000 0.0000 37.4705
#
#
#
# Elastic Compliance Matrix: (Units=1/GPa)
#
#
# Indices 1 2 3 4 5 6 
#
# 1 0.019001 -0.008545 -0.004598 0.000000 0.000000 0.000000
# 2 -0.008545 0.011587 -0.002938 0.000000 0.000000 0.000000
# 3 -0.004598 -0.002938 0.013008 0.000000 0.000000 0.000000
# 4 0.000000 0.000000 0.000000 0.025297 0.000000 0.000000
# 5 0.000000 0.000000 0.000000 0.000000 0.038347 0.000000
# 6 0.000000 0.000000 0.000000 0.000000 0.000000 0.026688
#
#
# Mechanical properties :
#
#
# Convention : Reuss Voigt Hill
#
# Bulk Modulus (GPa) = 87.45757 96.92667 92.19212
# Shear Modulus (GPa) = 29.42912 31.97440 30.70176
#
# Velocity S-wave (km/s) = 3.91678 4.08264 4.00057
# Velocity P-wave (km/s) = 8.12685 8.52942 8.33057
#
# Compressibility (1/GPa) = 0.01143412
#
# Stress axis : x y z
#
# Youngs Moduli (GPa) = 52.62928 86.30314 76.87765
#
# Poissons Ratio (x) = 0.73746 0.35345
# Poissons Ratio (y) = 0.44972 0.22588
# Poissons Ratio (z) = 0.24197 0.25357
#
# Static dielectric constant tensor:
#      x y z
#    x 3.818100 0.000000 0.000000 
#    y 0.000000 2.921350 0.000000 
#    z 0.000000 0.000000 3.662120 
# 
# 
# High freq. dielectric constant tensor:
#      x y z
#    x 1.760970 0.000000 0.000000 
#    y 0.000000 1.749990 0.000000 
#    z 0.000000 0.000000 1.763290 
# 
# From -- ./inp_files/10017.got.cif
#   From: 2010.03.12/outbox.cif.g09.slc.cpg/sg57_6_cif.got.tgz:10017.got - 2010.04.16 15:48:40.
