data_PCOD8233334
_publ_section_title
;
Structure prediction by ZEFSAII (Michael W. Deem and Ramdas Pophale) SiO2 
 PCOD8233334
Probable space group: P B C M
;
_chemical_formula_sum "Si O2"
_cell_formula_units_Z 40
_cell_length_a 25.331214
_cell_length_b 9.245987
_cell_length_c 8.678023
_cell_angle_alpha 90.000000
_cell_angle_beta 90.000000
_cell_angle_gamma 90.000000
_cell_volume 2032.497777
_symmetry_space_group_name_H-M "P B C M"
_symmetry_group_IT_number 57
_symmetry_cell_setting 'orthorhombic'
loop_
_space_group_symop_operation_xyz
x,y,z
-x,-y,1/2+z
x,1/2-y,-z
-x,1/2+y,1/2-z
-x,-y,-z
x,y,1/2-z
-x,1/2+y,z
x,1/2-y,1/2+z
loop_
_atom_site_type_symbol
_atom_site_label
_atom_site_fract_x
_atom_site_fract_y
_atom_site_fract_z
Si Si1 0.862697 0.904334 0.067373
Si Si2 0.257439 0.401626 0.430979
Si Si3 0.452277 0.090607 0.932382
Si Si4 0.047536 0.908168 0.433156
Si Si5 0.351813 0.593528 0.068625
O O1 0.871648 0.904111 0.250000
O O2 0.802376 0.939051 0.020660
O O3 0.880332 0.750000 0.000000
O O4 0.896888 0.027835 0.987971
O O5 0.276040 0.250000 0.500000
O O6 0.262407 0.385178 0.250000
O O7 0.296311 0.527278 0.492003
O O8 0.457933 0.099085 0.750000
O O9 0.398377 0.012881 0.984117
O O10 0.452872 0.250000 0.000000
O O11 0.500000 0.000000 0.000000
O O12 0.041692 0.750000 0.500000
O O13 0.044668 0.905155 0.250000
O O14 0.000000 0.000000 0.500000
O O15 0.350993 0.610717 0.250000
O O16 0.361453 0.750000 0.000000
#
# Coordination Sequence:
#
# PCOD8233334 Si02
#       5
#     8   8   8   8   8
#     4  10  20  37  60  87 118 152 190 234 283 338
#     4   9  19  36  58  84 114 148 189 232 279 334
#     4  11  23  39  60  85 115 149 190 236 287 342
#     4  12  25  42  62  86 116 151 191 235 284 338
#     4  10  22  38  56  82 114 150 190 235 283 336
#
# _framework density 19.680219000000001
#
# number of rings (size 3 to 8) (size 9 to 14) (size 15 to 20)
#    0.000    1.600    0.000    4.800    0.000    5.600 
#    0.000    2.000    0.000    0.000    0.000    0.000 
#    0.000    0.000    0.000    0.000    0.000    0.000 
#
# Total GULP energy -496151.710376 kJ/mol
# GULP energy per Si atom -12403.792759 kJ/mol
# Density = 1.963543 g / cm^3
# Si number density = 19.680219 Si / 1000 Ang^3
#
#
#
# Elastic Constant Matrix: (Units=GPa)
#
#
# Indices 1 2 3 4 5 6 
#
# 1 137.1235 94.8987 52.6134 0.0000 0.0000 0.0000
# 2 94.8987 188.0434 60.8305 0.0000 0.0000 0.0000
# 3 52.6134 60.8305 90.6464 0.0000 0.0000 0.0000
# 4 0.0000 0.0000 0.0000 40.6034 0.0000 0.0000
# 5 0.0000 0.0000 0.0000 0.0000 30.2560 0.0000
# 6 0.0000 0.0000 0.0000 0.0000 0.0000 47.5995
#
#
#
# Elastic Compliance Matrix: (Units=1/GPa)
#
#
# Indices 1 2 3 4 5 6 
#
# 1 0.012126 -0.004908 -0.003745 0.000000 0.000000 0.000000
# 2 -0.004908 0.008779 -0.003043 0.000000 0.000000 0.000000
# 3 -0.003745 -0.003043 0.015247 0.000000 0.000000 0.000000
# 4 0.000000 0.000000 0.000000 0.024628 0.000000 0.000000
# 5 0.000000 0.000000 0.000000 0.000000 0.033051 0.000000
# 6 0.000000 0.000000 0.000000 0.000000 0.000000 0.021009
#
#
# Mechanical properties :
#
#
# Convention : Reuss Voigt Hill
#
# Bulk Modulus (GPa) = 78.35955 92.49984 85.42970
# Shear Modulus (GPa) = 35.09110 37.52314 36.30712
#
# Velocity S-wave (km/s) = 4.22722 4.37125 4.29984
# Velocity P-wave (km/s) = 7.98302 8.51942 8.25558
#
# Compressibility (1/GPa) = 0.01276169
#
# Stress axis : x y z
#
# Youngs Moduli (GPa) = 82.46447 113.90445 65.58621
#
# Poissons Ratio (x) = 0.55909 0.24559
# Poissons Ratio (y) = 0.40477 0.19955
# Poissons Ratio (z) = 0.30879 0.34656
#
# Static dielectric constant tensor:
#      x y z
#    x 3.977700 0.000000 0.000000 
#    y 0.000000 3.596470 0.000000 
#    z 0.000000 0.000000 3.648010 
# 
# 
# High freq. dielectric constant tensor:
#      x y z
#    x 1.785040 0.000000 0.000000 
#    y 0.000000 1.774550 0.000000 
#    z 0.000000 0.000000 1.772720 
# 
# From -- ./inp_files/8873.got.cif
#   From: 2010.03.12/outbox.cif.g09.slc.cpg/sg57_5_cif.got.tgz:8873.got - 2010.04.16 15:48:40.
