data_PCOD8233958
_publ_section_title
;
Structure prediction by ZEFSAII (Michael W. Deem and Ramdas Pophale) SiO2 
 PCOD8233958
Probable space group: P B C M
;
_chemical_formula_sum "Si O2"
_cell_formula_units_Z 64
_cell_length_a 11.564673
_cell_length_b 14.992709
_cell_length_c 17.855428
_cell_angle_alpha 90.000000
_cell_angle_beta 90.000000
_cell_angle_gamma 90.000000
_cell_volume 3095.877257
_symmetry_space_group_name_H-M "P B C M"
_symmetry_group_IT_number 57
_symmetry_cell_setting 'orthorhombic'
loop_
_space_group_symop_operation_xyz
x,y,z
-x,-y,1/2+z
x,1/2-y,-z
-x,1/2+y,1/2-z
-x,-y,-z
x,y,1/2-z
-x,1/2+y,z
x,1/2-y,1/2+z
loop_
_atom_site_type_symbol
_atom_site_label
_atom_site_fract_x
_atom_site_fract_y
_atom_site_fract_z
Si Si1 0.314838 0.611895 0.336850
Si Si2 0.021847 0.226033 0.414141
Si Si3 0.728942 0.482406 0.333813
Si Si4 0.820996 0.970445 0.435206
Si Si5 0.940336 0.972362 0.907506
Si Si6 0.732188 0.778527 0.415738
Si Si7 0.421770 0.358941 0.838430
Si Si8 0.803466 0.297755 0.336235
O O1 0.298416 0.579869 0.250000
O O2 0.245279 0.551393 0.395242
O O3 0.447908 0.617887 0.360699
O O4 0.272562 0.711704 0.347599
O O5 0.030485 0.250000 0.500000
O O6 0.926185 0.287510 0.376394
O O7 0.992982 0.121848 0.406744
O O8 0.149050 0.241566 0.378949
O O9 0.681674 0.474729 0.250000
O O10 0.862719 0.515599 0.333960
O O11 0.649753 0.557292 0.373908
O O12 0.731450 0.382529 0.370152
O O13 0.846412 0.985161 0.524144
O O14 0.740544 0.886001 0.415053
O O15 0.953502 0.957195 0.405433
O O16 0.714931 0.750000 0.500000
O O17 0.623956 0.736015 0.370773
O O18 0.406282 0.350937 0.750000
O O19 0.830849 0.317661 0.250000
#
# Coordination Sequence:
#
# PCOD8233958 Si02
#       8
#     8   8   8   8   8   8   8   8
#     4  10  23  42  61  86 119 156 205 254 296 353
#     4  11  20  37  62  87 122 158 189 240 302 364
#     4  10  21  37  59  85 117 157 201 247 300 363
#     4  11  22  37  61  90 121 159 197 247 307 364
#     4  11  21  37  61  89 125 156 193 247 306 365
#     4  11  21  39  59  87 124 157 196 251 298 355
#     4  10  22  41  63  85 116 162 208 251 303 355
#     4  10  22  38  57  85 119 152 194 247 299 357
#
# _framework density 20.672654000000001
#
# number of rings (size 3 to 8) (size 9 to 14) (size 15 to 20)
#    0.000    1.500    5.000    0.750    1.750    3.000 
#    0.000    6.875    0.000    0.000    0.000    0.000 
#    0.000    0.000    0.000    0.000    0.000    0.000 
#
# Total GULP energy -792887.943231 kJ/mol
# GULP energy per Si atom -12388.874113 kJ/mol
# Density = 2.062560 g / cm^3
# Si number density = 20.672654 Si / 1000 Ang^3
#
#
#
# Elastic Constant Matrix: (Units=GPa)
#
#
# Indices 1 2 3 4 5 6 
#
# 1 116.7976 42.2882 34.9677 0.0000 0.0000 0.0000
# 2 42.2882 128.2438 36.4495 0.0000 0.0000 0.0000
# 3 34.9677 36.4495 37.1954 0.0000 0.0000 0.0000
# 4 0.0000 0.0000 0.0000 29.7321 0.0000 0.0000
# 5 0.0000 0.0000 0.0000 0.0000 29.2236 0.0000
# 6 0.0000 0.0000 0.0000 0.0000 0.0000 17.1516
#
#
#
# Elastic Compliance Matrix: (Units=1/GPa)
#
#
# Indices 1 2 3 4 5 6 
#
# 1 0.012015 -0.001042 -0.010275 0.000000 0.000000 0.000000
# 2 -0.001042 0.010898 -0.009700 0.000000 0.000000 0.000000
# 3 -0.010275 -0.009700 0.046050 0.000000 0.000000 0.000000
# 4 0.000000 0.000000 0.000000 0.033634 0.000000 0.000000
# 5 0.000000 0.000000 0.000000 0.000000 0.034219 0.000000
# 6 0.000000 0.000000 0.000000 0.000000 0.000000 0.058303
#
#
# Mechanical properties :
#
#
# Convention : Reuss Voigt Hill
#
# Bulk Modulus (GPa) = 37.13325 56.62752 46.88039
# Shear Modulus (GPa) = 20.31449 26.45690 23.38569
#
# Velocity S-wave (km/s) = 3.13816 3.58131 3.36704
# Velocity P-wave (km/s) = 5.57963 6.67480 6.15164
#
# Compressibility (1/GPa) = 0.02693004
#
# Stress axis : x y z
#
# Youngs Moduli (GPa) = 83.22872 91.75844 21.71540
#
# Poissons Ratio (x) = 0.09558 0.22312
# Poissons Ratio (y) = 0.08670 0.21065
# Poissons Ratio (z) = 0.85515 0.89009
#
# Static dielectric constant tensor:
#      x y z
#    x 3.787280 0.000000 0.000000 
#    y 0.000000 4.112050 0.000000 
#    z 0.000000 0.000000 3.631740 
# 
# 
# High freq. dielectric constant tensor:
#      x y z
#    x 1.802120 0.000000 0.000000 
#    y 0.000000 1.826070 0.000000 
#    z 0.000000 0.000000 1.784200 
# 
# From -- ./inp_files/21999.got.cif
#   From: 2010.03.12/outbox.cif.g09.slc.cpg/sg57_11_cif.got.tgz:21999.got - 2010.04.16 15:48:40.
