data_PCOD8233048
_publ_section_title
;
Structure prediction by ZEFSAII (Michael W. Deem and Ramdas Pophale) SiO2 
 PCOD8233048
Probable space group: P B C M
;
_chemical_formula_sum "Si O2"
_cell_formula_units_Z 48
_cell_length_a 18.215351
_cell_length_b 15.164641
_cell_length_c 8.920382
_cell_angle_alpha 90.000000
_cell_angle_beta 90.000000
_cell_angle_gamma 90.000000
_cell_volume 2464.070506
_symmetry_space_group_name_H-M "P B C M"
_symmetry_group_IT_number 57
_symmetry_cell_setting 'orthorhombic'
loop_
_space_group_symop_operation_xyz
x,y,z
-x,-y,1/2+z
x,1/2-y,-z
-x,1/2+y,1/2-z
-x,-y,-z
x,y,1/2-z
-x,1/2+y,z
x,1/2-y,1/2+z
loop_
_atom_site_type_symbol
_atom_site_label
_atom_site_fract_x
_atom_site_fract_y
_atom_site_fract_z
Si Si1 0.174266 0.477048 0.071689
Si Si2 0.038914 0.081239 0.423566
Si Si3 0.606165 0.341403 0.927477
Si Si4 0.561709 0.839744 0.574828
Si Si5 0.673225 0.990145 0.928168
Si Si6 0.108536 0.837001 0.920844
O O1 0.180493 0.469294 0.250000
O O2 0.147390 0.574210 0.017785
O O3 0.115777 0.403946 0.011079
O O4 0.250620 0.454238 0.993162
O O5 0.055153 0.061041 0.250000
O O6 0.980400 0.160777 0.440248
O O7 0.000000 0.000000 0.500000
O O8 0.617627 0.337805 0.750000
O O9 0.521843 0.360484 0.972514
O O10 0.632323 0.250000 0.000000
O O11 0.656739 0.416519 0.996786
O O12 0.590271 0.750000 0.500000
O O13 0.568528 0.824887 0.750000
O O14 0.611028 0.921109 0.520714
O O15 0.676898 0.000288 0.750000
O O16 0.131229 0.827839 0.750000
O O17 0.139977 0.750000 0.000000
#
# Coordination Sequence:
#
# PCOD8233048 Si02
#       6
#     8   8   8   8   8   8
#     4  10  21  36  52  75 105 140 178 217 263 319
#     4   9  17  32  52  74  98 128 166 208 250 301
#     4  10  20  36  57  82 111 145 184 229 276 330
#     4   9  20  37  58  82 108 140 184 233 281 331
#     4  11  22  36  55  82 113 147 184 227 279 335
#     4   9  19  33  52  77 103 130 168 212 257 310
#
# _framework density 19.479963000000001
#
# number of rings (size 3 to 8) (size 9 to 14) (size 15 to 20)
#    0.000    2.333    0.000    3.500    0.000    6.667 
#    0.000    2.500    0.000    0.000    0.000    0.000 
#    0.000    0.000    0.000    0.000    0.000    0.000 
#
# Total GULP energy -595096.555731 kJ/mol
# GULP energy per Si atom -12397.844911 kJ/mol
# Density = 1.943563 g / cm^3
# Si number density = 19.479963 Si / 1000 Ang^3
#
#
#
# Elastic Constant Matrix: (Units=GPa)
#
#
# Indices 1 2 3 4 5 6 
#
# 1 71.7804 0.4289 21.5316 0.0000 0.0000 0.0000
# 2 0.4289 38.0047 17.1206 0.0000 0.0000 0.0000
# 3 21.5316 17.1206 73.2640 0.0000 0.0000 0.0000
# 4 0.0000 0.0000 0.0000 32.2634 0.0000 0.0000
# 5 0.0000 0.0000 0.0000 0.0000 34.1406 0.0000
# 6 0.0000 0.0000 0.0000 0.0000 0.0000 16.5841
#
#
#
# Elastic Compliance Matrix: (Units=1/GPa)
#
#
# Indices 1 2 3 4 5 6 
#
# 1 0.015425 0.002088 -0.005021 0.000000 0.000000 0.000000
# 2 0.002088 0.029691 -0.007552 0.000000 0.000000 0.000000
# 3 -0.005021 -0.007552 0.016890 0.000000 0.000000 0.000000
# 4 0.000000 0.000000 0.000000 0.030995 0.000000 0.000000
# 5 0.000000 0.000000 0.000000 0.000000 0.029291 0.000000
# 6 0.000000 0.000000 0.000000 0.000000 0.000000 0.060299
#
#
# Mechanical properties :
#
#
# Convention : Reuss Voigt Hill
#
# Bulk Modulus (GPa) = 24.36919 29.02346 26.69633
# Shear Modulus (GPa) = 23.01615 26.19551 24.60583
#
# Velocity S-wave (km/s) = 3.44107 3.67105 3.55792
# Velocity P-wave (km/s) = 5.32212 5.73588 5.53287
#
# Compressibility (1/GPa) = 0.04103541
#
# Stress axis : x y z
#
# Youngs Moduli (GPa) = 64.82945 33.68021 59.20765
#
# Poissons Ratio (x) = -0.07032 0.29729
# Poissons Ratio (y) = -0.13536 0.44713
# Poissons Ratio (z) = 0.32552 0.25435
#
# Static dielectric constant tensor:
#      x y z
#    x 3.800580 0.000000 0.000000 
#    y 0.000000 3.449290 0.000000 
#    z 0.000000 0.000000 3.629200 
# 
# 
# High freq. dielectric constant tensor:
#      x y z
#    x 1.760190 0.000000 0.000000 
#    y 0.000000 1.737760 0.000000 
#    z 0.000000 0.000000 1.765390 
# 
# From -- ./inp_files/6508.got.cif
#   From: 2010.03.12/outbox.cif.g09.slc.cpg/sg57_4_cif.got.tgz:6508.got - 2010.04.16 15:48:40.
