data_PCOD8233384
_publ_section_title
;
Structure prediction by ZEFSAII (Michael W. Deem and Ramdas Pophale) SiO2 
 PCOD8233384
Probable space group: P B C M
;
_chemical_formula_sum "Si O2"
_cell_formula_units_Z 64
_cell_length_a 11.960174
_cell_length_b 30.850323
_cell_length_c 8.704612
_cell_angle_alpha 90.000000
_cell_angle_beta 90.000000
_cell_angle_gamma 90.000000
_cell_volume 3211.786224
_symmetry_space_group_name_H-M "P B C M"
_symmetry_group_IT_number 57
_symmetry_cell_setting 'orthorhombic'
loop_
_space_group_symop_operation_xyz
x,y,z
-x,-y,1/2+z
x,1/2-y,-z
-x,1/2+y,1/2-z
-x,-y,-z
x,y,1/2-z
-x,1/2+y,z
x,1/2-y,1/2+z
loop_
_atom_site_type_symbol
_atom_site_label
_atom_site_fract_x
_atom_site_fract_y
_atom_site_fract_z
Si Si1 0.875601 0.373984 0.068183
Si Si2 0.976813 0.953910 0.070688
Si Si3 0.489815 0.294287 0.568006
Si Si4 0.490583 0.046681 0.573605
Si Si5 0.747111 0.912534 0.076250
Si Si6 0.988288 0.704825 0.067288
Si Si7 0.252317 0.177788 0.070403
Si Si8 0.367986 0.622722 0.431658
O O1 0.887785 0.368641 0.250000
O O2 0.938757 0.417082 0.008124
O O3 0.747563 0.377499 0.021468
O O4 0.929682 0.332556 0.988008
O O5 0.993167 0.958494 0.250000
O O6 0.851206 0.941546 0.024758
O O7 0.000000 0.000000 0.000000
O O8 0.541319 0.250000 0.500000
O O9 0.490123 0.291838 0.750000
O O10 0.363242 0.299399 0.501525
O O11 0.563780 0.334902 0.513187
O O12 0.531976 0.046516 0.750000
O O13 0.361239 0.058249 0.562131
O O14 0.563914 0.080079 0.476387
O O15 0.500000 0.000000 0.500000
O O16 0.763843 0.894988 0.250000
O O17 0.738375 0.872876 0.961141
O O18 0.989814 0.706159 0.250000
O O19 0.862562 0.696935 0.000607
O O20 0.033115 0.750000 0.000000
O O21 0.251002 0.185114 0.250000
O O22 0.346740 0.623040 0.250000
#
# Coordination Sequence:
#
# PCOD8233384 Si02
#       8
#     8   8   8   8   8   8   8   8
#     4  11  24  43  64  89 123 161 206 257 308 366
#     4  10  23  41  62  91 123 159 201 250 305 362
#     4  10  22  39  61  90 122 158 199 247 302 359
#     4  11  24  41  64  94 125 163 206 253 308 367
#     4  10  21  39  63  91 123 159 200 249 307 361
#     4  11  23  39  63  93 124 162 204 251 306 365
#     4  10  20  37  61  92 125 158 199 247 305 362
#     4  11  24  43  64  88 124 164 207 257 307 366
#
# _framework density 19.926607000000001
#
# number of rings (size 3 to 8) (size 9 to 14) (size 15 to 20)
#    0.000    1.500    2.500    1.875    1.750    4.500 
#    0.000    1.250    0.000    0.000    0.000    0.000 
#    0.000    0.000    0.000    0.000    0.000    0.000 
#
# Total GULP energy -793780.567348 kJ/mol
# GULP energy per Si atom -12402.821365 kJ/mol
# Density = 1.988125 g / cm^3
# Si number density = 19.926607 Si / 1000 Ang^3
#
#
#
# Elastic Constant Matrix: (Units=GPa)
#
#
# Indices 1 2 3 4 5 6 
#
# 1 124.5335 55.2649 23.7149 0.0000 0.0000 0.0000
# 2 55.2649 169.8988 30.5688 0.0000 0.0000 0.0000
# 3 23.7149 30.5688 41.3620 0.0000 0.0000 0.0000
# 4 0.0000 0.0000 0.0000 36.4918 0.0000 0.0000
# 5 0.0000 0.0000 0.0000 0.0000 29.4046 0.0000
# 6 0.0000 0.0000 0.0000 0.0000 0.0000 31.9709
#
#
#
# Elastic Compliance Matrix: (Units=1/GPa)
#
#
# Indices 1 2 3 4 5 6 
#
# 1 0.009875 -0.002530 -0.003792 0.000000 0.000000 0.000000
# 2 -0.002530 0.007437 -0.004046 0.000000 0.000000 0.000000
# 3 -0.003792 -0.004046 0.029341 0.000000 0.000000 0.000000
# 4 0.000000 0.000000 0.000000 0.027403 0.000000 0.000000
# 5 0.000000 0.000000 0.000000 0.000000 0.034008 0.000000
# 6 0.000000 0.000000 0.000000 0.000000 0.000000 0.031278
#
#
# Mechanical properties :
#
#
# Convention : Reuss Voigt Hill
#
# Bulk Modulus (GPa) = 38.58420 61.65462 50.11941
# Shear Modulus (GPa) = 29.63551 34.65649 32.14600
#
# Velocity S-wave (km/s) = 3.86065 4.17490 4.02085
# Velocity P-wave (km/s) = 6.26722 7.36531 6.83834
#
# Compressibility (1/GPa) = 0.02591735
#
# Stress axis : x y z
#
# Youngs Moduli (GPa) = 101.26837 134.46905 34.08216
#
# Poissons Ratio (x) = 0.34018 0.12924
# Poissons Ratio (y) = 0.25619 0.13788
# Poissons Ratio (z) = 0.38401 0.54401
#
# Static dielectric constant tensor:
#      x y z
#    x 3.930940 0.000000 0.000000 
#    y 0.000000 3.892500 0.000000 
#    z 0.000000 0.000000 3.613420 
# 
# 
# High freq. dielectric constant tensor:
#      x y z
#    x 1.787680 0.000000 0.000000 
#    y 0.000000 1.788670 0.000000 
#    z 0.000000 0.000000 1.773320 
# 
# From -- ./inp_files/3912.got.cif
#   From: 2010.03.12/outbox.cif.g09.slc.cpg/sg57_2_cif.got.tgz:3912.got - 2010.04.16 15:48:40.
