data_PCOD8233322
_publ_section_title
;
Structure prediction by ZEFSAII (Michael W. Deem and Ramdas Pophale) SiO2 
 PCOD8233322
Probable space group: P B C M
;
_chemical_formula_sum "Si O2"
_cell_formula_units_Z 56
_cell_length_a 12.189820
_cell_length_b 14.577466
_cell_length_c 15.019262
_cell_angle_alpha 90.000000
_cell_angle_beta 90.000000
_cell_angle_gamma 90.000000
_cell_volume 2668.873093
_symmetry_space_group_name_H-M "P B C M"
_symmetry_group_IT_number 57
_symmetry_cell_setting 'orthorhombic'
loop_
_space_group_symop_operation_xyz
x,y,z
-x,-y,1/2+z
x,1/2-y,-z
-x,1/2+y,1/2-z
-x,-y,-z
x,y,1/2-z
-x,1/2+y,z
x,1/2-y,1/2+z
loop_
_atom_site_type_symbol
_atom_site_label
_atom_site_fract_x
_atom_site_fract_y
_atom_site_fract_z
Si Si1 0.642657 0.964429 0.531902
Si Si2 0.014490 0.718829 0.403088
Si Si3 0.740696 0.938956 0.150959
Si Si4 0.238670 0.650992 0.346926
Si Si5 0.561002 0.150424 0.465574
Si Si6 0.859239 0.558367 0.353507
Si Si7 0.977403 0.590421 0.651658
O O1 0.652828 0.926680 0.428918
O O2 0.543593 0.904776 0.574340
O O3 0.748453 0.943583 0.590301
O O4 0.617987 0.074901 0.532590
O O5 0.975919 0.750000 0.500000
O O6 0.133413 0.671974 0.407994
O O7 0.920621 0.655164 0.361544
O O8 0.029754 0.809198 0.343643
O O9 0.707888 0.896208 0.250000
O O10 0.855448 0.900189 0.110354
O O11 0.759717 0.044257 0.167499
O O12 0.228393 0.699222 0.250000
O O13 0.351594 0.682113 0.391784
O O14 0.521227 0.250000 0.500000
O O15 0.830483 0.539395 0.250000
O O16 0.939538 0.480470 0.396139
O O17 0.960355 0.549468 0.750000
#
# Coordination Sequence:
#
# PCOD8233322 Si02
#       7
#     8   8   8   8   8   8   8
#     4  10  23  41  64  88 121 162 214 261 311 385
#     4  12  24  35  60  94 128 168 206 255 317 388
#     4   9  18  36  61  87 123 165 200 248 310 376
#     4  10  20  37  60  85 119 160 204 255 319 376
#     4  10  23  43  61  86 119 157 210 270 317 365
#     4  11  24  42  63  93 133 167 205 261 318 379
#     4  10  21  36  57  90 128 162 203 248 303 380
#
# _framework density 20.982638000000001
#
# number of rings (size 3 to 8) (size 9 to 14) (size 15 to 20)
#    0.000    1.714    1.429    2.571    6.000    3.429 
#    0.000    2.857    0.000    0.000    0.000    0.000 
#    0.000    0.000    0.000    0.000    0.000    0.000 
#
# Total GULP energy -693743.089309 kJ/mol
# GULP energy per Si atom -12388.269452 kJ/mol
# Density = 2.093488 g / cm^3
# Si number density = 20.982638 Si / 1000 Ang^3
#
#
#
# Elastic Constant Matrix: (Units=GPa)
#
#
# Indices 1 2 3 4 5 6 
#
# 1 111.8023 30.2610 25.5108 0.0000 0.0000 0.0000
# 2 30.2610 75.7121 17.8642 0.0000 0.0000 0.0000
# 3 25.5108 17.8642 65.4607 0.0000 0.0000 0.0000
# 4 0.0000 0.0000 0.0000 22.2899 0.0000 0.0000
# 5 0.0000 0.0000 0.0000 0.0000 22.1303 0.0000
# 6 0.0000 0.0000 0.0000 0.0000 0.0000 33.0209
#
#
#
# Elastic Compliance Matrix: (Units=1/GPa)
#
#
# Indices 1 2 3 4 5 6 
#
# 1 0.010616 -0.003492 -0.003184 0.000000 0.000000 0.000000
# 2 -0.003492 0.015265 -0.002805 0.000000 0.000000 0.000000
# 3 -0.003184 -0.002805 0.017283 0.000000 0.000000 0.000000
# 4 0.000000 0.000000 0.000000 0.044863 0.000000 0.000000
# 5 0.000000 0.000000 0.000000 0.000000 0.045187 0.000000
# 6 0.000000 0.000000 0.000000 0.000000 0.000000 0.030284
#
#
# Mechanical properties :
#
#
# Convention : Reuss Voigt Hill
#
# Bulk Modulus (GPa) = 41.31909 44.47189 42.89549
# Shear Modulus (GPa) = 26.24284 27.44415 26.84350
#
# Velocity S-wave (km/s) = 3.54035 3.62048 3.58064
# Velocity P-wave (km/s) = 6.03713 6.22236 6.13044
#
# Compressibility (1/GPa) = 0.02420189
#
# Stress axis : x y z
#
# Youngs Moduli (GPa) = 94.19710 65.50761 57.86096
#
# Poissons Ratio (x) = 0.22874 0.18425
# Poissons Ratio (y) = 0.32891 0.16231
# Poissons Ratio (z) = 0.29995 0.18376
#
# Static dielectric constant tensor:
#      x y z
#    x 3.970410 0.000000 0.000000 
#    y 0.000000 3.784480 0.000000 
#    z 0.000000 0.000000 4.367090 
# 
# 
# High freq. dielectric constant tensor:
#      x y z
#    x 1.821950 0.000000 0.000000 
#    y 0.000000 1.816250 0.000000 
#    z 0.000000 0.000000 1.808220 
# 
# From -- ./inp_files/17735.got.cif
#   From: 2010.03.12/outbox.cif.g09.slc.cpg/sg57_9_cif.got.tgz:17735.got - 2010.04.16 15:48:40.
