data_PCOD8233314
_publ_section_title
;
Structure prediction by ZEFSAII (Michael W. Deem and Ramdas Pophale) SiO2 
 PCOD8233314
Probable space group: P B C M
;
_chemical_formula_sum "Si O2"
_cell_formula_units_Z 48
_cell_length_a 9.367938
_cell_length_b 30.340909
_cell_length_c 9.073197
_cell_angle_alpha 90.000000
_cell_angle_beta 90.000000
_cell_angle_gamma 90.000000
_cell_volume 2578.890701
_symmetry_space_group_name_H-M "P B C M"
_symmetry_group_IT_number 57
_symmetry_cell_setting 'orthorhombic'
loop_
_space_group_symop_operation_xyz
x,y,z
-x,-y,1/2+z
x,1/2-y,-z
-x,1/2+y,1/2-z
-x,-y,-z
x,y,1/2-z
-x,1/2+y,z
x,1/2-y,1/2+z
loop_
_atom_site_type_symbol
_atom_site_label
_atom_site_fract_x
_atom_site_fract_y
_atom_site_fract_z
Si Si1 0.640556 0.875376 0.423033
Si Si2 0.853346 0.950819 0.422077
Si Si3 0.162105 0.206073 0.921354
Si Si4 0.658889 0.371009 0.576784
Si Si5 0.164624 0.795015 0.075724
Si Si6 0.860909 0.449768 0.921166
O O1 0.601415 0.874138 0.250000
O O2 0.720727 0.920383 0.467019
O O3 0.740782 0.834746 0.468522
O O4 0.502073 0.872992 0.522708
O O5 0.882434 0.947012 0.250000
O O6 0.997009 0.933212 0.497770
O O7 0.818393 0.000810 0.472077
O O8 0.172720 0.215582 0.750000
O O9 0.999520 0.195314 0.966793
O O10 0.219057 0.250000 0.000000
O O11 0.664395 0.360490 0.750000
O O12 0.740407 0.333752 0.487803
O O13 0.730348 0.417928 0.539210
O O14 0.187891 0.791456 0.250000
O O15 0.216331 0.750000 0.000000
O O16 0.896943 0.448858 0.750000
#
# Coordination Sequence:
#
# PCOD8233314 Si02
#       6
#     8   8   8   8   8   8
#     4  10  21  36  53  76 107 142 179 219 265 318
#     4   9  18  35  58  80 103 136 179 225 272 321
#     4   9  19  35  56  80 103 131 171 217 262 311
#     4  11  23  36  51  77 112 146 178 215 263 318
#     4  10  20  37  60  83 106 136 176 220 266 314
#     4   9  19  35  55  80 108 137 175 224 272 319
#
# _framework density 18.612653999999999
#
# number of rings (size 3 to 8) (size 9 to 14) (size 15 to 20)
#    0.000    2.333    0.000    2.000    0.000    6.000 
#    0.000    1.667    0.000    0.000    0.000    0.000 
#    0.000    0.000    0.000    0.000    0.000    0.000 
#
# Total GULP energy -595328.972153 kJ/mol
# GULP energy per Si atom -12402.686920 kJ/mol
# Density = 1.857029 g / cm^3
# Si number density = 18.612654 Si / 1000 Ang^3
#
#
#
# Elastic Constant Matrix: (Units=GPa)
#
#
# Indices 1 2 3 4 5 6 
#
# 1 111.8066 69.5001 48.9395 0.0000 0.0000 0.0000
# 2 69.5001 122.1020 50.0487 0.0000 0.0000 0.0000
# 3 48.9395 50.0487 61.5568 0.0000 0.0000 0.0000
# 4 0.0000 0.0000 0.0000 29.4462 0.0000 0.0000
# 5 0.0000 0.0000 0.0000 0.0000 33.1435 0.0000
# 6 0.0000 0.0000 0.0000 0.0000 0.0000 -1.7845
#
#
#
# Elastic Compliance Matrix: (Units=1/GPa)
#
#
# Indices 1 2 3 4 5 6 
#
# 1 0.016115 -0.005881 -0.008030 0.000000 0.000000 0.000000
# 2 -0.005881 0.014430 -0.007057 0.000000 0.000000 0.000000
# 3 -0.008030 -0.007057 0.028367 0.000000 0.000000 0.000000
# 4 0.000000 0.000000 0.000000 0.033960 0.000000 0.000000
# 5 0.000000 0.000000 0.000000 0.000000 0.030172 0.000000
# 6 0.000000 0.000000 0.000000 0.000000 0.000000 -0.560371
#
#
# Mechanical properties :
#
#
# Convention : Reuss Voigt Hill
#
# Bulk Modulus (GPa) = 58.90736 70.27134 64.58935
# Shear Modulus (GPa) = -12.82924 20.62616 3.89846
#
# Velocity S-wave (km/s) = -2.62825 3.33254 1.44882
# Velocity P-wave (km/s) = 4.74421 7.25564 6.12992
#
# Compressibility (1/GPa) = 0.01697581
#
# Stress axis : x y z
#
# Youngs Moduli (GPa) = 62.05575 69.30164 35.25257
#
# Poissons Ratio (x) = 0.40755 0.28308
# Poissons Ratio (y) = 0.36494 0.24876
# Poissons Ratio (z) = 0.49832 0.48903
#
# Static dielectric constant tensor:
#      x y z
#    x 3.373630 0.000000 0.000000 
#    y 0.000000 3.754940 0.000000 
#    z 0.000000 0.000000 3.388520 
# 
# 
# High freq. dielectric constant tensor:
#      x y z
#    x 1.716640 0.000000 0.000000 
#    y 0.000000 1.735810 0.000000 
#    z 0.000000 0.000000 1.722070 
# 
# From -- ./inp_files/2093.got.cif
#   From: 2010.03.12/outbox.cif.g09.slc.cpg/sg57_2_cif.got.tgz:2093.got - 2010.04.16 15:48:40.
