data_PCOD8233336
_publ_section_title
;
Structure prediction by ZEFSAII (Michael W. Deem and Ramdas Pophale) SiO2 
 PCOD8233336
Probable space group: P B C M
;
_chemical_formula_sum "Si O2"
_cell_formula_units_Z 48
_cell_length_a 30.232231
_cell_length_b 9.156818
_cell_length_c 8.699400
_cell_angle_alpha 90.000000
_cell_angle_beta 90.000000
_cell_angle_gamma 90.000000
_cell_volume 2408.263923
_symmetry_space_group_name_H-M "P B C M"
_symmetry_group_IT_number 57
_symmetry_cell_setting 'orthorhombic'
loop_
_space_group_symop_operation_xyz
x,y,z
-x,-y,1/2+z
x,1/2-y,-z
-x,1/2+y,1/2-z
-x,-y,-z
x,y,1/2-z
-x,1/2+y,z
x,1/2-y,1/2+z
loop_
_atom_site_type_symbol
_atom_site_label
_atom_site_fract_x
_atom_site_fract_y
_atom_site_fract_z
Si Si1 0.374816 0.905984 0.569508
Si Si2 0.119563 0.590636 0.931538
Si Si3 0.460250 0.090658 0.930455
Si Si4 0.300646 0.096245 0.067987
Si Si5 0.200947 0.399658 0.928965
Si Si6 0.959461 0.589350 0.933016
O O1 0.386671 0.750000 0.500000
O O2 0.368356 0.890608 0.750000
O O3 0.414346 0.014283 0.525706
O O4 0.329676 0.964823 0.496625
O O5 0.110198 0.592972 0.750000
O O6 0.168811 0.533590 0.970954
O O7 0.113717 0.750000 0.000000
O O8 0.085936 0.483106 0.014319
O O9 0.467263 0.101391 0.750000
O O10 0.459820 0.250000 0.000000
O O11 0.500000 0.000000 0.000000
O O12 0.305060 0.102131 0.250000
O O13 0.250423 0.065030 0.011879
O O14 0.317511 0.250000 0.000000
O O15 0.202036 0.371466 0.750000
O O16 0.182427 0.250000 0.000000
O O17 0.962209 0.593877 0.750000
O O18 0.962038 0.750000 0.000000
O O19 0.000000 0.500000 0.000000
#
# Coordination Sequence:
#
# PCOD8233336 Si02
#       6
#     8   8   8   8   8   8
#     4  11  24  40  59  86 118 155 195 241 292 347
#     4  11  23  40  60  87 121 158 198 243 293 347
#     4  11  24  41  63  89 119 153 193 238 290 346
#     4  10  20  37  60  87 118 155 197 243 292 348
#     4   9  20  37  59  86 117 153 196 242 293 348
#     4  12  25  43  65  91 121 156 196 241 292 348
#
# _framework density 19.931370999999999
#
# number of rings (size 3 to 8) (size 9 to 14) (size 15 to 20)
#    0.000    1.333    0.000    5.500    0.000    9.333 
#    0.000    1.667    0.000    0.000    0.000    0.000 
#    0.000    0.000    0.000    0.000    0.000    0.000 
#
# Total GULP energy -595452.626939 kJ/mol
# GULP energy per Si atom -12405.263061 kJ/mol
# Density = 1.988601 g / cm^3
# Si number density = 19.931371 Si / 1000 Ang^3
#
#
#
# Elastic Constant Matrix: (Units=GPa)
#
#
# Indices 1 2 3 4 5 6 
#
# 1 118.5540 73.7057 63.2448 0.0000 0.0000 0.0000
# 2 73.7057 173.0305 70.0994 0.0000 0.0000 0.0000
# 3 63.2448 70.0994 112.5446 0.0000 0.0000 0.0000
# 4 0.0000 0.0000 0.0000 41.7560 0.0000 0.0000
# 5 0.0000 0.0000 0.0000 0.0000 31.9691 0.0000
# 6 0.0000 0.0000 0.0000 0.0000 0.0000 35.8325
#
#
#
# Elastic Compliance Matrix: (Units=1/GPa)
#
#
# Indices 1 2 3 4 5 6 
#
# 1 0.013530 -0.003589 -0.005368 0.000000 0.000000 0.000000
# 2 -0.003589 0.008682 -0.003391 0.000000 0.000000 0.000000
# 3 -0.005368 -0.003391 0.014014 0.000000 0.000000 0.000000
# 4 0.000000 0.000000 0.000000 0.023949 0.000000 0.000000
# 5 0.000000 0.000000 0.000000 0.000000 0.031280 0.000000
# 6 0.000000 0.000000 0.000000 0.000000 0.000000 0.027908
#
#
# Mechanical properties :
#
#
# Convention : Reuss Voigt Hill
#
# Bulk Modulus (GPa) = 86.72545 90.91432 88.81988
# Shear Modulus (GPa) = 33.80674 35.05014 34.42844
#
# Velocity S-wave (km/s) = 4.12291 4.19805 4.16065
# Velocity P-wave (km/s) = 8.14070 8.31930 8.23049
#
# Compressibility (1/GPa) = 0.01153064
#
# Stress axis : x y z
#
# Youngs Moduli (GPa) = 73.91231 115.18523 71.35786
#
# Poissons Ratio (x) = 0.41334 0.38304
# Poissons Ratio (y) = 0.26524 0.24197
# Poissons Ratio (z) = 0.39675 0.39058
#
# Static dielectric constant tensor:
#      x y z
#    x 4.149180 0.000000 0.000000 
#    y 0.000000 3.727770 0.000000 
#    z 0.000000 0.000000 3.754470 
# 
# 
# High freq. dielectric constant tensor:
#      x y z
#    x 1.793050 0.000000 0.000000 
#    y 0.000000 1.786660 0.000000 
#    z 0.000000 0.000000 1.791710 
# 
# From -- ./inp_files/9934.got.cif
#   From: 2010.03.12/outbox.cif.g09.slc.cpg/sg57_5_cif.got.tgz:9934.got - 2010.04.16 15:48:40.
