data_PCOD8233865
_publ_section_title
;
Structure prediction by ZEFSAII (Michael W. Deem and Ramdas Pophale) SiO2 
 PCOD8233865
Probable space group: P B C M
;
_chemical_formula_sum "Si O2"
_cell_formula_units_Z 56
_cell_length_a 21.156085
_cell_length_b 15.574957
_cell_length_c 9.016641
_cell_angle_alpha 90.000000
_cell_angle_beta 90.000000
_cell_angle_gamma 90.000000
_cell_volume 2971.029322
_symmetry_space_group_name_H-M "P B C M"
_symmetry_group_IT_number 57
_symmetry_cell_setting 'orthorhombic'
loop_
_space_group_symop_operation_xyz
x,y,z
-x,-y,1/2+z
x,1/2-y,-z
-x,1/2+y,1/2-z
-x,-y,-z
x,y,1/2-z
-x,1/2+y,z
x,1/2-y,1/2+z
loop_
_atom_site_type_symbol
_atom_site_label
_atom_site_fract_x
_atom_site_fract_y
_atom_site_fract_z
Si Si1 0.708334 0.504584 0.074072
Si Si2 0.363708 0.661762 0.577655
Si Si3 0.148852 0.008499 0.425688
Si Si4 0.501958 0.907803 0.075473
Si Si5 0.962259 0.925442 0.420815
Si Si6 0.376820 0.336535 0.572596
Si Si7 0.084069 0.665786 0.918912
O O1 0.706728 0.500580 0.250000
O O2 0.678563 0.416250 0.011504
O O3 0.779676 0.516533 0.016160
O O4 0.667503 0.585414 0.019740
O O5 0.343910 0.750000 0.500000
O O6 0.349667 0.673231 0.750000
O O7 0.436472 0.640460 0.547758
O O8 0.143880 0.019115 0.250000
O O9 0.106274 0.084134 0.500312
O O10 0.121054 0.917300 0.480913
O O11 0.516312 0.918146 0.250000
O O12 0.553988 0.850264 0.994879
O O13 0.500000 0.000000 0.000000
O O14 0.951771 0.949174 0.250000
O O15 0.007615 0.842311 0.437135
O O16 0.000000 0.000000 0.500000
O O17 0.348569 0.250000 0.500000
O O18 0.380640 0.328669 0.750000
O O19 0.103549 0.677032 0.750000
O O20 0.108873 0.750000 0.000000
#
# Coordination Sequence:
#
# PCOD8233865 Si02
#       7
#     8   8   8   8   8   8   8
#     4   9  19  38  58  76 109 151 187 224 276 337
#     4  10  21  37  55  80 111 147 184 225 277 335
#     4   9  18  34  55  75 100 141 181 215 264 321
#     4  11  21  36  59  85 113 146 185 234 290 343
#     4   9  17  31  50  74 101 130 167 211 254 305
#     4  11  22  39  60  83 110 146 190 238 289 343
#     4   9  18  30  48  76 105 133 168 210 258 311
#
# _framework density 18.848687999999999
#
# number of rings (size 3 to 8) (size 9 to 14) (size 15 to 20)
#    0.000    2.286    1.429    2.571    0.000    5.714 
#    0.000    2.857    0.000    3.429    0.000    0.000 
#    0.000    0.000    0.000    0.000    0.000    0.000 
#
# Total GULP energy -694212.871371 kJ/mol
# GULP energy per Si atom -12396.658417 kJ/mol
# Density = 1.880579 g / cm^3
# Si number density = 18.848688 Si / 1000 Ang^3
#
#
#
# Elastic Constant Matrix: (Units=GPa)
#
#
# Indices 1 2 3 4 5 6 
#
# 1 118.8696 31.2550 30.8739 0.0000 0.0000 0.0000
# 2 31.2550 96.7900 27.1997 0.0000 0.0000 0.0000
# 3 30.8739 27.1997 60.6160 0.0000 0.0000 0.0000
# 4 0.0000 0.0000 0.0000 33.3791 0.0000 0.0000
# 5 0.0000 0.0000 0.0000 0.0000 25.0641 0.0000
# 6 0.0000 0.0000 0.0000 0.0000 0.0000 16.5025
#
#
#
# Elastic Compliance Matrix: (Units=1/GPa)
#
#
# Indices 1 2 3 4 5 6 
#
# 1 0.010044 -0.002066 -0.004188 0.000000 0.000000 0.000000
# 2 -0.002066 0.012248 -0.004443 0.000000 0.000000 0.000000
# 3 -0.004188 -0.004443 0.020624 0.000000 0.000000 0.000000
# 4 0.000000 0.000000 0.000000 0.029959 0.000000 0.000000
# 5 0.000000 0.000000 0.000000 0.000000 0.039898 0.000000
# 6 0.000000 0.000000 0.000000 0.000000 0.000000 0.060597
#
#
# Mechanical properties :
#
#
# Convention : Reuss Voigt Hill
#
# Bulk Modulus (GPa) = 46.46918 50.54812 48.50865
# Shear Modulus (GPa) = 24.76002 27.45226 26.10614
#
# Velocity S-wave (km/s) = 3.62832 3.82049 3.72565
# Velocity P-wave (km/s) = 6.50079 6.80717 6.65575
#
# Compressibility (1/GPa) = 0.02151964
#
# Stress axis : x y z
#
# Youngs Moduli (GPa) = 99.56458 81.64921 48.48613
#
# Poissons Ratio (x) = 0.16871 0.20308
# Poissons Ratio (y) = 0.20572 0.21544
# Poissons Ratio (z) = 0.41702 0.36279
#
# Static dielectric constant tensor:
#      x y z
#    x 3.710460 0.000000 0.000000 
#    y 0.000000 0.946440 0.000000 
#    z 0.000000 0.000000 3.430510 
# 
# 
# High freq. dielectric constant tensor:
#      x y z
#    x 1.731510 0.000000 0.000000 
#    y 0.000000 1.724110 0.000000 
#    z 0.000000 0.000000 1.720200 
# 
# From -- ./inp_files/8051.got.cif
#   From: 2010.03.12/outbox.cif.g09.slc.cpg/sg57_5_cif.got.tgz:8051.got - 2010.04.16 15:48:40.
