data_PCOD8233765
_publ_section_title
;
Structure prediction by ZEFSAII (Michael W. Deem and Ramdas Pophale) SiO2 
 PCOD8233765
Probable space group: P B C M
;
_chemical_formula_sum "Si O2"
_cell_formula_units_Z 64
_cell_length_a 12.414774
_cell_length_b 14.611095
_cell_length_c 17.733997
_cell_angle_alpha 90.000000
_cell_angle_beta 90.000000
_cell_angle_gamma 90.000000
_cell_volume 3216.830762
_symmetry_space_group_name_H-M "P B C M"
_symmetry_group_IT_number 57
_symmetry_cell_setting 'orthorhombic'
loop_
_space_group_symop_operation_xyz
x,y,z
-x,-y,1/2+z
x,1/2-y,-z
-x,1/2+y,1/2-z
-x,-y,-z
x,y,1/2-z
-x,1/2+y,z
x,1/2-y,1/2+z
loop_
_atom_site_type_symbol
_atom_site_label
_atom_site_fract_x
_atom_site_fract_y
_atom_site_fract_z
Si Si1 0.656039 0.056229 0.162779
Si Si2 0.091918 0.180380 0.336249
Si Si3 0.161757 0.487557 0.447538
Si Si4 0.260385 0.205135 0.924395
Si Si5 0.653212 0.261223 0.162426
Si Si6 0.542656 0.875527 0.162069
Si Si7 0.888134 0.211616 0.662801
Si Si8 0.922073 0.486019 0.395025
O O1 0.696428 0.044080 0.250000
O O2 0.609012 0.157895 0.150129
O O3 0.755070 0.042165 0.105536
O O4 0.559259 0.984069 0.145798
O O5 0.100483 0.212005 0.250000
O O6 0.190858 0.221323 0.380855
O O7 0.104926 0.071407 0.341523
O O8 0.979852 0.221058 0.371572
O O9 0.185700 0.380396 0.444747
O O10 0.162333 0.520259 0.534946
O O11 0.042773 0.506135 0.419642
O O12 0.359760 0.179142 0.873107
O O13 0.306757 0.250000 0.000000
O O14 0.665567 0.284629 0.250000
O O15 0.569329 0.335645 0.127504
O O16 0.771421 0.269854 0.124072
O O17 0.544971 0.853957 0.250000
O O18 0.878744 0.236321 0.750000
O O19 0.918669 0.106087 0.652891
#
# Coordination Sequence:
#
# PCOD8233765 Si02
#       8
#     8   8   8   8   8   8   8   8
#     4   9  18  35  60  86 110 148 197 241 284 343
#     4  11  22  36  57  86 115 149 191 234 288 343
#     4  10  21  35  56  80 113 156 192 227 284 346
#     4  11  20  38  57  78 114 148 186 235 285 336
#     4   9  18  37  59  85 117 147 190 241 289 340
#     4   9  19  36  60  85 108 144 192 236 282 339
#     4  10  21  36  57  84 116 152 188 237 287 336
#     4  11  21  36  53  82 118 151 188 233 285 344
#
# _framework density 19.895358999999999
#
# number of rings (size 3 to 8) (size 9 to 14) (size 15 to 20)
#    0.000    2.000    2.500    1.500    0.000    2.500 
#    2.250    3.125    0.000    3.000    0.000    0.000 
#    0.000    0.000    0.000    0.000    0.000    0.000 
#
# Total GULP energy -793299.497497 kJ/mol
# GULP energy per Si atom -12395.304648 kJ/mol
# Density = 1.985008 g / cm^3
# Si number density = 19.895359 Si / 1000 Ang^3
#
#
#
# Elastic Constant Matrix: (Units=GPa)
#
#
# Indices 1 2 3 4 5 6 
#
# 1 85.0704 34.8890 21.9094 0.0000 0.0000 0.0000
# 2 34.8890 102.4208 8.8730 0.0000 0.0000 0.0000
# 3 21.9094 8.8730 35.8295 0.0000 0.0000 0.0000
# 4 0.0000 0.0000 0.0000 2.4345 0.0000 0.0000
# 5 0.0000 0.0000 0.0000 0.0000 15.6692 0.0000
# 6 0.0000 0.0000 0.0000 0.0000 0.0000 25.9867
#
#
#
# Elastic Compliance Matrix: (Units=1/GPa)
#
#
# Indices 1 2 3 4 5 6 
#
# 1 0.015870 -0.004665 -0.008549 0.000000 0.000000 0.000000
# 2 -0.004665 0.011349 0.000042 0.000000 0.000000 0.000000
# 3 -0.008549 0.000042 0.033127 0.000000 0.000000 0.000000
# 4 0.000000 0.000000 0.000000 0.410766 0.000000 0.000000
# 5 0.000000 0.000000 0.000000 0.000000 0.063819 0.000000
# 6 0.000000 0.000000 0.000000 0.000000 0.000000 0.038481
#
#
# Mechanical properties :
#
#
# Convention : Reuss Voigt Hill
#
# Bulk Modulus (GPa) = 29.40991 39.40703 34.40847
# Shear Modulus (GPa) = 8.18208 19.32803 13.75506
#
# Velocity S-wave (km/s) = 2.03014 3.12025 2.63224
# Velocity P-wave (km/s) = 4.50663 5.72987 5.15466
#
# Compressibility (1/GPa) = 0.03400215
#
# Stress axis : x y z
#
# Youngs Moduli (GPa) = 63.01149 88.11167 30.18669
#
# Poissons Ratio (x) = 0.41108 0.25807
# Poissons Ratio (y) = 0.29398 -0.00128
# Poissons Ratio (z) = 0.53869 -0.00373
#
# Static dielectric constant tensor:
#      x y z
#    x 3.715200 0.000000 0.000000 
#    y 0.000000 3.720640 0.000000 
#    z 0.000000 0.000000 3.524230 
# 
# 
# High freq. dielectric constant tensor:
#      x y z
#    x 1.765870 0.000000 0.000000 
#    y 0.000000 1.786750 0.000000 
#    z 0.000000 0.000000 1.756450 
# 
# From -- ./inp_files/22042.got.cif
#   From: 2010.03.12/outbox.cif.g09.slc.cpg/sg57_12_cif.got.tgz:22042.got - 2010.04.16 15:48:40.
