data_PCOD8233857
_publ_section_title
;
Structure prediction by ZEFSAII (Michael W. Deem and Ramdas Pophale) SiO2 
 PCOD8233857
Probable space group: P B C M
;
_chemical_formula_sum "Si O2"
_cell_formula_units_Z 48
_cell_length_a 18.272483
_cell_length_b 15.121939
_cell_length_c 8.489047
_cell_angle_alpha 90.000000
_cell_angle_beta 90.000000
_cell_angle_gamma 90.000000
_cell_volume 2345.654191
_symmetry_space_group_name_H-M "P B C M"
_symmetry_group_IT_number 57
_symmetry_cell_setting 'orthorhombic'
loop_
_space_group_symop_operation_xyz
x,y,z
-x,-y,1/2+z
x,1/2-y,-z
-x,1/2+y,1/2-z
-x,-y,-z
x,y,1/2-z
-x,1/2+y,z
x,1/2-y,1/2+z
loop_
_atom_site_type_symbol
_atom_site_label
_atom_site_fract_x
_atom_site_fract_y
_atom_site_fract_z
Si Si1 0.177965 0.478358 0.435129
Si Si2 0.603130 0.345795 0.935774
Si Si3 0.039332 0.084895 0.433390
Si Si4 0.108415 0.840048 0.932235
Si Si5 0.333369 0.018925 0.066684
Si Si6 0.444537 0.156939 0.934764
O O1 0.193886 0.479130 0.250000
O O2 0.116420 0.403480 0.474700
O O3 0.148619 0.573017 0.501584
O O4 0.250837 0.452733 0.528236
O O5 0.614828 0.349340 0.750000
O O6 0.626150 0.250000 0.000000
O O7 0.655478 0.417395 0.017035
O O8 0.519380 0.367812 0.977131
O O9 0.056501 0.074019 0.250000
O O10 0.979578 0.161844 0.464917
O O11 0.000000 0.000000 0.500000
O O12 0.125148 0.842317 0.750000
O O13 0.142854 0.750000 0.000000
O O14 0.350045 0.032528 0.250000
O O15 0.386670 0.080367 0.965353
O O16 0.460770 0.165409 0.750000
O O17 0.413660 0.250000 0.000000
#
# Coordination Sequence:
#
# PCOD8233857 Si02
#       6
#     8   8   8   8   8   8
#     4  10  21  37  54  78 109 144 183 229 280 337
#     4  11  22  39  61  88 119 154 196 243 290 345
#     4   9  17  32  52  75 100 133 174 217 261 316
#     4   9  19  33  53  79 108 138 177 222 271 328
#     4  12  24  39  59  86 118 157 197 239 293 353
#     4  11  22  40  63  88 116 150 193 244 294 347
#
# _framework density 20.463376
#
# number of rings (size 3 to 8) (size 9 to 14) (size 15 to 20)
#    0.000    1.667    0.000    8.000    0.000    4.667 
#    0.000    2.500    0.000    2.000    0.000    0.000 
#    0.000    0.000    0.000    0.000    0.000    0.000 
#
# Total GULP energy -595120.815963 kJ/mol
# GULP energy per Si atom -12398.350333 kJ/mol
# Density = 2.041680 g / cm^3
# Si number density = 20.463376 Si / 1000 Ang^3
#
#
#
# Elastic Constant Matrix: (Units=GPa)
#
#
# Indices 1 2 3 4 5 6 
#
# 1 68.2347 -0.4998 9.9582 0.0000 0.0000 0.0000
# 2 -0.4998 37.0130 12.6409 0.0000 0.0000 0.0000
# 3 9.9582 12.6409 72.3187 0.0000 0.0000 0.0000
# 4 0.0000 0.0000 0.0000 32.1213 0.0000 0.0000
# 5 0.0000 0.0000 0.0000 0.0000 33.8874 0.0000
# 6 0.0000 0.0000 0.0000 0.0000 0.0000 17.3399
#
#
#
# Elastic Compliance Matrix: (Units=1/GPa)
#
#
# Indices 1 2 3 4 5 6 
#
# 1 0.014988 0.000965 -0.002233 0.000000 0.000000 0.000000
# 2 0.000965 0.028795 -0.005166 0.000000 0.000000 0.000000
# 3 -0.002233 -0.005166 0.015038 0.000000 0.000000 0.000000
# 4 0.000000 0.000000 0.000000 0.031132 0.000000 0.000000
# 5 0.000000 0.000000 0.000000 0.000000 0.029509 0.000000
# 6 0.000000 0.000000 0.000000 0.000000 0.000000 0.057670
#
#
# Mechanical properties :
#
#
# Convention : Reuss Voigt Hill
#
# Bulk Modulus (GPa) = 21.76098 24.64054 23.20076
# Shear Modulus (GPa) = 24.35240 27.03419 25.69330
#
# Velocity S-wave (km/s) = 3.45345 3.63864 3.54725
# Velocity P-wave (km/s) = 5.15354 5.45164 5.30468
#
# Compressibility (1/GPa) = 0.04595381
#
# Stress axis : x y z
#
# Youngs Moduli (GPa) = 66.71920 34.72833 66.49775
#
# Poissons Ratio (x) = -0.03351 0.14846
# Poissons Ratio (y) = -0.06437 0.34353
# Poissons Ratio (z) = 0.14895 0.17941
#
# Static dielectric constant tensor:
#      x y z
#    x 3.876620 0.000000 0.000000 
#    y 0.000000 3.976780 0.000000 
#    z 0.000000 0.000000 4.374840 
# 
# 
# High freq. dielectric constant tensor:
#      x y z
#    x 1.797790 0.000000 0.000000 
#    y 0.000000 1.783300 0.000000 
#    z 0.000000 0.000000 1.809600 
# 
# From -- ./inp_files/7864.got.cif
#   From: 2010.03.12/outbox.cif.g09.slc.cpg/sg57_4_cif.got.tgz:7864.got - 2010.04.16 15:48:40.
