data_PCOD8233480
_publ_section_title
;
Structure prediction by ZEFSAII (Michael W. Deem and Ramdas Pophale) SiO2 
 PCOD8233480
Probable space group: P B C M
;
_chemical_formula_sum "Si O2"
_cell_formula_units_Z 48
_cell_length_a 15.377897
_cell_length_b 17.811957
_cell_length_c 8.727817
_cell_angle_alpha 90.000000
_cell_angle_beta 90.000000
_cell_angle_gamma 90.000000
_cell_volume 2390.640196
_symmetry_space_group_name_H-M "P B C M"
_symmetry_group_IT_number 57
_symmetry_cell_setting 'orthorhombic'
loop_
_space_group_symop_operation_xyz
x,y,z
-x,-y,1/2+z
x,1/2-y,-z
-x,1/2+y,1/2-z
-x,-y,-z
x,y,1/2-z
-x,1/2+y,z
x,1/2-y,1/2+z
loop_
_atom_site_type_symbol
_atom_site_label
_atom_site_fract_x
_atom_site_fract_y
_atom_site_fract_z
Si Si1 0.983109 0.918858 0.932487
Si Si2 0.847986 0.330582 0.929562
Si Si3 0.653528 0.916906 0.068593
Si Si4 0.484488 0.830789 0.068571
Si Si5 0.823751 0.831726 0.432170
Si Si6 0.324272 0.584985 0.431211
O O1 0.976806 0.923023 0.750000
O O2 0.061244 0.864817 0.987156
O O3 0.894869 0.888283 0.003422
O O4 0.000000 0.000000 0.000000
O O5 0.849323 0.319850 0.750000
O O6 0.771095 0.386820 0.978543
O O7 0.830883 0.250000 0.000000
O O8 0.656909 0.920560 0.250000
O O9 0.561604 0.885169 0.009995
O O10 0.730648 0.862727 0.010904
O O11 0.665496 0.000802 0.003152
O O12 0.483447 0.824686 0.250000
O O13 0.503406 0.750000 0.000000
O O14 0.393185 0.861295 0.011079
O O15 0.839641 0.750000 0.500000
O O16 0.830888 0.828233 0.250000
O O17 0.339323 0.588507 0.250000
#
# Coordination Sequence:
#
# PCOD8233480 Si02
#       6
#     8   8   8   8   8   8
#     4  11  23  40  61  87 116 152 193 238 290 345
#     4  10  22  38  58  82 113 150 188 228 280 337
#     4   9  20  38  60  83 114 152 190 233 286 339
#     4  11  22  37  57  84 114 149 189 233 283 339
#     4  11  22  39  61  87 118 154 193 237 286 342
#     4  10  20  38  60  83 111 147 187 233 284 336
#
# _framework density 20.078302999999998
#
# number of rings (size 3 to 8) (size 9 to 14) (size 15 to 20)
#    0.000    1.667    0.000    4.500    0.000    7.333 
#    0.000    6.667    0.000    0.000    0.000    0.000 
#    0.000    0.000    0.000    0.000    0.000    0.000 
#
# Total GULP energy -595411.879048 kJ/mol
# GULP energy per Si atom -12404.414147 kJ/mol
# Density = 2.003260 g / cm^3
# Si number density = 20.078303 Si / 1000 Ang^3
#
#
#
# Elastic Constant Matrix: (Units=GPa)
#
#
# Indices 1 2 3 4 5 6 
#
# 1 94.1080 6.1373 29.6706 0.0000 0.0000 0.0000
# 2 6.1373 105.6855 24.8926 0.0000 0.0000 0.0000
# 3 29.6706 24.8926 55.2453 0.0000 0.0000 0.0000
# 4 0.0000 0.0000 0.0000 28.8129 0.0000 0.0000
# 5 0.0000 0.0000 0.0000 0.0000 24.3393 0.0000
# 6 0.0000 0.0000 0.0000 0.0000 0.0000 47.3007
#
#
#
# Elastic Compliance Matrix: (Units=1/GPa)
#
#
# Indices 1 2 3 4 5 6 
#
# 1 0.012883 0.000986 -0.007364 0.000000 0.000000 0.000000
# 2 0.000986 0.010661 -0.005333 0.000000 0.000000 0.000000
# 3 -0.007364 -0.005333 0.024459 0.000000 0.000000 0.000000
# 4 0.000000 0.000000 0.000000 0.034707 0.000000 0.000000
# 5 0.000000 0.000000 0.000000 0.000000 0.041086 0.000000
# 6 0.000000 0.000000 0.000000 0.000000 0.000000 0.021141
#
#
# Mechanical properties :
#
#
# Convention : Reuss Voigt Hill
#
# Bulk Modulus (GPa) = 40.68042 41.82663 41.25353
# Shear Modulus (GPa) = 28.32018 33.04648 30.68333
#
# Velocity S-wave (km/s) = 3.75972 4.06135 3.91344
# Velocity P-wave (km/s) = 6.25717 6.54749 6.40398
#
# Compressibility (1/GPa) = 0.02458185
#
# Stress axis : x y z
#
# Youngs Moduli (GPa) = 77.61927 93.80027 40.88477
#
# Poissons Ratio (x) = -0.09251 0.30106
# Poissons Ratio (y) = -0.07655 0.21805
# Poissons Ratio (z) = 0.57156 0.50027
#
# Static dielectric constant tensor:
#      x y z
#    x 3.952440 0.000000 0.000000 
#    y 0.000000 4.396050 0.000000 
#    z 0.000000 0.000000 3.540260 
# 
# 
# High freq. dielectric constant tensor:
#      x y z
#    x 1.802540 0.000000 0.000000 
#    y 0.000000 1.802500 0.000000 
#    z 0.000000 0.000000 1.768900 
# 
# From -- ./inp_files/4650.got.cif
#   From: 2010.03.12/outbox.cif.g09.slc.cpg/sg57_3_cif.got.tgz:4650.got - 2010.04.16 15:48:40.
