data_PCOD8233882
_publ_section_title
;
Structure prediction by ZEFSAII (Michael W. Deem and Ramdas Pophale) SiO2 
 PCOD8233882
Probable space group: P B C M
;
_chemical_formula_sum "Si O2"
_cell_formula_units_Z 48
_cell_length_a 28.956026
_cell_length_b 10.205257
_cell_length_c 8.621102
_cell_angle_alpha 90.000000
_cell_angle_beta 90.000000
_cell_angle_gamma 90.000000
_cell_volume 2547.567427
_symmetry_space_group_name_H-M "P B C M"
_symmetry_group_IT_number 57
_symmetry_cell_setting 'orthorhombic'
loop_
_space_group_symop_operation_xyz
x,y,z
-x,-y,1/2+z
x,1/2-y,-z
-x,1/2+y,1/2-z
-x,-y,-z
x,y,1/2-z
-x,1/2+y,z
x,1/2-y,1/2+z
loop_
_atom_site_type_symbol
_atom_site_label
_atom_site_fract_x
_atom_site_fract_y
_atom_site_fract_z
Si Si1 0.966504 0.390652 0.565705
Si Si2 0.363606 0.886170 0.432045
Si Si3 0.804973 0.611362 0.569604
Si Si4 0.866737 0.388200 0.433491
Si Si5 0.468323 0.887614 0.066752
Si Si6 0.696856 0.887080 0.428998
O O1 0.982088 0.250000 0.500000
O O2 0.968929 0.387584 0.750000
O O3 0.915089 0.426052 0.511633
O O4 0.000000 0.500000 0.500000
O O5 0.344924 0.750000 0.500000
O O6 0.361822 0.874806 0.250000
O O7 0.415831 0.913671 0.489162
O O8 0.330254 0.999958 0.485390
O O9 0.821094 0.750000 0.500000
O O10 0.818590 0.605223 0.750000
O O11 0.829731 0.498070 0.474045
O O12 0.750861 0.590419 0.543524
O O13 0.848597 0.250000 0.500000
O O14 0.873408 0.376850 0.250000
O O15 0.472484 0.884814 0.250000
O O16 0.486258 0.750000 0.000000
O O17 0.500000 0.000000 0.000000
O O18 0.680603 0.750000 0.500000
O O19 0.683577 0.888177 0.250000
#
# Coordination Sequence:
#
# PCOD8233882 Si02
#       6
#     8   8   8   8   8   8
#     4  11  22  39  60  85 115 148 186 230 277 328
#     4  10  21  37  57  81 110 143 182 225 273 324
#     4  10  21  38  58  83 112 145 184 228 275 326
#     4  11  22  38  59  84 113 148 186 228 276 327
#     4  10  21  37  57  81 109 143 181 225 272 324
#     4  10  21  37  58  82 111 145 183 226 274 325
#
# _framework density 18.841501999999998
#
# number of rings (size 3 to 8) (size 9 to 14) (size 15 to 20)
#    0.000    1.667    0.000    6.000    0.000    6.000 
#    0.000    3.333    0.000    0.000    0.000    0.000 
#    0.000    0.000    0.000    0.000    0.000    0.000 
#
# Total GULP energy -595430.151351 kJ/mol
# GULP energy per Si atom -12404.794820 kJ/mol
# Density = 1.879862 g / cm^3
# Si number density = 18.841502 Si / 1000 Ang^3
#
#
#
# Elastic Constant Matrix: (Units=GPa)
#
#
# Indices 1 2 3 4 5 6 
#
# 1 57.1382 65.8624 35.1352 0.0000 0.0000 0.0000
# 2 65.8624 153.0805 53.0630 0.0000 0.0000 0.0000
# 3 35.1352 53.0630 123.1028 0.0000 0.0000 0.0000
# 4 0.0000 0.0000 0.0000 41.5707 0.0000 0.0000
# 5 0.0000 0.0000 0.0000 0.0000 32.5586 0.0000
# 6 0.0000 0.0000 0.0000 0.0000 0.0000 41.2445
#
#
#
# Elastic Compliance Matrix: (Units=1/GPa)
#
#
# Indices 1 2 3 4 5 6 
#
# 1 0.036556 -0.014239 -0.004296 0.000000 0.000000 0.000000
# 2 -0.014239 0.013226 -0.001637 0.000000 0.000000 0.000000
# 3 -0.004296 -0.001637 0.010055 0.000000 0.000000 0.000000
# 4 0.000000 0.000000 0.000000 0.024055 0.000000 0.000000
# 5 0.000000 0.000000 0.000000 0.000000 0.030714 0.000000
# 6 0.000000 0.000000 0.000000 0.000000 0.000000 0.024246
#
#
# Mechanical properties :
#
#
# Convention : Reuss Voigt Hill
#
# Bulk Modulus (GPa) = 51.29955 71.27140 61.28547
# Shear Modulus (GPa) = 26.92593 35.02551 30.97572
#
# Velocity S-wave (km/s) = 3.78441 4.31624 4.05904
# Velocity P-wave (km/s) = 6.81041 7.92141 7.38683
#
# Compressibility (1/GPa) = 0.01949335
#
# Stress axis : x y z
#
# Youngs Moduli (GPa) = 27.35511 75.60687 99.45216
#
# Poissons Ratio (x) = 1.07657 0.42724
# Poissons Ratio (y) = 0.38951 0.16282
# Poissons Ratio (z) = 0.11752 0.12378
#
# Static dielectric constant tensor:
#      x y z
#    x 3.456230 0.000000 0.000000 
#    y 0.000000 3.335290 0.000000 
#    z 0.000000 0.000000 3.579430 
# 
# 
# High freq. dielectric constant tensor:
#      x y z
#    x 1.727430 0.000000 0.000000 
#    y 0.000000 1.744500 0.000000 
#    z 0.000000 0.000000 1.754550 
# 
# From -- ./inp_files/9973.got.cif
#   From: 2010.03.12/outbox.cif.g09.slc.cpg/sg57_5_cif.got.tgz:9973.got - 2010.04.16 15:48:40.
