data_PCOD8233507
_publ_section_title
;
Structure prediction by ZEFSAII (Michael W. Deem and Ramdas Pophale) SiO2 
 PCOD8233507
Probable space group: P B C M
;
_chemical_formula_sum "Si O2"
_cell_formula_units_Z 40
_cell_length_a 12.336370
_cell_length_b 18.722021
_cell_length_c 8.745769
_cell_angle_alpha 90.000000
_cell_angle_beta 90.000000
_cell_angle_gamma 90.000000
_cell_volume 2019.938360
_symmetry_space_group_name_H-M "P B C M"
_symmetry_group_IT_number 57
_symmetry_cell_setting 'orthorhombic'
loop_
_space_group_symop_operation_xyz
x,y,z
-x,-y,1/2+z
x,1/2-y,-z
-x,1/2+y,1/2-z
-x,-y,-z
x,y,1/2-z
-x,1/2+y,z
x,1/2-y,1/2+z
loop_
_atom_site_type_symbol
_atom_site_label
_atom_site_fract_x
_atom_site_fract_y
_atom_site_fract_z
Si Si1 0.028211 0.674323 0.568475
Si Si2 0.804341 0.057575 0.569351
Si Si3 0.823655 0.603595 0.069855
Si Si4 0.618519 0.672695 0.572352
Si Si5 0.563801 0.435626 0.426385
O O1 0.063190 0.750000 0.500000
O O2 0.030503 0.678624 0.750000
O O3 0.112002 0.615501 0.501987
O O4 0.907978 0.654480 0.515069
O O5 0.801100 0.065956 0.750000
O O6 0.684083 0.072047 0.501239
O O7 0.845107 0.978617 0.523437
O O8 0.833810 0.615815 0.250000
O O9 0.703890 0.623554 0.015709
O O10 0.615957 0.750000 0.500000
O O11 0.650688 0.677400 0.750000
O O12 0.500131 0.638249 0.549233
O O13 0.500000 0.500000 0.500000
O O14 0.575481 0.455589 0.250000
#
# Coordination Sequence:
#
# PCOD8233507 Si02
#       5
#     8   8   8   8   8
#     4  11  23  40  59  84 119 155 194 240 292 349
#     4   9  20  38  62  87 116 152 191 241 293 346
#     4  11  21  38  63  87 115 152 195 244 296 347
#     4  11  23  37  58  88 121 156 195 240 290 347
#     4  10  20  38  61  87 117 152 192 238 290 343
#
# _framework density 19.802585000000001
#
# number of rings (size 3 to 8) (size 9 to 14) (size 15 to 20)
#    0.000    1.600    2.000    3.000    0.000    1.600 
#    0.000    5.000    0.000    0.000    0.000    0.000 
#    0.000    0.000    0.000    0.000    0.000    0.000 
#
# Total GULP energy -496125.995883 kJ/mol
# GULP energy per Si atom -12403.149897 kJ/mol
# Density = 1.975751 g / cm^3
# Si number density = 19.802585 Si / 1000 Ang^3
#
#
#
# Elastic Constant Matrix: (Units=GPa)
#
#
# Indices 1 2 3 4 5 6 
#
# 1 84.9536 28.9755 24.2951 0.0000 0.0000 0.0000
# 2 28.9755 129.5863 43.6789 0.0000 0.0000 0.0000
# 3 24.2951 43.6789 67.8271 0.0000 0.0000 0.0000
# 4 0.0000 0.0000 0.0000 28.7537 0.0000 0.0000
# 5 0.0000 0.0000 0.0000 0.0000 21.2851 0.0000
# 6 0.0000 0.0000 0.0000 0.0000 0.0000 36.7359
#
#
#
# Elastic Compliance Matrix: (Units=1/GPa)
#
#
# Indices 1 2 3 4 5 6 
#
# 1 0.013423 -0.001764 -0.003672 0.000000 0.000000 0.000000
# 2 -0.001764 0.010088 -0.005865 0.000000 0.000000 0.000000
# 3 -0.003672 -0.005865 0.019835 0.000000 0.000000 0.000000
# 4 0.000000 0.000000 0.000000 0.034778 0.000000 0.000000
# 5 0.000000 0.000000 0.000000 0.000000 0.046981 0.000000
# 6 0.000000 0.000000 0.000000 0.000000 0.000000 0.027221
#
#
# Mechanical properties :
#
#
# Convention : Reuss Voigt Hill
#
# Bulk Modulus (GPa) = 48.20387 52.91845 50.56116
# Shear Modulus (GPa) = 27.49625 29.71611 28.60618
#
# Velocity S-wave (km/s) = 3.73032 3.87798 3.80487
# Velocity P-wave (km/s) = 6.55354 6.84344 6.70006
#
# Compressibility (1/GPa) = 0.02074522
#
# Stress axis : x y z
#
# Youngs Moduli (GPa) = 74.49997 99.12792 50.41476
#
# Poissons Ratio (x) = 0.17482 0.18514
# Poissons Ratio (y) = 0.13138 0.29567
# Poissons Ratio (z) = 0.27358 0.58136
#
# Static dielectric constant tensor:
#      x y z
#    x 3.963960 0.000000 0.000000 
#    y 0.000000 3.769870 0.000000 
#    z 0.000000 0.000000 3.502690 
# 
# 
# High freq. dielectric constant tensor:
#      x y z
#    x 1.782530 0.000000 0.000000 
#    y 0.000000 1.782210 0.000000 
#    z 0.000000 0.000000 1.759300 
# 
# From -- ./inp_files/2628.got.cif
#   From: 2010.03.12/outbox.cif.g09.slc.cpg/sg57_2_cif.got.tgz:2628.got - 2010.04.16 15:48:40.
