data_PCOD8233421
_publ_section_title
;
Structure prediction by ZEFSAII (Michael W. Deem and Ramdas Pophale) SiO2 
 PCOD8233421
Probable space group: P B C M
;
_chemical_formula_sum "Si O2"
_cell_formula_units_Z 56
_cell_length_a 21.170111
_cell_length_b 14.838748
_cell_length_c 8.952091
_cell_angle_alpha 90.000000
_cell_angle_beta 90.000000
_cell_angle_gamma 90.000000
_cell_volume 2812.191446
_symmetry_space_group_name_H-M "P B C M"
_symmetry_group_IT_number 57
_symmetry_cell_setting 'orthorhombic'
loop_
_space_group_symop_operation_xyz
x,y,z
-x,-y,1/2+z
x,1/2-y,-z
-x,1/2+y,1/2-z
-x,-y,-z
x,y,1/2-z
-x,1/2+y,z
x,1/2-y,1/2+z
loop_
_atom_site_type_symbol
_atom_site_label
_atom_site_fract_x
_atom_site_fract_y
_atom_site_fract_z
Si Si1 0.796345 0.659295 0.427433
Si Si2 0.267022 0.996831 0.576249
Si Si3 0.054388 0.894674 0.078753
Si Si4 0.486902 0.349801 0.926782
Si Si5 0.932034 0.901387 0.574412
Si Si6 0.192529 0.838880 0.075850
Si Si7 0.587904 0.497943 0.922266
O O1 0.771019 0.750000 0.500000
O O2 0.793836 0.662537 0.250000
O O3 0.747574 0.586158 0.485342
O O4 0.867697 0.642455 0.486836
O O5 0.251480 0.010189 0.750000
O O6 0.339731 0.971860 0.549478
O O7 0.222440 0.921091 0.510084
O O8 0.034454 0.897054 0.250000
O O9 0.117051 0.836713 0.052376
O O10 0.068724 0.995279 0.020311
O O11 0.994559 0.852453 0.990844
O O12 0.480567 0.336014 0.750000
O O13 0.549026 0.408431 0.970668
O O14 0.488813 0.250000 0.000000
O O15 0.428817 0.411491 0.984912
O O16 0.934227 0.892529 0.750000
O O17 0.210392 0.843983 0.250000
O O18 0.220999 0.750000 0.000000
O O19 0.574178 0.520997 0.750000
#
# Coordination Sequence:
#
# PCOD8233421 Si02
#       7
#     8   8   8   8   8   8   8
#     4  11  23  40  59  84 116 152 197 245 296 354
#     4  11  23  41  63  87 118 157 198 243 292 343
#     4   9  18  34  55  79 108 144 186 238 297 354
#     4  10  20  37  63  93 125 158 192 235 283 333
#     4   9  18  34  55  79 108 143 186 239 297 355
#     4  11  23  40  59  84 117 153 197 245 294 353
#     4   9  21  40  61  89 122 156 198 239 282 338
#
# _framework density 19.913298000000001
#
# number of rings (size 3 to 8) (size 9 to 14) (size 15 to 20)
#    0.000    2.000    1.429    1.714    0.000    5.714 
#    0.000    4.286    0.000    0.000    0.000    0.000 
#    0.000    0.000    0.000    0.000    0.000    0.000 
#
# Total GULP energy -694352.104123 kJ/mol
# GULP energy per Si atom -12399.144716 kJ/mol
# Density = 1.986797 g / cm^3
# Si number density = 19.913298 Si / 1000 Ang^3
#
#
#
# Elastic Constant Matrix: (Units=GPa)
#
#
# Indices 1 2 3 4 5 6 
#
# 1 60.7899 6.1300 29.7674 0.0000 0.0000 0.0000
# 2 6.1300 105.5099 37.3263 0.0000 0.0000 0.0000
# 3 29.7674 37.3263 77.8922 0.0000 0.0000 0.0000
# 4 0.0000 0.0000 0.0000 33.2829 0.0000 0.0000
# 5 0.0000 0.0000 0.0000 0.0000 16.6580 0.0000
# 6 0.0000 0.0000 0.0000 0.0000 0.0000 6.7474
#
#
#
# Elastic Compliance Matrix: (Units=1/GPa)
#
#
# Indices 1 2 3 4 5 6 
#
# 1 0.020551 0.001908 -0.008768 0.000000 0.000000 0.000000
# 2 0.001908 0.011590 -0.006283 0.000000 0.000000 0.000000
# 3 -0.008768 -0.006283 0.019200 0.000000 0.000000 0.000000
# 4 0.000000 0.000000 0.000000 0.030045 0.000000 0.000000
# 5 0.000000 0.000000 0.000000 0.000000 0.060031 0.000000
# 6 0.000000 0.000000 0.000000 0.000000 0.000000 0.148204
#
#
# Mechanical properties :
#
#
# Convention : Reuss Voigt Hill
#
# Bulk Modulus (GPa) = 39.91308 43.40437 41.65872
# Shear Modulus (GPa) = 15.41972 22.73555 19.07764
#
# Velocity S-wave (km/s) = 2.78572 3.38261 3.09857
# Velocity P-wave (km/s) = 5.51670 6.09098 5.81094
#
# Compressibility (1/GPa) = 0.02505444
#
# Stress axis : x y z
#
# Youngs Moduli (GPa) = 48.65876 86.28381 52.08348
#
# Poissons Ratio (x) = -0.16462 0.45668
# Poissons Ratio (y) = -0.09284 0.32724
# Poissons Ratio (z) = 0.42665 0.54212
#
# Static dielectric constant tensor:
#      x y z
#    x 3.646990 0.000000 0.000000 
#    y 0.000000 3.577220 0.000000 
#    z 0.000000 0.000000 3.709520 
# 
# 
# High freq. dielectric constant tensor:
#      x y z
#    x 1.773370 0.000000 0.000000 
#    y 0.000000 1.777260 0.000000 
#    z 0.000000 0.000000 1.779750 
# 
# From -- ./inp_files/8017.got.cif
#   From: 2010.03.12/outbox.cif.g09.slc.cpg/sg57_5_cif.got.tgz:8017.got - 2010.04.16 15:48:40.
