data_PCOD8233399
_publ_section_title
;
Structure prediction by ZEFSAII (Michael W. Deem and Ramdas Pophale) SiO2 
 PCOD8233399
Probable space group: P B C M
;
_chemical_formula_sum "Si O2"
_cell_formula_units_Z 56
_cell_length_a 5.584200
_cell_length_b 31.042188
_cell_length_c 14.934627
_cell_angle_alpha 90.000000
_cell_angle_beta 90.000000
_cell_angle_gamma 90.000000
_cell_volume 2588.854659
_symmetry_space_group_name_H-M "P B C M"
_symmetry_group_IT_number 57
_symmetry_cell_setting 'orthorhombic'
loop_
_space_group_symop_operation_xyz
x,y,z
-x,-y,1/2+z
x,1/2-y,-z
-x,1/2+y,1/2-z
-x,-y,-z
x,y,1/2-z
-x,1/2+y,z
x,1/2-y,1/2+z
loop_
_atom_site_type_symbol
_atom_site_label
_atom_site_fract_x
_atom_site_fract_y
_atom_site_fract_z
Si Si1 0.535411 0.291965 0.849710
Si Si2 0.171981 0.839270 0.348617
Si Si3 0.559695 0.983518 0.147107
Si Si4 0.489005 0.637349 0.496067
Si Si5 0.869123 0.588566 0.913700
Si Si6 0.042557 0.253725 0.104066
Si Si7 0.246363 0.954551 0.511262
O O1 0.564962 0.309126 0.750000
O O2 0.783160 0.267152 0.872503
O O3 0.286589 0.265080 0.853237
O O4 0.506557 0.334410 0.908193
O O5 0.287546 0.833812 0.250000
O O6 0.370353 0.834327 0.425106
O O7 0.969095 0.803100 0.363455
O O8 0.066892 0.887985 0.352945
O O9 0.483178 0.994953 0.250000
O O10 0.686563 0.936739 0.150409
O O11 0.344274 0.980706 0.075771
O O12 0.733518 0.020364 0.105613
O O13 0.756117 0.626912 0.527668
O O14 0.362606 0.592179 0.476199
O O15 0.970307 0.553485 0.985143
O O16 0.086425 0.250000 0.000000
#
# Coordination Sequence:
#
# PCOD8233399 Si02
#       7
#     8   8   8   8   8   8   8
#     4  12  26  45  68  99 135 178 228 282 338 403
#     4  11  23  39  61  92 125 164 215 272 332 399
#     4  10  20  37  62  90 122 163 208 262 325 394
#     4  10  23  41  61  90 126 173 213 269 333 394
#     4  10  21  38  60  88 127 164 210 263 331 389
#     4  12  25  46  69  97 133 177 226 283 342 405
#     4   9  21  39  59  89 125 163 210 264 320 395
#
# _framework density 21.631188000000002
#
# number of rings (size 3 to 8) (size 9 to 14) (size 15 to 20)
#    0.000    1.429    1.429    3.429    4.000    6.857 
#    0.000    0.714    0.000    0.000    0.000    0.000 
#    0.000    0.000    0.000    0.000    0.000    0.000 
#
# Total GULP energy -693894.579094 kJ/mol
# GULP energy per Si atom -12390.974627 kJ/mol
# Density = 2.158195 g / cm^3
# Si number density = 21.631188 Si / 1000 Ang^3
#
#
#
# Elastic Constant Matrix: (Units=GPa)
#
#
# Indices 1 2 3 4 5 6 
#
# 1 85.3764 9.2488 9.9243 0.0000 0.0000 0.0000
# 2 9.2488 73.5247 36.8250 0.0000 0.0000 0.0000
# 3 9.9243 36.8250 153.9927 0.0000 0.0000 0.0000
# 4 0.0000 0.0000 0.0000 23.0572 0.0000 0.0000
# 5 0.0000 0.0000 0.0000 0.0000 12.6907 0.0000
# 6 0.0000 0.0000 0.0000 0.0000 0.0000 32.1430
#
#
#
# Elastic Compliance Matrix: (Units=1/GPa)
#
#
# Indices 1 2 3 4 5 6 
#
# 1 0.011904 -0.001265 -0.000465 0.000000 0.000000 0.000000
# 2 -0.001265 0.015586 -0.003646 0.000000 0.000000 0.000000
# 3 -0.000465 -0.003646 0.007396 0.000000 0.000000 0.000000
# 4 0.000000 0.000000 0.000000 0.043370 0.000000 0.000000
# 5 0.000000 0.000000 0.000000 0.000000 0.078798 0.000000
# 6 0.000000 0.000000 0.000000 0.000000 0.000000 0.031111
#
#
# Mechanical properties :
#
#
# Convention : Reuss Voigt Hill
#
# Bulk Modulus (GPa) = 41.43313 47.21001 44.32157
# Shear Modulus (GPa) = 24.15932 30.70457 27.43194
#
# Velocity S-wave (km/s) = 3.34559 3.77166 3.56500
# Velocity P-wave (km/s) = 5.84123 6.39058 6.12207
#
# Compressibility (1/GPa) = 0.02413528
#
# Stress axis : x y z
#
# Youngs Moduli (GPa) = 84.00640 64.16069 135.21623
#
# Poissons Ratio (x) = 0.08114 0.06284
# Poissons Ratio (y) = 0.10624 0.49295
# Poissons Ratio (z) = 0.03904 0.23391
#
# Static dielectric constant tensor:
#      x y z
#    x 4.071970 0.000000 0.000000 
#    y 0.000000 3.997280 0.000000 
#    z 0.000000 0.000000 3.832210 
# 
# 
# High freq. dielectric constant tensor:
#      x y z
#    x 1.849720 0.000000 0.000000 
#    y 0.000000 1.856770 0.000000 
#    z 0.000000 0.000000 1.842730 
# 
# From -- ./inp_files/15270.got.cif
#   From: 2010.03.12/outbox.cif.g09.slc.cpg/sg57_8_cif.got.tgz:15270.got - 2010.04.16 15:48:40.
