data_PCOD8233999
_publ_section_title
;
Structure prediction by ZEFSAII (Michael W. Deem and Ramdas Pophale) SiO2 
 PCOD8233999
Probable space group: P B C M
;
_chemical_formula_sum "Si O2"
_cell_formula_units_Z 56
_cell_length_a 15.705631
_cell_length_b 8.763846
_cell_length_c 19.735531
_cell_angle_alpha 90.000000
_cell_angle_beta 90.000000
_cell_angle_gamma 90.000000
_cell_volume 2716.432657
_symmetry_space_group_name_H-M "P B C M"
_symmetry_group_IT_number 57
_symmetry_cell_setting 'orthorhombic'
loop_
_space_group_symop_operation_xyz
x,y,z
-x,-y,1/2+z
x,1/2-y,-z
-x,1/2+y,1/2-z
-x,-y,-z
x,y,1/2-z
-x,1/2+y,z
x,1/2-y,1/2+z
loop_
_atom_site_type_symbol
_atom_site_label
_atom_site_fract_x
_atom_site_fract_y
_atom_site_fract_z
Si Si1 0.887072 0.742151 0.423343
Si Si2 0.979556 0.033832 0.635761
Si Si3 0.604716 0.173676 0.672313
Si Si4 0.706093 0.826796 0.427191
Si Si5 0.736325 0.325621 0.926825
Si Si6 0.426170 0.178840 0.172454
Si Si7 0.881731 0.311698 0.678097
O O1 0.859868 0.750000 0.500000
O O2 0.915550 0.571176 0.406970
O O3 0.796109 0.785045 0.389289
O O4 0.962699 0.861059 0.412187
O O5 0.919951 0.141476 0.680534
O O6 0.039927 0.929824 0.681374
O O7 0.635817 0.195160 0.750000
O O8 0.678106 0.220934 0.620511
O O9 0.523325 0.277672 0.657473
O O10 0.582639 0.999163 0.657259
O O11 0.691197 0.750000 0.500000
O O12 0.633249 0.776294 0.376048
O O13 0.697086 0.008073 0.437321
O O14 0.826740 0.340869 0.888722
O O15 0.750875 0.250000 0.000000
O O16 0.402312 0.218818 0.250000
O O17 0.831776 0.332735 0.750000
#
# Coordination Sequence:
#
# PCOD8233999 Si02
#       7
#     8   8   8   8   8   8   8
#     4  10  21  37  61  90 126 167 210 264 315 373
#     4  10  22  40  62  89 121 164 218 263 317 374
#     4  10  22  43  70 100 132 166 210 257 312 378
#     4  11  24  42  62  93 132 168 213 266 317 380
#     4  12  26  42  65  95 130 170 215 265 318 379
#     4  10  22  42  70 100 130 168 209 256 313 379
#     4  11  24  42  64  91 126 167 212 265 320 376
#
# _framework density 20.615272999999998
#
# number of rings (size 3 to 8) (size 9 to 14) (size 15 to 20)
#    0.000    1.429    1.429    3.000    6.000    5.143 
#    0.000    3.571    0.000    0.000    0.000    0.000 
#    0.000    0.000    0.000    0.000    0.000    0.000 
#
# Total GULP energy -694296.810753 kJ/mol
# GULP energy per Si atom -12398.157335 kJ/mol
# Density = 2.056835 g / cm^3
# Si number density = 20.615273 Si / 1000 Ang^3
#
#
#
# Elastic Constant Matrix: (Units=GPa)
#
#
# Indices 1 2 3 4 5 6 
#
# 1 55.6258 12.3851 35.4951 0.0000 0.0000 0.0000
# 2 12.3851 122.7111 37.5700 0.0000 0.0000 0.0000
# 3 35.4951 37.5700 118.4698 0.0000 0.0000 0.0000
# 4 0.0000 0.0000 0.0000 20.9530 0.0000 0.0000
# 5 0.0000 0.0000 0.0000 0.0000 36.7526 0.0000
# 6 0.0000 0.0000 0.0000 0.0000 0.0000 -306.5892
#
#
#
# Elastic Compliance Matrix: (Units=1/GPa)
#
#
# Indices 1 2 3 4 5 6 
#
# 1 0.022232 -0.000226 -0.006589 0.000000 0.000000 0.000000
# 2 -0.000226 0.009028 -0.002795 0.000000 0.000000 0.000000
# 3 -0.006589 -0.002795 0.011302 0.000000 0.000000 0.000000
# 4 0.000000 0.000000 0.000000 0.047726 0.000000 0.000000
# 5 0.000000 0.000000 0.000000 0.000000 0.027209 0.000000
# 6 0.000000 0.000000 0.000000 0.000000 0.000000 -0.003262
#
#
# Mechanical properties :
#
#
# Convention : Reuss Voigt Hill
#
# Bulk Modulus (GPa) = 42.84481 51.96747 47.40614
# Shear Modulus (GPa) = 35.40152 -35.68631 -0.14239
#
# Velocity S-wave (km/s) = 4.14846 -4.16512 -0.26310
# Velocity P-wave (km/s) = 6.61623 1.46015 4.79096
#
# Compressibility (1/GPa) = 0.02334005
#
# Stress axis : x y z
#
# Youngs Moduli (GPa) = 44.97952 110.76825 88.48287
#
# Poissons Ratio (x) = 0.02509 0.58304
# Poissons Ratio (y) = 0.01019 0.24732
# Poissons Ratio (z) = 0.29638 0.30961
#
# Static dielectric constant tensor:
#      x y z
#    x 3.710370 0.000000 0.000000 
#    y 0.000000 4.039510 0.000000 
#    z 0.000000 0.000000 3.567490 
# 
# 
# High freq. dielectric constant tensor:
#      x y z
#    x 1.807290 0.000000 0.000000 
#    y 0.000000 1.825380 0.000000 
#    z 0.000000 0.000000 1.801770 
# 
# From -- ./inp_files/25390.got.cif
#   From: 2010.03.12/outbox.cif.g09.slc.cpg/sg57_13_cif.got.tgz:25390.got - 2010.04.16 15:48:40.
