data_PCOD8233238
_publ_section_title
;
Structure prediction by ZEFSAII (Michael W. Deem and Ramdas Pophale) SiO2 
 PCOD8233238
Probable space group: P B C M
;
_chemical_formula_sum "Si O2"
_cell_formula_units_Z 56
_cell_length_a 9.365428
_cell_length_b 14.791717
_cell_length_c 18.495547
_cell_angle_alpha 90.000000
_cell_angle_beta 90.000000
_cell_angle_gamma 90.000000
_cell_volume 2562.202193
_symmetry_space_group_name_H-M "P B C M"
_symmetry_group_IT_number 57
_symmetry_cell_setting 'orthorhombic'
loop_
_space_group_symop_operation_xyz
x,y,z
-x,-y,1/2+z
x,1/2-y,-z
-x,1/2+y,1/2-z
-x,-y,-z
x,y,1/2-z
-x,1/2+y,z
x,1/2-y,1/2+z
loop_
_atom_site_type_symbol
_atom_site_label
_atom_site_fract_x
_atom_site_fract_y
_atom_site_fract_z
Si Si1 0.840511 0.491340 0.566026
Si Si2 0.652100 0.623426 0.333792
Si Si3 0.575791 0.524161 0.833756
Si Si4 0.036446 0.095551 0.331033
Si Si5 0.537378 0.280439 0.334787
Si Si6 0.858332 0.277172 0.332001
Si Si7 0.980642 0.148816 0.531249
O O1 0.690790 0.489253 0.608301
O O2 0.854593 0.404720 0.512221
O O3 0.967962 0.485433 0.624437
O O4 0.874199 0.587339 0.525952
O O5 0.670472 0.647815 0.250000
O O6 0.571127 0.529259 0.345432
O O7 0.810732 0.619914 0.367533
O O8 0.560074 0.702885 0.371259
O O9 0.629597 0.512638 0.750000
O O10 0.539428 0.626318 0.853016
O O11 0.060799 0.060834 0.250000
O O12 0.928419 0.179015 0.334493
O O13 0.549289 0.263393 0.250000
O O14 0.698027 0.272141 0.364292
O O15 0.862303 0.315996 0.250000
O O16 0.942389 0.344699 0.384180
O O17 0.004295 0.250000 0.500000
#
# Coordination Sequence:
#
# PCOD8233238 Si02
#       7
#     8   8   8   8   8   8   8
#     4  11  24  41  66  90 125 180 217 260 327 390
#     4   9  19  34  55  91 136 165 203 270 324 368
#     4  10  21  38  63  98 134 168 215 270 327 387
#     4  10  20  36  64 100 129 166 220 268 314 378
#     4   9  19  35  58  90 127 165 204 262 328 374
#     4  10  21  39  68  94 120 164 217 265 318 386
#     4  11  25  44  64  91 131 168 216 269 326 377
#
# _framework density 21.856199
#
# number of rings (size 3 to 8) (size 9 to 14) (size 15 to 20)
#    0.000    2.000    1.429    1.286    4.000    3.429 
#    0.000    0.714    0.000    0.857    0.000    0.000 
#    0.000    0.000    0.000    0.000    0.000    0.000 
#
# Total GULP energy -694038.206453 kJ/mol
# GULP energy per Si atom -12393.539401 kJ/mol
# Density = 2.180645 g / cm^3
# Si number density = 21.856199 Si / 1000 Ang^3
#
#
#
# Elastic Constant Matrix: (Units=GPa)
#
#
# Indices 1 2 3 4 5 6 
#
# 1 76.4257 19.6257 27.7154 0.0000 0.0000 0.0000
# 2 19.6257 99.3806 22.0119 0.0000 0.0000 0.0000
# 3 27.7154 22.0119 76.7913 0.0000 0.0000 0.0000
# 4 0.0000 0.0000 0.0000 10.6580 0.0000 0.0000
# 5 0.0000 0.0000 0.0000 0.0000 15.7157 0.0000
# 6 0.0000 0.0000 0.0000 0.0000 0.0000 22.8673
#
#
#
# Elastic Compliance Matrix: (Units=1/GPa)
#
#
# Indices 1 2 3 4 5 6 
#
# 1 0.015395 -0.001932 -0.005002 0.000000 0.000000 0.000000
# 2 -0.001932 0.010987 -0.002452 0.000000 0.000000 0.000000
# 3 -0.005002 -0.002452 0.015531 0.000000 0.000000 0.000000
# 4 0.000000 0.000000 0.000000 0.093826 0.000000 0.000000
# 5 0.000000 0.000000 0.000000 0.000000 0.063631 0.000000
# 6 0.000000 0.000000 0.000000 0.000000 0.000000 0.043731
#
#
# Mechanical properties :
#
#
# Convention : Reuss Voigt Hill
#
# Bulk Modulus (GPa) = 43.21665 43.47817 43.34741
# Shear Modulus (GPa) = 18.54693 22.06451 20.30572
#
# Velocity S-wave (km/s) = 2.91622 3.18076 3.05136
# Velocity P-wave (km/s) = 5.58168 5.78149 5.68247
#
# Compressibility (1/GPa) = 0.02313923
#
# Stress axis : x y z
#
# Youngs Moduli (GPa) = 64.95662 91.01675 64.38882
#
# Poissons Ratio (x) = 0.17586 0.32210
# Poissons Ratio (y) = 0.12551 0.15788
# Poissons Ratio (z) = 0.32494 0.22317
#
# Static dielectric constant tensor:
#      x y z
#    x 3.963480 0.000000 0.000000 
#    y 0.000000 3.908660 0.000000 
#    z 0.000000 0.000000 3.973860 
# 
# 
# High freq. dielectric constant tensor:
#      x y z
#    x 1.853080 0.000000 0.000000 
#    y 0.000000 1.866190 0.000000 
#    z 0.000000 0.000000 1.836410 
# 
# From -- ./inp_files/24419.got.cif
#   From: 2010.03.12/outbox.cif.g09.slc.cpg/sg57_13_cif.got.tgz:24419.got - 2010.04.16 15:48:40.
