data_PCOD8233167
_publ_section_title
;
Structure prediction by ZEFSAII (Michael W. Deem and Ramdas Pophale) SiO2 
 PCOD8233167
Probable space group: P B C M
;
_chemical_formula_sum "Si O2"
_cell_formula_units_Z 48
_cell_length_a 14.772617
_cell_length_b 18.324294
_cell_length_c 9.249944
_cell_angle_alpha 90.000000
_cell_angle_beta 90.000000
_cell_angle_gamma 90.000000
_cell_volume 2503.939279
_symmetry_space_group_name_H-M "P B C M"
_symmetry_group_IT_number 57
_symmetry_cell_setting 'orthorhombic'
loop_
_space_group_symop_operation_xyz
x,y,z
-x,-y,1/2+z
x,1/2-y,-z
-x,1/2+y,1/2-z
-x,-y,-z
x,y,1/2-z
-x,1/2+y,z
x,1/2-y,1/2+z
loop_
_atom_site_type_symbol
_atom_site_label
_atom_site_fract_x
_atom_site_fract_y
_atom_site_fract_z
Si Si1 0.126068 0.551754 0.918104
Si Si2 0.067800 0.412037 0.085720
Si Si3 0.233265 0.322144 0.084160
Si Si4 0.362450 0.077588 0.415006
Si Si5 0.466929 0.823706 0.580873
Si Si6 0.676566 0.087632 0.917890
O O1 0.138087 0.536081 0.750000
O O2 0.218824 0.588647 0.972574
O O3 0.038133 0.602374 0.953210
O O4 0.111920 0.473277 0.987360
O O5 0.074627 0.440404 0.250000
O O6 0.125771 0.338109 0.066083
O O7 0.260487 0.310733 0.250000
O O8 0.261086 0.250000 0.000000
O O9 0.287834 0.390337 0.022097
O O10 0.332254 0.092702 0.250000
O O11 0.458606 0.114255 0.447973
O O12 0.368599 0.991386 0.444454
O O13 0.497568 0.750000 0.500000
O O14 0.454148 0.807350 0.750000
O O15 0.373072 0.852175 0.514431
O O16 0.668582 0.110110 0.750000
#
# Coordination Sequence:
#
# PCOD8233167 Si02
#       6
#     8   8   8   8   8   8
#     4   9  17  32  56  81 109 142 177 224 273 323
#     4   9  18  32  51  79 110 143 182 222 269 324
#     4  11  22  34  52  79 114 151 188 232 279 334
#     4  10  21  38  59  85 112 144 185 229 282 337
#     4  11  24  40  58  80 111 148 188 232 280 336
#     4  10  20  36  60  87 114 145 183 230 280 332
#
# _framework density 19.169792999999999
#
# number of rings (size 3 to 8) (size 9 to 14) (size 15 to 20)
#    0.000    2.000    1.667    2.000    0.000    4.667 
#    0.000    0.833    0.000    2.000    0.000    0.000 
#    0.000    0.000    0.000    0.000    0.000    0.000 
#
# Total GULP energy -595164.373064 kJ/mol
# GULP energy per Si atom -12399.257772 kJ/mol
# Density = 1.912616 g / cm^3
# Si number density = 19.169793 Si / 1000 Ang^3
#
#
#
# Elastic Constant Matrix: (Units=GPa)
#
#
# Indices 1 2 3 4 5 6 
#
# 1 103.4050 13.8681 36.9193 0.0000 0.0000 0.0000
# 2 13.8681 43.7314 26.1173 0.0000 0.0000 0.0000
# 3 36.9193 26.1173 77.2425 0.0000 0.0000 0.0000
# 4 0.0000 0.0000 0.0000 29.4240 0.0000 0.0000
# 5 0.0000 0.0000 0.0000 0.0000 26.6618 0.0000
# 6 0.0000 0.0000 0.0000 0.0000 0.0000 19.7985
#
#
#
# Elastic Compliance Matrix: (Units=1/GPa)
#
#
# Indices 1 2 3 4 5 6 
#
# 1 0.011668 -0.000463 -0.005420 0.000000 0.000000 0.000000
# 2 -0.000463 0.028671 -0.009473 0.000000 0.000000 0.000000
# 3 -0.005420 -0.009473 0.018740 0.000000 0.000000 0.000000
# 4 0.000000 0.000000 0.000000 0.033986 0.000000 0.000000
# 5 0.000000 0.000000 0.000000 0.000000 0.037507 0.000000
# 6 0.000000 0.000000 0.000000 0.000000 0.000000 0.050509
#
#
# Mechanical properties :
#
#
# Convention : Reuss Voigt Hill
#
# Bulk Modulus (GPa) = 35.25291 42.02093 38.63692
# Shear Modulus (GPa) = 22.59895 25.00848 23.80371
#
# Velocity S-wave (km/s) = 3.43721 3.61581 3.52764
# Velocity P-wave (km/s) = 5.84656 6.27695 6.06558
#
# Compressibility (1/GPa) = 0.02836645
#
# Stress axis : x y z
#
# Youngs Moduli (GPa) = 85.70389 34.87820 53.36172
#
# Poissons Ratio (x) = 0.01615 0.28924
# Poissons Ratio (y) = 0.03968 0.50550
# Poissons Ratio (z) = 0.46455 0.33040
#
# Static dielectric constant tensor:
#      x y z
#    x 3.795620 0.000000 0.000000 
#    y 0.000000 3.220560 0.000000 
#    z 0.000000 0.000000 3.560610 
# 
# 
# High freq. dielectric constant tensor:
#      x y z
#    x 1.759290 0.000000 0.000000 
#    y 0.000000 1.719530 0.000000 
#    z 0.000000 0.000000 1.747710 
# 
# From -- ./inp_files/4626.got.cif
#   From: 2010.03.12/outbox.cif.g09.slc.cpg/sg57_3_cif.got.tgz:4626.got - 2010.04.16 15:48:40.
