data_PCOD8233846
_publ_section_title
;
Structure prediction by ZEFSAII (Michael W. Deem and Ramdas Pophale) SiO2 
 PCOD8233846
Probable space group: P B C M
;
_chemical_formula_sum "Si O2"
_cell_formula_units_Z 40
_cell_length_a 8.989579
_cell_length_b 10.290536
_cell_length_c 20.839561
_cell_angle_alpha 90.000000
_cell_angle_beta 90.000000
_cell_angle_gamma 90.000000
_cell_volume 1927.817488
_symmetry_space_group_name_H-M "P B C M"
_symmetry_group_IT_number 57
_symmetry_cell_setting 'orthorhombic'
loop_
_space_group_symop_operation_xyz
x,y,z
-x,-y,1/2+z
x,1/2-y,-z
-x,1/2+y,1/2-z
-x,-y,-z
x,y,1/2-z
-x,1/2+y,z
x,1/2-y,1/2+z
loop_
_atom_site_type_symbol
_atom_site_label
_atom_site_fract_x
_atom_site_fract_y
_atom_site_fract_z
Si Si1 0.620623 0.826644 0.066843
Si Si2 0.164655 0.234793 0.820569
Si Si3 0.040344 0.999528 0.358886
Si Si4 0.190652 0.925311 0.951241
Si Si5 0.278272 0.663858 0.588117
O O1 0.712033 0.753520 0.123097
O O2 0.453824 0.853200 0.089464
O O3 0.685650 0.965976 0.053770
O O4 0.625346 0.750000 0.000000
O O5 0.240690 0.235113 0.750000
O O6 0.057540 0.361406 0.824189
O O7 0.072507 0.100146 0.824456
O O8 0.202459 0.931152 0.360107
O O9 0.973450 0.025309 0.430638
O O10 0.238535 0.814287 0.899728
O O11 0.195012 0.871313 0.022257
#
# Coordination Sequence:
#
# PCOD8233846 Si02
#       5
#     8   8   8   8   8
#     4  11  23  39  66  94 128 167 206 262 319 381
#     4  11  25  44  66  92 127 167 215 261 317 377
#     4  11  22  42  66  91 126 168 214 263 318 372
#     4  10  21  36  60  97 128 161 209 257 318 376
#     4  11  21  36  64  95 132 160 206 264 320 378
#
# _framework density 20.748853
#
# number of rings (size 3 to 8) (size 9 to 14) (size 15 to 20)
#    0.000    1.200    4.000    3.000    2.800    1.600 
#    0.000    2.000    0.000    0.000    0.000    0.000 
#    0.000    0.000    0.000    0.000    0.000    0.000 
#
# Total GULP energy -495695.189556 kJ/mol
# GULP energy per Si atom -12392.379739 kJ/mol
# Density = 2.070163 g / cm^3
# Si number density = 20.748853 Si / 1000 Ang^3
#
#
#
# Elastic Constant Matrix: (Units=GPa)
#
#
# Indices 1 2 3 4 5 6 
#
# 1 120.1498 24.9274 33.8429 0.0000 0.0000 0.0000
# 2 24.9274 93.2287 -6.5839 0.0000 0.0000 0.0000
# 3 33.8429 -6.5839 81.4408 0.0000 0.0000 0.0000
# 4 0.0000 0.0000 0.0000 6.8302 0.0000 0.0000
# 5 0.0000 0.0000 0.0000 0.0000 10.6778 0.0000
# 6 0.0000 0.0000 0.0000 0.0000 0.0000 24.4778
#
#
#
# Elastic Compliance Matrix: (Units=1/GPa)
#
#
# Indices 1 2 3 4 5 6 
#
# 1 0.010222 -0.003050 -0.004494 0.000000 0.000000 0.000000
# 2 -0.003050 0.011698 0.002213 0.000000 0.000000 0.000000
# 3 -0.004494 0.002213 0.014325 0.000000 0.000000 0.000000
# 4 0.000000 0.000000 0.000000 0.146408 0.000000 0.000000
# 5 0.000000 0.000000 0.000000 0.000000 0.093652 0.000000
# 6 0.000000 0.000000 0.000000 0.000000 0.000000 0.040853
#
#
# Mechanical properties :
#
#
# Convention : Reuss Voigt Hill
#
# Bulk Modulus (GPa) = 39.08907 44.35468 41.72188
# Shear Modulus (GPa) = 14.86550 24.57269 19.71909
#
# Velocity S-wave (km/s) = 2.67956 3.44509 3.08615
# Velocity P-wave (km/s) = 5.33418 6.10313 5.73156
#
# Compressibility (1/GPa) = 0.02558260
#
# Stress axis : x y z
#
# Youngs Moduli (GPa) = 97.83073 85.48284 69.80610
#
# Poissons Ratio (x) = 0.26076 0.31373
# Poissons Ratio (y) = 0.29843 -0.15451
# Poissons Ratio (z) = 0.43968 -0.18920
#
# Static dielectric constant tensor:
#      x y z
#    x 3.648320 0.000000 0.000000 
#    y 0.000000 4.273630 0.000000 
#    z 0.000000 0.000000 3.578640 
# 
# 
# High freq. dielectric constant tensor:
#      x y z
#    x 1.805450 0.000000 0.000000 
#    y 0.000000 1.841640 0.000000 
#    z 0.000000 0.000000 1.778880 
# 
# From -- ./inp_files/24126.got.cif
#   From: 2010.03.12/outbox.cif.g09.slc.cpg/sg57_13_cif.got.tgz:24126.got - 2010.04.16 15:48:40.
