data_PCOD8233383
_publ_section_title
;
Structure prediction by ZEFSAII (Michael W. Deem and Ramdas Pophale) SiO2 
 PCOD8233383
Probable space group: P B C M
;
_chemical_formula_sum "Si O2"
_cell_formula_units_Z 64
_cell_length_a 6.729209
_cell_length_b 19.106736
_cell_length_c 23.310225
_cell_angle_alpha 90.000000
_cell_angle_beta 90.000000
_cell_angle_gamma 90.000000
_cell_volume 2997.070684
_symmetry_space_group_name_H-M "P B C M"
_symmetry_group_IT_number 57
_symmetry_cell_setting 'orthorhombic'
loop_
_space_group_symop_operation_xyz
x,y,z
-x,-y,1/2+z
x,1/2-y,-z
-x,1/2+y,1/2-z
-x,-y,-z
x,y,1/2-z
-x,1/2+y,z
x,1/2-y,1/2+z
loop_
_atom_site_type_symbol
_atom_site_label
_atom_site_fract_x
_atom_site_fract_y
_atom_site_fract_z
Si Si1 0.286028 0.876682 0.534811
Si Si2 0.515535 0.526613 0.389922
Si Si3 0.604728 0.813224 0.466223
Si Si4 0.773892 0.591616 0.624698
Si Si5 0.104833 0.962667 0.052967
Si Si6 0.596166 0.661229 0.317315
Si Si7 0.716858 0.241768 0.113726
Si Si8 0.914357 0.778456 0.184001
O O1 0.326977 0.945582 0.573111
O O2 0.508489 0.853045 0.519651
O O3 0.166655 0.888838 0.475954
O O4 0.181576 0.815068 0.571091
O O5 0.414936 0.457991 0.359668
O O6 0.696910 0.503935 0.429869
O O7 0.602581 0.584329 0.346075
O O8 0.716176 0.750000 0.500000
O O9 0.753383 0.864351 0.434290
O O10 0.433647 0.791028 0.420802
O O11 0.798088 0.647669 0.676050
O O12 0.972865 0.546991 0.610429
O O13 0.000000 0.000000 0.000000
O O14 0.591310 0.648780 0.250000
O O15 0.397028 0.700241 0.336172
O O16 0.782790 0.711010 0.334575
O O17 0.891863 0.284845 0.144007
O O18 0.976470 0.771693 0.250000
#
# Coordination Sequence:
#
# PCOD8233383 Si02
#       8
#     8   8   8   8   8   8   8   8
#     4  10  20  38  60  90 125 166 207 244 305 379
#     4  11  24  41  62  92 130 168 213 259 310 386
#     4  10  20  37  61  91 128 164 202 250 308 379
#     4  12  24  40  62  92 131 170 210 262 315 383
#     4  12  23  36  61  90 127 170 202 249 316 378
#     4  10  23  44  68  90 117 161 214 269 323 371
#     4  10  21  40  65  91 123 159 203 265 315 366
#     4  11  25  42  65  94 121 161 219 273 324 376
#
# _framework density 21.354185999999999
#
# number of rings (size 3 to 8) (size 9 to 14) (size 15 to 20)
#    0.000    1.250    3.750    2.250    1.750    1.500 
#    0.000    0.625    0.000    0.000    0.000    0.000 
#    0.000    0.000    0.000    0.000    0.000    0.000 
#
# Total GULP energy -793076.421285 kJ/mol
# GULP energy per Si atom -12391.819083 kJ/mol
# Density = 2.130558 g / cm^3
# Si number density = 21.354186 Si / 1000 Ang^3
#
#
#
# Elastic Constant Matrix: (Units=GPa)
#
#
# Indices 1 2 3 4 5 6 
#
# 1 58.6431 23.5227 19.3435 0.0000 0.0000 0.0000
# 2 23.5227 87.9632 23.2265 0.0000 0.0000 0.0000
# 3 19.3435 23.2265 69.1887 0.0000 0.0000 0.0000
# 4 0.0000 0.0000 0.0000 33.4179 0.0000 0.0000
# 5 0.0000 0.0000 0.0000 0.0000 30.2447 0.0000
# 6 0.0000 0.0000 0.0000 0.0000 0.0000 25.8168
#
#
#
# Elastic Compliance Matrix: (Units=1/GPa)
#
#
# Indices 1 2 3 4 5 6 
#
# 1 0.020154 -0.004281 -0.004197 0.000000 0.000000 0.000000
# 2 -0.004281 0.013384 -0.003296 0.000000 0.000000 0.000000
# 3 -0.004197 -0.003296 0.016733 0.000000 0.000000 0.000000
# 4 0.000000 0.000000 0.000000 0.029924 0.000000 0.000000
# 5 0.000000 0.000000 0.000000 0.000000 0.033064 0.000000
# 6 0.000000 0.000000 0.000000 0.000000 0.000000 0.038734
#
#
# Mechanical properties :
#
#
# Convention : Reuss Voigt Hill
#
# Bulk Modulus (GPa) = 37.42272 38.66450 38.04361
# Shear Modulus (GPa) = 27.10774 27.87604 27.49189
#
# Velocity S-wave (km/s) = 3.56678 3.61697 3.59196
# Velocity P-wave (km/s) = 5.87583 5.96564 5.92091
#
# Compressibility (1/GPa) = 0.02672174
#
# Stress axis : x y z
#
# Youngs Moduli (GPa) = 49.61778 74.71877 59.76158
#
# Poissons Ratio (x) = 0.31988 0.25084
# Poissons Ratio (y) = 0.21242 0.19697
# Poissons Ratio (z) = 0.20827 0.24627
#
# Static dielectric constant tensor:
#      x y z
#    x 3.887120 0.000000 0.000000 
#    y 0.000000 4.732920 0.000000 
#    z 0.000000 0.000000 3.701860 
# 
# 
# High freq. dielectric constant tensor:
#      x y z
#    x 1.826350 0.000000 0.000000 
#    y 0.000000 1.851370 0.000000 
#    z 0.000000 0.000000 1.821550 
# 
# From -- ./inp_files/28134.got.cif
#   From: 2010.03.12/outbox.cif.g09.slc.cpg/sg57_15_cif.got.tgz:28134.got - 2010.04.16 15:48:40.
