data_PCOD8233859
_publ_section_title
;
Structure prediction by ZEFSAII (Michael W. Deem and Ramdas Pophale) SiO2 
 PCOD8233859
Probable space group: P B C M
;
_chemical_formula_sum "Si O2"
_cell_formula_units_Z 56
_cell_length_a 23.939355
_cell_length_b 8.823262
_cell_length_c 14.492100
_cell_angle_alpha 90.000000
_cell_angle_beta 90.000000
_cell_angle_gamma 90.000000
_cell_volume 3061.067755
_symmetry_space_group_name_H-M "P B C M"
_symmetry_group_IT_number 57
_symmetry_cell_setting 'orthorhombic'
loop_
_space_group_symop_operation_xyz
x,y,z
-x,-y,1/2+z
x,1/2-y,-z
-x,1/2+y,1/2-z
-x,-y,-z
x,y,1/2-z
-x,1/2+y,z
x,1/2-y,1/2+z
loop_
_atom_site_type_symbol
_atom_site_label
_atom_site_fract_x
_atom_site_fract_y
_atom_site_fract_z
Si Si1 0.263618 0.569853 0.000000
Si Si2 0.057832 0.074170 0.642491
Si Si3 0.137519 0.569780 0.500000
Si Si4 0.649100 0.069787 0.853124
Si Si5 0.942168 0.574171 0.142491
Si Si6 0.350900 0.569787 0.146876
Si Si7 0.439624 0.928868 1.000000
O O1 0.296015 0.512048 0.091690
O O2 0.263396 0.750000 0.000000
O O3 0.200779 0.507116 0.000000
O O4 0.296015 0.512048 0.908310
O O5 0.067788 0.047331 0.750000
O O6 0.055980 0.250000 0.615947
O O7 0.108472 0.992924 0.591482
O O8 1.000000 1.000000 0.609593
O O9 0.135106 0.750000 0.500000
O O10 0.108472 0.507076 0.591482
O O11 0.648602 0.999287 0.750000
O O12 0.650274 0.250000 0.847778
O O13 0.593885 0.017227 0.908666
O O14 0.932212 0.547331 0.250000
O O15 0.351398 0.499287 0.250000
O O16 0.406115 0.517227 0.091334
O O17 0.445789 0.750000 0.000000
O O18 0.500000 0.000000 0.000000
#
# Coordination Sequence:
#
# PCOD8233859 Si02
#       7
#     8   8   8   8   8   8   8
#     4   8  16  28  43  68  95 120 156 197 235 278
#     4  10  21  37  55  74  99 132 168 205 246 295
#     4  11  21  32  51  79 106 129 158 202 254 303
#     4   8  14  27  46  66  91 123 157 194 233 272
#     4  10  21  37  55  74  99 132 168 205 246 295
#     4   8  14  27  46  66  91 123 157 194 233 272
#     4   9  17  28  44  69  96 121 153 191 232 277
#
# _framework density 18.294270000000001
#
# number of rings (size 3 to 8) (size 9 to 14) (size 15 to 20)
#    0.000    2.857    0.000    3.429    0.000    3.429 
#    0.000    2.857    0.000    6.857    0.000    0.000 
#    0.000    0.000    0.000    0.000    0.000    0.000 
#
# Total GULP energy -694231.727940 kJ/mol
# GULP energy per Si atom -12396.995142 kJ/mol
# Density = 1.825263 g / cm^3
# Si number density = 18.294270 Si / 1000 Ang^3
#
#
#
# Elastic Constant Matrix: (Units=GPa)
#
#
# Indices 1 2 3 4 5 6 
#
# 1 194.6337 42.6609 90.9660 0.0000 0.0000 0.0000
# 2 42.6609 52.5969 28.4811 0.0000 0.0000 0.0000
# 3 90.9660 28.4811 156.5954 0.0000 0.0000 0.0000
# 4 0.0000 0.0000 0.0000 19.7044 0.0000 0.0000
# 5 0.0000 0.0000 0.0000 0.0000 15.5383 0.0000
# 6 0.0000 0.0000 0.0000 0.0000 0.0000 25.8349
#
#
#
# Elastic Compliance Matrix: (Units=1/GPa)
#
#
# Indices 1 2 3 4 5 6 
#
# 1 0.007849 -0.004323 -0.003773 0.000000 0.000000 0.000000
# 2 -0.004323 0.023471 -0.001758 0.000000 0.000000 0.000000
# 3 -0.003773 -0.001758 0.008897 0.000000 0.000000 0.000000
# 4 0.000000 0.000000 0.000000 0.050750 0.000000 0.000000
# 5 0.000000 0.000000 0.000000 0.000000 0.064357 0.000000
# 6 0.000000 0.000000 0.000000 0.000000 0.000000 0.038707
#
#
# Mechanical properties :
#
#
# Convention : Reuss Voigt Hill
#
# Bulk Modulus (GPa) = 48.75801 80.89353 64.82577
# Shear Modulus (GPa) = 22.66802 28.33005 25.49904
#
# Velocity S-wave (km/s) = 3.52387 3.93946 3.73745
# Velocity P-wave (km/s) = 6.57775 8.06266 7.35776
#
# Compressibility (1/GPa) = 0.02050945
#
# Stress axis : x y z
#
# Youngs Moduli (GPa) = 127.40737 42.60655 112.39319
#
# Poissons Ratio (x) = 0.18419 0.42407
# Poissons Ratio (y) = 0.55078 0.19754
# Poissons Ratio (z) = 0.48072 0.07488
#
# Static dielectric constant tensor:
#      x y z
#    x 3.643670 0.000000 0.000000 
#    y 0.000000 2.996530 0.000000 
#    z 0.000000 0.000000 3.688650 
# 
# 
# High freq. dielectric constant tensor:
#      x y z
#    x 1.711630 0.000000 0.000000 
#    y 0.000000 1.670580 0.000000 
#    z 0.000000 0.000000 1.721460 
# 
# From -- ./inp_files/19340.got.cif
#   From: 2010.03.12/outbox.cif.g09.slc.cpg/sg57_10_cif.got.tgz:19340.got - 2010.04.16 15:48:40.
