data_PCOD8233640
_publ_section_title
;
Structure prediction by ZEFSAII (Michael W. Deem and Ramdas Pophale) SiO2 
 PCOD8233640
Probable space group: P B C M
;
_chemical_formula_sum "Si O2"
_cell_formula_units_Z 64
_cell_length_a 11.661935
_cell_length_b 14.439040
_cell_length_c 17.420831
_cell_angle_alpha 90.000000
_cell_angle_beta 90.000000
_cell_angle_gamma 90.000000
_cell_volume 2933.444012
_symmetry_space_group_name_H-M "P B C M"
_symmetry_group_IT_number 57
_symmetry_cell_setting 'orthorhombic'
loop_
_space_group_symop_operation_xyz
x,y,z
-x,-y,1/2+z
x,1/2-y,-z
-x,1/2+y,1/2-z
-x,-y,-z
x,y,1/2-z
-x,1/2+y,z
x,1/2-y,1/2+z
loop_
_atom_site_type_symbol
_atom_site_label
_atom_site_fract_x
_atom_site_fract_y
_atom_site_fract_z
Si Si1 0.354884 0.036495 0.163042
Si Si2 0.040949 0.935699 0.433291
Si Si3 0.414355 0.558652 0.095872
Si Si4 0.709985 0.379946 0.058164
Si Si5 0.632176 0.644027 0.661227
Si Si6 0.396179 0.752834 0.836511
Si Si7 0.109466 0.398056 0.834956
Si Si8 0.856546 0.778822 0.415793
O O1 0.405995 0.029638 0.250000
O O2 0.447503 0.067557 0.099579
O O3 0.248066 0.105842 0.161583
O O4 0.313256 0.935929 0.136849
O O5 0.156095 0.884901 0.462773
O O6 0.943371 0.863814 0.412010
O O7 0.062205 0.003200 0.361738
O O8 0.000000 0.000000 0.500000
O O9 0.378554 0.454346 0.117625
O O10 0.379367 0.636279 0.158199
O O11 0.368609 0.583458 0.011341
O O12 0.680355 0.278214 0.089788
O O13 0.647640 0.621006 0.750000
O O14 0.524239 0.712537 0.648222
O O15 0.744751 0.696386 0.632475
O O16 0.356539 0.724651 0.750000
O O17 0.062051 0.384306 0.750000
O O18 0.071348 0.308936 0.883507
O O19 0.815808 0.750000 0.500000
#
# Coordination Sequence:
#
# PCOD8233640 Si02
#       8
#     8   8   8   8   8   8   8   8
#     4  10  20  39  66  95 136 178 215 267 336 403
#     4  11  24  48  71  96 133 180 229 288 346 394
#     4  12  23  39  67 101 137 181 226 279 332 402
#     4  11  24  41  67  97 132 174 231 276 328 408
#     4  11  25  44  68 100 142 179 223 282 341 407
#     4  11  24  43  65  97 142 183 220 270 345 413
#     4  10  23  43  71 104 134 177 232 280 337 413
#     4  12  25  43  73 100 136 180 230 286 342 401
#
# _framework density 21.817359
#
# number of rings (size 3 to 8) (size 9 to 14) (size 15 to 20)
#    0.000    1.000    2.500    4.125    1.750    5.500 
#    2.250    0.000    0.000    0.000    0.000    0.000 
#    0.000    0.000    0.000    0.000    0.000    0.000 
#
# Total GULP energy -793126.699709 kJ/mol
# GULP energy per Si atom -12392.604683 kJ/mol
# Density = 2.176770 g / cm^3
# Si number density = 21.817359 Si / 1000 Ang^3
#
#
#
# Elastic Constant Matrix: (Units=GPa)
#
#
# Indices 1 2 3 4 5 6 
#
# 1 87.6867 15.1786 24.2375 0.0000 0.0000 0.0000
# 2 15.1786 110.0416 23.3501 0.0000 0.0000 0.0000
# 3 24.2375 23.3501 101.6094 0.0000 0.0000 0.0000
# 4 0.0000 0.0000 0.0000 33.4499 0.0000 0.0000
# 5 0.0000 0.0000 0.0000 0.0000 25.3215 0.0000
# 6 0.0000 0.0000 0.0000 0.0000 0.0000 23.0507
#
#
#
# Elastic Compliance Matrix: (Units=1/GPa)
#
#
# Indices 1 2 3 4 5 6 
#
# 1 0.012342 -0.001133 -0.002684 0.000000 0.000000 0.000000
# 2 -0.001133 0.009657 -0.001949 0.000000 0.000000 0.000000
# 3 -0.002684 -0.001949 0.010930 0.000000 0.000000 0.000000
# 4 0.000000 0.000000 0.000000 0.029895 0.000000 0.000000
# 5 0.000000 0.000000 0.000000 0.000000 0.039492 0.000000
# 6 0.000000 0.000000 0.000000 0.000000 0.000000 0.043383
#
#
# Mechanical properties :
#
#
# Convention : Reuss Voigt Hill
#
# Bulk Modulus (GPa) = 46.73384 47.20781 46.97082
# Shear Modulus (GPa) = 30.42041 32.13584 31.27812
#
# Velocity S-wave (km/s) = 3.73811 3.84206 3.79044
# Velocity P-wave (km/s) = 6.33232 6.43169 6.38220
#
# Compressibility (1/GPa) = 0.02139777
#
# Stress axis : x y z
#
# Youngs Moduli (GPa) = 81.02316 103.54838 91.49411
#
# Poissons Ratio (x) = 0.11732 0.24554
# Poissons Ratio (y) = 0.09180 0.17832
# Poissons Ratio (z) = 0.21744 0.20182
#
# Static dielectric constant tensor:
#      x y z
#    x 3.814770 0.000000 0.000000 
#    y 0.000000 4.831500 0.000000 
#    z 0.000000 0.000000 4.147160 
# 
# 
# High freq. dielectric constant tensor:
#      x y z
#    x 1.839240 0.000000 0.000000 
#    y 0.000000 1.875870 0.000000 
#    z 0.000000 0.000000 1.865960 
# 
# From -- ./inp_files/22008.got.cif
#   From: 2010.03.12/outbox.cif.g09.slc.cpg/sg57_12_cif.got.tgz:22008.got - 2010.04.16 15:48:40.
