data_PCOD8233996
_publ_section_title
;
Structure prediction by ZEFSAII (Michael W. Deem and Ramdas Pophale) SiO2 
 PCOD8233996
Probable space group: P B C M
;
_chemical_formula_sum "Si O2"
_cell_formula_units_Z 64
_cell_length_a 13.237499
_cell_length_b 13.959849
_cell_length_c 17.105078
_cell_angle_alpha 90.000000
_cell_angle_beta 90.000000
_cell_angle_gamma 90.000000
_cell_volume 3160.907012
_symmetry_space_group_name_H-M "P B C M"
_symmetry_group_IT_number 57
_symmetry_cell_setting 'orthorhombic'
loop_
_space_group_symop_operation_xyz
x,y,z
-x,-y,1/2+z
x,1/2-y,-z
-x,1/2+y,1/2-z
-x,-y,-z
x,y,1/2-z
-x,1/2+y,z
x,1/2-y,1/2+z
loop_
_atom_site_type_symbol
_atom_site_label
_atom_site_fract_x
_atom_site_fract_y
_atom_site_fract_z
Si Si1 0.063102 0.007664 0.077853
Si Si2 0.415490 0.064578 0.042042
Si Si3 0.750675 0.348373 0.841099
Si Si4 0.600871 0.091563 0.835384
Si Si5 0.129056 0.031747 0.840781
Si Si6 0.206005 0.363378 0.011723
Si Si7 0.558966 0.274241 0.917281
Si Si8 0.827827 0.156042 0.662970
O O1 0.123326 0.910330 0.097130
O O2 0.141065 0.094836 0.062370
O O3 0.982000 0.017211 0.148401
O O4 0.000000 0.000000 0.000000
O O5 0.456170 0.167624 0.069299
O O6 0.387154 0.007527 0.119754
O O7 0.316158 0.085590 0.989827
O O8 0.500000 0.000000 0.000000
O O9 0.740953 0.335375 0.750000
O O10 0.790188 0.451849 0.864420
O O11 0.638049 0.341347 0.873706
O O12 0.830453 0.265857 0.868842
O O13 0.555224 0.069162 0.750000
O O14 0.530684 0.173235 0.875621
O O15 0.710085 0.137004 0.828475
O O16 0.140054 0.066029 0.750000
O O17 0.151752 0.116403 0.903750
O O18 0.214424 0.250000 0.000000
O O19 0.610522 0.250000 0.000000
O O20 0.878361 0.143512 0.750000
#
# Coordination Sequence:
#
# PCOD8233996 Si02
#       8
#     8   8   8   8   8   8   8   8
#     4  10  21  37  61  90 123 164 206 259 311 377
#     4  12  23  40  65  91 124 175 220 259 318 384
#     4   9  20  37  61  91 123 154 198 263 324 376
#     4  10  22  39  61  89 121 157 208 264 313 371
#     4  10  22  41  65  95 127 166 214 266 323 383
#     4  11  25  44  63  91 137 177 219 265 322 395
#     4  11  21  35  61  91 121 161 205 259 314 374
#     4   9  17  35  59  85 118 156 197 256 314 368
#
# _framework density 20.247351999999999
#
# number of rings (size 3 to 8) (size 9 to 14) (size 15 to 20)
#    0.000    1.750    2.500    2.625    0.000    4.000 
#    0.000    3.750    0.000    0.000    0.000    0.000 
#    0.000    0.000    0.000    0.000    0.000    0.000 
#
# Total GULP energy -792959.064221 kJ/mol
# GULP energy per Si atom -12389.985378 kJ/mol
# Density = 2.020127 g / cm^3
# Si number density = 20.247352 Si / 1000 Ang^3
#
#
#
# Elastic Constant Matrix: (Units=GPa)
#
#
# Indices 1 2 3 4 5 6 
#
# 1 79.2231 34.7314 15.2379 0.0000 0.0000 0.0000
# 2 34.7314 94.0895 59.5620 0.0000 0.0000 0.0000
# 3 15.2379 59.5620 76.1549 0.0000 0.0000 0.0000
# 4 0.0000 0.0000 0.0000 30.9692 0.0000 0.0000
# 5 0.0000 0.0000 0.0000 0.0000 19.7270 0.0000
# 6 0.0000 0.0000 0.0000 0.0000 0.0000 30.9077
#
#
#
# Elastic Compliance Matrix: (Units=1/GPa)
#
#
# Indices 1 2 3 4 5 6 
#
# 1 0.015333 -0.007363 0.002691 0.000000 0.000000 0.000000
# 2 -0.007363 0.024587 -0.017756 0.000000 0.000000 0.000000
# 3 0.002691 -0.017756 0.026480 0.000000 0.000000 0.000000
# 4 0.000000 0.000000 0.000000 0.032290 0.000000 0.000000
# 5 0.000000 0.000000 0.000000 0.000000 0.050692 0.000000
# 6 0.000000 0.000000 0.000000 0.000000 0.000000 0.032354
#
#
# Mechanical properties :
#
#
# Convention : Reuss Voigt Hill
#
# Bulk Modulus (GPa) = 46.41970 52.05890 49.23930
# Shear Modulus (GPa) = 21.38814 25.64984 23.51899
#
# Velocity S-wave (km/s) = 3.25367 3.56311 3.41190
# Velocity P-wave (km/s) = 6.09026 6.53414 6.31610
#
# Compressibility (1/GPa) = 0.02154258
#
# Stress axis : x y z
#
# Youngs Moduli (GPa) = 65.21826 40.67260 37.76425
#
# Poissons Ratio (x) = 0.29949 -0.10163
# Poissons Ratio (y) = 0.48023 0.67055
# Poissons Ratio (z) = -0.17551 0.72219
#
# Static dielectric constant tensor:
#      x y z
#    x 3.764250 0.000000 0.000000 
#    y 0.000000 3.799380 0.000000 
#    z 0.000000 0.000000 3.994180 
# 
# 
# High freq. dielectric constant tensor:
#      x y z
#    x 1.781160 0.000000 0.000000 
#    y 0.000000 1.789470 0.000000 
#    z 0.000000 0.000000 1.791700 
# 
# From -- ./inp_files/22013.got.cif
#   From: 2010.03.12/outbox.cif.g09.slc.cpg/sg57_12_cif.got.tgz:22013.got - 2010.04.16 15:48:40.
