data_PCOD8233323
_publ_section_title
;
Structure prediction by ZEFSAII (Michael W. Deem and Ramdas Pophale) SiO2 
 PCOD8233323
Probable space group: P B C M
;
_chemical_formula_sum "Si O2"
_cell_formula_units_Z 40
_cell_length_a 25.036556
_cell_length_b 9.209873
_cell_length_c 8.856045
_cell_angle_alpha 90.000000
_cell_angle_beta 90.000000
_cell_angle_gamma 90.000000
_cell_volume 2042.057862
_symmetry_space_group_name_H-M "P B C M"
_symmetry_group_IT_number 57
_symmetry_cell_setting 'orthorhombic'
loop_
_space_group_symop_operation_xyz
x,y,z
-x,-y,1/2+z
x,1/2-y,-z
-x,1/2+y,1/2-z
-x,-y,-z
x,y,1/2-z
-x,1/2+y,z
x,1/2-y,1/2+z
loop_
_atom_site_type_symbol
_atom_site_label
_atom_site_fract_x
_atom_site_fract_y
_atom_site_fract_z
Si Si1 0.453791 0.906715 0.074123
Si Si2 0.649665 0.597140 0.426045
Si Si3 0.953716 0.906015 0.071758
Si Si4 0.735909 0.097972 0.071140
Si Si5 0.857119 0.103097 0.074431
O O1 0.466380 0.888704 0.250000
O O2 0.398154 0.986214 0.044599
O O3 0.450872 0.750000 0.000000
O O4 0.500000 0.000000 0.000000
O O5 0.634287 0.750000 0.500000
O O6 0.660869 0.620344 0.250000
O O7 0.702371 0.534453 0.504469
O O8 0.962350 0.897080 0.250000
O O9 0.896147 0.972684 0.028730
O O10 0.956201 0.750000 0.000000
O O11 0.000000 0.000000 0.000000
O O12 0.728108 0.106199 0.250000
O O13 0.796965 0.065994 0.022408
O O14 0.716379 0.250000 0.000000
O O15 0.858459 0.133407 0.250000
O O16 0.878595 0.250000 0.000000
#
# Coordination Sequence:
#
# PCOD8233323 Si02
#       5
#     8   8   8   8   8
#     4  11  24  41  63  89 119 153 192 236 286 340
#     4  11  24  40  59  86 118 154 193 238 287 338
#     4  11  23  39  58  83 114 149 189 234 284 339
#     4  10  20  37  60  86 116 152 192 235 283 338
#     4   9  20  37  58  84 114 148 188 233 283 337
#
# _framework density 19.588083000000001
#
# number of rings (size 3 to 8) (size 9 to 14) (size 15 to 20)
#    0.000    1.600    0.000    4.200    0.000   11.200 
#    0.000    2.000    0.000    0.000    0.000    0.000 
#    0.000    0.000    0.000    0.000    0.000    0.000 
#
# Total GULP energy -496203.095589 kJ/mol
# GULP energy per Si atom -12405.077390 kJ/mol
# Density = 1.954350 g / cm^3
# Si number density = 19.588083 Si / 1000 Ang^3
#
#
#
# Elastic Constant Matrix: (Units=GPa)
#
#
# Indices 1 2 3 4 5 6 
#
# 1 107.4406 72.2358 67.3281 0.0000 0.0000 0.0000
# 2 72.2358 170.8199 81.4317 0.0000 0.0000 0.0000
# 3 67.3281 81.4317 113.5500 0.0000 0.0000 0.0000
# 4 0.0000 0.0000 0.0000 42.6446 0.0000 0.0000
# 5 0.0000 0.0000 0.0000 0.0000 31.1152 0.0000
# 6 0.0000 0.0000 0.0000 0.0000 0.0000 12.6087
#
#
#
# Elastic Compliance Matrix: (Units=1/GPa)
#
#
# Indices 1 2 3 4 5 6 
#
# 1 0.016021 -0.003413 -0.007052 0.000000 0.000000 0.000000
# 2 -0.003413 0.009622 -0.004877 0.000000 0.000000 0.000000
# 3 -0.007052 -0.004877 0.016485 0.000000 0.000000 0.000000
# 4 0.000000 0.000000 0.000000 0.023450 0.000000 0.000000
# 5 0.000000 0.000000 0.000000 0.000000 0.032139 0.000000
# 6 0.000000 0.000000 0.000000 0.000000 0.000000 0.079310
#
#
# Mechanical properties :
#
#
# Convention : Reuss Voigt Hill
#
# Bulk Modulus (GPa) = 87.37241 92.64462 90.00851
# Shear Modulus (GPa) = 23.63770 28.66135 26.14952
#
# Velocity S-wave (km/s) = 3.47758 3.82933 3.65769
# Velocity P-wave (km/s) = 7.79913 8.18235 7.99304
#
# Compressibility (1/GPa) = 0.01144526
#
# Stress axis : x y z
#
# Youngs Moduli (GPa) = 62.41617 103.92485 60.66037
#
# Poissons Ratio (x) = 0.35474 0.42777
# Poissons Ratio (y) = 0.21305 0.29582
# Poissons Ratio (z) = 0.44015 0.50680
#
# Static dielectric constant tensor:
#      x y z
#    x 3.987380 0.000000 0.000000 
#    y 0.000000 3.040050 0.000000 
#    z 0.000000 0.000000 3.668370 
# 
# 
# High freq. dielectric constant tensor:
#      x y z
#    x 1.776340 0.000000 0.000000 
#    y 0.000000 1.770380 0.000000 
#    z 0.000000 0.000000 1.776770 
# 
# From -- ./inp_files/8861.got.cif
#   From: 2010.03.12/outbox.cif.g09.slc.cpg/sg57_5_cif.got.tgz:8861.got - 2010.04.16 15:48:40.
