data_PCOD8233055
_publ_section_title
;
Structure prediction by ZEFSAII (Michael W. Deem and Ramdas Pophale) SiO2 
 PCOD8233055
Probable space group: P B C M
;
_chemical_formula_sum "Si O2"
_cell_formula_units_Z 48
_cell_length_a 30.654874
_cell_length_b 9.384568
_cell_length_c 8.620125
_cell_angle_alpha 90.000000
_cell_angle_beta 90.000000
_cell_angle_gamma 90.000000
_cell_volume 2479.861262
_symmetry_space_group_name_H-M "P B C M"
_symmetry_group_IT_number 57
_symmetry_cell_setting 'orthorhombic'
loop_
_space_group_symop_operation_xyz
x,y,z
-x,-y,1/2+z
x,1/2-y,-z
-x,1/2+y,1/2-z
-x,-y,-z
x,y,1/2-z
-x,1/2+y,z
x,1/2-y,1/2+z
loop_
_atom_site_type_symbol
_atom_site_label
_atom_site_fract_x
_atom_site_fract_y
_atom_site_fract_z
Si Si1 0.201806 0.902690 0.433332
Si Si2 0.378242 0.406092 0.567179
Si Si3 0.961195 0.592403 0.065968
Si Si4 0.300861 0.901541 0.431949
Si Si5 0.871831 0.905394 0.066803
Si Si6 0.460661 0.908707 0.433628
O O1 0.189552 0.750000 0.500000
O O2 0.193704 0.907464 0.250000
O O3 0.251490 0.942463 0.477820
O O4 0.171250 0.011276 0.521695
O O5 0.385335 0.250000 0.500000
O O6 0.377615 0.390062 0.750000
O O7 0.332904 0.474758 0.505321
O O8 0.416687 0.511323 0.513597
O O9 0.962888 0.594967 0.250000
O O10 0.966084 0.750000 0.000000
O O11 0.915235 0.525012 0.008958
O O12 0.000000 0.500000 0.000000
O O13 0.314946 0.750000 0.500000
O O14 0.305910 0.885528 0.250000
O O15 0.877918 0.900265 0.250000
O O16 0.865250 0.750000 0.000000
O O17 0.461025 0.750000 0.500000
O O18 0.464910 0.899618 0.250000
O O19 0.500000 0.000000 0.500000
#
# Coordination Sequence:
#
# PCOD8233055 Si02
#       6
#     8   8   8   8   8   8
#     4  10  20  36  57  83 113 146 185 231 278 331
#     4  10  22  38  56  82 113 147 186 231 278 332
#     4  11  22  39  60  85 114 147 186 230 279 332
#     4   9  19  36  57  81 110 143 183 227 276 329
#     4  11  22  38  58  82 112 148 186 228 278 332
#     4  11  23  39  60  85 115 149 189 233 283 336
#
# _framework density 19.355920999999999
#
# number of rings (size 3 to 8) (size 9 to 14) (size 15 to 20)
#    0.000    1.667    0.000    6.000    0.000    5.333 
#    0.000    5.000    0.000    0.000    0.000    0.000 
#    0.000    0.000    0.000    0.000    0.000    0.000 
#
# Total GULP energy -595272.128052 kJ/mol
# GULP energy per Si atom -12401.502668 kJ/mol
# Density = 1.931187 g / cm^3
# Si number density = 19.355921 Si / 1000 Ang^3
#
#
#
# Elastic Constant Matrix: (Units=GPa)
#
#
# Indices 1 2 3 4 5 6 
#
# 1 151.2585 92.1189 55.5264 0.0000 0.0000 0.0000
# 2 92.1189 135.7522 50.7577 0.0000 0.0000 0.0000
# 3 55.5264 50.7577 110.1488 0.0000 0.0000 0.0000
# 4 0.0000 0.0000 0.0000 38.2597 0.0000 0.0000
# 5 0.0000 0.0000 0.0000 0.0000 30.0830 0.0000
# 6 0.0000 0.0000 0.0000 0.0000 0.0000 43.9409
#
#
#
# Elastic Compliance Matrix: (Units=1/GPa)
#
#
# Indices 1 2 3 4 5 6 
#
# 1 0.011923 -0.007060 -0.002757 0.000000 0.000000 0.000000
# 2 -0.007060 0.013080 -0.002469 0.000000 0.000000 0.000000
# 3 -0.002757 -0.002469 0.011606 0.000000 0.000000 0.000000
# 4 0.000000 0.000000 0.000000 0.026137 0.000000 0.000000
# 5 0.000000 0.000000 0.000000 0.000000 0.033241 0.000000
# 6 0.000000 0.000000 0.000000 0.000000 0.000000 0.022758
#
#
# Mechanical properties :
#
#
# Convention : Reuss Voigt Hill
#
# Bulk Modulus (GPa) = 83.07030 88.21841 85.64436
# Shear Modulus (GPa) = 33.93773 35.70715 34.82244
#
# Velocity S-wave (km/s) = 4.19185 4.29973 4.24613
# Velocity P-wave (km/s) = 8.15102 8.38607 8.26938
#
# Compressibility (1/GPa) = 0.01203800
#
# Stress axis : x y z
#
# Youngs Moduli (GPa) = 83.87280 76.45293 86.16196
#
# Poissons Ratio (x) = 0.53974 0.23756
# Poissons Ratio (y) = 0.59212 0.21270
# Poissons Ratio (z) = 0.23125 0.18873
#
# Static dielectric constant tensor:
#      x y z
#    x 4.115010 0.000000 0.000000 
#    y 0.000000 3.510630 0.000000 
#    z 0.000000 0.000000 3.592550 
# 
# 
# High freq. dielectric constant tensor:
#      x y z
#    x 1.772230 0.000000 0.000000 
#    y 0.000000 1.753380 0.000000 
#    z 0.000000 0.000000 1.763570 
# 
# From -- ./inp_files/10060.got.cif
#   From: 2010.03.12/outbox.cif.g09.slc.cpg/sg57_6_cif.got.tgz:10060.got - 2010.04.16 15:48:40.
