data_PCOD8233645
_publ_section_title
;
Structure prediction by ZEFSAII (Michael W. Deem and Ramdas Pophale) SiO2 
 PCOD8233645
Probable space group: P B C M
;
_chemical_formula_sum "Si O2"
_cell_formula_units_Z 40
_cell_length_a 23.192074
_cell_length_b 9.320529
_cell_length_c 8.888662
_cell_angle_alpha 90.000000
_cell_angle_beta 90.000000
_cell_angle_gamma 90.000000
_cell_volume 1921.394495
_symmetry_space_group_name_H-M "P B C M"
_symmetry_group_IT_number 57
_symmetry_cell_setting 'orthorhombic'
loop_
_space_group_symop_operation_xyz
x,y,z
-x,-y,1/2+z
x,1/2-y,-z
-x,1/2+y,1/2-z
-x,-y,-z
x,y,1/2-z
-x,1/2+y,z
x,1/2-y,1/2+z
loop_
_atom_site_type_symbol
_atom_site_label
_atom_site_fract_x
_atom_site_fract_y
_atom_site_fract_z
Si Si1 0.233351 0.387746 0.582954
Si Si2 0.134063 0.909081 0.027285
Si Si3 0.927968 0.011180 0.250000
Si Si4 0.448655 0.907480 0.068098
Si Si5 0.961273 0.332631 0.250000
Si Si6 0.649061 0.595370 0.930870
O O1 0.205923 0.250000 0.500000
O O2 0.256673 0.346262 0.750000
O O3 0.184691 0.507240 0.610181
O O4 0.285594 0.443407 0.478624
O O5 0.072905 0.895287 0.109524
O O6 0.159000 0.750000 0.000000
O O7 0.117338 0.001371 0.883743
O O8 0.962780 0.160694 0.250000
O O9 0.972625 0.880899 0.250000
O O10 0.450862 0.904440 0.250000
O O11 0.454599 0.750000 0.000000
O O12 0.500000 0.000000 0.000000
O O13 0.389378 0.974474 0.008739
O O14 0.641649 0.594082 0.750000
O O15 0.631915 0.750000 0.000000
#
# Coordination Sequence:
#
# PCOD8233645 Si02
#       6
#     8   8   4   8   4   8
#     4  11  23  40  62  90 123 159 207 257 310 370
#     4  10  22  39  59  84 118 156 198 247 308 368
#     4  10  22  34  62  80 120 146 199 238 311 364
#     4  12  25  44  68  99 136 176 222 268 320 375
#     4  10  20  40  54  88 110 156 189 252 297 374
#     4  11  23  42  66  95 130 169 214 263 320 376
#
# _framework density 20.818214999999999
#
# number of rings (size 3 to 8) (size 9 to 14) (size 15 to 20)
#    0.000    1.200    1.000    6.600    2.800    2.400 
#    0.000    2.000    0.000    0.000    0.000    0.000 
#    0.000    0.000    0.000    0.000    0.000    0.000 
#
# Total GULP energy -495811.259042 kJ/mol
# GULP energy per Si atom -12395.281476 kJ/mol
# Density = 2.077083 g / cm^3
# Si number density = 20.818215 Si / 1000 Ang^3
#
#
#
# Elastic Constant Matrix: (Units=GPa)
#
#
# Indices 1 2 3 4 5 6 
#
# 1 82.6342 54.7595 28.9532 0.0000 0.0000 0.0000
# 2 54.7595 107.7654 38.3924 0.0000 0.0000 0.0000
# 3 28.9532 38.3924 176.8655 0.0000 0.0000 0.0000
# 4 0.0000 0.0000 0.0000 32.6103 0.0000 0.0000
# 5 0.0000 0.0000 0.0000 0.0000 23.6649 0.0000
# 6 0.0000 0.0000 0.0000 0.0000 0.0000 42.9563
#
#
#
# Elastic Compliance Matrix: (Units=1/GPa)
#
#
# Indices 1 2 3 4 5 6 
#
# 1 0.018429 -0.008984 -0.001067 0.000000 0.000000 0.000000
# 2 -0.008984 0.014437 -0.001663 0.000000 0.000000 0.000000
# 3 -0.001067 -0.001663 0.006190 0.000000 0.000000 0.000000
# 4 0.000000 0.000000 0.000000 0.030665 0.000000 0.000000
# 5 0.000000 0.000000 0.000000 0.000000 0.042257 0.000000
# 6 0.000000 0.000000 0.000000 0.000000 0.000000 0.023279
#
#
# Mechanical properties :
#
#
# Convention : Reuss Voigt Hill
#
# Bulk Modulus (GPa) = 63.98972 67.94170 65.96571
# Shear Modulus (GPa) = 30.50737 36.19030 33.34884
#
# Velocity S-wave (km/s) = 3.83223 4.17393 4.00672
# Velocity P-wave (km/s) = 7.09827 7.47900 7.29112
#
# Compressibility (1/GPa) = 0.01562751
#
# Stress axis : x y z
#
# Youngs Moduli (GPa) = 54.26224 69.26524 161.56044
#
# Poissons Ratio (x) = 0.62231 0.17232
# Poissons Ratio (y) = 0.48752 0.26870
# Poissons Ratio (z) = 0.05788 0.11520
#
# Static dielectric constant tensor:
#      x y z
#    x 3.608560 0.000000 0.000000 
#    y 0.000000 3.836790 0.000000 
#    z 0.000000 0.000000 4.442650 
# 
# 
# High freq. dielectric constant tensor:
#      x y z
#    x 1.812720 0.000000 0.000000 
#    y 0.000000 1.810360 0.000000 
#    z 0.000000 0.000000 1.841860 
# 
# From -- ./inp_files/8972.got.cif
#   From: 2010.03.12/outbox.cif.g09.slc.cpg/sg57_5_cif.got.tgz:8972.got - 2010.04.16 15:48:40.
