data_PCOD8233730
_publ_section_title
;
Structure prediction by ZEFSAII (Michael W. Deem and Ramdas Pophale) SiO2 
 PCOD8233730
Probable space group: P B C M
;
_chemical_formula_sum "Si O2"
_cell_formula_units_Z 60
_cell_length_a 12.217805
_cell_length_b 8.248722
_cell_length_c 28.990321
_cell_angle_alpha 90.000000
_cell_angle_beta 90.000000
_cell_angle_gamma 90.000000
_cell_volume 2921.681568
_symmetry_space_group_name_H-M "P B C M"
_symmetry_group_IT_number 57
_symmetry_cell_setting 'orthorhombic'
loop_
_space_group_symop_operation_xyz
x,y,z
-x,-y,1/2+z
x,1/2-y,-z
-x,1/2+y,1/2-z
-x,-y,-z
x,y,1/2-z
-x,1/2+y,z
x,1/2-y,1/2+z
loop_
_atom_site_type_symbol
_atom_site_label
_atom_site_fract_x
_atom_site_fract_y
_atom_site_fract_z
Si Si1 0.584114 0.850898 0.042089
Si Si2 0.551237 0.569694 0.102904
Si Si3 0.849909 0.245499 0.697253
Si Si4 0.045435 0.750000 0.500000
Si Si5 0.339576 0.753585 0.126977
Si Si6 0.049492 0.049257 0.156943
Si Si7 0.077857 0.326873 0.406153
Si Si8 0.224367 0.566419 0.051101
O O1 0.617121 0.725963 0.083702
O O2 0.487979 0.967362 0.058580
O O3 0.687021 0.956320 0.024812
O O4 0.535042 0.750000 0.000000
O O5 0.445283 0.635002 0.131480
O O6 0.626943 0.444454 0.131585
O O7 0.822409 0.283591 0.750000
O O8 0.741975 0.288637 0.668260
O O9 0.949030 0.363842 0.682447
O O10 0.877558 0.052214 0.693245
O O11 0.128576 0.606428 0.485344
O O12 0.967362 0.715832 0.543086
O O13 0.279466 0.719784 0.077336
O O14 0.117364 0.174967 0.124993
O O15 0.020386 0.909117 0.120853
O O16 0.176417 0.453247 0.408504
#
# Coordination Sequence:
#
# PCOD8233730 Si02
#       8
#     8   8   8   4   8   8   8   8
#     4  10  21  34  56  83 110 152 209 257 297 343
#     4   9  21  40  61  82 119 156 201 260 308 366
#     4  11  22  41  67  95 122 154 198 252 310 380
#     4  12  24  36  54  82 130 170 222 254 282 344
#     4  10  21  43  62  88 118 161 199 251 322 364
#     4  10  22  39  62  87 126 161 203 246 303 360
#     4  11  21  39  54  81 122 173 205 247 289 353
#     4  11  23  35  54  84 116 164 209 244 299 350
#
# _framework density 20.536118999999999
#
# number of rings (size 3 to 8) (size 9 to 14) (size 15 to 20)
#    0.000    1.600    2.667    2.000    4.667    0.000 
#    2.400    0.667    0.000    0.000    0.000    0.000 
#    0.000    0.000    0.000    0.000    0.000    0.000 
#
# Total GULP energy -743410.381287 kJ/mol
# GULP energy per Si atom -12390.173021 kJ/mol
# Density = 2.048938 g / cm^3
# Si number density = 20.536119 Si / 1000 Ang^3
#
#
#
# Elastic Constant Matrix: (Units=GPa)
#
#
# Indices 1 2 3 4 5 6 
#
# 1 60.1498 24.1223 23.6744 0.0000 0.0000 0.0000
# 2 24.1223 99.7735 26.1028 0.0000 0.0000 0.0000
# 3 23.6744 26.1028 90.0231 0.0000 0.0000 0.0000
# 4 0.0000 0.0000 0.0000 26.0440 0.0000 0.0000
# 5 0.0000 0.0000 0.0000 0.0000 14.6442 0.0000
# 6 0.0000 0.0000 0.0000 0.0000 0.0000 36.3776
#
#
#
# Elastic Compliance Matrix: (Units=1/GPa)
#
#
# Indices 1 2 3 4 5 6 
#
# 1 0.019726 -0.003692 -0.004117 0.000000 0.000000 0.000000
# 2 -0.003692 0.011536 -0.002374 0.000000 0.000000 0.000000
# 3 -0.004117 -0.002374 0.012879 0.000000 0.000000 0.000000
# 4 0.000000 0.000000 0.000000 0.038396 0.000000 0.000000
# 5 0.000000 0.000000 0.000000 0.000000 0.068286 0.000000
# 6 0.000000 0.000000 0.000000 0.000000 0.000000 0.027489
#
#
# Mechanical properties :
#
#
# Convention : Reuss Voigt Hill
#
# Bulk Modulus (GPa) = 42.06016 44.19393 43.12705
# Shear Modulus (GPa) = 24.20063 27.14965 25.67514
#
# Velocity S-wave (km/s) = 3.43657 3.63994 3.53971
# Velocity P-wave (km/s) = 6.02264 6.26357 6.14429
#
# Compressibility (1/GPa) = 0.02377547
#
# Stress axis : x y z
#
# Youngs Moduli (GPa) = 50.69381 86.68171 77.64360
#
# Poissons Ratio (x) = 0.32004 0.31967
# Poissons Ratio (y) = 0.18717 0.18433
# Poissons Ratio (z) = 0.20871 0.20579
#
# Static dielectric constant tensor:
#      x y z
#    x 3.683980 0.000000 0.000000 
#    y 0.000000 4.174540 0.000000 
#    z 0.000000 0.000000 3.438690 
# 
# 
# High freq. dielectric constant tensor:
#      x y z
#    x 1.792030 0.000000 0.000000 
#    y 0.000000 1.824610 0.000000 
#    z 0.000000 0.000000 1.764010 
# 
# From -- ./inp_files/29752.got.cif
#   From: 2010.03.12/outbox.cif.g09.slc.cpg/sg57_15_cif.got.tgz:29752.got - 2010.04.16 15:48:40.
