data_PCOD8233621
_publ_section_title
;
Structure prediction by ZEFSAII (Michael W. Deem and Ramdas Pophale) SiO2 
 PCOD8233621
Probable space group: P B C M
;
_chemical_formula_sum "Si O2"
_cell_formula_units_Z 40
_cell_length_a 15.195880
_cell_length_b 7.594000
_cell_length_c 16.784797
_cell_angle_alpha 90.000000
_cell_angle_beta 90.000000
_cell_angle_gamma 90.000000
_cell_volume 1936.923825
_symmetry_space_group_name_H-M "P B C M"
_symmetry_group_IT_number 57
_symmetry_cell_setting 'orthorhombic'
loop_
_space_group_symop_operation_xyz
x,y,z
-x,-y,1/2+z
x,1/2-y,-z
-x,1/2+y,1/2-z
-x,-y,-z
x,y,1/2-z
-x,1/2+y,z
x,1/2-y,1/2+z
loop_
_atom_site_type_symbol
_atom_site_label
_atom_site_fract_x
_atom_site_fract_y
_atom_site_fract_z
Si Si1 0.449543 0.879595 0.061090
Si Si2 0.780883 0.734829 0.908753
Si Si3 0.903432 0.440597 0.843175
Si Si4 0.099355 0.534190 0.657218
Si Si5 0.601708 0.686766 0.342850
O O1 0.518359 0.781157 0.118377
O O2 0.385302 0.992875 0.117282
O O3 0.396491 0.750000 0.000000
O O4 0.500000 0.000000 0.000000
O O5 0.839131 0.562627 0.893880
O O6 0.692228 0.709088 0.857241
O O7 0.830885 0.914031 0.887436
O O8 0.752773 0.750000 0.000000
O O9 0.892862 0.486008 0.750000
O O10 0.880927 0.237991 0.861554
O O11 0.002012 0.482747 0.871881
O O12 0.108196 0.492505 0.750000
O O13 0.582783 0.666563 0.250000
#
# Coordination Sequence:
#
# PCOD8233621 Si02
#       5
#     8   8   8   8   8
#     4   9  19  39  65  91 124 157 193 249 319 371
#     4  12  25  40  60  90 131 166 208 265 316 372
#     4  10  20  39  65  88 119 165 213 263 317 375
#     4  10  20  39  64  88 118 161 213 261 314 377
#     4  11  22  41  66  93 124 164 212 253 304 379
#
# _framework density 20.651302999999999
#
# number of rings (size 3 to 8) (size 9 to 14) (size 15 to 20)
#    0.000    1.600    2.000    4.200    0.000    1.600 
#   10.800    0.000    0.000    0.000    0.000    0.000 
#    0.000    0.000    0.000    0.000    0.000    0.000 
#
# Total GULP energy -495919.117040 kJ/mol
# GULP energy per Si atom -12397.977926 kJ/mol
# Density = 2.060430 g / cm^3
# Si number density = 20.651303 Si / 1000 Ang^3
#
#
#
# Elastic Constant Matrix: (Units=GPa)
#
#
# Indices 1 2 3 4 5 6 
#
# 1 67.2428 15.8784 20.3548 0.0000 0.0000 0.0000
# 2 15.8784 98.5659 36.1758 0.0000 0.0000 0.0000
# 3 20.3548 36.1758 114.4974 0.0000 0.0000 0.0000
# 4 0.0000 0.0000 0.0000 37.1809 0.0000 0.0000
# 5 0.0000 0.0000 0.0000 0.0000 29.0744 0.0000
# 6 0.0000 0.0000 0.0000 0.0000 0.0000 23.6735
#
#
#
# Elastic Compliance Matrix: (Units=1/GPa)
#
#
# Indices 1 2 3 4 5 6 
#
# 1 0.015974 -0.001732 -0.002293 0.000000 0.000000 0.000000
# 2 -0.001732 0.011664 -0.003377 0.000000 0.000000 0.000000
# 3 -0.002293 -0.003377 0.010208 0.000000 0.000000 0.000000
# 4 0.000000 0.000000 0.000000 0.026896 0.000000 0.000000
# 5 0.000000 0.000000 0.000000 0.000000 0.034394 0.000000
# 6 0.000000 0.000000 0.000000 0.000000 0.000000 0.042241
#
#
# Mechanical properties :
#
#
# Convention : Reuss Voigt Hill
#
# Bulk Modulus (GPa) = 43.39707 47.23602 45.31655
# Shear Modulus (GPa) = 30.51321 31.84556 31.17938
#
# Velocity S-wave (km/s) = 3.84805 3.93117 3.88983
# Velocity P-wave (km/s) = 6.38774 6.59759 6.49351
#
# Compressibility (1/GPa) = 0.02304303
#
# Stress axis : x y z
#
# Youngs Moduli (GPa) = 62.59998 85.73329 97.95760
#
# Poissons Ratio (x) = 0.14849 0.22458
# Poissons Ratio (y) = 0.10842 0.33084
# Poissons Ratio (z) = 0.14352 0.28956
#
# Static dielectric constant tensor:
#      x y z
#    x 3.496940 0.000000 0.000000 
#    y 0.000000 4.215610 0.000000 
#    z 0.000000 0.000000 4.138660 
# 
# 
# High freq. dielectric constant tensor:
#      x y z
#    x 1.790510 0.000000 0.000000 
#    y 0.000000 1.821920 0.000000 
#    z 0.000000 0.000000 1.811640 
# 
# From -- ./inp_files/18246.got.cif
#   From: 2010.03.12/outbox.cif.g09.slc.cpg/sg57_10_cif.got.tgz:18246.got - 2010.04.16 15:48:40.
