data_PCOD8233387
_publ_section_title
;
Structure prediction by ZEFSAII (Michael W. Deem and Ramdas Pophale) SiO2 
 PCOD8233387
Probable space group: P B C M
;
_chemical_formula_sum "Si O2"
_cell_formula_units_Z 56
_cell_length_a 5.625153
_cell_length_b 31.585043
_cell_length_c 14.314009
_cell_angle_alpha 90.000000
_cell_angle_beta 90.000000
_cell_angle_gamma 90.000000
_cell_volume 2543.179990
_symmetry_space_group_name_H-M "P B C M"
_symmetry_group_IT_number 57
_symmetry_cell_setting 'orthorhombic'
loop_
_space_group_symop_operation_xyz
x,y,z
-x,-y,1/2+z
x,1/2-y,-z
-x,1/2+y,1/2-z
-x,-y,-z
x,y,1/2-z
-x,1/2+y,z
x,1/2-y,1/2+z
loop_
_atom_site_type_symbol
_atom_site_label
_atom_site_fract_x
_atom_site_fract_y
_atom_site_fract_z
Si Si1 0.255768 0.546616 0.021667
Si Si2 0.528480 0.746910 0.856578
Si Si3 0.324570 0.659274 0.646293
Si Si4 0.947866 0.520203 0.855271
Si Si5 0.365350 0.410424 0.076182
Si Si6 0.986230 0.136675 0.018535
Si Si7 0.026551 0.784983 0.860823
O O1 0.227161 0.518217 0.114178
O O2 0.142069 0.592472 0.040568
O O3 0.530397 0.554464 0.995873
O O4 0.158353 0.522102 0.930035
O O5 0.533323 0.761617 0.750000
O O6 0.520065 0.696129 0.868336
O O7 0.781026 0.762972 0.901283
O O8 0.277705 0.765283 0.899823
O O9 0.209716 0.664014 0.750000
O O10 0.439665 0.612505 0.640223
O O11 0.124116 0.662958 0.567908
O O12 0.040491 0.511890 0.750000
O O13 0.817554 0.565737 0.856251
O O14 0.253590 0.373993 0.011413
O O15 0.982651 0.165837 0.109865
O O16 0.026064 0.781042 0.750000
#
# Coordination Sequence:
#
# PCOD8233387 Si02
#       7
#     8   8   8   8   8   8   8
#     4   9  21  39  56  85 126 154 194 262 305 367
#     4   9  21  40  63  88 123 165 212 265 319 372
#     4  10  22  39  58  87 123 161 203 260 318 376
#     4  10  20  37  62  87 114 159 203 245 312 382
#     4  10  21  37  57  86 123 158 199 256 310 375
#     4  10  23  38  59  89 120 163 208 253 315 383
#     4  10  22  42  64  89 126 168 212 266 321 376
#
# _framework density 22.019674999999999
#
# number of rings (size 3 to 8) (size 9 to 14) (size 15 to 20)
#    0.000    2.286    0.000    0.857    6.000    7.429 
#    0.000    0.714    0.000    0.000    0.000    0.000 
#    0.000    0.000    0.000    0.000    0.000    0.000 
#
# Total GULP energy -693891.809320 kJ/mol
# GULP energy per Si atom -12390.925166 kJ/mol
# Density = 2.196956 g / cm^3
# Si number density = 22.019675 Si / 1000 Ang^3
#
#
#
# Elastic Constant Matrix: (Units=GPa)
#
#
# Indices 1 2 3 4 5 6 
#
# 1 105.8830 13.7445 11.5347 0.0000 0.0000 0.0000
# 2 13.7445 80.3418 23.9490 0.0000 0.0000 0.0000
# 3 11.5347 23.9490 64.3968 0.0000 0.0000 0.0000
# 4 0.0000 0.0000 0.0000 34.2564 0.0000 0.0000
# 5 0.0000 0.0000 0.0000 0.0000 11.3385 0.0000
# 6 0.0000 0.0000 0.0000 0.0000 0.0000 26.1430
#
#
#
# Elastic Compliance Matrix: (Units=1/GPa)
#
#
# Indices 1 2 3 4 5 6 
#
# 1 0.009750 -0.001290 -0.001266 0.000000 0.000000 0.000000
# 2 -0.001290 0.014169 -0.005038 0.000000 0.000000 0.000000
# 3 -0.001266 -0.005038 0.017629 0.000000 0.000000 0.000000
# 4 0.000000 0.000000 0.000000 0.029192 0.000000 0.000000
# 5 0.000000 0.000000 0.000000 0.000000 0.088195 0.000000
# 6 0.000000 0.000000 0.000000 0.000000 0.000000 0.038251
#
#
# Mechanical properties :
#
#
# Convention : Reuss Voigt Hill
#
# Bulk Modulus (GPa) = 37.93919 38.78645 38.36282
# Shear Modulus (GPa) = 22.60774 27.77380 25.19077
#
# Velocity S-wave (km/s) = 3.20770 3.55536 3.38599
# Velocity P-wave (km/s) = 5.56653 5.87425 5.72246
#
# Compressibility (1/GPa) = 0.02635797
#
# Stress axis : x y z
#
# Youngs Moduli (GPa) = 102.56555 70.57417 56.72358
#
# Poissons Ratio (x) = 0.09107 0.07184
# Poissons Ratio (y) = 0.13235 0.28580
# Poissons Ratio (z) = 0.12990 0.35558
#
# Static dielectric constant tensor:
#      x y z
#    x 4.174370 0.000000 0.000000 
#    y 0.000000 4.019150 0.000000 
#    z 0.000000 0.000000 3.628450 
# 
# 
# High freq. dielectric constant tensor:
#      x y z
#    x 1.864110 0.000000 0.000000 
#    y 0.000000 1.874940 0.000000 
#    z 0.000000 0.000000 1.838980 
# 
# From -- ./inp_files/15236.got.cif
#   From: 2010.03.12/outbox.cif.g09.slc.cpg/sg57_8_cif.got.tgz:15236.got - 2010.04.16 15:48:40.
