data_PCOD8233096
_publ_section_title
;
Structure prediction by ZEFSAII (Michael W. Deem and Ramdas Pophale) SiO2 
 PCOD8233096
Probable space group: P B C M
;
_chemical_formula_sum "Si O2"
_cell_formula_units_Z 48
_cell_length_a 18.321569
_cell_length_b 14.561166
_cell_length_c 8.996907
_cell_angle_alpha 90.000000
_cell_angle_beta 90.000000
_cell_angle_gamma 90.000000
_cell_volume 2400.225507
_symmetry_space_group_name_H-M "P B C M"
_symmetry_group_IT_number 57
_symmetry_cell_setting 'orthorhombic'
loop_
_space_group_symop_operation_xyz
x,y,z
-x,-y,1/2+z
x,1/2-y,-z
-x,1/2+y,1/2-z
-x,-y,-z
x,y,1/2-z
-x,1/2+y,z
x,1/2-y,1/2+z
loop_
_atom_site_type_symbol
_atom_site_label
_atom_site_fract_x
_atom_site_fract_y
_atom_site_fract_z
Si Si1 0.858803 0.840553 0.579037
Si Si2 0.522446 0.149228 0.074940
Si Si3 0.016189 0.906809 0.919798
Si Si4 0.832409 0.163150 0.081671
Si Si5 0.607058 0.989494 0.924118
Si Si6 0.756086 0.523396 0.579161
O O1 0.828070 0.750000 0.500000
O O2 0.833749 0.842042 0.750000
O O3 0.824864 0.926398 0.493720
O O4 0.946427 0.840879 0.564903
O O5 0.537286 0.161399 0.250000
O O6 0.447251 0.095215 0.044020
O O7 0.520625 0.250000 0.000000
O O8 0.585221 0.084454 0.005663
O O9 0.033547 0.931796 0.750000
O O10 0.088608 0.861347 0.990998
O O11 0.000000 0.000000 0.000000
O O12 0.845862 0.191680 0.250000
O O13 0.772984 0.083851 0.066618
O O14 0.797674 0.250000 0.000000
O O15 0.612786 0.010706 0.750000
O O16 0.683420 0.953974 0.988346
O O17 0.746688 0.554336 0.750000
#
# Coordination Sequence:
#
# PCOD8233096 Si02
#       6
#     8   8   8   8   8   8
#     4  11  23  38  59  85 114 153 198 248 302 357
#     4  10  21  39  65  94 122 155 194 238 288 344
#     4  10  20  36  58  83 111 147 194 246 301 354
#     4  10  22  38  57  83 113 150 195 243 296 350
#     4  10  22  40  62  90 124 158 197 241 288 346
#     4  11  23  40  60  84 121 159 197 244 293 351
#
# _framework density 19.99812
#
# number of rings (size 3 to 8) (size 9 to 14) (size 15 to 20)
#    0.000    1.667    1.667    2.500    0.000    6.000 
#    0.000    3.333    0.000    0.000    0.000    0.000 
#    0.000    0.000    0.000    0.000    0.000    0.000 
#
# Total GULP energy -595270.037980 kJ/mol
# GULP energy per Si atom -12401.459125 kJ/mol
# Density = 1.995260 g / cm^3
# Si number density = 19.998120 Si / 1000 Ang^3
#
#
#
# Elastic Constant Matrix: (Units=GPa)
#
#
# Indices 1 2 3 4 5 6 
#
# 1 68.4152 -4.8484 25.2584 0.0000 0.0000 0.0000
# 2 -4.8484 94.6202 47.6000 0.0000 0.0000 0.0000
# 3 25.2584 47.6000 106.8480 0.0000 0.0000 0.0000
# 4 0.0000 0.0000 0.0000 40.0080 0.0000 0.0000
# 5 0.0000 0.0000 0.0000 0.0000 31.0404 0.0000
# 6 0.0000 0.0000 0.0000 0.0000 0.0000 14.7157
#
#
#
# Elastic Compliance Matrix: (Units=1/GPa)
#
#
# Indices 1 2 3 4 5 6 
#
# 1 0.016974 0.003723 -0.005671 0.000000 0.000000 0.000000
# 2 0.003723 0.014438 -0.007312 0.000000 0.000000 0.000000
# 3 -0.005671 -0.007312 0.013957 0.000000 0.000000 0.000000
# 4 0.000000 0.000000 0.000000 0.024995 0.000000 0.000000
# 5 0.000000 0.000000 0.000000 0.000000 0.032216 0.000000
# 6 0.000000 0.000000 0.000000 0.000000 0.000000 0.067955
#
#
# Mechanical properties :
#
#
# Convention : Reuss Voigt Hill
#
# Bulk Modulus (GPa) = 37.24621 45.10038 41.17330
# Shear Modulus (GPa) = 25.25194 30.61104 27.93149
#
# Velocity S-wave (km/s) = 3.55733 3.91666 3.74131
# Velocity P-wave (km/s) = 5.96138 6.56162 6.26869
#
# Compressibility (1/GPa) = 0.02684837
#
# Stress axis : x y z
#
# Youngs Moduli (GPa) = 58.91308 69.26326 71.64813
#
# Poissons Ratio (x) = -0.25784 0.40632
# Poissons Ratio (y) = -0.21931 0.52388
# Poissons Ratio (z) = 0.33410 0.50645
#
# Static dielectric constant tensor:
#      x y z
#    x 3.764340 0.000000 0.000000 
#    y 0.000000 3.530190 0.000000 
#    z 0.000000 0.000000 3.657530 
# 
# 
# High freq. dielectric constant tensor:
#      x y z
#    x 1.777570 0.000000 0.000000 
#    y 0.000000 1.780550 0.000000 
#    z 0.000000 0.000000 1.788300 
# 
# From -- ./inp_files/6479.got.cif
#   From: 2010.03.12/outbox.cif.g09.slc.cpg/sg57_4_cif.got.tgz:6479.got - 2010.04.16 15:48:40.
