data_PCOD8233658
_publ_section_title
;
Structure prediction by ZEFSAII (Michael W. Deem and Ramdas Pophale) SiO2 
 PCOD8233658
Probable space group: P B C M
;
_chemical_formula_sum "Si O2"
_cell_formula_units_Z 64
_cell_length_a 13.587589
_cell_length_b 15.807592
_cell_length_c 15.160847
_cell_angle_alpha 90.000000
_cell_angle_beta 90.000000
_cell_angle_gamma 90.000000
_cell_volume 3256.353802
_symmetry_space_group_name_H-M "P B C M"
_symmetry_group_IT_number 57
_symmetry_cell_setting 'orthorhombic'
loop_
_space_group_symop_operation_xyz
x,y,z
-x,-y,1/2+z
x,1/2-y,-z
-x,1/2+y,1/2-z
-x,-y,-z
x,y,1/2-z
-x,1/2+y,z
x,1/2-y,1/2+z
loop_
_atom_site_type_symbol
_atom_site_label
_atom_site_fract_x
_atom_site_fract_y
_atom_site_fract_z
Si Si1 0.695943 0.029724 0.431032
Si Si2 0.645209 0.686701 0.149397
Si Si3 0.977276 0.655647 0.493757
Si Si4 0.473456 0.654897 0.014483
Si Si5 0.893994 0.085750 0.150668
Si Si6 0.403320 0.374969 0.349964
Si Si7 0.800557 0.562008 0.419736
Si Si8 0.046802 0.558907 0.653949
O O1 0.609629 0.096748 0.444204
O O2 0.785344 0.079730 0.388049
O O3 0.667666 0.954531 0.364184
O O4 0.720630 0.991046 0.526238
O O5 0.612298 0.668351 0.250000
O O6 0.563642 0.651857 0.082784
O O7 0.657858 0.787766 0.134235
O O8 0.748452 0.639440 0.131341
O O9 0.938020 0.750000 0.500000
O O10 0.881964 0.596339 0.487952
O O11 0.044588 0.652089 0.406925
O O12 0.043732 0.628983 0.577592
O O13 0.433383 0.750000 0.000000
O O14 0.507191 0.618682 0.919484
O O15 0.889470 0.120769 0.250000
O O16 0.947499 0.995515 0.145869
O O17 0.445317 0.377357 0.250000
O O18 0.856157 0.499908 0.352243
O O19 0.050431 0.603201 0.750000
#
# Coordination Sequence:
#
# PCOD8233658 Si02
#       8
#     8   8   8   8   8   8   8   8
#     4  12  21  37  63  89 119 159 204 245 304 355
#     4  10  22  39  61  90 126 158 197 251 303 355
#     4  11  23  38  61  86 120 159 196 247 304 364
#     4  10  23  41  61  85 122 164 203 250 300 357
#     4  10  21  39  61  84 117 153 197 247 293 356
#     4  10  22  39  60  91 125 158 199 249 302 358
#     4  11  21  37  62  90 118 155 201 247 307 354
#     4  10  20  40  61  86 119 155 196 245 299 358
#
# _framework density 19.653883
#
# number of rings (size 3 to 8) (size 9 to 14) (size 15 to 20)
#    0.000    1.500    3.750    1.875    1.750    2.500 
#    0.000    0.625    0.000    0.000    0.000    0.000 
#    0.000    0.000    0.000    0.000    0.000    0.000 
#
# Total GULP energy -793641.518506 kJ/mol
# GULP energy per Si atom -12400.648727 kJ/mol
# Density = 1.960915 g / cm^3
# Si number density = 19.653883 Si / 1000 Ang^3
#
#
#
# Elastic Constant Matrix: (Units=GPa)
#
#
# Indices 1 2 3 4 5 6 
#
# 1 88.7744 36.0458 33.8945 0.0000 0.0000 0.0000
# 2 36.0458 67.2150 28.2621 0.0000 0.0000 0.0000
# 3 33.8945 28.2621 131.7095 0.0000 0.0000 0.0000
# 4 0.0000 0.0000 0.0000 18.6965 0.0000 0.0000
# 5 0.0000 0.0000 0.0000 0.0000 20.2451 0.0000
# 6 0.0000 0.0000 0.0000 0.0000 0.0000 20.1933
#
#
#
# Elastic Compliance Matrix: (Units=1/GPa)
#
#
# Indices 1 2 3 4 5 6 
#
# 1 0.015035 -0.007074 -0.002351 0.000000 0.000000 0.000000
# 2 -0.007074 0.019682 -0.002403 0.000000 0.000000 0.000000
# 3 -0.002351 -0.002403 0.008713 0.000000 0.000000 0.000000
# 4 0.000000 0.000000 0.000000 0.053486 0.000000 0.000000
# 5 0.000000 0.000000 0.000000 0.000000 0.049395 0.000000
# 6 0.000000 0.000000 0.000000 0.000000 0.000000 0.049521
#
#
# Mechanical properties :
#
#
# Convention : Reuss Voigt Hill
#
# Bulk Modulus (GPa) = 50.57325 53.78930 52.18127
# Shear Modulus (GPa) = 22.11626 24.46009 23.28818
#
# Velocity S-wave (km/s) = 3.35817 3.53163 3.44599
# Velocity P-wave (km/s) = 6.38938 6.63759 6.51467
#
# Compressibility (1/GPa) = 0.01977330
#
# Stress axis : x y z
#
# Youngs Moduli (GPa) = 66.51368 50.80884 114.76985
#
# Poissons Ratio (x) = 0.35943 0.26983
# Poissons Ratio (y) = 0.47052 0.27577
# Poissons Ratio (z) = 0.15638 0.12208
#
# Static dielectric constant tensor:
#      x y z
#    x 3.400120 0.000000 0.000000 
#    y 0.000000 3.444420 0.000000 
#    z 0.000000 0.000000 3.790960 
# 
# 
# High freq. dielectric constant tensor:
#      x y z
#    x 1.751850 0.000000 0.000000 
#    y 0.000000 1.753420 0.000000 
#    z 0.000000 0.000000 1.779310 
# 
# From -- ./inp_files/17942.got.cif
#   From: 2010.03.12/outbox.cif.g09.slc.cpg/sg57_9_cif.got.tgz:17942.got - 2010.04.16 15:48:40.
