data_PCOD8233063
_publ_section_title
;
Structure prediction by ZEFSAII (Michael W. Deem and Ramdas Pophale) SiO2 
 PCOD8233063
Probable space group: P B C M
;
_chemical_formula_sum "Si O2"
_cell_formula_units_Z 64
_cell_length_a 10.729760
_cell_length_b 32.544553
_cell_length_c 9.662186
_cell_angle_alpha 90.000000
_cell_angle_beta 90.000000
_cell_angle_gamma 90.000000
_cell_volume 3373.989388
_symmetry_space_group_name_H-M "P B C M"
_symmetry_group_IT_number 57
_symmetry_cell_setting 'orthorhombic'
loop_
_space_group_symop_operation_xyz
x,y,z
-x,-y,1/2+z
x,1/2-y,-z
-x,1/2+y,1/2-z
-x,-y,-z
x,y,1/2-z
-x,1/2+y,z
x,1/2-y,1/2+z
loop_
_atom_site_type_symbol
_atom_site_label
_atom_site_fract_x
_atom_site_fract_y
_atom_site_fract_z
Si Si1 0.249660 0.828004 0.089098
Si Si2 0.766371 0.576778 0.404508
Si Si3 0.614616 0.498599 0.096826
Si Si4 0.222042 0.578915 0.904982
Si Si5 0.506180 0.710706 0.588005
Si Si6 0.255559 0.345525 0.090543
Si Si7 0.014603 0.208542 0.914865
Si Si8 0.025109 0.539340 0.093061
O O1 0.248339 0.819665 0.250000
O O2 0.268629 0.875880 0.056105
O O3 0.372888 0.805673 0.028913
O O4 0.116792 0.811166 0.032160
O O5 0.719806 0.588088 0.250000
O O6 0.713753 0.532515 0.453931
O O7 0.727413 0.612635 0.506790
O O8 0.913461 0.571447 0.405583
O O9 0.570167 0.510118 0.250000
O O10 0.664242 0.452389 0.094248
O O11 0.500000 0.500000 0.000000
O O12 0.159784 0.578739 0.750000
O O13 0.133057 0.565779 0.027043
O O14 0.543149 0.750000 0.500000
O O15 0.497254 0.721764 0.750000
O O16 0.618301 0.679238 0.561659
O O17 0.243883 0.357824 0.250000
O O18 0.130303 0.321153 0.045864
O O19 0.013965 0.217425 0.750000
O O20 0.035665 0.250000 0.000000
O O21 0.057414 0.525169 0.250000
O O22 0.000000 0.500000 0.000000
#
# Coordination Sequence:
#
# PCOD8233063 Si02
#       8
#     8   8   8   8   8   8   8   8
#     4   9  19  35  58  83 112 148 186 229 279 338
#     4  10  22  39  56  82 117 148 186 236 285 330
#     4  10  22  38  56  80 113 154 195 235 281 333
#     4  10  20  38  60  82 114 152 190 237 287 331
#     4  10  21  38  59  85 113 146 188 231 281 344
#     4  10  22  37  58  86 112 145 193 233 275 343
#     4  10  20  36  57  84 112 143 183 227 278 339
#     4  11  21  36  57  82 112 147 189 235 284 339
#
# _framework density 18.968644000000001
#
# number of rings (size 3 to 8) (size 9 to 14) (size 15 to 20)
#    0.000    2.000    1.250    1.875    1.750    4.000 
#    0.000    1.250    0.000    0.000    0.000    0.000 
#    0.000    0.000    0.000    0.000    0.000    0.000 
#
# Total GULP energy -793341.102202 kJ/mol
# GULP energy per Si atom -12395.954722 kJ/mol
# Density = 1.892547 g / cm^3
# Si number density = 18.968644 Si / 1000 Ang^3
#
#
#
# Elastic Constant Matrix: (Units=GPa)
#
#
# Indices 1 2 3 4 5 6 
#
# 1 95.1324 14.1398 30.4259 0.0000 0.0000 0.0000
# 2 14.1398 101.0631 43.6206 0.0000 0.0000 0.0000
# 3 30.4259 43.6206 79.6719 0.0000 0.0000 0.0000
# 4 0.0000 0.0000 0.0000 34.8455 0.0000 0.0000
# 5 0.0000 0.0000 0.0000 0.0000 24.7755 0.0000
# 6 0.0000 0.0000 0.0000 0.0000 0.0000 21.8098
#
#
#
# Elastic Compliance Matrix: (Units=1/GPa)
#
#
# Indices 1 2 3 4 5 6 
#
# 1 0.011986 0.000391 -0.004791 0.000000 0.000000 0.000000
# 2 0.000391 0.012969 -0.007250 0.000000 0.000000 0.000000
# 3 -0.004791 -0.007250 0.018351 0.000000 0.000000 0.000000
# 4 0.000000 0.000000 0.000000 0.028698 0.000000 0.000000
# 5 0.000000 0.000000 0.000000 0.000000 0.040362 0.000000
# 6 0.000000 0.000000 0.000000 0.000000 0.000000 0.045851
#
#
# Mechanical properties :
#
#
# Convention : Reuss Voigt Hill
#
# Bulk Modulus (GPa) = 49.98716 50.24891 50.11804
# Shear Modulus (GPa) = 26.56930 28.79822 27.68376
#
# Velocity S-wave (km/s) = 3.74665 3.90064 3.82442
# Velocity P-wave (km/s) = 6.71761 6.84358 6.78089
#
# Compressibility (1/GPa) = 0.02000514
#
# Stress axis : x y z
#
# Youngs Moduli (GPa) = 83.43084 77.10469 54.49360
#
# Poissons Ratio (x) = -0.03016 0.26110
# Poissons Ratio (y) = -0.03263 0.39509
# Poissons Ratio (z) = 0.39976 0.55902
#
# Static dielectric constant tensor:
#      x y z
#    x 3.895920 0.000000 0.000000 
#    y 0.000000 12.767300 0.000000 
#    z 0.000000 0.000000 2.723990 
# 
# 
# High freq. dielectric constant tensor:
#      x y z
#    x 1.742640 0.000000 0.000000 
#    y 0.000000 1.743110 0.000000 
#    z 0.000000 0.000000 1.725730 
# 
# From -- ./inp_files/3731.got.cif
#   From: 2010.03.12/outbox.cif.g09.slc.cpg/sg57_2_cif.got.tgz:3731.got - 2010.04.16 15:48:40.
