data_PCOD8233120
_publ_section_title
;
Structure prediction by ZEFSAII (Michael W. Deem and Ramdas Pophale) SiO2 
 PCOD8233120
Probable space group: P B C M
;
_chemical_formula_sum "Si O2"
_cell_formula_units_Z 64
_cell_length_a 22.032023
_cell_length_b 16.265473
_cell_length_c 8.629539
_cell_angle_alpha 90.000000
_cell_angle_beta 90.000000
_cell_angle_gamma 90.000000
_cell_volume 3092.492601
_symmetry_space_group_name_H-M "P B C M"
_symmetry_group_IT_number 57
_symmetry_cell_setting 'orthorhombic'
loop_
_space_group_symop_operation_xyz
x,y,z
-x,-y,1/2+z
x,1/2-y,-z
-x,1/2+y,1/2-z
-x,-y,-z
x,y,1/2-z
-x,1/2+y,z
x,1/2-y,1/2+z
loop_
_atom_site_type_symbol
_atom_site_label
_atom_site_fract_x
_atom_site_fract_y
_atom_site_fract_z
Si Si1 0.567118 0.502261 0.935178
Si Si2 0.107283 0.082675 0.918394
Si Si3 0.000609 0.333273 0.930361
Si Si4 0.369997 0.838959 0.064658
Si Si5 0.769696 0.662713 0.933685
Si Si6 0.876676 0.103396 0.419293
Si Si7 0.766317 0.166547 0.929767
Si Si8 0.640199 0.658257 0.065264
O O1 0.568285 0.505105 0.750000
O O2 0.500000 0.500000 0.000000
O O3 0.596224 0.416865 0.992505
O O4 0.597882 0.585823 0.998925
O O5 0.097767 0.126614 0.750000
O O6 0.174660 0.103821 0.980626
O O7 0.101067 0.987462 0.893450
O O8 0.053472 0.102341 0.035904
O O9 0.990072 0.328574 0.750000
O O10 0.933960 0.352105 0.003237
O O11 0.026386 0.250000 0.000000
O O12 0.377569 0.839514 0.250000
O O13 0.300777 0.852082 0.005998
O O14 0.393671 0.750000 0.000000
O O15 0.757377 0.665758 0.750000
O O16 0.789162 0.750000 0.000000
O O17 0.708377 0.632804 0.017629
O O18 0.861133 0.142131 0.250000
O O19 0.816200 0.099425 0.523958
O O20 0.760478 0.175153 0.750000
O O21 0.793030 0.250000 0.000000
O O22 0.633750 0.661023 0.250000
O O23 0.623647 0.750000 0.000000
#
# Coordination Sequence:
#
# PCOD8233120 Si02
#       8
#     8   8   8   8   8   8   8   8
#     4  12  26  45  69  99 134 174 217 265 318 377
#     4  10  22  38  57  83 115 150 193 245 303 364
#     4  11  23  38  57  78 107 149 197 247 302 362
#     4  10  22  42  66  98 134 173 219 267 320 379
#     4  10  20  36  58  87 118 156 200 248 306 367
#     4  10  22  38  56  83 116 152 194 245 302 362
#     4  10  21  37  60  89 120 157 201 248 300 359
#     4  11  23  42  67  97 133 172 217 268 319 381
#
# _framework density 20.69528
#
# number of rings (size 3 to 8) (size 9 to 14) (size 15 to 20)
#    0.000    1.500    0.000    5.625    1.750    6.500 
#    0.000    2.500    0.000    0.000    0.000    0.000 
#    0.000    0.000    0.000    0.000    0.000    0.000 
#
# Total GULP energy -793201.914746 kJ/mol
# GULP energy per Si atom -12393.779918 kJ/mol
# Density = 2.064818 g / cm^3
# Si number density = 20.695280 Si / 1000 Ang^3
#
#
#
# Elastic Constant Matrix: (Units=GPa)
#
#
# Indices 1 2 3 4 5 6 
#
# 1 133.7631 62.8789 52.1613 0.0000 0.0000 0.0000
# 2 62.8789 110.2846 45.9143 0.0000 0.0000 0.0000
# 3 52.1613 45.9143 115.2566 0.0000 0.0000 0.0000
# 4 0.0000 0.0000 0.0000 33.4389 0.0000 0.0000
# 5 0.0000 0.0000 0.0000 0.0000 40.5026 0.0000
# 6 0.0000 0.0000 0.0000 0.0000 0.0000 32.0395
#
#
#
# Elastic Compliance Matrix: (Units=1/GPa)
#
#
# Indices 1 2 3 4 5 6 
#
# 1 0.011002 -0.005035 -0.002973 0.000000 0.000000 0.000000
# 2 -0.005035 0.013174 -0.002970 0.000000 0.000000 0.000000
# 3 -0.002973 -0.002970 0.011205 0.000000 0.000000 0.000000
# 4 0.000000 0.000000 0.000000 0.029905 0.000000 0.000000
# 5 0.000000 0.000000 0.000000 0.000000 0.024690 0.000000
# 6 0.000000 0.000000 0.000000 0.000000 0.000000 0.031211
#
#
# Mechanical properties :
#
#
# Convention : Reuss Voigt Hill
#
# Bulk Modulus (GPa) = 74.48482 75.69039 75.08760
# Shear Modulus (GPa) = 33.87083 34.41950 34.14516
#
# Velocity S-wave (km/s) = 4.04994 4.08261 4.06630
# Velocity P-wave (km/s) = 7.61174 7.67312 7.64249
#
# Compressibility (1/GPa) = 0.01342555
#
# Stress axis : x y z
#
# Youngs Moduli (GPa) = 90.89029 75.90423 89.24606
#
# Poissons Ratio (x) = 0.38218 0.26537
# Poissons Ratio (y) = 0.45764 0.26502
# Poissons Ratio (z) = 0.27026 0.22540
#
# Static dielectric constant tensor:
#      x y z
#    x 4.002450 0.000000 0.000000 
#    y 0.000000 3.817920 0.000000 
#    z 0.000000 0.000000 3.827150 
# 
# 
# High freq. dielectric constant tensor:
#      x y z
#    x 1.818230 0.000000 0.000000 
#    y 0.000000 1.812280 0.000000 
#    z 0.000000 0.000000 1.814790 
# 
# From -- ./inp_files/8418.got.cif
#   From: 2010.03.12/outbox.cif.g09.slc.cpg/sg57_5_cif.got.tgz:8418.got - 2010.04.16 15:48:40.
