data_PCOD8233386
_publ_section_title
;
Structure prediction by ZEFSAII (Michael W. Deem and Ramdas Pophale) SiO2 
 PCOD8233386
Probable space group: P B C M
;
_chemical_formula_sum "Si O2"
_cell_formula_units_Z 48
_cell_length_a 9.492104
_cell_length_b 13.607654
_cell_length_c 18.158116
_cell_angle_alpha 90.000000
_cell_angle_beta 90.000000
_cell_angle_gamma 90.000000
_cell_volume 2345.397901
_symmetry_space_group_name_H-M "P B C M"
_symmetry_group_IT_number 57
_symmetry_cell_setting 'orthorhombic'
loop_
_space_group_symop_operation_xyz
x,y,z
-x,-y,1/2+z
x,1/2-y,-z
-x,1/2+y,1/2-z
-x,-y,-z
x,y,1/2-z
-x,1/2+y,z
x,1/2-y,1/2+z
loop_
_atom_site_type_symbol
_atom_site_label
_atom_site_fract_x
_atom_site_fract_y
_atom_site_fract_z
Si Si1 0.373452 0.207885 0.420555
Si Si2 0.840877 0.324856 0.432752
Si Si3 0.343041 0.711486 0.163897
Si Si4 0.133754 0.141926 0.895498
Si Si5 0.846692 0.552326 0.445705
Si Si6 0.099781 0.559523 0.333557
O O1 0.421302 0.250000 0.500000
O O2 0.504104 0.188337 0.368079
O O3 0.263779 0.285271 0.385253
O O4 0.300961 0.101331 0.423487
O O5 0.826039 0.250000 0.500000
O O6 0.713474 0.309657 0.375280
O O7 0.826421 0.437019 0.459212
O O8 0.983909 0.302751 0.385427
O O9 0.357658 0.729354 0.250000
O O10 0.233370 0.625152 0.143471
O O11 0.152547 0.053237 0.838481
O O12 0.108997 0.100565 0.977751
O O13 0.966251 0.577663 0.385944
O O14 0.053018 0.581958 0.250000
#
# Coordination Sequence:
#
# PCOD8233386 Si02
#       6
#     8   8   8   8   8   8
#     4  10  22  39  59  84 113 149 191 236 284 335
#     4  11  20  36  63  88 114 145 185 236 284 335
#     4  11  24  39  55  81 118 155 189 228 280 340
#     4  10  20  37  62  87 112 143 188 240 285 333
#     4  10  21  38  61  87 112 144 191 238 282 332
#     4  10  21  37  58  83 113 150 189 230 280 337
#
# _framework density 20.465612
#
# number of rings (size 3 to 8) (size 9 to 14) (size 15 to 20)
#    0.000    1.667    0.000    7.000    0.000    5.333 
#    0.000    5.833    0.000    0.000    0.000    0.000 
#    0.000    0.000    0.000    0.000    0.000    0.000 
#
# Total GULP energy -595135.901827 kJ/mol
# GULP energy per Si atom -12398.664621 kJ/mol
# Density = 2.041903 g / cm^3
# Si number density = 20.465612 Si / 1000 Ang^3
#
#
#
# Elastic Constant Matrix: (Units=GPa)
#
#
# Indices 1 2 3 4 5 6 
#
# 1 130.9542 54.8167 60.6429 0.0000 0.0000 0.0000
# 2 54.8167 96.8877 27.0254 0.0000 0.0000 0.0000
# 3 60.6429 27.0254 68.9835 0.0000 0.0000 0.0000
# 4 0.0000 0.0000 0.0000 16.6897 0.0000 0.0000
# 5 0.0000 0.0000 0.0000 0.0000 32.3432 0.0000
# 6 0.0000 0.0000 0.0000 0.0000 0.0000 14.5009
#
#
#
# Elastic Compliance Matrix: (Units=1/GPa)
#
#
# Indices 1 2 3 4 5 6 
#
# 1 0.015045 -0.005415 -0.011105 0.000000 0.000000 0.000000
# 2 -0.005415 0.013536 -0.000543 0.000000 0.000000 0.000000
# 3 -0.011105 -0.000543 0.024471 0.000000 0.000000 0.000000
# 4 0.000000 0.000000 0.000000 0.059917 0.000000 0.000000
# 5 0.000000 0.000000 0.000000 0.000000 0.030918 0.000000
# 6 0.000000 0.000000 0.000000 0.000000 0.000000 0.068961
#
#
# Mechanical properties :
#
#
# Convention : Reuss Voigt Hill
#
# Bulk Modulus (GPa) = 52.83327 64.64393 58.73860
# Shear Modulus (GPa) = 19.74066 22.99611 21.36839
#
# Velocity S-wave (km/s) = 3.10913 3.35572 3.23478
# Velocity P-wave (km/s) = 6.22580 6.83152 6.53568
#
# Compressibility (1/GPa) = 0.01892747
#
# Stress axis : x y z
#
# Youngs Moduli (GPa) = 66.46559 73.87595 40.86425
#
# Poissons Ratio (x) = 0.40002 0.45380
# Poissons Ratio (y) = 0.35989 0.02219
# Poissons Ratio (z) = 0.73810 0.04011
#
# Static dielectric constant tensor:
#      x y z
#    x 3.784250 0.000000 0.000000 
#    y 0.000000 3.922380 0.000000 
#    z 0.000000 0.000000 3.622510 
# 
# 
# High freq. dielectric constant tensor:
#      x y z
#    x 1.801970 0.000000 0.000000 
#    y 0.000000 1.806760 0.000000 
#    z 0.000000 0.000000 1.791250 
# 
# From -- ./inp_files/20961.got.cif
#   From: 2010.03.12/outbox.cif.g09.slc.cpg/sg57_11_cif.got.tgz:20961.got - 2010.04.16 15:48:40.
