data_PCOD8233140
_publ_section_title
;
Structure prediction by ZEFSAII (Michael W. Deem and Ramdas Pophale) SiO2 
 PCOD8233140
Probable space group: P B C M
;
_chemical_formula_sum "Si O2"
_cell_formula_units_Z 48
_cell_length_a 8.796986
_cell_length_b 15.630526
_cell_length_c 18.038539
_cell_angle_alpha 90.000000
_cell_angle_beta 90.000000
_cell_angle_gamma 90.000000
_cell_volume 2480.326502
_symmetry_space_group_name_H-M "P B C M"
_symmetry_group_IT_number 57
_symmetry_cell_setting 'orthorhombic'
loop_
_space_group_symop_operation_xyz
x,y,z
-x,-y,1/2+z
x,1/2-y,-z
-x,1/2+y,1/2-z
-x,-y,-z
x,y,1/2-z
-x,1/2+y,z
x,1/2-y,1/2+z
loop_
_atom_site_type_symbol
_atom_site_label
_atom_site_fract_x
_atom_site_fract_y
_atom_site_fract_z
Si Si1 0.605579 0.673463 0.664843
Si Si2 0.082505 0.920404 0.077884
Si Si3 0.607368 0.686679 0.441295
Si Si4 0.915455 0.609826 0.072097
Si Si5 0.567868 0.079643 0.541969
Si Si6 0.949778 0.722216 0.665469
O O1 0.556592 0.662909 0.750000
O O2 0.550484 0.765675 0.633352
O O3 0.527280 0.597129 0.617982
O O4 0.787239 0.676135 0.654109
O O5 0.255538 0.928521 0.054133
O O6 0.070645 0.850950 0.143272
O O7 0.032910 0.016554 0.104045
O O8 0.977857 0.885055 0.011442
O O9 0.692770 0.750000 0.500000
O O10 0.730670 0.612569 0.424912
O O11 0.456360 0.655728 0.483079
O O12 0.976063 0.690306 0.119490
O O13 0.500000 0.000000 0.500000
O O14 0.976321 0.748508 0.750000
#
# Coordination Sequence:
#
# PCOD8233140 Si02
#       6
#     8   8   8   8   8   8
#     4   9  20  38  59  79 111 157 197 234 290 352
#     4  11  22  34  60  91 115 149 196 244 289 342
#     4   9  17  34  58  81 111 150 193 233 283 348
#     4  10  20  36  59  86 115 151 195 242 285 346
#     4  11  21  35  57  88 118 148 189 242 290 343
#     4  10  22  40  60  83 117 157 194 239 294 348
#
# _framework density 19.35229
#
# number of rings (size 3 to 8) (size 9 to 14) (size 15 to 20)
#    0.000    2.000    1.667    3.500    2.333    5.333 
#    0.000    0.833    0.000    0.000    0.000    0.000 
#    0.000    0.000    0.000    0.000    0.000    0.000 
#
# Total GULP energy -594725.272260 kJ/mol
# GULP energy per Si atom -12390.109839 kJ/mol
# Density = 1.930824 g / cm^3
# Si number density = 19.352290 Si / 1000 Ang^3
#
#
#
# Elastic Constant Matrix: (Units=GPa)
#
#
# Indices 1 2 3 4 5 6 
#
# 1 53.3043 27.8175 20.7292 0.0000 0.0000 0.0000
# 2 27.8175 120.5448 58.1051 0.0000 0.0000 0.0000
# 3 20.7292 58.1051 111.4443 0.0000 0.0000 0.0000
# 4 0.0000 0.0000 0.0000 28.2020 0.0000 0.0000
# 5 0.0000 0.0000 0.0000 0.0000 22.8349 0.0000
# 6 0.0000 0.0000 0.0000 0.0000 0.0000 26.4672
#
#
#
# Elastic Compliance Matrix: (Units=1/GPa)
#
#
# Indices 1 2 3 4 5 6 
#
# 1 0.021625 -0.004076 -0.001897 0.000000 0.000000 0.000000
# 2 -0.004076 0.011849 -0.005420 0.000000 0.000000 0.000000
# 3 -0.001897 -0.005420 0.012152 0.000000 0.000000 0.000000
# 4 0.000000 0.000000 0.000000 0.035458 0.000000 0.000000
# 5 0.000000 0.000000 0.000000 0.000000 0.043793 0.000000
# 6 0.000000 0.000000 0.000000 0.000000 0.000000 0.037783
#
#
# Mechanical properties :
#
#
# Convention : Reuss Voigt Hill
#
# Bulk Modulus (GPa) = 43.78281 55.39966 49.59123
# Shear Modulus (GPa) = 25.89903 27.41026 26.65465
#
# Velocity S-wave (km/s) = 3.66224 3.76757 3.71528
# Velocity P-wave (km/s) = 6.36835 6.90038 6.63969
#
# Compressibility (1/GPa) = 0.02284001
#
# Stress axis : x y z
#
# Youngs Moduli (GPa) = 46.24275 84.39875 82.29340
#
# Poissons Ratio (x) = 0.34399 0.15614
# Poissons Ratio (y) = 0.18847 0.44599
# Poissons Ratio (z) = 0.08774 0.45740
#
# Static dielectric constant tensor:
#      x y z
#    x 3.532620 0.000000 0.000000 
#    y 0.000000 5.393260 0.000000 
#    z 0.000000 0.000000 3.585710 
# 
# 
# High freq. dielectric constant tensor:
#      x y z
#    x 1.735400 0.000000 0.000000 
#    y 0.000000 1.763920 0.000000 
#    z 0.000000 0.000000 1.740210 
# 
# From -- ./inp_files/20912.got.cif
#   From: 2010.03.12/outbox.cif.g09.slc.cpg/sg57_11_cif.got.tgz:20912.got - 2010.04.16 15:48:40.
