data_PCOD8233839
_publ_section_title
;
Structure prediction by ZEFSAII (Michael W. Deem and Ramdas Pophale) SiO2 
 PCOD8233839
Probable space group: P B C M
;
_chemical_formula_sum "Si O2"
_cell_formula_units_Z 32
_cell_length_a 7.531192
_cell_length_b 13.262518
_cell_length_c 15.281394
_cell_angle_alpha 90.000000
_cell_angle_beta 90.000000
_cell_angle_gamma 90.000000
_cell_volume 1526.344898
_symmetry_space_group_name_H-M "P B C M"
_symmetry_group_IT_number 57
_symmetry_cell_setting 'orthorhombic'
loop_
_space_group_symop_operation_xyz
x,y,z
-x,-y,1/2+z
x,1/2-y,-z
-x,1/2+y,1/2-z
-x,-y,-z
x,y,1/2-z
-x,1/2+y,z
x,1/2-y,1/2+z
loop_
_atom_site_type_symbol
_atom_site_label
_atom_site_fract_x
_atom_site_fract_y
_atom_site_fract_z
Si Si1 0.540410 0.113417 0.022772
Si Si2 0.245681 0.409231 0.849326
Si Si3 0.325722 0.641311 0.654492
Si Si4 0.101287 0.805038 0.912720
O O1 0.385494 0.149727 0.088492
O O2 0.732085 0.121674 0.068113
O O3 0.547061 0.173991 0.928574
O O4 0.500000 0.000000 0.000000
O O5 0.294809 0.380913 0.750000
O O6 0.252302 0.529482 0.863242
O O7 0.048261 0.373926 0.870669
O O8 0.421990 0.646400 0.750000
O O9 0.160384 0.718286 0.655691
O O10 0.030646 0.750000 0.000000
#
# Coordination Sequence:
#
# PCOD8233839 Si02
#       4
#     8   8   8   8
#     4   9  20  37  57  81 113 150 190 235 283 335
#     4  10  21  38  60  85 115 152 193 235 285 346
#     4   9  19  37  59  85 117 150 188 236 286 339
#     4  10  21  36  58  85 117 153 188 236 289 338
#
# _framework density 20.965118
#
# number of rings (size 3 to 8) (size 9 to 14) (size 15 to 20)
#    0.000    2.500    0.000    0.750    0.000   14.000 
#    0.000    2.500    0.000   12.000    0.000    0.000 
#    0.000    0.000    0.000    0.000    0.000    0.000 
#
# Total GULP energy -396501.954244 kJ/mol
# GULP energy per Si atom -12390.686070 kJ/mol
# Density = 2.091740 g / cm^3
# Si number density = 20.965118 Si / 1000 Ang^3
#
#
#
# Elastic Constant Matrix: (Units=GPa)
#
#
# Indices 1 2 3 4 5 6 
#
# 1 126.8923 42.3280 87.1191 0.0000 0.0000 0.0000
# 2 42.3280 58.8801 44.5009 0.0000 0.0000 0.0000
# 3 87.1191 44.5009 185.2371 0.0000 0.0000 0.0000
# 4 0.0000 0.0000 0.0000 15.2540 0.0000 0.0000
# 5 0.0000 0.0000 0.0000 0.0000 26.4995 0.0000
# 6 0.0000 0.0000 0.0000 0.0000 0.0000 32.1890
#
#
#
# Elastic Compliance Matrix: (Units=1/GPa)
#
#
# Indices 1 2 3 4 5 6 
#
# 1 0.013086 -0.005811 -0.004759 0.000000 0.000000 0.000000
# 2 -0.005811 0.023332 -0.002872 0.000000 0.000000 0.000000
# 3 -0.004759 -0.002872 0.008326 0.000000 0.000000 0.000000
# 4 0.000000 0.000000 0.000000 0.065557 0.000000 0.000000
# 5 0.000000 0.000000 0.000000 0.000000 0.037737 0.000000
# 6 0.000000 0.000000 0.000000 0.000000 0.000000 0.031067
#
#
# Mechanical properties :
#
#
# Convention : Reuss Voigt Hill
#
# Bulk Modulus (GPa) = 55.98782 79.87838 67.93310
# Shear Modulus (GPa) = 23.59144 27.92594 25.75869
#
# Velocity S-wave (km/s) = 3.35815 3.65364 3.50901
# Velocity P-wave (km/s) = 6.46524 7.48212 6.99219
#
# Compressibility (1/GPa) = 0.01786103
#
# Stress axis : x y z
#
# Youngs Moduli (GPa) = 76.41701 42.85986 120.09850
#
# Poissons Ratio (x) = 0.24906 0.57149
# Poissons Ratio (y) = 0.44405 0.34495
# Poissons Ratio (z) = 0.36363 0.12310
#
# Static dielectric constant tensor:
#      x y z
#    x 3.626890 0.000000 0.000000 
#    y 0.000000 3.957280 0.000000 
#    z 0.000000 0.000000 4.428660 
# 
# 
# High freq. dielectric constant tensor:
#      x y z
#    x 1.787160 0.000000 0.000000 
#    y 0.000000 1.831720 0.000000 
#    z 0.000000 0.000000 1.841040 
# 
# From -- ./inp_files/14773.got.cif
#   From: 2010.03.12/outbox.cif.g09.slc.cpg/sg57_8_cif.got.tgz:14773.got - 2010.04.16 15:48:40.
