data_PCOD8233864
_publ_section_title
;
Structure prediction by ZEFSAII (Michael W. Deem and Ramdas Pophale) SiO2 
 PCOD8233864
Probable space group: P B C M
;
_chemical_formula_sum "Si O2"
_cell_formula_units_Z 64
_cell_length_a 16.184580
_cell_length_b 22.966446
_cell_length_c 8.498925
_cell_angle_alpha 90.000000
_cell_angle_beta 90.000000
_cell_angle_gamma 90.000000
_cell_volume 3159.069822
_symmetry_space_group_name_H-M "P B C M"
_symmetry_group_IT_number 57
_symmetry_cell_setting 'orthorhombic'
loop_
_space_group_symop_operation_xyz
x,y,z
-x,-y,1/2+z
x,1/2-y,-z
-x,1/2+y,1/2-z
-x,-y,-z
x,y,1/2-z
-x,1/2+y,z
x,1/2-y,1/2+z
loop_
_atom_site_type_symbol
_atom_site_label
_atom_site_fract_x
_atom_site_fract_y
_atom_site_fract_z
Si Si1 0.545140 0.090297 0.565844
Si Si2 0.909305 0.007786 0.068607
Si Si3 0.663012 0.184443 0.435610
Si Si4 0.144646 0.186658 0.435314
Si Si5 0.827577 0.376756 0.933711
Si Si6 0.020937 0.687224 0.934632
Si Si7 0.390812 0.465400 0.934532
Si Si8 0.772032 0.916543 0.432671
O O1 0.554189 0.100856 0.750000
O O2 0.582309 0.146999 0.480183
O O3 0.449256 0.081972 0.520110
O O4 0.591135 0.031390 0.509191
O O5 0.921627 0.022949 0.250000
O O6 0.858136 0.949643 0.041250
O O7 0.857218 0.061613 0.991000
O O8 0.000000 0.000000 0.000000
O O9 0.657298 0.250000 0.500000
O O10 0.670448 0.189749 0.250000
O O11 0.743144 0.149971 0.507004
O O12 0.167379 0.250000 0.500000
O O13 0.129521 0.189599 0.250000
O O14 0.221651 0.145589 0.480789
O O15 0.065098 0.155510 0.520992
O O16 0.812217 0.384377 0.750000
O O17 0.900867 0.332208 0.966523
O O18 0.039910 0.683724 0.750000
O O19 0.998659 0.750000 0.000000
O O20 0.405256 0.459320 0.750000
O O21 0.297707 0.453772 0.982659
O O22 0.750399 0.908571 0.250000
#
# Coordination Sequence:
#
# PCOD8233864 Si02
#       8
#     8   8   8   8   8   8   8   8
#     4  10  21  39  63  90 120 153 192 237 287 346
#     4  10  22  37  55  81 116 156 196 240 292 345
#     4  11  23  39  60  86 120 160 202 249 303 363
#     4  11  22  38  58  80 108 144 185 230 280 333
#     4  10  21  37  55  79 112 152 196 242 290 343
#     4  11  21  34  53  77 105 143 190 238 284 332
#     4  10  21  38  63  93 120 151 191 236 288 345
#     4  11  22  38  59  86 117 149 188 233 283 339
#
# _framework density 20.259128
#
# number of rings (size 3 to 8) (size 9 to 14) (size 15 to 20)
#    0.000    1.500    0.000    6.375    0.000    8.000 
#    0.000    0.625    0.000    0.000    0.000    0.000 
#    0.000    0.000    0.000    0.000    0.000    0.000 
#
# Total GULP energy -793517.000319 kJ/mol
# GULP energy per Si atom -12398.703130 kJ/mol
# Density = 2.021302 g / cm^3
# Si number density = 20.259128 Si / 1000 Ang^3
#
#
#
# Elastic Constant Matrix: (Units=GPa)
#
#
# Indices 1 2 3 4 5 6 
#
# 1 81.8295 47.9950 18.9011 0.0000 0.0000 0.0000
# 2 47.9950 112.6436 35.2756 0.0000 0.0000 0.0000
# 3 18.9011 35.2756 50.8995 0.0000 0.0000 0.0000
# 4 0.0000 0.0000 0.0000 29.4014 0.0000 0.0000
# 5 0.0000 0.0000 0.0000 0.0000 33.1425 0.0000
# 6 0.0000 0.0000 0.0000 0.0000 0.0000 38.9753
#
#
#
# Elastic Compliance Matrix: (Units=1/GPa)
#
#
# Indices 1 2 3 4 5 6 
#
# 1 0.016392 -0.006486 -0.001592 0.000000 0.000000 0.000000
# 2 -0.006486 0.013905 -0.007228 0.000000 0.000000 0.000000
# 3 -0.001592 -0.007228 0.025247 0.000000 0.000000 0.000000
# 4 0.000000 0.000000 0.000000 0.034012 0.000000 0.000000
# 5 0.000000 0.000000 0.000000 0.000000 0.030173 0.000000
# 6 0.000000 0.000000 0.000000 0.000000 0.000000 0.025657
#
#
# Mechanical properties :
#
#
# Convention : Reuss Voigt Hill
#
# Bulk Modulus (GPa) = 40.10912 49.96844 45.03878
# Shear Modulus (GPa) = 27.12836 29.85055 28.48945
#
# Velocity S-wave (km/s) = 3.66330 3.84270 3.75407
# Velocity P-wave (km/s) = 6.14280 6.66383 6.40862
#
# Compressibility (1/GPa) = 0.02493199
#
# Stress axis : x y z
#
# Youngs Moduli (GPa) = 61.00386 71.91884 39.60846
#
# Poissons Ratio (x) = 0.46645 0.06307
# Poissons Ratio (y) = 0.39566 0.28629
# Poissons Ratio (z) = 0.09713 0.51983
#
# Static dielectric constant tensor:
#      x y z
#    x 3.665250 0.000000 0.000000 
#    y 0.000000 3.824190 0.000000 
#    z 0.000000 0.000000 3.596430 
# 
# 
# High freq. dielectric constant tensor:
#      x y z
#    x 1.789150 0.000000 0.000000 
#    y 0.000000 1.795440 0.000000 
#    z 0.000000 0.000000 1.790280 
# 
# From -- ./inp_files/5630.got.cif
#   From: 2010.03.12/outbox.cif.g09.slc.cpg/sg57_3_cif.got.tgz:5630.got - 2010.04.16 15:48:40.
