data_PCOD8233318
_publ_section_title
;
Structure prediction by ZEFSAII (Michael W. Deem and Ramdas Pophale) SiO2 
 PCOD8233318
Probable space group: P B C M
;
_chemical_formula_sum "Si O2"
_cell_formula_units_Z 48
_cell_length_a 9.158368
_cell_length_b 14.887209
_cell_length_c 16.587339
_cell_angle_alpha 90.000000
_cell_angle_beta 90.000000
_cell_angle_gamma 90.000000
_cell_volume 2261.559906
_symmetry_space_group_name_H-M "P B C M"
_symmetry_group_IT_number 57
_symmetry_cell_setting 'orthorhombic'
loop_
_space_group_symop_operation_xyz
x,y,z
-x,-y,1/2+z
x,1/2-y,-z
-x,1/2+y,1/2-z
-x,-y,-z
x,y,1/2-z
-x,1/2+y,z
x,1/2-y,1/2+z
loop_
_atom_site_type_symbol
_atom_site_label
_atom_site_fract_x
_atom_site_fract_y
_atom_site_fract_z
Si Si1 0.833339 0.782411 0.089602
Si Si2 0.818836 0.971076 0.157964
Si Si3 0.315612 0.375869 0.657467
Si Si4 0.643023 0.139965 0.343685
Si Si5 0.896994 0.011765 0.920196
Si Si6 0.170767 0.788940 0.085184
O O1 0.783708 0.885403 0.101500
O O2 0.748839 0.724237 0.155745
O O3 0.004186 0.768299 0.108355
O O4 0.793601 0.750000 0.000000
O O5 0.773320 0.951493 0.250000
O O6 0.992095 0.990495 0.155187
O O7 0.737056 0.057459 0.119499
O O8 0.310177 0.411964 0.750000
O O9 0.479369 0.368232 0.622014
O O10 0.221280 0.434387 0.594175
O O11 0.633971 0.123401 0.250000
O O12 0.717934 0.237516 0.355572
O O13 0.805136 0.104175 0.918521
O O14 0.000000 0.000000 0.000000
O O15 0.214141 0.750000 0.000000
#
# Coordination Sequence:
#
# PCOD8233318 Si02
#       6
#     8   8   8   8   8   8
#     4  10  21  38  61  88 116 150 198 254 305 360
#     4  10  20  37  60  85 114 157 205 251 303 367
#     4  11  23  39  59  88 123 161 200 248 309 373
#     4  10  23  39  57  85 124 161 199 247 304 370
#     4  11  22  39  63  89 119 158 207 260 307 361
#     4  10  21  38  61  87 116 153 198 248 301 359
#
# _framework density 21.224288999999999
#
# number of rings (size 3 to 8) (size 9 to 14) (size 15 to 20)
#    0.000    1.667    0.000    6.000    0.000    7.333 
#    0.000    9.167    0.000    0.000    0.000    0.000 
#    0.000    0.000    0.000    0.000    0.000    0.000 
#
# Total GULP energy -594980.833641 kJ/mol
# GULP energy per Si atom -12395.434034 kJ/mol
# Density = 2.117598 g / cm^3
# Si number density = 21.224289 Si / 1000 Ang^3
#
#
#
# Elastic Constant Matrix: (Units=GPa)
#
#
# Indices 1 2 3 4 5 6 
#
# 1 97.7079 68.5124 28.5862 0.0000 0.0000 0.0000
# 2 68.5124 157.4888 29.3814 0.0000 0.0000 0.0000
# 3 28.5862 29.3814 60.2054 0.0000 0.0000 0.0000
# 4 0.0000 0.0000 0.0000 35.5142 0.0000 0.0000
# 5 0.0000 0.0000 0.0000 0.0000 24.5101 0.0000
# 6 0.0000 0.0000 0.0000 0.0000 0.0000 9.7621
#
#
#
# Elastic Compliance Matrix: (Units=1/GPa)
#
#
# Indices 1 2 3 4 5 6 
#
# 1 0.015788 -0.006018 -0.004560 0.000000 0.000000 0.000000
# 2 -0.006018 0.009279 -0.001671 0.000000 0.000000 0.000000
# 3 -0.004560 -0.001671 0.019590 0.000000 0.000000 0.000000
# 4 0.000000 0.000000 0.000000 0.028158 0.000000 0.000000
# 5 0.000000 0.000000 0.000000 0.000000 0.040800 0.000000
# 6 0.000000 0.000000 0.000000 0.000000 0.000000 0.102437
#
#
# Mechanical properties :
#
#
# Convention : Reuss Voigt Hill
#
# Bulk Modulus (GPa) = 49.60139 63.15137 56.37638
# Shear Modulus (GPa) = 20.22086 26.55209 23.38647
#
# Velocity S-wave (km/s) = 3.08997 3.54082 3.32305
# Velocity P-wave (km/s) = 6.01260 6.82169 6.42988
#
# Compressibility (1/GPa) = 0.02016072
#
# Stress axis : x y z
#
# Youngs Moduli (GPa) = 63.33860 107.76664 51.04550
#
# Poissons Ratio (x) = 0.64850 0.23275
# Poissons Ratio (y) = 0.38115 0.08531
# Poissons Ratio (z) = 0.28880 0.18010
#
# Static dielectric constant tensor:
#      x y z
#    x 3.992240 0.000000 0.000000 
#    y 0.000000 4.275920 0.000000 
#    z 0.000000 0.000000 3.749320 
# 
# 
# High freq. dielectric constant tensor:
#      x y z
#    x 1.818700 0.000000 0.000000 
#    y 0.000000 1.843580 0.000000 
#    z 0.000000 0.000000 1.824310 
# 
# From -- ./inp_files/20951.got.cif
#   From: 2010.03.12/outbox.cif.g09.slc.cpg/sg57_11_cif.got.tgz:20951.got - 2010.04.16 15:48:40.
