data_PCOD8233360
_publ_section_title
;
Structure prediction by ZEFSAII (Michael W. Deem and Ramdas Pophale) SiO2 
 PCOD8233360
Probable space group: P B C M
;
_chemical_formula_sum "Si O2"
_cell_formula_units_Z 48
_cell_length_a 9.188103
_cell_length_b 16.645551
_cell_length_c 15.740928
_cell_angle_alpha 90.000000
_cell_angle_beta 90.000000
_cell_angle_gamma 90.000000
_cell_volume 2407.433853
_symmetry_space_group_name_H-M "P B C M"
_symmetry_group_IT_number 57
_symmetry_cell_setting 'orthorhombic'
loop_
_space_group_symop_operation_xyz
x,y,z
-x,-y,1/2+z
x,1/2-y,-z
-x,1/2+y,1/2-z
-x,-y,-z
x,y,1/2-z
-x,1/2+y,z
x,1/2-y,1/2+z
loop_
_atom_site_type_symbol
_atom_site_label
_atom_site_fract_x
_atom_site_fract_y
_atom_site_fract_z
Si Si1 0.314079 0.094767 0.345320
Si Si2 0.664390 0.174949 0.546331
Si Si3 0.858627 0.056045 0.851089
Si Si4 0.812109 0.922519 0.348070
Si Si5 0.379154 0.270722 0.350273
Si Si6 0.586384 0.040877 0.425668
O O1 0.262160 0.107064 0.250000
O O2 0.320607 0.184359 0.386486
O O3 0.475128 0.055490 0.347878
O O4 0.200681 0.030420 0.387222
O O5 0.741760 0.250000 0.500000
O O6 0.767261 0.130089 0.612367
O O7 0.516950 0.199860 0.595531
O O8 0.638958 0.124477 0.461547
O O9 0.840189 0.059007 0.750000
O O10 0.023260 0.069722 0.880957
O O11 0.803325 0.945753 0.250000
O O12 0.752149 0.833180 0.364261
O O13 0.720549 0.987336 0.398637
O O14 0.421879 0.264612 0.250000
O O15 0.500000 0.000000 0.500000
#
# Coordination Sequence:
#
# PCOD8233360 Si02
#       6
#     8   8   8   8   8   8
#     4  10  20  37  61  87 114 154 205 252 296 356
#     4  12  23  38  58  89 120 153 198 251 305 356
#     4  10  22  42  62  84 121 165 204 245 303 368
#     4  10  22  41  62  86 120 162 201 242 301 368
#     4  10  20  37  61  86 115 154 201 248 298 360
#     4  12  21  36  61  88 115 152 196 247 301 355
#
# _framework density 19.938241999999999
#
# number of rings (size 3 to 8) (size 9 to 14) (size 15 to 20)
#    0.000    1.333    5.000    1.000    0.000    3.333 
#    3.000    0.833    0.000    0.000    0.000    0.000 
#    0.000    0.000    0.000    0.000    0.000    0.000 
#
# Total GULP energy -594836.735739 kJ/mol
# GULP energy per Si atom -12392.431995 kJ/mol
# Density = 1.989286 g / cm^3
# Si number density = 19.938242 Si / 1000 Ang^3
#
#
#
# Elastic Constant Matrix: (Units=GPa)
#
#
# Indices 1 2 3 4 5 6 
#
# 1 151.8160 92.1458 37.2193 0.0000 0.0000 0.0000
# 2 92.1458 178.9350 42.1878 0.0000 0.0000 0.0000
# 3 37.2193 42.1878 41.6806 0.0000 0.0000 0.0000
# 4 0.0000 0.0000 0.0000 34.1512 0.0000 0.0000
# 5 0.0000 0.0000 0.0000 0.0000 25.2714 0.0000
# 6 0.0000 0.0000 0.0000 0.0000 0.0000 21.7760
#
#
#
# Elastic Compliance Matrix: (Units=1/GPa)
#
#
# Indices 1 2 3 4 5 6 
#
# 1 0.010331 -0.004131 -0.005044 0.000000 0.000000 0.000000
# 2 -0.004131 0.008992 -0.005413 0.000000 0.000000 0.000000
# 3 -0.005044 -0.005413 0.033975 0.000000 0.000000 0.000000
# 4 0.000000 0.000000 0.000000 0.029282 0.000000 0.000000
# 5 0.000000 0.000000 0.000000 0.000000 0.039570 0.000000
# 6 0.000000 0.000000 0.000000 0.000000 0.000000 0.045922
#
#
# Mechanical properties :
#
#
# Convention : Reuss Voigt Hill
#
# Bulk Modulus (GPa) = 41.45517 79.50417 60.47967
# Shear Modulus (GPa) = 24.35610 29.63163 26.99386
#
# Velocity S-wave (km/s) = 3.49890 3.85927 3.68349
# Velocity P-wave (km/s) = 6.09590 7.73437 6.96349
#
# Compressibility (1/GPa) = 0.02412244
#
# Stress axis : x y z
#
# Youngs Moduli (GPa) = 96.79900 111.20973 29.43363
#
# Poissons Ratio (x) = 0.45938 0.14846
# Poissons Ratio (y) = 0.39985 0.15932
# Poissons Ratio (z) = 0.48825 0.60196
#
# Static dielectric constant tensor:
#      x y z
#    x 3.888810 0.000000 0.000000 
#    y 0.000000 4.045100 0.000000 
#    z 0.000000 0.000000 3.440790 
# 
# 
# High freq. dielectric constant tensor:
#      x y z
#    x 1.760490 0.000000 0.000000 
#    y 0.000000 1.798160 0.000000 
#    z 0.000000 0.000000 1.775550 
# 
# From -- ./inp_files/20913.got.cif
#   From: 2010.03.12/outbox.cif.g09.slc.cpg/sg57_11_cif.got.tgz:20913.got - 2010.04.16 15:48:40.
