data_PCOD8233015
_publ_section_title
;
Structure prediction by ZEFSAII (Michael W. Deem and Ramdas Pophale) SiO2 
 PCOD8233015
Probable space group: P B C M
;
_chemical_formula_sum "Si O2"
_cell_formula_units_Z 48
_cell_length_a 30.592160
_cell_length_b 9.069092
_cell_length_c 8.721144
_cell_angle_alpha 90.000000
_cell_angle_beta 90.000000
_cell_angle_gamma 90.000000
_cell_volume 2419.621345
_symmetry_space_group_name_H-M "P B C M"
_symmetry_group_IT_number 57
_symmetry_cell_setting 'orthorhombic'
loop_
_space_group_symop_operation_xyz
x,y,z
-x,-y,1/2+z
x,1/2-y,-z
-x,1/2+y,1/2-z
-x,-y,-z
x,y,1/2-z
-x,1/2+y,z
x,1/2-y,1/2+z
loop_
_atom_site_type_symbol
_atom_site_label
_atom_site_fract_x
_atom_site_fract_y
_atom_site_fract_z
Si Si1 0.961651 0.592401 0.570440
Si Si2 0.217313 0.590275 0.431050
Si Si3 0.459604 0.087829 0.567924
Si Si4 0.381174 0.589233 0.571960
Si Si5 0.705929 0.906465 0.927273
Si Si6 0.864636 0.591390 0.570527
O O1 0.967106 0.750000 0.500000
O O2 0.968340 0.600041 0.750000
O O3 0.913187 0.532130 0.527213
O O4 0.000000 0.500000 0.500000
O O5 0.226226 0.750000 0.500000
O O6 0.220152 0.604332 0.250000
O O7 0.252815 0.473843 0.486737
O O8 0.170076 0.530122 0.486738
O O9 0.459775 0.250000 0.500000
O O10 0.463470 0.095640 0.750000
O O11 0.500000 0.000000 0.500000
O O12 0.415193 0.008345 0.521267
O O13 0.379763 0.750000 0.500000
O O14 0.395026 0.598015 0.750000
O O15 0.334081 0.517184 0.551275
O O16 0.717682 0.883822 0.750000
O O17 0.693396 0.750000 0.000000
O O18 0.854270 0.750000 0.500000
O O19 0.860261 0.615215 0.750000
#
# Coordination Sequence:
#
# PCOD8233015 Si02
#       6
#     8   8   8   8   8   8
#     4  10  20  36  56  81 112 147 188 233 285 341
#     4  11  23  39  59  85 117 152 192 238 289 344
#     4  12  25  43  66  93 126 163 205 251 301 355
#     4  11  24  42  64  92 125 161 201 246 297 350
#     4  11  24  41  63  90 121 157 197 242 292 348
#     4   9  20  37  57  81 110 146 188 234 284 342
#
# _framework density 19.837813000000001
#
# number of rings (size 3 to 8) (size 9 to 14) (size 15 to 20)
#    0.000    1.333    0.000    5.500    0.000    9.333 
#    0.000    1.667    0.000    0.000    0.000    0.000 
#    0.000    0.000    0.000    0.000    0.000    0.000 
#
# Total GULP energy -595327.773806 kJ/mol
# GULP energy per Si atom -12402.661954 kJ/mol
# Density = 1.979266 g / cm^3
# Si number density = 19.837813 Si / 1000 Ang^3
#
#
#
# Elastic Constant Matrix: (Units=GPa)
#
#
# Indices 1 2 3 4 5 6 
#
# 1 122.1892 55.9583 59.4617 0.0000 0.0000 0.0000
# 2 55.9583 128.7948 61.2377 0.0000 0.0000 0.0000
# 3 59.4617 61.2377 123.0706 0.0000 0.0000 0.0000
# 4 0.0000 0.0000 0.0000 38.9186 0.0000 0.0000
# 5 0.0000 0.0000 0.0000 0.0000 32.9401 0.0000
# 6 0.0000 0.0000 0.0000 0.0000 0.0000 61.0778
#
#
#
# Elastic Compliance Matrix: (Units=1/GPa)
#
#
# Indices 1 2 3 4 5 6 
#
# 1 0.011576 -0.003105 -0.004048 0.000000 0.000000 0.000000
# 2 -0.003105 0.011003 -0.003975 0.000000 0.000000 0.000000
# 3 -0.004048 -0.003975 0.012059 0.000000 0.000000 0.000000
# 4 0.000000 0.000000 0.000000 0.025695 0.000000 0.000000
# 5 0.000000 0.000000 0.000000 0.000000 0.030358 0.000000
# 6 0.000000 0.000000 0.000000 0.000000 0.000000 0.016373
#
#
# Mechanical properties :
#
#
# Convention : Reuss Voigt Hill
#
# Bulk Modulus (GPa) = 80.75769 80.81889 80.78829
# Shear Modulus (GPa) = 37.46828 39.74708 38.60768
#
# Velocity S-wave (km/s) = 4.35067 4.48102 4.41632
# Velocity P-wave (km/s) = 8.12620 8.22198 8.17423
#
# Compressibility (1/GPa) = 0.01238272
#
# Stress axis : x y z
#
# Youngs Moduli (GPa) = 86.38728 90.88295 82.92519
#
# Poissons Ratio (x) = 0.28217 0.33568
# Poissons Ratio (y) = 0.26821 0.32962
# Poissons Ratio (z) = 0.34970 0.36125
#
# Static dielectric constant tensor:
#      x y z
#    x 3.930750 0.000000 0.000000 
#    y 0.000000 3.886870 0.000000 
#    z 0.000000 0.000000 3.856280 
# 
# 
# High freq. dielectric constant tensor:
#      x y z
#    x 1.793510 0.000000 0.000000 
#    y 0.000000 1.781490 0.000000 
#    z 0.000000 0.000000 1.788940 
# 
# From -- ./inp_files/9910.got.cif
#   From: 2010.03.12/outbox.cif.g09.slc.cpg/sg57_5_cif.got.tgz:9910.got - 2010.04.16 15:48:40.
