data_PCOD8233395
_publ_section_title
;
Structure prediction by ZEFSAII (Michael W. Deem and Ramdas Pophale) SiO2 
 PCOD8233395
Probable space group: P B C M
;
_chemical_formula_sum "Si O2"
_cell_formula_units_Z 64
_cell_length_a 12.118128
_cell_length_b 15.333916
_cell_length_c 16.586132
_cell_angle_alpha 90.000000
_cell_angle_beta 90.000000
_cell_angle_gamma 90.000000
_cell_volume 3082.007794
_symmetry_space_group_name_H-M "P B C M"
_symmetry_group_IT_number 57
_symmetry_cell_setting 'orthorhombic'
loop_
_space_group_symop_operation_xyz
x,y,z
-x,-y,1/2+z
x,1/2-y,-z
-x,1/2+y,1/2-z
-x,-y,-z
x,y,1/2-z
-x,1/2+y,z
x,1/2-y,1/2+z
loop_
_atom_site_type_symbol
_atom_site_label
_atom_site_fract_x
_atom_site_fract_y
_atom_site_fract_z
Si Si1 0.253173 0.282476 0.090522
Si Si2 0.469241 0.344356 0.157223
Si Si3 0.378044 0.816065 0.845726
Si Si4 0.971107 0.541696 0.345596
Si Si5 0.735046 0.899540 0.842224
Si Si6 0.872190 0.306792 0.845745
Si Si7 0.029305 0.348910 0.154437
Si Si8 0.480399 0.474420 0.591195
O O1 0.359137 0.343692 0.103160
O O2 0.264610 0.204615 0.154570
O O3 0.143056 0.334904 0.108771
O O4 0.249868 0.250000 0.000000
O O5 0.439675 0.328087 0.250000
O O6 0.554289 0.269746 0.126826
O O7 0.519570 0.440207 0.147284
O O8 0.380016 0.825576 0.750000
O O9 0.252927 0.805824 0.878795
O O10 0.428928 0.903666 0.882609
O O11 0.970401 0.549653 0.250000
O O12 0.850739 0.567215 0.378039
O O13 0.063232 0.608356 0.380060
O O14 0.992588 0.444071 0.374431
O O15 0.714392 0.929162 0.750000
O O16 0.640725 0.934571 0.900470
O O17 0.869211 0.309399 0.750000
O O18 0.936753 0.220024 0.874314
O O19 0.048122 0.343387 0.250000
O O20 0.500000 0.500000 0.500000
#
# Coordination Sequence:
#
# PCOD8233395 Si02
#       8
#     8   8   8   8   8   8   8   8
#     4  12  24  40  62  91 128 162 203 258 316 370
#     4  11  24  41  66  93 119 165 219 260 304 370
#     4  10  22  40  63  91 126 164 211 263 310 368
#     4   9  19  34  61  94 119 152 205 259 300 350
#     4  11  21  42  68  87 117 165 215 258 302 369
#     4   9  18  35  58  89 123 154 199 258 303 348
#     4  10  20  37  62  90 119 158 204 250 302 364
#     4  12  26  42  62  92 131 165 203 259 326 379
#
# _framework density 20.765684
#
# number of rings (size 3 to 8) (size 9 to 14) (size 15 to 20)
#    0.000    1.500    2.500    3.000    3.500    0.000 
#    0.000    1.875    0.000    0.000    0.000    0.000 
#    0.000    0.000    0.000    0.000    0.000    0.000 
#
# Total GULP energy -793774.707756 kJ/mol
# GULP energy per Si atom -12402.729809 kJ/mol
# Density = 2.071842 g / cm^3
# Si number density = 20.765684 Si / 1000 Ang^3
#
#
#
# Elastic Constant Matrix: (Units=GPa)
#
#
# Indices 1 2 3 4 5 6 
#
# 1 173.6489 58.6174 20.6002 0.0000 0.0000 0.0000
# 2 58.6174 145.6154 7.3199 0.0000 0.0000 0.0000
# 3 20.6002 7.3199 41.9061 0.0000 0.0000 0.0000
# 4 0.0000 0.0000 0.0000 14.6164 0.0000 0.0000
# 5 0.0000 0.0000 0.0000 0.0000 7.8871 0.0000
# 6 0.0000 0.0000 0.0000 0.0000 0.0000 13.8715
#
#
#
# Elastic Compliance Matrix: (Units=1/GPa)
#
#
# Indices 1 2 3 4 5 6 
#
# 1 0.007015 -0.002674 -0.002981 0.000000 0.000000 0.000000
# 2 -0.002674 0.007948 -0.000074 0.000000 0.000000 0.000000
# 3 -0.002981 -0.000074 0.025341 0.000000 0.000000 0.000000
# 4 0.000000 0.000000 0.000000 0.068416 0.000000 0.000000
# 5 0.000000 0.000000 0.000000 0.000000 0.126790 0.000000
# 6 0.000000 0.000000 0.000000 0.000000 0.000000 0.072090
#
#
# Mechanical properties :
#
#
# Convention : Reuss Voigt Hill
#
# Bulk Modulus (GPa) = 34.66724 59.36059 47.01392
# Shear Modulus (GPa) = 15.21264 25.58385 20.39825
#
# Velocity S-wave (km/s) = 2.70957 3.51383 3.13758
# Velocity P-wave (km/s) = 5.14973 6.71644 5.98458
#
# Compressibility (1/GPa) = 0.02884568
#
# Stress axis : x y z
#
# Youngs Moduli (GPa) = 142.54989 125.82498 39.46118
#
# Poissons Ratio (x) = 0.33646 0.11765
# Poissons Ratio (y) = 0.38119 0.00291
# Poissons Ratio (z) = 0.42500 0.00928
#
# Static dielectric constant tensor:
#      x y z
#    x 3.839540 0.000000 0.000000 
#    y 0.000000 4.043830 0.000000 
#    z 0.000000 0.000000 3.346700 
# 
# 
# High freq. dielectric constant tensor:
#      x y z
#    x 1.827270 0.000000 0.000000 
#    y 0.000000 1.823750 0.000000 
#    z 0.000000 0.000000 1.782250 
# 
# From -- ./inp_files/22019.got.cif
#   From: 2010.03.12/outbox.cif.g09.slc.cpg/sg57_12_cif.got.tgz:22019.got - 2010.04.16 15:48:40.
