data_PCOD8233700
_publ_section_title
;
Structure prediction by ZEFSAII (Michael W. Deem and Ramdas Pophale) SiO2 
 PCOD8233700
Probable space group: P B C M
;
_chemical_formula_sum "Si O2"
_cell_formula_units_Z 64
_cell_length_a 15.164789
_cell_length_b 11.838102
_cell_length_c 17.863960
_cell_angle_alpha 90.000000
_cell_angle_beta 90.000000
_cell_angle_gamma 90.000000
_cell_volume 3206.979526
_symmetry_space_group_name_H-M "P B C M"
_symmetry_group_IT_number 57
_symmetry_cell_setting 'orthorhombic'
loop_
_space_group_symop_operation_xyz
x,y,z
-x,-y,1/2+z
x,1/2-y,-z
-x,1/2+y,1/2-z
-x,-y,-z
x,y,1/2-z
-x,1/2+y,z
x,1/2-y,1/2+z
loop_
_atom_site_type_symbol
_atom_site_label
_atom_site_fract_x
_atom_site_fract_y
_atom_site_fract_z
Si Si1 0.896970 0.229505 0.412623
Si Si2 0.244282 0.615465 0.838224
Si Si3 0.252181 0.356871 0.838459
Si Si4 0.595182 0.229453 0.336808
Si Si5 0.413114 0.269875 0.412878
Si Si6 0.650129 0.521723 0.666217
Si Si7 0.921923 0.772170 0.336941
Si Si8 0.151828 0.991866 0.666017
O O1 0.894245 0.250000 0.500000
O O2 0.841015 0.327391 0.373975
O O3 0.996746 0.227851 0.384429
O O4 0.857382 0.106566 0.394418
O O5 0.232734 0.626300 0.750000
O O6 0.247408 0.486434 0.865196
O O7 0.334732 0.676403 0.863511
O O8 0.260400 0.347496 0.750000
O O9 0.339950 0.303243 0.871472
O O10 0.165062 0.292100 0.867061
O O11 0.569840 0.246521 0.250000
O O12 0.509317 0.232755 0.387397
O O13 0.639429 0.109287 0.352115
O O14 0.402729 0.250000 0.500000
O O15 0.402531 0.402183 0.392931
O O16 0.615127 0.549285 0.750000
O O17 0.753016 0.550790 0.660136
O O18 0.936924 0.742786 0.250000
O O19 0.916403 0.907031 0.349323
O O20 0.138749 0.941572 0.750000
#
# Coordination Sequence:
#
# PCOD8233700 Si02
#       8
#     8   8   8   8   8   8   8   8
#     4  12  26  40  60  93 134 167 196 248 317 387
#     4  10  22  43  67  92 122 160 213 266 308 356
#     4  10  22  43  67  92 122 160 213 266 308 356
#     4  10  22  41  67  93 119 161 216 264 302 357
#     4  12  26  40  60  93 134 167 196 248 317 387
#     4  10  20  41  69  90 116 161 219 263 294 355
#     4  10  22  41  67  93 119 161 216 264 302 357
#     4  10  20  41  69  90 116 161 219 263 294 355
#
# _framework density 19.956474
#
# number of rings (size 3 to 8) (size 9 to 14) (size 15 to 20)
#    0.000    1.500    2.500    2.250    3.500    3.000 
#    0.000    0.000    0.000    0.000    0.000    0.000 
#    0.000    0.000    0.000    0.000    0.000    0.000 
#
# Total GULP energy -793863.024626 kJ/mol
# GULP energy per Si atom -12404.109760 kJ/mol
# Density = 1.991105 g / cm^3
# Si number density = 19.956474 Si / 1000 Ang^3
#
#
#
# Elastic Constant Matrix: (Units=GPa)
#
#
# Indices 1 2 3 4 5 6 
#
# 1 110.4083 37.7618 29.0597 0.0000 0.0000 0.0000
# 2 37.7618 112.8690 43.1852 0.0000 0.0000 0.0000
# 3 29.0597 43.1852 65.1612 0.0000 0.0000 0.0000
# 4 0.0000 0.0000 0.0000 14.6918 0.0000 0.0000
# 5 0.0000 0.0000 0.0000 0.0000 -6.9534 0.0000
# 6 0.0000 0.0000 0.0000 0.0000 0.0000 24.7301
#
#
#
# Elastic Compliance Matrix: (Units=1/GPa)
#
#
# Indices 1 2 3 4 5 6 
#
# 1 0.010708 -0.002352 -0.003217 0.000000 0.000000 0.000000
# 2 -0.002352 0.012386 -0.007160 0.000000 0.000000 0.000000
# 3 -0.003217 -0.007160 0.021526 0.000000 0.000000 0.000000
# 4 0.000000 0.000000 0.000000 0.068065 0.000000 0.000000
# 5 0.000000 0.000000 0.000000 0.000000 -0.143815 0.000000
# 6 0.000000 0.000000 0.000000 0.000000 0.000000 0.040436
#
#
# Mechanical properties :
#
#
# Convention : Reuss Voigt Hill
#
# Bulk Modulus (GPa) = 52.18260 56.49465 54.33862
# Shear Modulus (GPa) = 121.49769 18.38917 69.94343
#
# Velocity S-wave (km/s) = 7.81111 3.03886 5.92656
# Velocity P-wave (km/s) = 10.37094 6.37834 8.60928
#
# Compressibility (1/GPa) = 0.01916348
#
# Stress axis : x y z
#
# Youngs Moduli (GPa) = 93.38509 80.73520 46.45445
#
# Poissons Ratio (x) = 0.18987 0.14944
# Poissons Ratio (y) = 0.21962 0.33262
# Poissons Ratio (z) = 0.30041 0.57807
#
# Static dielectric constant tensor:
#      x y z
#    x 3.667630 0.000000 0.000000 
#    y 0.000000 3.755800 0.000000 
#    z 0.000000 0.000000 3.438470 
# 
# 
# High freq. dielectric constant tensor:
#      x y z
#    x 1.788150 0.000000 0.000000 
#    y 0.000000 1.792430 0.000000 
#    z 0.000000 0.000000 1.755510 
# 
# From -- ./inp_files/22690.got.cif
#   From: 2010.03.12/outbox.cif.g09.slc.cpg/sg57_12_cif.got.tgz:22690.got - 2010.04.16 15:48:40.
