data_PCOD8233143
_publ_section_title
;
Structure prediction by ZEFSAII (Michael W. Deem and Ramdas Pophale) SiO2 
 PCOD8233143
Probable space group: P B C M
;
_chemical_formula_sum "Si O2"
_cell_formula_units_Z 64
_cell_length_a 24.088558
_cell_length_b 15.262451
_cell_length_c 8.546592
_cell_angle_alpha 90.000000
_cell_angle_beta 90.000000
_cell_angle_gamma 90.000000
_cell_volume 3142.158276
_symmetry_space_group_name_H-M "P B C M"
_symmetry_group_IT_number 57
_symmetry_cell_setting 'orthorhombic'
loop_
_space_group_symop_operation_xyz
x,y,z
-x,-y,1/2+z
x,1/2-y,-z
-x,1/2+y,1/2-z
-x,-y,-z
x,y,1/2-z
-x,1/2+y,z
x,1/2-y,1/2+z
loop_
_atom_site_type_symbol
_atom_site_label
_atom_site_fract_x
_atom_site_fract_y
_atom_site_fract_z
Si Si1 0.002255 0.403270 0.065889
Si Si2 0.381786 0.848461 0.935499
Si Si3 0.817062 0.503028 0.566582
Si Si4 0.890030 0.339574 0.934291
Si Si5 0.882993 0.659405 0.433539
Si Si6 0.622399 0.846574 0.564493
Si Si7 0.498100 0.156187 0.432020
Si Si8 0.697019 0.493671 0.434456
O O1 0.996678 0.407772 0.250000
O O2 0.952247 0.346798 0.997918
O O3 0.000000 0.500000 0.000000
O O4 0.059598 0.358516 0.020823
O O5 0.369985 0.848280 0.750000
O O6 0.443418 0.891871 0.971183
O O7 0.375845 0.750000 0.000000
O O8 0.338654 0.908318 0.026902
O O9 0.826172 0.519810 0.750000
O O10 0.852541 0.420031 0.507693
O O11 0.837361 0.586312 0.469498
O O12 0.753336 0.485263 0.530411
O O13 0.891662 0.335621 0.750000
O O14 0.863440 0.250000 0.000000
O O15 0.858549 0.750000 0.500000
O O16 0.893839 0.664866 0.250000
O O17 0.636804 0.750000 0.500000
O O18 0.624536 0.841168 0.750000
O O19 0.561029 0.880502 0.504105
O O20 0.666443 0.918092 0.504975
O O21 0.508095 0.250000 0.500000
O O22 0.490773 0.166056 0.250000
O O23 0.708750 0.497340 0.250000
#
# Coordination Sequence:
#
# PCOD8233143 Si02
#       8
#     8   8   8   8   8   8   8   8
#     4  12  23  39  65  97 133 168 203 246 302 362
#     4  10  20  36  59  86 117 154 196 245 301 361
#     4  11  25  45  65  87 120 160 209 260 307 359
#     4  11  24  42  66  94 125 160 202 250 305 365
#     4  12  25  43  68  96 128 165 206 252 305 364
#     4   9  19  36  58  85 117 154 194 243 298 359
#     4   8  15  30  53  82 115 149 189 237 295 358
#     4  11  24  40  59  85 119 158 203 250 302 360
#
# _framework density 20.368165000000001
#
# number of rings (size 3 to 8) (size 9 to 14) (size 15 to 20)
#    0.000    1.500    1.250    4.125    0.000    4.500 
#    0.000    2.500    0.000    0.000    0.000    0.000 
#    0.000    0.000    0.000    0.000    0.000    0.000 
#
# Total GULP energy -793380.395923 kJ/mol
# GULP energy per Si atom -12396.568686 kJ/mol
# Density = 2.032181 g / cm^3
# Si number density = 20.368165 Si / 1000 Ang^3
#
#
#
# Elastic Constant Matrix: (Units=GPa)
#
#
# Indices 1 2 3 4 5 6 
#
# 1 92.0469 27.8495 3.9017 0.0000 0.0000 0.0000
# 2 27.8495 115.2231 24.6689 0.0000 0.0000 0.0000
# 3 3.9017 24.6689 35.0350 0.0000 0.0000 0.0000
# 4 0.0000 0.0000 0.0000 33.4229 0.0000 0.0000
# 5 0.0000 0.0000 0.0000 0.0000 23.0320 0.0000
# 6 0.0000 0.0000 0.0000 0.0000 0.0000 13.0111
#
#
#
# Elastic Compliance Matrix: (Units=1/GPa)
#
#
# Indices 1 2 3 4 5 6 
#
# 1 0.011741 -0.003012 0.000813 0.000000 0.000000 0.000000
# 2 -0.003012 0.010992 -0.007404 0.000000 0.000000 0.000000
# 3 0.000813 -0.007404 0.033666 0.000000 0.000000 0.000000
# 4 0.000000 0.000000 0.000000 0.029920 0.000000 0.000000
# 5 0.000000 0.000000 0.000000 0.000000 0.043418 0.000000
# 6 0.000000 0.000000 0.000000 0.000000 0.000000 0.076858
#
#
# Mechanical properties :
#
#
# Convention : Reuss Voigt Hill
#
# Bulk Modulus (GPa) = 26.88699 39.46059 33.17379
# Shear Modulus (GPa) = 20.99100 26.28552 23.63826
#
# Velocity S-wave (km/s) = 3.21375 3.59628 3.41038
# Velocity P-wave (km/s) = 5.19616 6.05475 5.64181
#
# Compressibility (1/GPa) = 0.03719271
#
# Stress axis : x y z
#
# Youngs Moduli (GPa) = 85.17289 90.97512 29.70373
#
# Poissons Ratio (x) = 0.27400 -0.02415
# Poissons Ratio (y) = 0.25653 0.21993
# Poissons Ratio (z) = -0.06926 0.67361
#
# Static dielectric constant tensor:
#      x y z
#    x 3.956850 0.000000 0.000000 
#    y 0.000000 3.883980 0.000000 
#    z 0.000000 0.000000 3.810020 
# 
# 
# High freq. dielectric constant tensor:
#      x y z
#    x 1.802800 0.000000 0.000000 
#    y 0.000000 1.796130 0.000000 
#    z 0.000000 0.000000 1.802180 
# 
# From -- ./inp_files/9347.got.cif
#   From: 2010.03.12/outbox.cif.g09.slc.cpg/sg57_5_cif.got.tgz:9347.got - 2010.04.16 15:48:40.
