data_PCOD8233073
_publ_section_title
;
Structure prediction by ZEFSAII (Michael W. Deem and Ramdas Pophale) SiO2 
 PCOD8233073
Probable space group: P B C M
;
_chemical_formula_sum "Si O2"
_cell_formula_units_Z 48
_cell_length_a 14.245811
_cell_length_b 9.053979
_cell_length_c 18.203939
_cell_angle_alpha 90.000000
_cell_angle_beta 90.000000
_cell_angle_gamma 90.000000
_cell_volume 2347.967237
_symmetry_space_group_name_H-M "P B C M"
_symmetry_group_IT_number 57
_symmetry_cell_setting 'orthorhombic'
loop_
_space_group_symop_operation_xyz
x,y,z
-x,-y,1/2+z
x,1/2-y,-z
-x,1/2+y,1/2-z
-x,-y,-z
x,y,1/2-z
-x,1/2+y,z
x,1/2-y,1/2+z
loop_
_atom_site_type_symbol
_atom_site_label
_atom_site_fract_x
_atom_site_fract_y
_atom_site_fract_z
Si Si1 0.302358 0.368253 0.166261
Si Si2 0.591222 0.914373 0.025486
Si Si3 0.118714 0.991779 0.608067
Si Si4 0.986288 0.741343 0.332908
Si Si5 0.230918 0.584707 0.974729
Si Si6 0.202014 0.066070 0.331301
O O1 0.336925 0.384153 0.250000
O O2 0.388512 0.416706 0.113575
O O3 0.211846 0.473056 0.155103
O O4 0.272044 0.200221 0.147931
O O5 0.576172 0.750000 0.000000
O O6 0.500000 0.000000 0.000000
O O7 0.678990 0.984568 0.985416
O O8 0.144567 0.980956 0.521969
O O9 0.079338 0.833873 0.634368
O O10 0.040584 0.118438 0.617295
O O11 0.005775 0.797601 0.250000
O O12 0.903823 0.622557 0.332946
O O13 0.208330 0.570120 0.888247
O O14 0.253737 0.750000 0.000000
O O15 0.226645 0.005677 0.250000
#
# Coordination Sequence:
#
# PCOD8233073 Si02
#       6
#     8   8   8   8   8   8
#     4   9  18  38  65  92 124 167 210 256 314 376
#     4  11  22  41  68  95 125 162 202 258 319 384
#     4  10  22  36  59  88 126 170 215 268 315 371
#     4  10  20  36  57  88 122 163 215 262 313 369
#     4  11  24  42  60  93 126 164 214 261 319 385
#     4   9  19  38  63  86 118 165 214 260 312 365
#
# _framework density 20.443216
#
# number of rings (size 3 to 8) (size 9 to 14) (size 15 to 20)
#    0.000    2.000    1.667    3.000    2.333    0.667 
#    0.000    5.833    0.000    0.000    0.000    0.000 
#    0.000    0.000    0.000    0.000    0.000    0.000 
#
# Total GULP energy -595136.152791 kJ/mol
# GULP energy per Si atom -12398.669850 kJ/mol
# Density = 2.039669 g / cm^3
# Si number density = 20.443216 Si / 1000 Ang^3
#
#
#
# Elastic Constant Matrix: (Units=GPa)
#
#
# Indices 1 2 3 4 5 6 
#
# 1 89.2671 53.0770 58.0406 0.0000 0.0000 0.0000
# 2 53.0770 118.6964 59.5720 0.0000 0.0000 0.0000
# 3 58.0406 59.5720 163.4046 0.0000 0.0000 0.0000
# 4 0.0000 0.0000 0.0000 30.4531 0.0000 0.0000
# 5 0.0000 0.0000 0.0000 0.0000 25.3370 0.0000
# 6 0.0000 0.0000 0.0000 0.0000 0.0000 33.6748
#
#
#
# Elastic Compliance Matrix: (Units=1/GPa)
#
#
# Indices 1 2 3 4 5 6 
#
# 1 0.017198 -0.005660 -0.004045 0.000000 0.000000 0.000000
# 2 -0.005660 0.012174 -0.002428 0.000000 0.000000 0.000000
# 3 -0.004045 -0.002428 0.008442 0.000000 0.000000 0.000000
# 4 0.000000 0.000000 0.000000 0.032837 0.000000 0.000000
# 5 0.000000 0.000000 0.000000 0.000000 0.039468 0.000000
# 6 0.000000 0.000000 0.000000 0.000000 0.000000 0.029696
#
#
# Mechanical properties :
#
#
# Convention : Reuss Voigt Hill
#
# Bulk Modulus (GPa) = 73.81345 79.19413 76.50379
# Shear Modulus (GPa) = 29.65644 31.27154 30.46399
#
# Velocity S-wave (km/s) = 3.81290 3.91535 3.86447
# Velocity P-wave (km/s) = 7.45448 7.69823 7.57733
#
# Compressibility (1/GPa) = 0.01354767
#
# Stress axis : x y z
#
# Youngs Moduli (GPa) = 58.14681 82.13950 118.45908
#
# Poissons Ratio (x) = 0.46492 0.47918
# Poissons Ratio (y) = 0.32912 0.28761
# Poissons Ratio (z) = 0.23521 0.19943
#
# Static dielectric constant tensor:
#      x y z
#    x 3.456940 0.000000 0.000000 
#    y 0.000000 3.707440 0.000000 
#    z 0.000000 0.000000 3.852400 
# 
# 
# High freq. dielectric constant tensor:
#      x y z
#    x 1.774650 0.000000 0.000000 
#    y 0.000000 1.797780 0.000000 
#    z 0.000000 0.000000 1.805270 
# 
# From -- ./inp_files/22449.got.cif
#   From: 2010.03.12/outbox.cif.g09.slc.cpg/sg57_12_cif.got.tgz:22449.got - 2010.04.16 15:48:40.
