data_PCOD8233005
_publ_section_title
;
Structure prediction by ZEFSAII (Michael W. Deem and Ramdas Pophale) SiO2 
 PCOD8233005
Probable space group: P B C M
;
_chemical_formula_sum "Si O2"
_cell_formula_units_Z 48
_cell_length_a 9.752113
_cell_length_b 30.476123
_cell_length_c 8.705706
_cell_angle_alpha 90.000000
_cell_angle_beta 90.000000
_cell_angle_gamma 90.000000
_cell_volume 2587.393240
_symmetry_space_group_name_H-M "P B C M"
_symmetry_group_IT_number 57
_symmetry_cell_setting 'orthorhombic'
loop_
_space_group_symop_operation_xyz
x,y,z
-x,-y,1/2+z
x,1/2-y,-z
-x,1/2+y,1/2-z
-x,-y,-z
x,y,1/2-z
-x,1/2+y,z
x,1/2-y,1/2+z
loop_
_atom_site_type_symbol
_atom_site_label
_atom_site_fract_x
_atom_site_fract_y
_atom_site_fract_z
Si Si1 0.405040 0.036674 0.070691
Si Si2 0.100144 0.703431 0.431679
Si Si3 0.391790 0.703606 0.567916
Si Si4 0.091272 0.461701 0.567863
Si Si5 0.594008 0.627334 0.571948
Si Si6 0.910995 0.869310 0.429561
O O1 0.420982 0.033573 0.250000
O O2 0.248078 0.028902 0.019457
O O3 0.455932 0.084384 0.017777
O O4 0.500000 0.000000 0.000000
O O5 0.053149 0.750000 0.500000
O O6 0.112232 0.707647 0.250000
O O7 0.246061 0.689019 0.500240
O O8 0.988845 0.667629 0.476140
O O9 0.439696 0.750000 0.500000
O O10 0.379781 0.707476 0.750000
O O11 0.503636 0.668121 0.515764
O O12 0.073583 0.458486 0.750000
O O13 0.041035 0.416519 0.491451
O O14 0.000000 0.500000 0.500000
O O15 0.570989 0.617521 0.750000
O O16 0.751261 0.638388 0.535887
O O17 0.945906 0.865781 0.250000
#
# Coordination Sequence:
#
# PCOD8233005 Si02
#       6
#     8   8   8   8   8   8
#     4  10  21  36  56  80 108 140 178 220 265 316
#     4  11  22  37  56  80 109 143 181 222 266 317
#     4  10  20  36  56  80 109 141 177 220 265 315
#     4  10  21  37  56  81 109 142 181 223 268 318
#     4   9  20  37  57  80 108 140 177 219 267 317
#     4  10  20  37  58  81 109 142 178 222 270 319
#
# _framework density 18.551490000000001
#
# number of rings (size 3 to 8) (size 9 to 14) (size 15 to 20)
#    0.000    2.000    0.000    4.500    0.000    6.000 
#    0.000    3.333    0.000    0.000    0.000    0.000 
#    0.000    0.000    0.000    0.000    0.000    0.000 
#
# Total GULP energy -595392.883538 kJ/mol
# GULP energy per Si atom -12404.018407 kJ/mol
# Density = 1.850927 g / cm^3
# Si number density = 18.551490 Si / 1000 Ang^3
#
#
#
# Elastic Constant Matrix: (Units=GPa)
#
#
# Indices 1 2 3 4 5 6 
#
# 1 88.6737 90.1701 42.9405 0.0000 0.0000 0.0000
# 2 90.1701 155.7442 59.2150 0.0000 0.0000 0.0000
# 3 42.9405 59.2150 89.1070 0.0000 0.0000 0.0000
# 4 0.0000 0.0000 0.0000 39.4617 0.0000 0.0000
# 5 0.0000 0.0000 0.0000 0.0000 29.4201 0.0000
# 6 0.0000 0.0000 0.0000 0.0000 0.0000 42.9321
#
#
#
# Elastic Compliance Matrix: (Units=1/GPa)
#
#
# Indices 1 2 3 4 5 6 
#
# 1 0.028294 -0.014983 -0.003678 0.000000 0.000000 0.000000
# 2 -0.014983 0.016525 -0.003762 0.000000 0.000000 0.000000
# 3 -0.003678 -0.003762 0.015495 0.000000 0.000000 0.000000
# 4 0.000000 0.000000 0.000000 0.025341 0.000000 0.000000
# 5 0.000000 0.000000 0.000000 0.000000 0.033990 0.000000
# 6 0.000000 0.000000 0.000000 0.000000 0.000000 0.023293
#
#
# Mechanical properties :
#
#
# Convention : Reuss Voigt Hill
#
# Bulk Modulus (GPa) = 64.64532 79.79735 72.22133
# Shear Modulus (GPa) = 25.91482 31.77607 28.84544
#
# Velocity S-wave (km/s) = 3.74158 4.14316 3.94748
# Velocity P-wave (km/s) = 7.32038 8.12373 7.73250
#
# Compressibility (1/GPa) = 0.01546902
#
# Stress axis : x y z
#
# Youngs Moduli (GPa) = 35.34309 60.51277 64.53790
#
# Poissons Ratio (x) = 0.90665 0.23739
# Poissons Ratio (y) = 0.52954 0.24277
# Poissons Ratio (z) = 0.13000 0.22763
#
# Static dielectric constant tensor:
#      x y z
#    x 3.299520 0.000000 0.000000 
#    y 0.000000 3.551070 0.000000 
#    z 0.000000 0.000000 3.645300 
# 
# 
# High freq. dielectric constant tensor:
#      x y z
#    x 1.717610 0.000000 0.000000 
#    y 0.000000 1.729250 0.000000 
#    z 0.000000 0.000000 1.735120 
# 
# From -- ./inp_files/2094.got.cif
#   From: 2010.03.12/outbox.cif.g09.slc.cpg/sg57_2_cif.got.tgz:2094.got - 2010.04.16 15:48:40.
