data_PCOD8233127
_publ_section_title
;
Structure prediction by ZEFSAII (Michael W. Deem and Ramdas Pophale) SiO2 
 PCOD8233127
Probable space group: P B C M
;
_chemical_formula_sum "Si O2"
_cell_formula_units_Z 48
_cell_length_a 15.115645
_cell_length_b 18.831460
_cell_length_c 9.045113
_cell_angle_alpha 90.000000
_cell_angle_beta 90.000000
_cell_angle_gamma 90.000000
_cell_volume 2574.688378
_symmetry_space_group_name_H-M "P B C M"
_symmetry_group_IT_number 57
_symmetry_cell_setting 'orthorhombic'
loop_
_space_group_symop_operation_xyz
x,y,z
-x,-y,1/2+z
x,1/2-y,-z
-x,1/2+y,1/2-z
-x,-y,-z
x,y,1/2-z
-x,1/2+y,z
x,1/2-y,1/2+z
loop_
_atom_site_type_symbol
_atom_site_label
_atom_site_fract_x
_atom_site_fract_y
_atom_site_fract_z
Si Si1 0.604236 0.431010 0.422759
Si Si2 0.748412 0.824235 0.077014
Si Si3 0.595688 0.924603 0.076511
Si Si4 0.911029 0.577123 0.920836
Si Si5 0.090684 0.586383 0.421750
Si Si6 0.758242 0.174306 0.574898
O O1 0.610032 0.446170 0.250000
O O2 0.505163 0.407329 0.469361
O O3 0.630792 0.503430 0.503083
O O4 0.671151 0.369571 0.471568
O O5 0.746413 0.810453 0.250000
O O6 0.656562 0.859494 0.022493
O O7 0.827731 0.876170 0.032155
O O8 0.763093 0.750000 0.000000
O O9 0.606399 0.936105 0.250000
O O10 0.937937 0.587962 0.750000
O O11 0.884917 0.495546 0.950370
O O12 0.991522 0.601689 0.023607
O O13 0.098148 0.606959 0.250000
O O14 0.155424 0.634894 0.516289
O O15 0.749092 0.250000 0.500000
O O16 0.766130 0.183277 0.750000
#
# Coordination Sequence:
#
# PCOD8233127 Si02
#       6
#     8   8   8   8   8   8
#     4   9  19  35  56  81 106 136 176 219 261 308
#     4  10  21  35  52  76 108 143 175 211 257 309
#     4   9  18  35  57  80 107 138 174 217 263 310
#     4   9  19  36  56  79 107 139 176 218 264 314
#     4  10  20  36  59  82 103 135 178 222 269 316
#     4  11  23  37  53  77 110 144 178 218 265 318
#
# _framework density 18.643032999999999
#
# number of rings (size 3 to 8) (size 9 to 14) (size 15 to 20)
#    0.000    2.333    0.000    2.000    0.000    6.000 
#    0.000    1.667    0.000    0.000    0.000    0.000 
#    0.000    0.000    0.000    0.000    0.000    0.000 
#
# Total GULP energy -595343.392779 kJ/mol
# GULP energy per Si atom -12402.987350 kJ/mol
# Density = 1.860060 g / cm^3
# Si number density = 18.643033 Si / 1000 Ang^3
#
#
#
# Elastic Constant Matrix: (Units=GPa)
#
#
# Indices 1 2 3 4 5 6 
#
# 1 81.9113 41.6719 28.2120 0.0000 0.0000 0.0000
# 2 41.6719 86.5659 29.2285 0.0000 0.0000 0.0000
# 3 28.2120 29.2285 47.8593 0.0000 0.0000 0.0000
# 4 0.0000 0.0000 0.0000 35.1522 0.0000 0.0000
# 5 0.0000 0.0000 0.0000 0.0000 21.8980 0.0000
# 6 0.0000 0.0000 0.0000 0.0000 0.0000 -0.5941
#
#
#
# Elastic Compliance Matrix: (Units=1/GPa)
#
#
# Indices 1 2 3 4 5 6 
#
# 1 0.017672 -0.006286 -0.006578 0.000000 0.000000 0.000000
# 2 -0.006286 0.016789 -0.006548 0.000000 0.000000 0.000000
# 3 -0.006578 -0.006548 0.028771 0.000000 0.000000 0.000000
# 4 0.000000 0.000000 0.000000 0.028448 0.000000 0.000000
# 5 0.000000 0.000000 0.000000 0.000000 0.045666 0.000000
# 6 0.000000 0.000000 0.000000 0.000000 0.000000 -1.683217
#
#
# Mechanical properties :
#
#
# Convention : Reuss Voigt Hill
#
# Bulk Modulus (GPa) = 40.97039 46.06237 43.51638
# Shear Modulus (GPa) = -3.33576 19.10616 7.88520
#
# Velocity S-wave (km/s) = -1.33909 3.20479 2.05882
# Velocity P-wave (km/s) = 4.43092 6.20124 5.38927
#
# Compressibility (1/GPa) = 0.02440787
#
# Stress axis : x y z
#
# Youngs Moduli (GPa) = 56.58672 59.56388 34.75701
#
# Poissons Ratio (x) = 0.37442 0.22864
# Poissons Ratio (y) = 0.35570 0.22758
# Poissons Ratio (z) = 0.37224 0.39001
#
# Static dielectric constant tensor:
#      x y z
#    x 3.624430 0.000000 0.000000 
#    y 0.000000 3.393790 0.000000 
#    z 0.000000 0.000000 3.410190 
# 
# 
# High freq. dielectric constant tensor:
#      x y z
#    x 1.735940 0.000000 0.000000 
#    y 0.000000 1.719910 0.000000 
#    z 0.000000 0.000000 1.722790 
# 
# From -- ./inp_files/4534.got.cif
#   From: 2010.03.12/outbox.cif.g09.slc.cpg/sg57_3_cif.got.tgz:4534.got - 2010.04.16 15:48:40.
