data_PCOD8233101
_publ_section_title
;
Structure prediction by ZEFSAII (Michael W. Deem and Ramdas Pophale) SiO2 
 PCOD8233101
Probable space group: P B C M
;
_chemical_formula_sum "Si O2"
_cell_formula_units_Z 64
_cell_length_a 11.737335
_cell_length_b 18.892685
_cell_length_c 15.119384
_cell_angle_alpha 90.000000
_cell_angle_beta 90.000000
_cell_angle_gamma 90.000000
_cell_volume 3352.719968
_symmetry_space_group_name_H-M "P B C M"
_symmetry_group_IT_number 57
_symmetry_cell_setting 'orthorhombic'
loop_
_space_group_symop_operation_xyz
x,y,z
-x,-y,1/2+z
x,1/2-y,-z
-x,1/2+y,1/2-z
-x,-y,-z
x,y,1/2-z
-x,1/2+y,z
x,1/2-y,1/2+z
loop_
_atom_site_type_symbol
_atom_site_label
_atom_site_fract_x
_atom_site_fract_y
_atom_site_fract_z
Si Si1 0.822901 0.179009 0.945923
Si Si2 0.808991 0.069550 0.410012
Si Si3 0.410176 0.651840 0.347857
Si Si4 0.950056 0.536285 0.347261
Si Si5 0.195474 0.419214 0.486860
Si Si6 0.984794 0.878833 0.149545
Si Si7 0.424022 0.333245 0.496190
Si Si8 0.401279 0.818188 0.149940
O O1 0.711560 0.150911 0.894871
O O2 0.928753 0.184915 0.877650
O O3 0.798332 0.250000 0.000000
O O4 0.858296 0.118228 0.013196
O O5 0.704436 0.106690 0.360218
O O6 0.916893 0.058378 0.346402
O O7 0.767002 0.995176 0.449879
O O8 0.459401 0.634317 0.250000
O O9 0.502236 0.635107 0.422895
O O10 0.381859 0.734369 0.354471
O O11 0.900713 0.555767 0.250000
O O12 0.875982 0.574682 0.422259
O O13 0.945916 0.452037 0.362373
O O14 0.124297 0.376586 0.413538
O O15 0.306899 0.373904 0.503246
O O16 0.943643 0.866995 0.250000
O O17 0.400156 0.250000 0.500000
O O18 0.489777 0.346857 0.403961
O O19 0.414984 0.845637 0.250000
#
# Coordination Sequence:
#
# PCOD8233101 Si02
#       8
#     8   8   8   8   8   8   8   8
#     4  12  19  34  61  87 117 148 186 242 297 341
#     4  11  19  37  60  85 115 146 192 238 294 342
#     4  10  20  37  60  83 112 147 189 241 294 344
#     4  10  20  37  59  84 116 155 192 234 289 348
#     4  11  22  38  61  82 117 160 195 236 284 346
#     4  10  21  38  59  84 116 156 194 231 288 352
#     4  10  22  40  59  80 112 155 195 236 286 342
#     4  10  20  36  58  84 111 150 192 235 292 345
#
# _framework density 19.088978999999998
#
# number of rings (size 3 to 8) (size 9 to 14) (size 15 to 20)
#    0.000    1.500    5.000    1.875    0.000    2.500 
#    0.000    0.000    0.000    0.000    0.000    0.000 
#    0.000    0.000    0.000    0.000    0.000    0.000 
#
# Total GULP energy -793453.565764 kJ/mol
# GULP energy per Si atom -12397.711965 kJ/mol
# Density = 1.904553 g / cm^3
# Si number density = 19.088979 Si / 1000 Ang^3
#
#
#
# Elastic Constant Matrix: (Units=GPa)
#
#
# Indices 1 2 3 4 5 6 
#
# 1 104.6580 30.6336 58.1460 0.0000 0.0000 0.0000
# 2 30.6336 30.8530 24.6126 0.0000 0.0000 0.0000
# 3 58.1460 24.6126 153.8276 0.0000 0.0000 0.0000
# 4 0.0000 0.0000 0.0000 15.2626 0.0000 0.0000
# 5 0.0000 0.0000 0.0000 0.0000 15.8384 0.0000
# 6 0.0000 0.0000 0.0000 0.0000 0.0000 30.2552
#
#
#
# Elastic Compliance Matrix: (Units=1/GPa)
#
#
# Indices 1 2 3 4 5 6 
#
# 1 0.015203 -0.012049 -0.003819 0.000000 0.000000 0.000000
# 2 -0.012049 0.046703 -0.002918 0.000000 0.000000 0.000000
# 3 -0.003819 -0.002918 0.008411 0.000000 0.000000 0.000000
# 4 0.000000 0.000000 0.000000 0.065519 0.000000 0.000000
# 5 0.000000 0.000000 0.000000 0.000000 0.063138 0.000000
# 6 0.000000 0.000000 0.000000 0.000000 0.000000 0.033052
#
#
# Mechanical properties :
#
#
# Convention : Reuss Voigt Hill
#
# Bulk Modulus (GPa) = 30.53837 57.34699 43.94268
# Shear Modulus (GPa) = 17.82442 24.00099 20.91270
#
# Velocity S-wave (km/s) = 3.05905 3.54972 3.31348
# Velocity P-wave (km/s) = 5.33945 6.84893 6.14075
#
# Compressibility (1/GPa) = 0.03274570
#
# Stress axis : x y z
#
# Youngs Moduli (GPa) = 65.77479 21.41196 118.88849
#
# Poissons Ratio (x) = 0.25799 0.45403
# Poissons Ratio (y) = 0.79251 0.34693
# Poissons Ratio (z) = 0.25119 0.06248
#
# Static dielectric constant tensor:
#      x y z
#    x 3.249180 0.000000 0.000000 
#    y 0.000000 3.386440 0.000000 
#    z 0.000000 0.000000 3.788570 
# 
# 
# High freq. dielectric constant tensor:
#      x y z
#    x 1.732970 0.000000 0.000000 
#    y 0.000000 1.718120 0.000000 
#    z 0.000000 0.000000 1.760680 
# 
# From -- ./inp_files/17970.got.cif
#   From: 2010.03.12/outbox.cif.g09.slc.cpg/sg57_9_cif.got.tgz:17970.got - 2010.04.16 15:48:40.
