data_PCOD8233652
_publ_section_title
;
Structure prediction by ZEFSAII (Michael W. Deem and Ramdas Pophale) SiO2 
 PCOD8233652
Probable space group: P B C M
;
_chemical_formula_sum "Si O2"
_cell_formula_units_Z 48
_cell_length_a 28.153015
_cell_length_b 9.123167
_cell_length_c 9.037204
_cell_angle_alpha 90.000000
_cell_angle_beta 90.000000
_cell_angle_gamma 90.000000
_cell_volume 2321.157565
_symmetry_space_group_name_H-M "P B C M"
_symmetry_group_IT_number 57
_symmetry_cell_setting 'orthorhombic'
loop_
_space_group_symop_operation_xyz
x,y,z
-x,-y,1/2+z
x,1/2-y,-z
-x,1/2+y,1/2-z
-x,-y,-z
x,y,1/2-z
-x,1/2+y,z
x,1/2-y,1/2+z
loop_
_atom_site_type_symbol
_atom_site_label
_atom_site_fract_x
_atom_site_fract_y
_atom_site_fract_z
Si Si1 0.223898 0.592037 0.428248
Si Si2 0.389731 0.586152 0.527594
Si Si3 0.532571 0.337118 0.250000
Si Si4 0.962382 0.598573 0.419081
Si Si5 0.560475 0.009260 0.250000
Si Si6 0.854778 0.906663 0.922000
Si Si7 0.302271 0.100644 0.084283
O O1 0.232483 0.750000 0.500000
O O2 0.223360 0.602859 0.250000
O O3 0.174551 0.528072 0.489044
O O4 0.265475 0.485406 0.481819
O O5 0.369377 0.750000 0.500000
O O6 0.439877 0.598582 0.610378
O O7 0.402764 0.495086 0.383125
O O8 0.349588 0.494953 0.610357
O O9 0.532363 0.162084 0.250000
O O10 0.477554 0.379663 0.250000
O O11 0.964004 0.750000 0.500000
O O12 0.978006 0.618062 0.250000
O O13 0.908952 0.536589 0.431176
O O14 0.000000 0.500000 0.500000
O O15 0.838709 0.894322 0.750000
O O16 0.847251 0.750000 0.000000
O O17 0.281664 0.130551 0.250000
O O18 0.314491 0.250000 0.000000
#
# Coordination Sequence:
#
# PCOD8233652 Si02
#       7
#     8   8   4   8   4   8   8
#     4  12  26  44  68  95 126 164 206 254 312 372
#     4  10  22  40  63  88 122 163 203 250 306 364
#     4  10  20  40  56  92 118 164 200 250 301 362
#     4  10  21  37  60  89 125 169 215 266 319 376
#     4  10  22  34  64  86 126 156 204 246 303 362
#     4  10  21  40  64  92 127 167 213 263 318 374
#     4  12  26  44  66  93 126 160 206 257 310 373
#
# _framework density 20.679335999999999
#
# number of rings (size 3 to 8) (size 9 to 14) (size 15 to 20)
#    0.000    1.333    0.833    4.500    2.333    4.000 
#    0.000    0.000    0.000    0.000    0.000    0.000 
#    0.000    0.000    0.000    0.000    0.000    0.000 
#
# Total GULP energy -595149.858463 kJ/mol
# GULP energy per Si atom -12398.955385 kJ/mol
# Density = 2.063227 g / cm^3
# Si number density = 20.679336 Si / 1000 Ang^3
#
#
#
# Elastic Constant Matrix: (Units=GPa)
#
#
# Indices 1 2 3 4 5 6 
#
# 1 88.0823 37.5671 36.8960 0.0000 0.0000 0.0000
# 2 37.5671 83.0092 37.2959 0.0000 0.0000 0.0000
# 3 36.8960 37.2959 172.6547 0.0000 0.0000 0.0000
# 4 0.0000 0.0000 0.0000 35.6122 0.0000 0.0000
# 5 0.0000 0.0000 0.0000 0.0000 33.8330 0.0000
# 6 0.0000 0.0000 0.0000 0.0000 0.0000 39.0898
#
#
#
# Elastic Compliance Matrix: (Units=1/GPa)
#
#
# Indices 1 2 3 4 5 6 
#
# 1 0.014596 -0.005764 -0.001874 0.000000 0.000000 0.000000
# 2 -0.005764 0.015618 -0.002142 0.000000 0.000000 0.000000
# 3 -0.001874 -0.002142 0.006655 0.000000 0.000000 0.000000
# 4 0.000000 0.000000 0.000000 0.028080 0.000000 0.000000
# 5 0.000000 0.000000 0.000000 0.000000 0.029557 0.000000
# 6 0.000000 0.000000 0.000000 0.000000 0.000000 0.025582
#
#
# Mechanical properties :
#
#
# Convention : Reuss Voigt Hill
#
# Bulk Modulus (GPa) = 57.77196 63.02936 60.40066
# Shear Modulus (GPa) = 34.38364 37.17279 35.77822
#
# Velocity S-wave (km/s) = 4.08205 4.24439 4.16401
# Velocity P-wave (km/s) = 7.08627 7.38684 7.23811
#
# Compressibility (1/GPa) = 0.01730944
#
# Stress axis : x y z
#
# Youngs Moduli (GPa) = 68.51056 64.02992 150.26065
#
# Poissons Ratio (x) = 0.36905 0.28161
# Poissons Ratio (y) = 0.39488 0.32185
# Poissons Ratio (z) = 0.12840 0.13715
#
# Static dielectric constant tensor:
#      x y z
#    x 3.435000 0.000000 0.000000 
#    y 0.000000 3.779530 0.000000 
#    z 0.000000 0.000000 4.129530 
# 
# 
# High freq. dielectric constant tensor:
#      x y z
#    x 1.812020 0.000000 0.000000 
#    y 0.000000 1.803860 0.000000 
#    z 0.000000 0.000000 1.833420 
# 
# From -- ./inp_files/10190.got.cif
#   From: 2010.03.12/outbox.cif.g09.slc.cpg/sg57_6_cif.got.tgz:10190.got - 2010.04.16 15:48:40.
