data_PCOD8233683
_publ_section_title
;
Structure prediction by ZEFSAII (Michael W. Deem and Ramdas Pophale) SiO2 
 PCOD8233683
Probable space group: P B C M
;
_chemical_formula_sum "Si O2"
_cell_formula_units_Z 56
_cell_length_a 8.836498
_cell_length_b 14.295608
_cell_length_c 20.922838
_cell_angle_alpha 90.000000
_cell_angle_beta 90.000000
_cell_angle_gamma 90.000000
_cell_volume 2643.037998
_symmetry_space_group_name_H-M "P B C M"
_symmetry_group_IT_number 57
_symmetry_cell_setting 'orthorhombic'
loop_
_space_group_symop_operation_xyz
x,y,z
-x,-y,1/2+z
x,1/2-y,-z
-x,1/2+y,1/2-z
-x,-y,-z
x,y,1/2-z
-x,1/2+y,z
x,1/2-y,1/2+z
loop_
_atom_site_type_symbol
_atom_site_label
_atom_site_fract_x
_atom_site_fract_y
_atom_site_fract_z
Si Si1 0.691531 0.125575 0.324245
Si Si2 0.296844 0.827615 0.323337
Si Si3 0.025696 0.383219 0.320781
Si Si4 0.976192 0.907570 0.677285
Si Si5 0.266263 0.144841 0.568148
Si Si6 0.479694 0.987393 0.390083
Si Si7 0.260734 0.353812 0.928255
O O1 0.721445 0.129634 0.250000
O O2 0.632504 0.228220 0.346993
O O3 0.573567 0.043208 0.336636
O O4 0.856813 0.104362 0.353449
O O5 0.337499 0.846960 0.250000
O O6 0.114919 0.813365 0.332974
O O7 0.361544 0.914193 0.362006
O O8 0.098997 0.366323 0.250000
O O9 0.942392 0.482807 0.321490
O O10 0.151076 0.375569 0.374790
O O11 0.956432 0.866686 0.750000
O O12 0.857689 0.859751 0.629602
O O13 0.332349 0.249783 0.577281
O O14 0.183706 0.136169 0.498804
O O15 0.403094 0.070482 0.566835
O O16 0.390066 0.067197 0.428070
#
# Coordination Sequence:
#
# PCOD8233683 Si02
#       7
#     8   8   8   8   8   8   8
#     4  10  21  37  60  91 124 158 201 254 309 366
#     4  10  21  37  60  91 124 158 201 254 309 366
#     4  10  20  40  67  93 121 157 204 257 309 363
#     4  10  20  40  67  93 121 157 204 257 309 363
#     4  11  25  43  63  91 125 163 209 257 308 368
#     4  12  22  40  60  86 123 170 205 252 303 368
#     4  11  25  43  63  91 125 163 209 257 308 368
#
# _framework density 21.187739000000001
#
# number of rings (size 3 to 8) (size 9 to 14) (size 15 to 20)
#    0.000    1.429    2.857    2.571    0.000    3.429 
#    0.000    0.000    0.000    5.143    0.000    0.000 
#    0.000    0.000    0.000    0.000    0.000    0.000 
#
# Total GULP energy -693882.501980 kJ/mol
# GULP energy per Si atom -12390.758964 kJ/mol
# Density = 2.113952 g / cm^3
# Si number density = 21.187739 Si / 1000 Ang^3
#
#
#
# Elastic Constant Matrix: (Units=GPa)
#
#
# Indices 1 2 3 4 5 6 
#
# 1 90.0771 33.6336 51.7639 0.0000 0.0000 0.0000
# 2 33.6336 115.9000 36.6768 0.0000 0.0000 0.0000
# 3 51.7639 36.6768 119.0619 0.0000 0.0000 0.0000
# 4 0.0000 0.0000 0.0000 27.9791 0.0000 0.0000
# 5 0.0000 0.0000 0.0000 0.0000 22.1348 0.0000
# 6 0.0000 0.0000 0.0000 0.0000 0.0000 16.1385
#
#
#
# Elastic Compliance Matrix: (Units=1/GPa)
#
#
# Indices 1 2 3 4 5 6 
#
# 1 0.015484 -0.002618 -0.005925 0.000000 0.000000 0.000000
# 2 -0.002618 0.010003 -0.001943 0.000000 0.000000 0.000000
# 3 -0.005925 -0.001943 0.011574 0.000000 0.000000 0.000000
# 4 0.000000 0.000000 0.000000 0.035741 0.000000 0.000000
# 5 0.000000 0.000000 0.000000 0.000000 0.045178 0.000000
# 6 0.000000 0.000000 0.000000 0.000000 0.000000 0.061964
#
#
# Mechanical properties :
#
#
# Convention : Reuss Voigt Hill
#
# Bulk Modulus (GPa) = 62.16090 63.24308 62.70199
# Shear Modulus (GPa) = 24.23900 26.78148 25.51024
#
# Velocity S-wave (km/s) = 3.38599 3.55915 3.47365
# Velocity P-wave (km/s) = 6.68494 6.84133 6.76358
#
# Compressibility (1/GPa) = 0.01608728
#
# Stress axis : x y z
#
# Youngs Moduli (GPa) = 64.58107 99.97182 86.40268
#
# Poissons Ratio (x) = 0.26176 0.51198
# Poissons Ratio (y) = 0.16910 0.16788
# Poissons Ratio (z) = 0.38267 0.19424
#
# Static dielectric constant tensor:
#      x y z
#    x 3.574360 0.000000 0.000000 
#    y 0.000000 4.274510 0.000000 
#    z 0.000000 0.000000 3.672490 
# 
# 
# High freq. dielectric constant tensor:
#      x y z
#    x 1.811990 0.000000 0.000000 
#    y 0.000000 1.860030 0.000000 
#    z 0.000000 0.000000 1.814180 
# 
# From -- ./inp_files/24447.got.cif
#   From: 2010.03.12/outbox.cif.g09.slc.cpg/sg57_13_cif.got.tgz:24447.got - 2010.04.16 15:48:40.
