data_PCOD8233630
_publ_section_title
;
Structure prediction by ZEFSAII (Michael W. Deem and Ramdas Pophale) SiO2 
 PCOD8233630
Probable space group: P B C M
;
_chemical_formula_sum "Si O2"
_cell_formula_units_Z 56
_cell_length_a 19.274031
_cell_length_b 9.460440
_cell_length_c 15.253305
_cell_angle_alpha 90.000000
_cell_angle_beta 90.000000
_cell_angle_gamma 90.000000
_cell_volume 2781.300047
_symmetry_space_group_name_H-M "P B C M"
_symmetry_group_IT_number 57
_symmetry_cell_setting 'orthorhombic'
loop_
_space_group_symop_operation_xyz
x,y,z
-x,-y,1/2+z
x,1/2-y,-z
-x,1/2+y,1/2-z
-x,-y,-z
x,y,1/2-z
-x,1/2+y,z
x,1/2-y,1/2+z
loop_
_atom_site_type_symbol
_atom_site_label
_atom_site_fract_x
_atom_site_fract_y
_atom_site_fract_z
Si Si1 0.685195 0.613028 0.054053
Si Si2 0.425368 0.757047 0.852971
Si Si3 0.179527 0.374830 0.650387
Si Si4 0.070165 0.414314 0.503215
Si Si5 0.288297 0.866330 0.934670
Si Si6 0.449785 0.442602 0.854136
Si Si7 0.830616 0.955713 0.348910
O O1 0.748168 0.561005 0.116578
O O2 0.616325 0.644316 0.109698
O O3 0.708702 0.750000 0.000000
O O4 0.671082 0.486726 0.987224
O O5 0.430787 0.758503 0.750000
O O6 0.346656 0.788520 0.878083
O O7 0.447117 0.603141 0.888705
O O8 0.480001 0.871077 0.890998
O O9 0.164235 0.423052 0.750000
O O10 0.117126 0.435846 0.590311
O O11 0.191934 0.207004 0.644099
O O12 0.051500 0.250000 0.500000
O O13 0.108217 0.476122 0.417938
O O14 0.000000 0.500000 0.500000
O O15 0.231242 0.936921 0.871957
O O16 0.253930 0.750000 0.000000
O O17 0.446096 0.434455 0.750000
O O18 0.856030 0.990176 0.250000
#
# Coordination Sequence:
#
# PCOD8233630 Si02
#       7
#     8   8   8   8   8   8   8
#     4  12  22  39  61  88 119 158 208 257 311 379
#     4  10  23  41  58  82 117 159 207 260 320 379
#     4  10  20  39  65  92 124 165 211 253 302 366
#     4  10  21  40  64  93 129 164 203 250 298 357
#     4  12  23  39  61  88 126 157 203 265 322 369
#     4  10  23  41  58  82 117 158 206 260 317 378
#     4  10  21  40  66  92 123 166 211 253 305 370
#
# _framework density 20.13447
#
# number of rings (size 3 to 8) (size 9 to 14) (size 15 to 20)
#    0.000    1.429    4.286    1.286    2.000    2.286 
#    0.000    0.000    0.000    0.000    0.000    0.000 
#    0.000    0.000    0.000    0.000    0.000    0.000 
#
# Total GULP energy -694285.414025 kJ/mol
# GULP energy per Si atom -12397.953822 kJ/mol
# Density = 2.008864 g / cm^3
# Si number density = 20.134470 Si / 1000 Ang^3
#
#
#
# Elastic Constant Matrix: (Units=GPa)
#
#
# Indices 1 2 3 4 5 6 
#
# 1 142.4030 46.1980 66.8607 0.0000 0.0000 0.0000
# 2 46.1980 74.9785 42.9465 0.0000 0.0000 0.0000
# 3 66.8607 42.9465 104.6602 0.0000 0.0000 0.0000
# 4 0.0000 0.0000 0.0000 18.8892 0.0000 0.0000
# 5 0.0000 0.0000 0.0000 0.0000 23.7695 0.0000
# 6 0.0000 0.0000 0.0000 0.0000 0.0000 40.3448
#
#
#
# Elastic Compliance Matrix: (Units=1/GPa)
#
#
# Indices 1 2 3 4 5 6 
#
# 1 0.010689 -0.003497 -0.005394 0.000000 0.000000 0.000000
# 2 -0.003497 0.018579 -0.005390 0.000000 0.000000 0.000000
# 3 -0.005394 -0.005390 0.015212 0.000000 0.000000 0.000000
# 4 0.000000 0.000000 0.000000 0.052940 0.000000 0.000000
# 5 0.000000 0.000000 0.000000 0.000000 0.042071 0.000000
# 6 0.000000 0.000000 0.000000 0.000000 0.000000 0.024786
#
#
# Mechanical properties :
#
#
# Convention : Reuss Voigt Hill
#
# Bulk Modulus (GPa) = 62.81598 70.45023 66.63310
# Shear Modulus (GPa) = 25.23407 27.66981 26.45194
#
# Velocity S-wave (km/s) = 3.54401 3.71111 3.62852
# Velocity P-wave (km/s) = 6.92911 7.30951 7.12185
#
# Compressibility (1/GPa) = 0.01591952
#
# Stress axis : x y z
#
# Youngs Moduli (GPa) = 93.55241 53.82461 65.73666
#
# Poissons Ratio (x) = 0.18821 0.35457
# Poissons Ratio (y) = 0.32712 0.35431
# Poissons Ratio (z) = 0.50461 0.29011
#
# Static dielectric constant tensor:
#      x y z
#    x 3.462570 0.000000 0.000000 
#    y 0.000000 3.763950 0.000000 
#    z 0.000000 0.000000 3.861910 
# 
# 
# High freq. dielectric constant tensor:
#      x y z
#    x 1.777350 0.000000 0.000000 
#    y 0.000000 1.781360 0.000000 
#    z 0.000000 0.000000 1.794710 
# 
# From -- ./inp_files/19330.got.cif
#   From: 2010.03.12/outbox.cif.g09.slc.cpg/sg57_10_cif.got.tgz:19330.got - 2010.04.16 15:48:40.
