data_PCOD8233529
_publ_section_title
;
Structure prediction by ZEFSAII (Michael W. Deem and Ramdas Pophale) SiO2 
 PCOD8233529
Probable space group: P B C M
;
_chemical_formula_sum "Si O2"
_cell_formula_units_Z 36
_cell_length_a 9.359600
_cell_length_b 19.414222
_cell_length_c 8.928501
_cell_angle_alpha 90.000000
_cell_angle_beta 90.000000
_cell_angle_gamma 90.000000
_cell_volume 1622.392133
_symmetry_space_group_name_H-M "P B C M"
_symmetry_group_IT_number 57
_symmetry_cell_setting 'orthorhombic'
loop_
_space_group_symop_operation_xyz
x,y,z
-x,-y,1/2+z
x,1/2-y,-z
-x,1/2+y,1/2-z
-x,-y,-z
x,y,1/2-z
-x,1/2+y,z
x,1/2-y,1/2+z
loop_
_atom_site_type_symbol
_atom_site_label
_atom_site_fract_x
_atom_site_fract_y
_atom_site_fract_z
Si Si1 0.766035 0.382059 0.427917
Si Si2 0.253215 0.250000 0.500000
Si Si3 0.961284 0.638775 0.417017
Si Si4 0.544696 0.866355 0.415704
Si Si5 0.775158 0.969666 0.429295
O O1 0.784147 0.374512 0.250000
O O2 0.611272 0.355345 0.490404
O O3 0.784411 0.460416 0.480231
O O4 0.888124 0.336705 0.510330
O O5 0.150221 0.298184 0.598579
O O6 0.359285 0.202346 0.596054
O O7 0.987175 0.609936 0.250000
O O8 0.909118 0.577622 0.525180
O O9 0.508371 0.891296 0.250000
O O10 0.633909 0.928926 0.489449
O O11 0.775736 0.980338 0.250000
#
# Coordination Sequence:
#
# PCOD8233529 Si02
#       5
#     8   4   8   8   8
#     4  11  22  37  59  89 122 152 190 239 293 347
#     4  10  22  42  62  82 110 152 200 244 288 344
#     4  11  23  39  61  87 118 156 196 238 287 343
#     4   9  20  38  60  85 114 151 192 240 291 343
#     4  10  20  38  62  88 120 154 193 237 288 346
#
# _framework density 22.189456
#
# number of rings (size 3 to 8) (size 9 to 14) (size 15 to 20)
#    0.000    1.778    0.000    4.000    0.000    3.556 
#    0.000   14.444    0.000    0.000    0.000    0.000 
#    0.000    0.000    0.000    0.000    0.000    0.000 
#
# Total GULP energy -446068.141134 kJ/mol
# GULP energy per Si atom -12390.781698 kJ/mol
# Density = 2.213895 g / cm^3
# Si number density = 22.189456 Si / 1000 Ang^3
#
#
#
# Elastic Constant Matrix: (Units=GPa)
#
#
# Indices 1 2 3 4 5 6 
#
# 1 186.7570 38.4638 38.7833 0.0000 0.0000 0.0000
# 2 38.4638 73.9002 6.7383 0.0000 0.0000 0.0000
# 3 38.7833 6.7383 87.3581 0.0000 0.0000 0.0000
# 4 0.0000 0.0000 0.0000 20.8757 0.0000 0.0000
# 5 0.0000 0.0000 0.0000 0.0000 18.5294 0.0000
# 6 0.0000 0.0000 0.0000 0.0000 0.0000 18.1953
#
#
#
# Elastic Compliance Matrix: (Units=1/GPa)
#
#
# Indices 1 2 3 4 5 6 
#
# 1 0.006562 -0.003172 -0.002669 0.000000 0.000000 0.000000
# 2 -0.003172 0.015161 0.000239 0.000000 0.000000 0.000000
# 3 -0.002669 0.000239 0.012613 0.000000 0.000000 0.000000
# 4 0.000000 0.000000 0.000000 0.047902 0.000000 0.000000
# 5 0.000000 0.000000 0.000000 0.000000 0.053968 0.000000
# 6 0.000000 0.000000 0.000000 0.000000 0.000000 0.054959
#
#
# Mechanical properties :
#
#
# Convention : Reuss Voigt Hill
#
# Bulk Modulus (GPa) = 43.22865 57.33178 50.28021
# Shear Modulus (GPa) = 23.80033 29.12208 26.46120
#
# Velocity S-wave (km/s) = 3.27860 3.62668 3.45702
# Velocity P-wave (km/s) = 5.81861 6.59018 6.21638
#
# Compressibility (1/GPa) = 0.02313281
#
# Stress axis : x y z
#
# Youngs Moduli (GPa) = 152.39145 65.95864 79.28039
#
# Poissons Ratio (x) = 0.20923 0.21157
# Poissons Ratio (y) = 0.48340 -0.01894
# Poissons Ratio (z) = 0.40667 -0.01575
#
# Static dielectric constant tensor:
#      x y z
#    x 4.671030 0.000000 0.000000 
#    y 0.000000 3.768780 0.000000 
#    z 0.000000 0.000000 3.678190 
# 
# 
# High freq. dielectric constant tensor:
#      x y z
#    x 1.901540 0.000000 0.000000 
#    y 0.000000 1.856960 0.000000 
#    z 0.000000 0.000000 1.852070 
# 
# From -- ./inp_files/1323.got.cif
#   From: 2010.03.12/outbox.cif.g09.slc.cpg/sg57_1_cif.got.tgz:1323.got - 2010.04.16 15:48:40.
