data_PCOD8233298
_publ_section_title
;
Structure prediction by ZEFSAII (Michael W. Deem and Ramdas Pophale) SiO2 
 PCOD8233298
Probable space group: P B C M
;
_chemical_formula_sum "Si O2"
_cell_formula_units_Z 64
_cell_length_a 15.803148
_cell_length_b 9.312782
_cell_length_c 22.297239
_cell_angle_alpha 90.000000
_cell_angle_beta 90.000000
_cell_angle_gamma 90.000000
_cell_volume 3281.513031
_symmetry_space_group_name_H-M "P B C M"
_symmetry_group_IT_number 57
_symmetry_cell_setting 'orthorhombic'
loop_
_space_group_symop_operation_xyz
x,y,z
-x,-y,1/2+z
x,1/2-y,-z
-x,1/2+y,1/2-z
-x,-y,-z
x,y,1/2-z
-x,1/2+y,z
x,1/2-y,1/2+z
loop_
_atom_site_type_symbol
_atom_site_label
_atom_site_fract_x
_atom_site_fract_y
_atom_site_fract_z
Si Si1 0.495008 0.255228 0.355190
Si Si2 0.609644 0.495741 0.314042
Si Si3 0.630160 0.171749 0.445713
Si Si4 0.641540 0.847139 0.444747
Si Si5 0.753451 0.402315 0.401157
Si Si6 0.069007 0.315174 0.819365
Si Si7 0.814133 0.799513 0.933762
Si Si8 0.096630 0.855266 0.183044
O O1 0.541362 0.368330 0.312934
O O2 0.439487 0.145261 0.317841
O O3 0.568120 0.167011 0.389504
O O4 0.433863 0.345930 0.397756
O O5 0.657033 0.493638 0.250000
O O6 0.678696 0.482271 0.365355
O O7 0.580130 0.250000 0.500000
O O8 0.714623 0.269669 0.437569
O O9 0.656865 0.011655 0.464771
O O10 0.612344 0.750000 0.500000
O O11 0.728829 0.786375 0.418664
O O12 0.796409 0.528982 0.440419
O O13 0.822798 0.329614 0.358592
O O14 0.097274 0.269699 0.750000
O O15 0.129444 0.264943 0.874551
O O16 0.060039 0.485192 0.822171
O O17 0.977784 0.252160 0.835451
O O18 0.850439 0.750000 0.000000
O O19 0.127643 0.821553 0.250000
#
# Coordination Sequence:
#
# PCOD8233298 Si02
#       8
#     8   8   8   8   8   8   8   8
#     4  11  22  37  56  80 109 148 194 239 293 341
#     4  11  22  38  57  80 113 151 195 245 291 344
#     4  11  23  36  56  82 112 146 192 240 291 349
#     4  11  22  36  57  81 112 149 191 242 289 342
#     4  10  21  38  58  84 112 154 192 234 296 350
#     4   9  19  36  59  86 115 150 194 239 289 351
#     4  10  20  37  59  84 118 152 195 241 297 353
#     4   9  18  36  61  86 114 151 194 235 282 349
#
# _framework density 19.503198000000001
#
# number of rings (size 3 to 8) (size 9 to 14) (size 15 to 20)
#    0.000    1.750    2.500    2.625    1.750    2.500 
#    0.000    3.125    0.000    0.000    0.000    0.000 
#    0.000    0.000    0.000    0.000    0.000    0.000 
#
# Total GULP energy -793132.314166 kJ/mol
# GULP energy per Si atom -12392.692409 kJ/mol
# Density = 1.945881 g / cm^3
# Si number density = 19.503198 Si / 1000 Ang^3
#
#
#
# Elastic Constant Matrix: (Units=GPa)
#
#
# Indices 1 2 3 4 5 6 
#
# 1 63.9601 17.1704 24.6475 0.0000 0.0000 0.0000
# 2 17.1704 100.8132 29.4398 0.0000 0.0000 0.0000
# 3 24.6475 29.4398 100.1383 0.0000 0.0000 0.0000
# 4 0.0000 0.0000 0.0000 17.4329 0.0000 0.0000
# 5 0.0000 0.0000 0.0000 0.0000 25.4401 0.0000
# 6 0.0000 0.0000 0.0000 0.0000 0.0000 26.2365
#
#
#
# Elastic Compliance Matrix: (Units=1/GPa)
#
#
# Indices 1 2 3 4 5 6 
#
# 1 0.017598 -0.001895 -0.003774 0.000000 0.000000 0.000000
# 2 -0.001895 0.011055 -0.002784 0.000000 0.000000 0.000000
# 3 -0.003774 -0.002784 0.011734 0.000000 0.000000 0.000000
# 4 0.000000 0.000000 0.000000 0.057363 0.000000 0.000000
# 5 0.000000 0.000000 0.000000 0.000000 0.039308 0.000000
# 6 0.000000 0.000000 0.000000 0.000000 0.000000 0.038115
#
#
# Mechanical properties :
#
#
# Convention : Reuss Voigt Hill
#
# Bulk Modulus (GPa) = 42.58869 45.26968 43.92919
# Shear Modulus (GPa) = 25.01187 26.73216 25.87201
#
# Velocity S-wave (km/s) = 3.58502 3.70625 3.64614
# Velocity P-wave (km/s) = 6.24665 6.44801 6.34813
#
# Compressibility (1/GPa) = 0.02348041
#
# Stress axis : x y z
#
# Youngs Moduli (GPa) = 56.82479 90.45696 85.22573
#
# Poissons Ratio (x) = 0.17142 0.32167
# Poissons Ratio (y) = 0.10769 0.23724
# Poissons Ratio (z) = 0.21448 0.25180
#
# Static dielectric constant tensor:
#      x y z
#    x 3.440470 0.000000 0.000000 
#    y 0.000000 3.558270 0.000000 
#    z 0.000000 0.000000 3.748430 
# 
# 
# High freq. dielectric constant tensor:
#      x y z
#    x 1.746010 0.000000 0.000000 
#    y 0.000000 1.763990 0.000000 
#    z 0.000000 0.000000 1.761660 
# 
# From -- ./inp_files/27497.got.cif
#   From: 2010.03.12/outbox.cif.g09.slc.cpg/sg57_14_cif.got.tgz:27497.got - 2010.04.16 15:48:40.
