data_PCOD8233052
_publ_section_title
;
Structure prediction by ZEFSAII (Michael W. Deem and Ramdas Pophale) SiO2 
 PCOD8233052
Probable space group: P B C M
;
_chemical_formula_sum "Si O2"
_cell_formula_units_Z 48
_cell_length_a 30.092145
_cell_length_b 9.487025
_cell_length_c 8.713226
_cell_angle_alpha 90.000000
_cell_angle_beta 90.000000
_cell_angle_gamma 90.000000
_cell_volume 2487.494731
_symmetry_space_group_name_H-M "P B C M"
_symmetry_group_IT_number 57
_symmetry_cell_setting 'orthorhombic'
loop_
_space_group_symop_operation_xyz
x,y,z
-x,-y,1/2+z
x,1/2-y,-z
-x,1/2+y,1/2-z
-x,-y,-z
x,y,1/2-z
-x,1/2+y,z
x,1/2-y,1/2+z
loop_
_atom_site_type_symbol
_atom_site_label
_atom_site_fract_x
_atom_site_fract_y
_atom_site_fract_z
Si Si1 0.283110 0.895650 0.930142
Si Si2 0.112335 0.403547 0.927456
Si Si3 0.617380 0.102695 0.430411
Si Si4 0.960729 0.406345 0.567403
Si Si5 0.538560 0.905034 0.068327
Si Si6 0.786329 0.600068 0.425687
O O1 0.283118 0.881772 0.750000
O O2 0.332829 0.933922 0.989315
O O3 0.266793 0.750000 0.000000
O O4 0.247582 0.008331 0.979683
O O5 0.097231 0.396753 0.750000
O O6 0.163239 0.454046 0.941575
O O7 0.104201 0.250000 0.000000
O O8 0.085333 0.521644 0.018816
O O9 0.600306 0.250000 0.500000
O O10 0.616372 0.123004 0.250000
O O11 0.585304 0.975608 0.480872
O O12 0.963727 0.250000 0.500000
O O13 0.964345 0.398674 0.750000
O O14 0.000000 0.500000 0.500000
O O15 0.533034 0.896590 0.250000
O O16 0.536392 0.750000 0.000000
O O17 0.500000 0.000000 0.000000
O O18 0.782894 0.750000 0.500000
O O19 0.771154 0.605089 0.250000
#
# Coordination Sequence:
#
# PCOD8233052 Si02
#       6
#     8   8   8   8   8   8
#     4  10  20  36  57  82 113 149 189 232 280 333
#     4  10  21  39  61  86 116 151 191 234 283 336
#     4   9  20  37  57  81 110 145 185 230 279 332
#     4  12  25  42  63  88 118 152 191 234 282 335
#     4  11  23  39  58  83 113 146 185 228 278 333
#     4  10  21  37  58  84 115 151 190 234 283 335
#
# _framework density 19.296522
#
# number of rings (size 3 to 8) (size 9 to 14) (size 15 to 20)
#    0.000    1.667    0.000    4.500    0.000    6.667 
#    0.000    1.667    0.000    0.000    0.000    0.000 
#    0.000    0.000    0.000    0.000    0.000    0.000 
#
# Total GULP energy -595285.228828 kJ/mol
# GULP energy per Si atom -12401.775601 kJ/mol
# Density = 1.925260 g / cm^3
# Si number density = 19.296522 Si / 1000 Ang^3
#
#
#
# Elastic Constant Matrix: (Units=GPa)
#
#
# Indices 1 2 3 4 5 6 
#
# 1 104.8328 67.6556 44.8473 0.0000 0.0000 0.0000
# 2 67.6556 117.3568 48.6002 0.0000 0.0000 0.0000
# 3 44.8473 48.6002 105.6603 0.0000 0.0000 0.0000
# 4 0.0000 0.0000 0.0000 39.0206 0.0000 0.0000
# 5 0.0000 0.0000 0.0000 0.0000 32.7279 0.0000
# 6 0.0000 0.0000 0.0000 0.0000 0.0000 40.6302
#
#
#
# Elastic Compliance Matrix: (Units=1/GPa)
#
#
# Indices 1 2 3 4 5 6 
#
# 1 0.015995 -0.007918 -0.003147 0.000000 0.000000 0.000000
# 2 -0.007918 0.014445 -0.003284 0.000000 0.000000 0.000000
# 3 -0.003147 -0.003284 0.012311 0.000000 0.000000 0.000000
# 4 0.000000 0.000000 0.000000 0.025627 0.000000 0.000000
# 5 0.000000 0.000000 0.000000 0.000000 0.030555 0.000000
# 6 0.000000 0.000000 0.000000 0.000000 0.000000 0.024612
#
#
# Mechanical properties :
#
#
# Convention : Reuss Voigt Hill
#
# Bulk Modulus (GPa) = 71.15562 72.22846 71.69204
# Shear Modulus (GPa) = 31.86170 33.59218 32.72694
#
# Velocity S-wave (km/s) = 4.06786 4.17687 4.12272
# Velocity P-wave (km/s) = 7.68233 7.79575 7.73925
#
# Compressibility (1/GPa) = 0.01405370
#
# Stress axis : x y z
#
# Youngs Moduli (GPa) = 62.51838 69.22573 81.23133
#
# Poissons Ratio (x) = 0.54812 0.25565
# Poissons Ratio (y) = 0.49501 0.26674
# Poissons Ratio (z) = 0.19676 0.22732
#
# Static dielectric constant tensor:
#      x y z
#    x 3.959720 0.000000 0.000000 
#    y 0.000000 3.944760 0.000000 
#    z 0.000000 0.000000 3.425210 
# 
# 
# High freq. dielectric constant tensor:
#      x y z
#    x 1.764330 0.000000 0.000000 
#    y 0.000000 1.752760 0.000000 
#    z 0.000000 0.000000 1.766250 
# 
# From -- ./inp_files/9902.got.cif
#   From: 2010.03.12/outbox.cif.g09.slc.cpg/sg57_5_cif.got.tgz:9902.got - 2010.04.16 15:48:40.
