data_PCOD8233097
_publ_section_title
;
Structure prediction by ZEFSAII (Michael W. Deem and Ramdas Pophale) SiO2 
 PCOD8233097
Probable space group: P B C M
;
_chemical_formula_sum "Si O2"
_cell_formula_units_Z 48
_cell_length_a 18.398647
_cell_length_b 14.581088
_cell_length_c 8.957878
_cell_angle_alpha 90.000000
_cell_angle_beta 90.000000
_cell_angle_gamma 90.000000
_cell_volume 2403.150453
_symmetry_space_group_name_H-M "P B C M"
_symmetry_group_IT_number 57
_symmetry_cell_setting 'orthorhombic'
loop_
_space_group_symop_operation_xyz
x,y,z
-x,-y,1/2+z
x,1/2-y,-z
-x,1/2+y,1/2-z
-x,-y,-z
x,y,1/2-z
-x,1/2+y,z
x,1/2-y,1/2+z
loop_
_atom_site_type_symbol
_atom_site_label
_atom_site_fract_x
_atom_site_fract_y
_atom_site_fract_z
Si Si1 0.984992 0.349335 0.426563
Si Si2 0.666208 0.336951 0.919014
Si Si3 0.515517 0.406402 0.579245
Si Si4 0.744074 0.977800 0.421689
Si Si5 0.641409 0.659089 0.077892
Si Si6 0.895945 0.527933 0.074482
O O1 0.967645 0.250000 0.500000
O O2 0.993566 0.334945 0.250000
O O3 0.921863 0.423976 0.463665
O O4 0.058273 0.393235 0.491969
O O5 0.652369 0.308916 0.750000
O O6 0.587656 0.361203 0.992698
O O7 0.725645 0.415684 0.934302
O O8 0.700946 0.250000 0.000000
O O9 0.500000 0.500000 0.500000
O O10 0.532694 0.430424 0.750000
O O11 0.445812 0.341094 0.562504
O O12 0.756531 0.948449 0.250000
O O13 0.675279 0.925848 0.490195
O O14 0.814600 0.957491 0.518811
O O15 0.665796 0.656327 0.250000
O O16 0.672109 0.750000 0.000000
O O17 0.901192 0.546502 0.250000
#
# Coordination Sequence:
#
# PCOD8233097 Si02
#       6
#     8   8   8   8   8   8
#     4  10  21  39  65  94 123 156 193 235 283 338
#     4  10  22  38  57  83 114 151 195 242 294 348
#     4  10  20  36  58  83 111 148 194 245 299 350
#     4  11  23  40  60  84 120 157 195 242 291 347
#     4  11  23  38  59  85 114 152 197 246 299 354
#     4  10  22  40  62  90 123 156 195 238 284 341
#
# _framework density 19.973780000000001
#
# number of rings (size 3 to 8) (size 9 to 14) (size 15 to 20)
#    0.000    1.667    1.667    2.500    0.000    6.000 
#    0.000    6.667    0.000    0.000    0.000    0.000 
#    0.000    0.000    0.000    0.000    0.000    0.000 
#
# Total GULP energy -595227.518586 kJ/mol
# GULP energy per Si atom -12400.573304 kJ/mol
# Density = 1.992832 g / cm^3
# Si number density = 19.973780 Si / 1000 Ang^3
#
#
#
# Elastic Constant Matrix: (Units=GPa)
#
#
# Indices 1 2 3 4 5 6 
#
# 1 61.6356 -10.8320 15.6662 0.0000 0.0000 0.0000
# 2 -10.8320 85.4467 41.5979 0.0000 0.0000 0.0000
# 3 15.6662 41.5979 87.4446 0.0000 0.0000 0.0000
# 4 0.0000 0.0000 0.0000 39.7237 0.0000 0.0000
# 5 0.0000 0.0000 0.0000 0.0000 28.8556 0.0000
# 6 0.0000 0.0000 0.0000 0.0000 0.0000 14.6475
#
#
#
# Elastic Compliance Matrix: (Units=1/GPa)
#
#
# Indices 1 2 3 4 5 6 
#
# 1 0.018609 0.005182 -0.005799 0.000000 0.000000 0.000000
# 2 0.005182 0.016674 -0.008860 0.000000 0.000000 0.000000
# 3 -0.005799 -0.008860 0.016690 0.000000 0.000000 0.000000
# 4 0.000000 0.000000 0.000000 0.025174 0.000000 0.000000
# 5 0.000000 0.000000 0.000000 0.000000 0.034655 0.000000
# 6 0.000000 0.000000 0.000000 0.000000 0.000000 0.068271
#
#
# Mechanical properties :
#
#
# Convention : Reuss Voigt Hill
#
# Bulk Modulus (GPa) = 30.28634 36.37679 33.33157
# Shear Modulus (GPa) = 23.80583 29.18501 26.49542
#
# Velocity S-wave (km/s) = 3.45607 3.82667 3.64608
# Velocity P-wave (km/s) = 5.57870 6.14624 5.86933
#
# Compressibility (1/GPa) = 0.03301818
#
# Stress axis : x y z
#
# Youngs Moduli (GPa) = 53.73703 59.97538 59.91760
#
# Poissons Ratio (x) = -0.31081 0.34747
# Poissons Ratio (y) = -0.27848 0.53088
# Poissons Ratio (z) = 0.31163 0.53139
#
# Static dielectric constant tensor:
#      x y z
#    x 3.759740 0.000000 0.000000 
#    y 0.000000 3.607460 0.000000 
#    z 0.000000 0.000000 3.640480 
# 
# 
# High freq. dielectric constant tensor:
#      x y z
#    x 1.773550 0.000000 0.000000 
#    y 0.000000 1.782320 0.000000 
#    z 0.000000 0.000000 1.786660 
# 
# From -- ./inp_files/6490.got.cif
#   From: 2010.03.12/outbox.cif.g09.slc.cpg/sg57_4_cif.got.tgz:6490.got - 2010.04.16 15:48:40.
