data_PCOD8233039
_publ_section_title
;
Structure prediction by ZEFSAII (Michael W. Deem and Ramdas Pophale) SiO2 
 PCOD8233039
Probable space group: P B C M
;
_chemical_formula_sum "Si O2"
_cell_formula_units_Z 56
_cell_length_a 11.701796
_cell_length_b 16.223372
_cell_length_c 15.743331
_cell_angle_alpha 90.000000
_cell_angle_beta 90.000000
_cell_angle_gamma 90.000000
_cell_volume 2988.754726
_symmetry_space_group_name_H-M "P B C M"
_symmetry_group_IT_number 57
_symmetry_cell_setting 'orthorhombic'
loop_
_space_group_symop_operation_xyz
x,y,z
-x,-y,1/2+z
x,1/2-y,-z
-x,1/2+y,1/2-z
-x,-y,-z
x,y,1/2-z
-x,1/2+y,z
x,1/2-y,1/2+z
loop_
_atom_site_type_symbol
_atom_site_label
_atom_site_fract_x
_atom_site_fract_y
_atom_site_fract_z
Si Si1 0.157741 0.341965 0.843364
Si Si2 0.103935 0.059542 0.501636
Si Si3 0.313394 0.545989 0.950411
Si Si4 0.398516 0.686461 0.067318
Si Si5 0.592585 0.595428 0.154133
Si Si6 0.216944 0.805154 0.150756
Si Si7 0.043476 0.171811 0.845131
O O1 0.123419 0.378417 0.750000
O O2 0.291590 0.353752 0.859329
O O3 0.131930 0.246082 0.845540
O O4 0.087020 0.384513 0.918181
O O5 0.098201 0.108300 0.589587
O O6 0.221114 0.009917 0.498000
O O7 0.000000 0.000000 0.500000
O O8 0.406305 0.485991 0.905586
O O9 0.257183 0.604672 0.879261
O O10 0.369619 0.600729 0.022542
O O11 0.492051 0.661110 0.136390
O O12 0.286044 0.730537 0.106198
O O13 0.454337 0.750000 0.000000
O O14 0.578375 0.563816 0.250000
O O15 0.239830 0.797551 0.250000
O O16 0.082941 0.796819 0.127693
O O17 0.036629 0.132786 0.750000
#
# Coordination Sequence:
#
# PCOD8233039 Si02
#       7
#     8   8   8   8   8   8   8
#     4   9  21  37  57  81 107 146 191 234 276 332
#     4  11  21  33  56  82 113 150 183 224 284 339
#     4  10  21  36  55  84 114 143 186 233 284 337
#     4  10  22  36  57  82 113 144 186 234 282 331
#     4  10  20  38  59  80 108 145 191 233 279 337
#     4  10  20  36  57  81 110 148 187 227 278 338
#     4  10  21  37  56  83 117 150 188 233 280 339
#
# _framework density 18.736899999999999
#
# number of rings (size 3 to 8) (size 9 to 14) (size 15 to 20)
#    0.000    2.000    1.429    1.714    2.000    4.571 
#    0.000    1.429    0.000    3.429    0.000    0.000 
#    0.000    0.000    0.000    0.000    0.000    0.000 
#
# Total GULP energy -694234.387695 kJ/mol
# GULP energy per Si atom -12397.042637 kJ/mol
# Density = 1.869425 g / cm^3
# Si number density = 18.736900 Si / 1000 Ang^3
#
#
#
# Elastic Constant Matrix: (Units=GPa)
#
#
# Indices 1 2 3 4 5 6 
#
# 1 70.9814 49.2795 50.9635 0.0000 0.0000 0.0000
# 2 49.2795 105.2223 61.6557 0.0000 0.0000 0.0000
# 3 50.9635 61.6557 125.0405 0.0000 0.0000 0.0000
# 4 0.0000 0.0000 0.0000 30.3843 0.0000 0.0000
# 5 0.0000 0.0000 0.0000 0.0000 31.0868 0.0000
# 6 0.0000 0.0000 0.0000 0.0000 0.0000 29.5353
#
#
#
# Elastic Compliance Matrix: (Units=1/GPa)
#
#
# Indices 1 2 3 4 5 6 
#
# 1 0.023577 -0.007610 -0.005857 0.000000 0.000000 0.000000
# 2 -0.007610 0.015822 -0.004700 0.000000 0.000000 0.000000
# 3 -0.005857 -0.004700 0.012702 0.000000 0.000000 0.000000
# 4 0.000000 0.000000 0.000000 0.032912 0.000000 0.000000
# 5 0.000000 0.000000 0.000000 0.000000 0.032168 0.000000
# 6 0.000000 0.000000 0.000000 0.000000 0.000000 0.033858
#
#
# Mechanical properties :
#
#
# Convention : Reuss Voigt Hill
#
# Bulk Modulus (GPa) = 63.42395 69.44907 66.43651
# Shear Modulus (GPa) = 25.95698 27.49098 26.72398
#
# Velocity S-wave (km/s) = 3.72605 3.83457 3.78070
# Velocity P-wave (km/s) = 7.24117 7.53334 7.38870
#
# Compressibility (1/GPa) = 0.01576691
#
# Stress axis : x y z
#
# Youngs Moduli (GPa) = 42.41489 63.20498 78.72808
#
# Poissons Ratio (x) = 0.48098 0.46111
# Poissons Ratio (y) = 0.32277 0.37000
# Poissons Ratio (z) = 0.24842 0.29705
#
# Static dielectric constant tensor:
#      x y z
#    x 3.294380 0.000000 0.000000 
#    y 0.000000 3.449870 0.000000 
#    z 0.000000 0.000000 3.891040 
# 
# 
# High freq. dielectric constant tensor:
#      x y z
#    x 1.719760 0.000000 0.000000 
#    y 0.000000 1.728540 0.000000 
#    z 0.000000 0.000000 1.741690 
# 
# From -- ./inp_files/17684.got.cif
#   From: 2010.03.12/outbox.cif.g09.slc.cpg/sg57_9_cif.got.tgz:17684.got - 2010.04.16 15:48:40.
