data_PCOD8233663
_publ_section_title
;
Structure prediction by ZEFSAII (Michael W. Deem and Ramdas Pophale) SiO2 
 PCOD8233663
Probable space group: P B C M
;
_chemical_formula_sum "Si O2"
_cell_formula_units_Z 48
_cell_length_a 6.074507
_cell_length_b 14.405262
_cell_length_c 25.667866
_cell_angle_alpha 90.000000
_cell_angle_beta 90.000000
_cell_angle_gamma 90.000000
_cell_volume 2246.063145
_symmetry_space_group_name_H-M "P B C M"
_symmetry_group_IT_number 57
_symmetry_cell_setting 'orthorhombic'
loop_
_space_group_symop_operation_xyz
x,y,z
-x,-y,1/2+z
x,1/2-y,-z
-x,1/2+y,1/2-z
-x,-y,-z
x,y,1/2-z
-x,1/2+y,z
x,1/2-y,1/2+z
loop_
_atom_site_type_symbol
_atom_site_label
_atom_site_fract_x
_atom_site_fract_y
_atom_site_fract_z
Si Si1 0.055905 0.256576 0.847662
Si Si2 0.673955 0.340744 0.096939
Si Si3 0.184521 0.567598 0.141065
Si Si4 0.643727 0.611177 0.807592
Si Si5 0.855415 0.516466 0.449894
Si Si6 0.567760 0.666105 0.082857
O O1 0.156952 0.186493 0.805247
O O2 0.262977 0.304786 0.873340
O O3 0.916005 0.196239 0.888857
O O4 0.903327 0.341593 0.826720
O O5 0.540915 0.364878 0.149729
O O6 0.695682 0.428564 0.059216
O O7 0.550655 0.260370 0.063024
O O8 0.248546 0.488864 0.181900
O O9 0.395364 0.595204 0.107651
O O10 0.001569 0.528825 0.101534
O O11 0.535114 0.609318 0.750000
O O12 0.702955 0.607597 0.460650
O O13 0.000000 0.500000 0.500000
#
# Coordination Sequence:
#
# PCOD8233663 Si02
#       6
#     8   8   8   8   8   8
#     4   9  20  39  63  87 126 166 202 266 322 366
#     4  10  20  41  63  87 134 166 206 275 318 378
#     4  10  20  40  63  92 133 162 206 273 314 375
#     4  11  22  37  64  94 124 172 216 256 322 384
#     4  11  22  39  67  96 124 172 219 258 320 394
#     4   9  20  40  64  88 127 167 202 266 329 372
#
# _framework density 21.370723999999999
#
# number of rings (size 3 to 8) (size 9 to 14) (size 15 to 20)
#    0.000    2.000    3.333    0.000    0.000    2.000 
#    0.000   15.833    0.000    0.000    0.000    0.000 
#    0.000    0.000    0.000    0.000    0.000    0.000 
#
# Total GULP energy -594771.021057 kJ/mol
# GULP energy per Si atom -12391.062939 kJ/mol
# Density = 2.132208 g / cm^3
# Si number density = 21.370724 Si / 1000 Ang^3
#
#
#
# Elastic Constant Matrix: (Units=GPa)
#
#
# Indices 1 2 3 4 5 6 
#
# 1 87.9436 47.2400 20.6064 0.0000 0.0000 0.0000
# 2 47.2400 155.5927 48.7896 0.0000 0.0000 0.0000
# 3 20.6064 48.7896 74.3506 0.0000 0.0000 0.0000
# 4 0.0000 0.0000 0.0000 13.8101 0.0000 0.0000
# 5 0.0000 0.0000 0.0000 0.0000 26.5906 0.0000
# 6 0.0000 0.0000 0.0000 0.0000 0.0000 41.9502
#
#
#
# Elastic Compliance Matrix: (Units=1/GPa)
#
#
# Indices 1 2 3 4 5 6 
#
# 1 0.013693 -0.003736 -0.001343 0.000000 0.000000 0.000000
# 2 -0.003736 0.009112 -0.004944 0.000000 0.000000 0.000000
# 3 -0.001343 -0.004944 0.017066 0.000000 0.000000 0.000000
# 4 0.000000 0.000000 0.000000 0.072411 0.000000 0.000000
# 5 0.000000 0.000000 0.000000 0.000000 0.037607 0.000000
# 6 0.000000 0.000000 0.000000 0.000000 0.000000 0.023838
#
#
# Mechanical properties :
#
#
# Convention : Reuss Voigt Hill
#
# Bulk Modulus (GPa) = 50.44310 61.23987 55.84149
# Shear Modulus (GPa) = 24.95258 29.88691 27.41975
#
# Velocity S-wave (km/s) = 3.42073 3.74371 3.58586
# Velocity P-wave (km/s) = 6.26554 6.88515 6.58264
#
# Compressibility (1/GPa) = 0.01982432
#
# Stress axis : x y z
#
# Youngs Moduli (GPa) = 73.03254 109.75110 58.59547
#
# Poissons Ratio (x) = 0.41003 0.07871
# Poissons Ratio (y) = 0.27285 0.28967
# Poissons Ratio (z) = 0.09811 0.54257
#
# Static dielectric constant tensor:
#      x y z
#    x 4.177280 0.000000 0.000000 
#    y 0.000000 4.580840 0.000000 
#    z 0.000000 0.000000 3.186690 
# 
# 
# High freq. dielectric constant tensor:
#      x y z
#    x 1.856250 0.000000 0.000000 
#    y 0.000000 1.871210 0.000000 
#    z 0.000000 0.000000 1.777380 
# 
# From -- ./inp_files/27936.got.cif
#   From: 2010.03.12/outbox.cif.g09.slc.cpg/sg57_14_cif.got.tgz:27936.got - 2010.04.16 15:48:40.
