data_PCOD8233259
_publ_section_title
;
Structure prediction by ZEFSAII (Michael W. Deem and Ramdas Pophale) SiO2 
 PCOD8233259
Probable space group: P B C M
;
_chemical_formula_sum "Si O2"
_cell_formula_units_Z 48
_cell_length_a 15.289190
_cell_length_b 20.413711
_cell_length_c 8.620370
_cell_angle_alpha 90.000000
_cell_angle_beta 90.000000
_cell_angle_gamma 90.000000
_cell_volume 2690.495975
_symmetry_space_group_name_H-M "P B C M"
_symmetry_group_IT_number 57
_symmetry_cell_setting 'orthorhombic'
loop_
_space_group_symop_operation_xyz
x,y,z
-x,-y,1/2+z
x,1/2-y,-z
-x,1/2+y,1/2-z
-x,-y,-z
x,y,1/2-z
-x,1/2+y,z
x,1/2-y,1/2+z
loop_
_atom_site_type_symbol
_atom_site_label
_atom_site_fract_x
_atom_site_fract_y
_atom_site_fract_z
Si Si1 0.566248 0.447015 0.565596
Si Si2 0.883443 0.682205 0.069145
Si Si3 0.296163 0.157001 0.923754
Si Si4 0.262635 0.491562 0.076838
Si Si5 0.509237 0.816620 0.433154
Si Si6 0.923333 0.544443 0.935388
O O1 0.500000 0.500000 0.500000
O O2 0.566064 0.454046 0.750000
O O3 0.664915 0.460947 0.498838
O O4 0.541486 0.374786 0.515491
O O5 0.903181 0.679649 0.250000
O O6 0.922470 0.750000 0.000000
O O7 0.779096 0.681104 0.039604
O O8 0.931060 0.619759 0.990717
O O9 0.271876 0.181326 0.750000
O O10 0.306733 0.079374 0.923924
O O11 0.388780 0.184292 0.980947
O O12 0.245384 0.516812 0.250000
O O13 0.167010 0.487189 0.996106
O O14 0.467429 0.750000 0.500000
O O15 0.496956 0.822685 0.250000
O O16 0.923281 0.545222 0.750000
O O17 0.000000 0.500000 0.000000
#
# Coordination Sequence:
#
# PCOD8233259 Si02
#       6
#     8   8   8   8   8   8
#     4  11  20  34  54  78 105 142 183 223 263 313
#     4  11  21  33  51  78 109 143 178 216 266 325
#     4   9  17  32  50  72 105 140 175 215 264 319
#     4   8  16  32  53  76 105 138 172 215 266 312
#     4  11  22  35  49  72 105 144 184 228 274 320
#     4  10  20  37  58  82 110 141 176 222 273 326
#
# _framework density 17.840575999999999
#
# number of rings (size 3 to 8) (size 9 to 14) (size 15 to 20)
#    0.000    2.000    1.667    4.500    0.000    2.667 
#    0.000    2.500    0.000    1.000    0.000    4.667 
#    0.000    0.000    0.000    0.000    0.000    0.000 
#
# Total GULP energy -594941.821994 kJ/mol
# GULP energy per Si atom -12394.621292 kJ/mol
# Density = 1.779997 g / cm^3
# Si number density = 17.840576 Si / 1000 Ang^3
#
#
#
# Elastic Constant Matrix: (Units=GPa)
#
#
# Indices 1 2 3 4 5 6 
#
# 1 96.6074 71.0184 36.9333 0.0000 0.0000 0.0000
# 2 71.0184 136.1412 39.3995 0.0000 0.0000 0.0000
# 3 36.9333 39.3995 78.9689 0.0000 0.0000 0.0000
# 4 0.0000 0.0000 0.0000 31.1443 0.0000 0.0000
# 5 0.0000 0.0000 0.0000 0.0000 22.0479 0.0000
# 6 0.0000 0.0000 0.0000 0.0000 0.0000 22.5186
#
#
#
# Elastic Compliance Matrix: (Units=1/GPa)
#
#
# Indices 1 2 3 4 5 6 
#
# 1 0.017989 -0.008122 -0.004361 0.000000 0.000000 0.000000
# 2 -0.008122 0.012252 -0.002314 0.000000 0.000000 0.000000
# 3 -0.004361 -0.002314 0.015858 0.000000 0.000000 0.000000
# 4 0.000000 0.000000 0.000000 0.032109 0.000000 0.000000
# 5 0.000000 0.000000 0.000000 0.000000 0.045356 0.000000
# 6 0.000000 0.000000 0.000000 0.000000 0.000000 0.044408
#
#
# Mechanical properties :
#
#
# Convention : Reuss Voigt Hill
#
# Bulk Modulus (GPa) = 60.59167 67.37999 63.98583
# Shear Modulus (GPa) = 24.62249 26.09992 25.36120
#
# Velocity S-wave (km/s) = 3.71905 3.82901 3.77443
# Velocity P-wave (km/s) = 7.24420 7.57616 7.41204
#
# Compressibility (1/GPa) = 0.01650392
#
# Stress axis : x y z
#
# Youngs Moduli (GPa) = 55.58928 81.62025 63.06161
#
# Poissons Ratio (x) = 0.66291 0.27502
# Poissons Ratio (y) = 0.45149 0.14594
# Poissons Ratio (z) = 0.24243 0.18888
#
# Static dielectric constant tensor:
#      x y z
#    x 3.327910 0.000000 0.000000 
#    y 0.000000 4.083680 0.000000 
#    z 0.000000 0.000000 3.243290 
# 
# 
# High freq. dielectric constant tensor:
#      x y z
#    x 1.664880 0.000000 0.000000 
#    y 0.000000 1.692720 0.000000 
#    z 0.000000 0.000000 1.684780 
# 
# From -- ./inp_files/4914.got.cif
#   From: 2010.03.12/outbox.cif.g09.slc.cpg/sg57_3_cif.got.tgz:4914.got - 2010.04.16 15:48:40.
