data_PCOD8233490
_publ_section_title
;
Structure prediction by ZEFSAII (Michael W. Deem and Ramdas Pophale) SiO2 
 PCOD8233490
Probable space group: P B C M
;
_chemical_formula_sum "Si O2"
_cell_formula_units_Z 36
_cell_length_a 19.813439
_cell_length_b 9.032858
_cell_length_c 10.201844
_cell_angle_alpha 90.000000
_cell_angle_beta 90.000000
_cell_angle_gamma 90.000000
_cell_volume 1825.844230
_symmetry_space_group_name_H-M "P B C M"
_symmetry_group_IT_number 57
_symmetry_cell_setting 'orthorhombic'
loop_
_space_group_symop_operation_xyz
x,y,z
-x,-y,1/2+z
x,1/2-y,-z
-x,1/2+y,1/2-z
-x,-y,-z
x,y,1/2-z
-x,1/2+y,z
x,1/2-y,1/2+z
loop_
_atom_site_type_symbol
_atom_site_label
_atom_site_fract_x
_atom_site_fract_y
_atom_site_fract_z
Si Si1 0.488113 0.750000 0.500000
Si Si2 0.733092 0.877652 0.403126
Si Si3 0.851346 0.419963 0.519392
Si Si4 0.051837 0.873598 0.750000
Si Si5 0.409734 0.028436 0.604543
Si Si6 0.914295 0.033158 0.750000
O O1 0.440545 0.626740 0.439100
O O2 0.536762 0.836683 0.399542
O O3 0.759385 0.750000 0.500000
O O4 0.728446 0.825915 0.250000
O O5 0.660672 0.929539 0.465290
O O6 0.785667 0.010198 0.414943
O O7 0.832700 0.250000 0.500000
O O8 0.913732 0.439319 0.619359
O O9 0.869390 0.494226 0.379737
O O10 0.054851 0.696740 0.750000
O O11 0.973706 0.914279 0.750000
O O12 0.386674 0.000359 0.750000
#
# Coordination Sequence:
#
# PCOD8233490 Si02
#       6
#     4   8   8   4   8   4
#     4  10  20  38  60  88 120 154 200 250 306 362
#     4  11  24  42  61  89 124 163 207 255 305 363
#     4  10  22  40  61  88 124 163 203 250 300 362
#     4  10  20  40  60  92 120 159 196 255 297 361
#     4  10  21  38  60  87 120 158 202 252 305 357
#     4  10  22  36  64  90 122 153 204 243 307 359
#
# _framework density 19.716906000000002
#
# number of rings (size 3 to 8) (size 9 to 14) (size 15 to 20)
#    0.000    1.778    2.222    1.333    3.111    1.778 
#    0.000    1.111    0.000    0.000    0.000    0.000 
#    0.000    0.000    0.000    0.000    0.000    0.000 
#
# Total GULP energy -446250.091757 kJ/mol
# GULP energy per Si atom -12395.835882 kJ/mol
# Density = 1.967203 g / cm^3
# Si number density = 19.716906 Si / 1000 Ang^3
#
#
#
# Elastic Constant Matrix: (Units=GPa)
#
#
# Indices 1 2 3 4 5 6 
#
# 1 83.6335 37.7703 18.1551 0.0000 0.0000 0.0000
# 2 37.7703 78.6683 29.1089 0.0000 0.0000 0.0000
# 3 18.1551 29.1089 103.2881 0.0000 0.0000 0.0000
# 4 0.0000 0.0000 0.0000 19.8040 0.0000 0.0000
# 5 0.0000 0.0000 0.0000 0.0000 26.2473 0.0000
# 6 0.0000 0.0000 0.0000 0.0000 0.0000 32.0306
#
#
#
# Elastic Compliance Matrix: (Units=1/GPa)
#
#
# Indices 1 2 3 4 5 6 
#
# 1 0.015312 -0.007095 -0.000692 0.000000 0.000000 0.000000
# 2 -0.007095 0.017480 -0.003679 0.000000 0.000000 0.000000
# 3 -0.000692 -0.003679 0.010840 0.000000 0.000000 0.000000
# 4 0.000000 0.000000 0.000000 0.050495 0.000000 0.000000
# 5 0.000000 0.000000 0.000000 0.000000 0.038099 0.000000
# 6 0.000000 0.000000 0.000000 0.000000 0.000000 0.031220
#
#
# Mechanical properties :
#
#
# Convention : Reuss Voigt Hill
#
# Bulk Modulus (GPa) = 48.31158 48.40650 48.35904
# Shear Modulus (GPa) = 25.86959 27.65342 26.76150
#
# Velocity S-wave (km/s) = 3.62615 3.74909 3.68813
# Velocity P-wave (km/s) = 6.48751 6.58369 6.53578
#
# Compressibility (1/GPa) = 0.02069897
#
# Stress axis : x y z
#
# Youngs Moduli (GPa) = 65.31037 57.20964 92.25055
#
# Poissons Ratio (x) = 0.40593 0.06381
# Poissons Ratio (y) = 0.46341 0.33939
# Poissons Ratio (z) = 0.04517 0.21047
#
# Static dielectric constant tensor:
#      x y z
#    x 3.565640 0.000000 0.000000 
#    y 0.000000 3.590240 0.000000 
#    z 0.000000 0.000000 3.795580 
# 
# 
# High freq. dielectric constant tensor:
#      x y z
#    x 1.775890 0.000000 0.000000 
#    y 0.000000 1.764860 0.000000 
#    z 0.000000 0.000000 1.770100 
# 
# From -- ./inp_files/7668.got.cif
#   From: 2010.03.12/outbox.cif.g09.slc.cpg/sg57_4_cif.got.tgz:7668.got - 2010.04.16 15:48:40.
