data_PCOD8233579
_publ_section_title
;
Structure prediction by ZEFSAII (Michael W. Deem and Ramdas Pophale) SiO2 
 PCOD8233579
Probable space group: P B C M
;
_chemical_formula_sum "Si O2"
_cell_formula_units_Z 48
_cell_length_a 10.024443
_cell_length_b 13.112132
_cell_length_c 17.409447
_cell_angle_alpha 90.000000
_cell_angle_beta 90.000000
_cell_angle_gamma 90.000000
_cell_volume 2288.329396
_symmetry_space_group_name_H-M "P B C M"
_symmetry_group_IT_number 57
_symmetry_cell_setting 'orthorhombic'
loop_
_space_group_symop_operation_xyz
x,y,z
-x,-y,1/2+z
x,1/2-y,-z
-x,1/2+y,1/2-z
-x,-y,-z
x,y,1/2-z
-x,1/2+y,z
x,1/2-y,1/2+z
loop_
_atom_site_type_symbol
_atom_site_label
_atom_site_fract_x
_atom_site_fract_y
_atom_site_fract_z
Si Si1 0.155980 0.632117 0.914730
Si Si2 0.556571 0.085366 0.900587
Si Si3 0.897625 0.943997 0.160951
Si Si4 0.662448 0.797364 0.163484
Si Si5 0.794001 0.355701 0.909916
Si Si6 0.496850 0.146374 0.435292
O O1 0.292403 0.601190 0.871677
O O2 0.123735 0.751132 0.897856
O O3 0.033995 0.564876 0.885935
O O4 0.182150 0.605430 0.003677
O O5 0.456197 0.118467 0.833278
O O6 0.537213 0.971033 0.925493
O O7 0.515354 0.163081 0.972134
O O8 0.929150 0.930518 0.250000
O O9 0.794648 0.856243 0.133647
O O10 0.840565 0.057182 0.148100
O O11 0.682935 0.755039 0.250000
O O12 0.625303 0.706031 0.105364
O O13 0.638234 0.329847 0.894518
#
# Coordination Sequence:
#
# PCOD8233579 Si02
#       6
#     8   8   8   8   8   8
#     4  10  22  40  64  93 121 158 214 261 303 372
#     4  10  20  39  64  92 118 158 212 260 305 358
#     4  11  25  42  59  90 133 168 204 253 314 382
#     4  11  23  38  59  91 128 163 204 247 308 380
#     4  10  20  41  66  88 122 163 207 259 317 364
#     4  10  20  38  66  93 123 159 207 266 305 359
#
# _framework density 20.976001
#
# number of rings (size 3 to 8) (size 9 to 14) (size 15 to 20)
#    0.000    1.667    3.333    1.000    0.000    4.000 
#    6.000    1.667    0.000    0.000    0.000    0.000 
#    0.000    0.000    0.000    0.000    0.000    0.000 
#
# Total GULP energy -595155.378528 kJ/mol
# GULP energy per Si atom -12399.070386 kJ/mol
# Density = 2.092826 g / cm^3
# Si number density = 20.976001 Si / 1000 Ang^3
#
#
#
# Elastic Constant Matrix: (Units=GPa)
#
#
# Indices 1 2 3 4 5 6 
#
# 1 70.8051 -2.2985 18.5616 0.0000 0.0000 0.0000
# 2 -2.2985 48.0021 16.4444 0.0000 0.0000 0.0000
# 3 18.5616 16.4444 46.4208 0.0000 0.0000 0.0000
# 4 0.0000 0.0000 0.0000 25.2902 0.0000 0.0000
# 5 0.0000 0.0000 0.0000 0.0000 24.1410 0.0000
# 6 0.0000 0.0000 0.0000 0.0000 0.0000 29.8979
#
#
#
# Elastic Compliance Matrix: (Units=1/GPa)
#
#
# Indices 1 2 3 4 5 6 
#
# 1 0.016256 0.003420 -0.007712 0.000000 0.000000 0.000000
# 2 0.003420 0.024429 -0.010022 0.000000 0.000000 0.000000
# 3 -0.007712 -0.010022 0.028176 0.000000 0.000000 0.000000
# 4 0.000000 0.000000 0.000000 0.039541 0.000000 0.000000
# 5 0.000000 0.000000 0.000000 0.000000 0.041423 0.000000
# 6 0.000000 0.000000 0.000000 0.000000 0.000000 0.033447
#
#
# Mechanical properties :
#
#
# Convention : Reuss Voigt Hill
#
# Bulk Modulus (GPa) = 24.85401 25.62701 25.24051
# Shear Modulus (GPa) = 22.19161 24.70051 23.44606
#
# Velocity S-wave (km/s) = 3.25615 3.43528 3.34691
# Velocity P-wave (km/s) = 5.10011 5.28949 5.19567
#
# Compressibility (1/GPa) = 0.04023496
#
# Stress axis : x y z
#
# Youngs Moduli (GPa) = 61.51608 40.93432 35.49147
#
# Poissons Ratio (x) = -0.14000 0.27370
# Poissons Ratio (y) = -0.21040 0.35568
# Poissons Ratio (z) = 0.47439 0.41023
#
# Static dielectric constant tensor:
#      x y z
#    x 3.735870 0.000000 0.000000 
#    y 0.000000 3.803430 0.000000 
#    z 0.000000 0.000000 3.526700 
# 
# 
# High freq. dielectric constant tensor:
#      x y z
#    x 1.816740 0.000000 0.000000 
#    y 0.000000 1.836660 0.000000 
#    z 0.000000 0.000000 1.796570 
# 
# From -- ./inp_files/20923.got.cif
#   From: 2010.03.12/outbox.cif.g09.slc.cpg/sg57_11_cif.got.tgz:20923.got - 2010.04.16 15:48:40.
