data_PCOD8233245
_publ_section_title
;
Structure prediction by ZEFSAII (Michael W. Deem and Ramdas Pophale) SiO2 
 PCOD8233245
Probable space group: P B C M
;
_chemical_formula_sum "Si O2"
_cell_formula_units_Z 64
_cell_length_a 9.633408
_cell_length_b 23.670096
_cell_length_c 15.197325
_cell_angle_alpha 90.000000
_cell_angle_beta 90.000000
_cell_angle_gamma 90.000000
_cell_volume 3465.350158
_symmetry_space_group_name_H-M "P B C M"
_symmetry_group_IT_number 57
_symmetry_cell_setting 'orthorhombic'
loop_
_space_group_symop_operation_xyz
x,y,z
-x,-y,1/2+z
x,1/2-y,-z
-x,1/2+y,1/2-z
-x,-y,-z
x,y,1/2-z
-x,1/2+y,z
x,1/2-y,1/2+z
loop_
_atom_site_type_symbol
_atom_site_label
_atom_site_fract_x
_atom_site_fract_y
_atom_site_fract_z
Si Si1 0.129554 0.757476 0.852376
Si Si2 0.663098 0.436268 0.008959
Si Si3 0.827101 0.747286 0.401254
Si Si4 0.159368 0.126523 0.650928
Si Si5 0.662174 0.565433 0.993562
Si Si6 0.651377 0.644287 0.347129
Si Si7 0.332841 0.857292 0.649192
Si Si8 0.159688 0.869456 0.352192
O O1 0.091069 0.759174 0.750000
O O2 0.243290 0.803300 0.879326
O O3 0.189145 0.695879 0.876629
O O4 0.988307 0.771231 0.904146
O O5 0.500172 0.429909 0.027105
O O6 0.740809 0.407650 0.089773
O O7 0.708917 0.501149 0.006220
O O8 0.705182 0.408918 0.915244
O O9 0.769336 0.750000 0.500000
O O10 0.806516 0.807161 0.354467
O O11 0.739297 0.701281 0.349105
O O12 0.189078 0.106354 0.750000
O O13 0.256600 0.090668 0.588278
O O14 0.999535 0.115730 0.625527
O O15 0.704130 0.599018 0.081823
O O16 0.668590 0.617021 0.250000
O O17 0.491767 0.660696 0.363700
O O18 0.301198 0.875642 0.750000
O O19 0.192776 0.881188 0.250000
#
# Coordination Sequence:
#
# PCOD8233245 Si02
#       8
#     8   8   8   8   8   8   8   8
#     4   9  19  35  54  82 113 141 178 216 268 336
#     4  10  22  37  58  78 111 142 187 236 267 321
#     4  11  20  33  56  85 112 141 178 218 271 331
#     4  10  21  38  57  80 114 145 178 224 272 325
#     4  10  22  39  54  83 106 145 191 226 275 319
#     4  10  20  37  56  78 112 145 179 226 272 323
#     4   9  20  36  55  80 110 145 181 223 274 323
#     4   9  20  37  56  81 111 145 178 222 276 324
#
# _framework density 18.468551000000001
#
# number of rings (size 3 to 8) (size 9 to 14) (size 15 to 20)
#    0.000    2.250    1.250    1.875    3.500    3.000 
#    0.000    3.750    0.000    1.500    0.000    0.000 
#    0.000    0.000    0.000    0.000    0.000    0.000 
#
# Total GULP energy -793741.673010 kJ/mol
# GULP energy per Si atom -12402.213641 kJ/mol
# Density = 1.842652 g / cm^3
# Si number density = 18.468551 Si / 1000 Ang^3
#
#
#
# Elastic Constant Matrix: (Units=GPa)
#
#
# Indices 1 2 3 4 5 6 
#
# 1 60.5834 57.3255 44.8215 0.0000 0.0000 0.0000
# 2 57.3255 118.7930 51.8284 0.0000 0.0000 0.0000
# 3 44.8215 51.8284 103.4759 0.0000 0.0000 0.0000
# 4 0.0000 0.0000 0.0000 8.5193 0.0000 0.0000
# 5 0.0000 0.0000 0.0000 0.0000 34.0759 0.0000
# 6 0.0000 0.0000 0.0000 0.0000 0.0000 -2.3489
#
#
#
# Elastic Compliance Matrix: (Units=1/GPa)
#
#
# Indices 1 2 3 4 5 6 
#
# 1 0.035630 -0.013385 -0.008729 0.000000 0.000000 0.000000
# 2 -0.013385 0.015801 -0.002116 0.000000 0.000000 0.000000
# 3 -0.008729 -0.002116 0.014505 0.000000 0.000000 0.000000
# 4 0.000000 0.000000 0.000000 0.117380 0.000000 0.000000
# 5 0.000000 0.000000 0.000000 0.000000 0.029346 0.000000
# 6 0.000000 0.000000 0.000000 0.000000 0.000000 -0.425729
#
#
# Mechanical properties :
#
#
# Convention : Reuss Voigt Hill
#
# Bulk Modulus (GPa) = 57.22634 65.64477 61.43556
# Shear Modulus (GPa) = -31.48966 16.64105 -7.42431
#
# Velocity S-wave (km/s) = -4.13370 3.00500 -2.00716
# Velocity P-wave (km/s) = 2.87573 6.90372 5.28825
#
# Compressibility (1/GPa) = 0.01747447
#
# Stress axis : x y z
#
# Youngs Moduli (GPa) = 28.06653 63.28899 68.94159
#
# Poissons Ratio (x) = 0.84714 0.60179
# Poissons Ratio (y) = 0.37568 0.14589
# Poissons Ratio (z) = 0.24499 0.13393
#
# Static dielectric constant tensor:
#      x y z
#    x 3.339310 0.000000 0.000000 
#    y 0.000000 3.349790 0.000000 
#    z 0.000000 0.000000 3.481250 
# 
# 
# High freq. dielectric constant tensor:
#      x y z
#    x 1.710900 0.000000 0.000000 
#    y 0.000000 1.707310 0.000000 
#    z 0.000000 0.000000 1.729820 
# 
# From -- ./inp_files/16961.got.cif
#   From: 2010.03.12/outbox.cif.g09.slc.cpg/sg57_9_cif.got.tgz:16961.got - 2010.04.16 15:48:40.
