data_PCOD8233348
_publ_section_title
;
Structure prediction by ZEFSAII (Michael W. Deem and Ramdas Pophale) SiO2 
 PCOD8233348
Probable space group: P B C M
;
_chemical_formula_sum "Si O2"
_cell_formula_units_Z 32
_cell_length_a 19.352961
_cell_length_b 8.604356
_cell_length_c 9.744493
_cell_angle_alpha 90.000000
_cell_angle_beta 90.000000
_cell_angle_gamma 90.000000
_cell_volume 1622.650695
_symmetry_space_group_name_H-M "P B C M"
_symmetry_group_IT_number 57
_symmetry_cell_setting 'orthorhombic'
loop_
_space_group_symop_operation_xyz
x,y,z
-x,-y,1/2+z
x,1/2-y,-z
-x,1/2+y,1/2-z
-x,-y,-z
x,y,1/2-z
-x,1/2+y,z
x,1/2-y,1/2+z
loop_
_atom_site_type_symbol
_atom_site_label
_atom_site_fract_x
_atom_site_fract_y
_atom_site_fract_z
Si Si1 0.795469 0.104403 0.096522
Si Si2 0.410860 0.068456 0.250000
Si Si3 0.945536 0.405280 0.912481
Si Si4 0.559601 0.567847 0.750000
Si Si5 0.349203 0.563966 0.014740
O O1 0.789483 0.169963 0.250000
O O2 0.869077 0.013381 0.081543
O O3 0.726830 0.003897 0.064000
O O4 0.795010 0.250000 0.000000
O O5 0.429720 0.248555 0.250000
O O6 0.478186 0.960903 0.250000
O O7 0.362781 0.026839 0.376489
O O8 0.967179 0.382119 0.750000
O O9 0.939494 0.250000 0.000000
O O10 0.000000 0.500000 0.000000
O O11 0.591552 0.487234 0.617936
O O12 0.351634 0.750000 0.000000
#
# Coordination Sequence:
#
# PCOD8233348 Si02
#       5
#     8   4   8   4   8
#     4   9  19  35  61  89 119 155 202 251 298 361
#     4  12  26  40  62  90 119 162 199 252 311 366
#     4  10  20  37  60  90 123 163 207 253 305 365
#     4  12  24  44  62  86 125 156 201 252 307 370
#     4  11  22  40  64  91 118 156 205 252 305 364
#
# _framework density 19.720818000000001
#
# number of rings (size 3 to 8) (size 9 to 14) (size 15 to 20)
#    0.000    1.500    1.250    4.500    5.250    1.000 
#    0.000    2.500    0.000    0.000    0.000    0.000 
#    0.000    0.000    0.000    0.000    0.000    0.000 
#
# Total GULP energy -396427.435456 kJ/mol
# GULP energy per Si atom -12388.357358 kJ/mol
# Density = 1.967593 g / cm^3
# Si number density = 19.720818 Si / 1000 Ang^3
#
#
#
# Elastic Constant Matrix: (Units=GPa)
#
#
# Indices 1 2 3 4 5 6 
#
# 1 150.6123 31.1148 67.1886 0.0000 0.0000 0.0000
# 2 31.1148 82.2658 27.0578 0.0000 0.0000 0.0000
# 3 67.1886 27.0578 169.6196 0.0000 0.0000 0.0000
# 4 0.0000 0.0000 0.0000 35.2876 0.0000 0.0000
# 5 0.0000 0.0000 0.0000 0.0000 37.6015 0.0000
# 6 0.0000 0.0000 0.0000 0.0000 0.0000 42.3305
#
#
#
# Elastic Compliance Matrix: (Units=1/GPa)
#
#
# Indices 1 2 3 4 5 6 
#
# 1 0.008427 -0.002205 -0.002986 0.000000 0.000000 0.000000
# 2 -0.002205 0.013406 -0.001265 0.000000 0.000000 0.000000
# 3 -0.002986 -0.001265 0.007280 0.000000 0.000000 0.000000
# 4 0.000000 0.000000 0.000000 0.028339 0.000000 0.000000
# 5 0.000000 0.000000 0.000000 0.000000 0.026595 0.000000
# 6 0.000000 0.000000 0.000000 0.000000 0.000000 0.023624
#
#
# Mechanical properties :
#
#
# Convention : Reuss Voigt Hill
#
# Bulk Modulus (GPa) = 61.72723 72.58002 67.15363
# Shear Modulus (GPa) = 39.68765 41.51967 40.60366
#
# Velocity S-wave (km/s) = 4.49093 4.59341 4.54246
# Velocity P-wave (km/s) = 7.63281 8.06326 7.85099
#
# Compressibility (1/GPa) = 0.01620031
#
# Stress axis : x y z
#
# Youngs Moduli (GPa) = 118.66074 74.59435 137.35682
#
# Poissons Ratio (x) = 0.16449 0.41021
# Poissons Ratio (y) = 0.26167 0.17376
# Poissons Ratio (z) = 0.35437 0.09436
#
# Static dielectric constant tensor:
#      x y z
#    x 4.885460 0.000000 0.000000 
#    y 0.000000 2.932550 0.000000 
#    z 0.000000 0.000000 3.469390 
# 
# 
# High freq. dielectric constant tensor:
#      x y z
#    x 1.797190 0.000000 0.000000 
#    y 0.000000 1.725340 0.000000 
#    z 0.000000 0.000000 1.796160 
# 
# From -- ./inp_files/7551.got.cif
#   From: 2010.03.12/outbox.cif.g09.slc.cpg/sg57_4_cif.got.tgz:7551.got - 2010.04.16 15:48:40.
