data_PCOD8233153
_publ_section_title
;
Structure prediction by ZEFSAII (Michael W. Deem and Ramdas Pophale) SiO2 
 PCOD8233153
Probable space group: P B C M
;
_chemical_formula_sum "Si O2"
_cell_formula_units_Z 40
_cell_length_a 23.852463
_cell_length_b 8.608383
_cell_length_c 9.611949
_cell_angle_alpha 90.000000
_cell_angle_beta 90.000000
_cell_angle_gamma 90.000000
_cell_volume 1973.632417
_symmetry_space_group_name_H-M "P B C M"
_symmetry_group_IT_number 57
_symmetry_cell_setting 'orthorhombic'
loop_
_space_group_symop_operation_xyz
x,y,z
-x,-y,1/2+z
x,1/2-y,-z
-x,1/2+y,1/2-z
-x,-y,-z
x,y,1/2-z
-x,1/2+y,z
x,1/2-y,1/2+z
loop_
_atom_site_type_symbol
_atom_site_label
_atom_site_fract_x
_atom_site_fract_y
_atom_site_fract_z
Si Si1 0.120165 0.433289 0.520145
Si Si2 0.074943 0.932594 0.750000
Si Si3 0.668794 0.902663 0.908822
Si Si4 0.455772 0.404349 0.912604
Si Si5 0.955491 0.070837 0.750000
Si Si6 0.228567 0.603836 0.592485
O O1 0.116287 0.250000 0.500000
O O2 0.114472 0.529114 0.378991
O O3 0.069015 0.487445 0.615342
O O4 0.179911 0.474771 0.586825
O O5 0.057428 0.753318 0.750000
O O6 0.021970 0.047749 0.750000
O O7 0.682192 0.854650 0.750000
O O8 0.606517 0.978736 0.917914
O O9 0.713236 0.029759 0.961817
O O10 0.675020 0.750000 0.000000
O O11 0.474437 0.380739 0.750000
O O12 0.451182 0.250000 0.000000
O O13 0.500000 0.500000 0.000000
O O14 0.212241 0.750000 0.500000
O O15 0.235254 0.662239 0.750000
#
# Coordination Sequence:
#
# PCOD8233153 Si02
#       6
#     8   4   8   8   4   8
#     4  12  25  43  66  93 125 164 208 254 310 370
#     4  12  26  42  70  92 130 164 205 254 309 368
#     4   9  20  39  61  88 121 160 207 257 308 372
#     4  10  20  36  59  87 123 164 209 260 316 376
#     4  12  24  46  64  98 126 164 205 254 307 372
#     4  11  24  42  63  90 124 159 204 255 310 369
#
# _framework density 20.267199000000002
#
# number of rings (size 3 to 8) (size 9 to 14) (size 15 to 20)
#    0.000    1.200    1.000    5.400    1.400    2.400 
#    0.000    2.000    0.000    0.000    0.000    0.000 
#    0.000    0.000    0.000    0.000    0.000    0.000 
#
# Total GULP energy -496014.209290 kJ/mol
# GULP energy per Si atom -12400.355232 kJ/mol
# Density = 2.022107 g / cm^3
# Si number density = 20.267199 Si / 1000 Ang^3
#
#
#
# Elastic Constant Matrix: (Units=GPa)
#
#
# Indices 1 2 3 4 5 6 
#
# 1 106.6090 27.3836 27.2064 0.0000 0.0000 0.0000
# 2 27.3836 111.3582 26.7830 0.0000 0.0000 0.0000
# 3 27.2064 26.7830 111.2678 0.0000 0.0000 0.0000
# 4 0.0000 0.0000 0.0000 35.0208 0.0000 0.0000
# 5 0.0000 0.0000 0.0000 0.0000 32.2300 0.0000
# 6 0.0000 0.0000 0.0000 0.0000 0.0000 36.0493
#
#
#
# Elastic Compliance Matrix: (Units=1/GPa)
#
#
# Indices 1 2 3 4 5 6 
#
# 1 0.010436 -0.002073 -0.002053 0.000000 0.000000 0.000000
# 2 -0.002073 0.009943 -0.001887 0.000000 0.000000 0.000000
# 3 -0.002053 -0.001887 0.009943 0.000000 0.000000 0.000000
# 4 0.000000 0.000000 0.000000 0.028554 0.000000 0.000000
# 5 0.000000 0.000000 0.000000 0.000000 0.031027 0.000000
# 6 0.000000 0.000000 0.000000 0.000000 0.000000 0.027740
#
#
# Mechanical properties :
#
#
# Convention : Reuss Voigt Hill
#
# Bulk Modulus (GPa) = 54.64839 54.66456 54.65647
# Shear Modulus (GPa) = 36.82739 37.18416 37.00578
#
# Velocity S-wave (km/s) = 4.26736 4.28798 4.27768
# Velocity P-wave (km/s) = 7.16261 7.17957 7.17110
#
# Compressibility (1/GPa) = 0.01829880
#
# Stress axis : x y z
#
# Youngs Moduli (GPa) = 95.81904 100.56856 100.56890
#
# Poissons Ratio (x) = 0.20844 0.20646
# Poissons Ratio (y) = 0.19859 0.18974
# Poissons Ratio (z) = 0.19671 0.18974
#
# Static dielectric constant tensor:
#      x y z
#    x 4.919310 0.000000 0.000000 
#    y 0.000000 3.454180 0.000000 
#    z 0.000000 0.000000 3.894460 
# 
# 
# High freq. dielectric constant tensor:
#      x y z
#    x 1.806760 0.000000 0.000000 
#    y 0.000000 1.781890 0.000000 
#    z 0.000000 0.000000 1.808150 
# 
# From -- ./inp_files/8979.got.cif
#   From: 2010.03.12/outbox.cif.g09.slc.cpg/sg57_5_cif.got.tgz:8979.got - 2010.04.16 15:48:40.
