data_PCOD8233057
_publ_section_title
;
Structure prediction by ZEFSAII (Michael W. Deem and Ramdas Pophale) SiO2 
 PCOD8233057
Probable space group: P B C M
;
_chemical_formula_sum "Si O2"
_cell_formula_units_Z 56
_cell_length_a 15.618729
_cell_length_b 19.799618
_cell_length_c 8.771933
_cell_angle_alpha 90.000000
_cell_angle_beta 90.000000
_cell_angle_gamma 90.000000
_cell_volume 2712.675261
_symmetry_space_group_name_H-M "P B C M"
_symmetry_group_IT_number 57
_symmetry_cell_setting 'orthorhombic'
loop_
_space_group_symop_operation_xyz
x,y,z
-x,-y,1/2+z
x,1/2-y,-z
-x,1/2+y,1/2-z
-x,-y,-z
x,y,1/2-z
-x,1/2+y,z
x,1/2-y,1/2+z
loop_
_atom_site_type_symbol
_atom_site_label
_atom_site_fract_x
_atom_site_fract_y
_atom_site_fract_z
Si Si1 0.839019 0.414749 0.428119
Si Si2 0.503719 0.819718 0.069779
Si Si3 0.025115 0.679731 0.069415
Si Si4 0.761192 0.946112 0.924997
Si Si5 0.310620 0.818538 0.428203
Si Si6 0.432426 0.050079 0.074001
Si Si7 0.159795 0.180266 0.569828
O O1 0.858201 0.403147 0.250000
O O2 0.915798 0.383624 0.525715
O O3 0.827748 0.493949 0.466238
O O4 0.750624 0.379221 0.477291
O O5 0.511850 0.817321 0.250000
O O6 0.406563 0.834368 0.014331
O O7 0.537371 0.750000 0.000000
O O8 0.563961 0.877392 0.004636
O O9 0.020054 0.686876 0.250000
O O10 0.061559 0.750000 0.000000
O O11 0.931996 0.664415 0.002981
O O12 0.773787 0.923659 0.750000
O O13 0.665076 0.975000 0.948695
O O14 0.777513 0.881693 0.031634
O O15 0.274345 0.750000 0.500000
O O16 0.311757 0.807352 0.250000
O O17 0.456579 0.056031 0.250000
O O18 0.500000 0.000000 0.000000
O O19 0.196988 0.250000 0.500000
O O20 0.150844 0.188438 0.750000
#
# Coordination Sequence:
#
# PCOD8233057 Si02
#       7
#     8   8   8   8   8   8   8
#     4  10  20  36  57  83 117 154 193 237 285 341
#     4  10  20  36  57  83 114 150 194 244 297 351
#     4  11  22  38  61  89 121 156 194 235 283 340
#     4  10  23  42  62  86 118 155 194 240 294 347
#     4   9  18  32  52  79 113 153 193 236 287 339
#     4  11  23  40  62  87 117 155 197 243 296 352
#     4  11  23  42  67  91 117 151 194 242 292 347
#
# _framework density 20.643827000000002
#
# number of rings (size 3 to 8) (size 9 to 14) (size 15 to 20)
#    0.000    1.714    0.000    5.571    0.000    7.429 
#    0.000    1.429    0.000    0.000    0.000    0.000 
#    0.000    0.000    0.000    0.000    0.000    0.000 
#
# Total GULP energy -694561.879442 kJ/mol
# GULP energy per Si atom -12402.890704 kJ/mol
# Density = 2.059684 g / cm^3
# Si number density = 20.643827 Si / 1000 Ang^3
#
#
#
# Elastic Constant Matrix: (Units=GPa)
#
#
# Indices 1 2 3 4 5 6 
#
# 1 63.7434 40.5592 38.7182 0.0000 0.0000 0.0000
# 2 40.5592 123.2525 52.8315 0.0000 0.0000 0.0000
# 3 38.7182 52.8315 120.9863 0.0000 0.0000 0.0000
# 4 0.0000 0.0000 0.0000 38.0998 0.0000 0.0000
# 5 0.0000 0.0000 0.0000 0.0000 27.7254 0.0000
# 6 0.0000 0.0000 0.0000 0.0000 0.0000 36.2431
#
#
#
# Elastic Compliance Matrix: (Units=1/GPa)
#
#
# Indices 1 2 3 4 5 6 
#
# 1 0.021849 -0.005158 -0.004740 0.000000 0.000000 0.000000
# 2 -0.005158 0.011200 -0.003240 0.000000 0.000000 0.000000
# 3 -0.004740 -0.003240 0.011197 0.000000 0.000000 0.000000
# 4 0.000000 0.000000 0.000000 0.026247 0.000000 0.000000
# 5 0.000000 0.000000 0.000000 0.000000 0.036068 0.000000
# 6 0.000000 0.000000 0.000000 0.000000 0.000000 0.027591
#
#
# Mechanical properties :
#
#
# Convention : Reuss Voigt Hill
#
# Bulk Modulus (GPa) = 55.64831 63.57776 59.61304
# Shear Modulus (GPa) = 30.04496 32.13855 31.09175
#
# Velocity S-wave (km/s) = 3.81910 3.94993 3.88507
# Velocity P-wave (km/s) = 6.81633 7.18797 7.00461
#
# Compressibility (1/GPa) = 0.01797000
#
# Stress axis : x y z
#
# Youngs Moduli (GPa) = 45.76882 89.28882 89.31023
#
# Poissons Ratio (x) = 0.46058 0.42330
# Poissons Ratio (y) = 0.23609 0.28935
# Poissons Ratio (z) = 0.21693 0.28928
#
# Static dielectric constant tensor:
#      x y z
#    x 3.725700 0.000000 0.000000 
#    y 0.000000 3.731510 0.000000 
#    z 0.000000 0.000000 3.747850 
# 
# 
# High freq. dielectric constant tensor:
#      x y z
#    x 1.803170 0.000000 0.000000 
#    y 0.000000 1.813520 0.000000 
#    z 0.000000 0.000000 1.807630 
# 
# From -- ./inp_files/5224.got.cif
#   From: 2010.03.12/outbox.cif.g09.slc.cpg/sg57_3_cif.got.tgz:5224.got - 2010.04.16 15:48:40.
