data_PCOD8233516
_publ_section_title
;
Structure prediction by ZEFSAII (Michael W. Deem and Ramdas Pophale) SiO2 
 PCOD8233516
Probable space group: P B C M
;
_chemical_formula_sum "Si O2"
_cell_formula_units_Z 40
_cell_length_a 25.219921
_cell_length_b 9.236501
_cell_length_c 8.589646
_cell_angle_alpha 90.000000
_cell_angle_beta 90.000000
_cell_angle_gamma 90.000000
_cell_volume 2000.904999
_symmetry_space_group_name_H-M "P B C M"
_symmetry_group_IT_number 57
_symmetry_cell_setting 'orthorhombic'
loop_
_space_group_symop_operation_xyz
x,y,z
-x,-y,1/2+z
x,1/2-y,-z
-x,1/2+y,1/2-z
-x,-y,-z
x,y,1/2-z
-x,1/2+y,z
x,1/2-y,1/2+z
loop_
_atom_site_type_symbol
_atom_site_label
_atom_site_fract_x
_atom_site_fract_y
_atom_site_fract_z
Si Si1 0.048724 0.589541 0.434408
Si Si2 0.855741 0.590573 0.066054
Si Si3 0.241281 0.900413 0.068143
Si Si4 0.360938 0.595863 0.934901
Si Si5 0.451934 0.408540 0.065708
O O1 0.046125 0.750000 0.500000
O O2 0.045250 0.594783 0.250000
O O3 0.102881 0.515479 0.486168
O O4 0.000000 0.500000 0.500000
O O5 0.865461 0.591787 0.250000
O O6 0.797321 0.531944 0.021181
O O7 0.862682 0.750000 0.000000
O O8 0.242147 0.877592 0.250000
O O9 0.300666 0.934727 0.008888
O O10 0.219494 0.750000 0.000000
O O11 0.367178 0.593971 0.750000
O O12 0.380502 0.750000 0.000000
O O13 0.395959 0.471061 0.009895
O O14 0.454429 0.406635 0.250000
O O15 0.458230 0.250000 0.000000
O O16 0.500000 0.500000 0.000000
#
# Coordination Sequence:
#
# PCOD8233516 Si02
#       5
#     8   8   8   8   8
#     4  12  25  43  65  91 121 157 197 244 296 353
#     4  11  23  40  60  88 122 160 201 246 295 349
#     4   9  20  37  60  87 119 156 198 242 292 348
#     4  10  20  38  61  89 121 157 197 242 292 349
#     4  12  25  42  62  87 117 154 195 242 294 351
#
# _framework density 19.990956000000001
#
# number of rings (size 3 to 8) (size 9 to 14) (size 15 to 20)
#    0.000    1.200    0.000    6.600    0.000    4.800 
#    0.000    2.000    0.000    0.000    0.000    0.000 
#    0.000    0.000    0.000    0.000    0.000    0.000 
#
# Total GULP energy -496188.139345 kJ/mol
# GULP energy per Si atom -12404.703484 kJ/mol
# Density = 1.994546 g / cm^3
# Si number density = 19.990956 Si / 1000 Ang^3
#
#
#
# Elastic Constant Matrix: (Units=GPa)
#
#
# Indices 1 2 3 4 5 6 
#
# 1 122.9892 81.9764 59.5638 0.0000 0.0000 0.0000
# 2 81.9764 179.5720 70.0050 0.0000 0.0000 0.0000
# 3 59.5638 70.0050 146.4594 0.0000 0.0000 0.0000
# 4 0.0000 0.0000 0.0000 40.8779 0.0000 0.0000
# 5 0.0000 0.0000 0.0000 0.0000 31.4676 0.0000
# 6 0.0000 0.0000 0.0000 0.0000 0.0000 35.8449
#
#
#
# Elastic Compliance Matrix: (Units=1/GPa)
#
#
# Indices 1 2 3 4 5 6 
#
# 1 0.012631 -0.004625 -0.002926 0.000000 0.000000 0.000000
# 2 -0.004625 0.008538 -0.002200 0.000000 0.000000 0.000000
# 3 -0.002926 -0.002200 0.009069 0.000000 0.000000 0.000000
# 4 0.000000 0.000000 0.000000 0.024463 0.000000 0.000000
# 5 0.000000 0.000000 0.000000 0.000000 0.031779 0.000000
# 6 0.000000 0.000000 0.000000 0.000000 0.000000 0.027898
#
#
# Mechanical properties :
#
#
# Convention : Reuss Voigt Hill
#
# Bulk Modulus (GPa) = 93.14856 96.90122 95.02489
# Shear Modulus (GPa) = 36.37450 37.46979 36.92214
#
# Velocity S-wave (km/s) = 4.27024 4.33406 4.30227
# Velocity P-wave (km/s) = 8.42673 8.58039 8.50391
#
# Compressibility (1/GPa) = 0.01073554
#
# Stress axis : x y z
#
# Youngs Moduli (GPa) = 79.17120 117.12404 110.26205
#
# Poissons Ratio (x) = 0.54175 0.32263
# Poissons Ratio (y) = 0.36620 0.24256
# Poissons Ratio (z) = 0.23165 0.25766
#
# Static dielectric constant tensor:
#      x y z
#    x 7.417230 0.000000 0.000000 
#    y 0.000000 3.729060 0.000000 
#    z 0.000000 0.000000 3.807950 
# 
# 
# High freq. dielectric constant tensor:
#      x y z
#    x 1.797150 0.000000 0.000000 
#    y 0.000000 1.788260 0.000000 
#    z 0.000000 0.000000 1.795360 
# 
# From -- ./inp_files/8891.got.cif
#   From: 2010.03.12/outbox.cif.g09.slc.cpg/sg57_5_cif.got.tgz:8891.got - 2010.04.16 15:48:40.
