data_PCOD8233038
_publ_section_title
;
Structure prediction by ZEFSAII (Michael W. Deem and Ramdas Pophale) SiO2 
 PCOD8233038
Probable space group: P B C M
;
_chemical_formula_sum "Si O2"
_cell_formula_units_Z 64
_cell_length_a 15.556416
_cell_length_b 23.818709
_cell_length_c 8.693693
_cell_angle_alpha 90.000000
_cell_angle_beta 90.000000
_cell_angle_gamma 90.000000
_cell_volume 3221.306632
_symmetry_space_group_name_H-M "P B C M"
_symmetry_group_IT_number 57
_symmetry_cell_setting 'orthorhombic'
loop_
_space_group_symop_operation_xyz
x,y,z
-x,-y,1/2+z
x,1/2-y,-z
-x,1/2+y,1/2-z
-x,-y,-z
x,y,1/2-z
-x,1/2+y,z
x,1/2-y,1/2+z
loop_
_atom_site_type_symbol
_atom_site_label
_atom_site_fract_x
_atom_site_fract_y
_atom_site_fract_z
Si Si1 0.886029 0.875145 0.926707
Si Si2 0.805983 0.511974 0.428580
Si Si3 0.553733 0.879612 0.568410
Si Si4 0.959786 0.311087 0.069507
Si Si5 0.383634 0.893020 0.430819
Si Si6 0.192155 0.886312 0.068333
Si Si7 0.629342 0.512799 0.570052
Si Si8 0.284791 0.189905 0.429830
O O1 0.907678 0.860365 0.750000
O O2 0.882156 0.942661 0.952375
O O3 0.793886 0.850243 0.975058
O O4 0.958199 0.849364 0.034797
O O5 0.776208 0.511624 0.250000
O O6 0.835571 0.449660 0.480997
O O7 0.726129 0.532033 0.531487
O O8 0.560645 0.888555 0.750000
O O9 0.458388 0.858088 0.519262
O O10 0.565008 0.938546 0.481813
O O11 0.625649 0.836043 0.508292
O O12 0.950876 0.304242 0.250000
O O13 0.875255 0.341670 0.997933
O O14 0.971360 0.250000 0.000000
O O15 0.394225 0.883942 0.250000
O O16 0.289157 0.872201 0.487824
O O17 0.393064 0.958190 0.471548
O O18 0.188157 0.882316 0.250000
O O19 0.618326 0.500111 0.750000
O O20 0.267352 0.250000 0.500000
O O21 0.291587 0.197522 0.250000
#
# Coordination Sequence:
#
# PCOD8233038 Si02
#       8
#     8   8   8   8   8   8   8   8
#     4  10  20  37  60  87 115 148 182 227 289 345
#     4   9  17  35  59  83 116 153 184 224 286 346
#     4  11  21  36  54  78 111 150 191 234 278 330
#     4  11  23  40  60  85 111 146 193 238 282 334
#     4  10  20  36  57  81 110 147 186 233 285 337
#     4   8  18  37  60  82 112 149 186 230 284 341
#     4  11  20  31  51  83 117 151 187 226 272 332
#     4  10  22  38  56  78 110 150 188 230 281 336
#
# _framework density 19.867715
#
# number of rings (size 3 to 8) (size 9 to 14) (size 15 to 20)
#    0.000    2.000    1.250    3.750    0.000    3.500 
#    0.000    6.875    0.000    3.000    0.000    0.000 
#    0.000    0.000    0.000    0.000    0.000    0.000 
#
# Total GULP energy -793491.376654 kJ/mol
# GULP energy per Si atom -12398.302760 kJ/mol
# Density = 1.982250 g / cm^3
# Si number density = 19.867715 Si / 1000 Ang^3
#
#
#
# Elastic Constant Matrix: (Units=GPa)
#
#
# Indices 1 2 3 4 5 6 
#
# 1 110.6336 35.2773 26.6969 0.0000 0.0000 0.0000
# 2 35.2773 36.7245 9.9250 0.0000 0.0000 0.0000
# 3 26.6969 9.9250 45.2324 0.0000 0.0000 0.0000
# 4 0.0000 0.0000 0.0000 17.3624 0.0000 0.0000
# 5 0.0000 0.0000 0.0000 0.0000 27.8266 0.0000
# 6 0.0000 0.0000 0.0000 0.0000 0.0000 28.9740
#
#
#
# Elastic Compliance Matrix: (Units=1/GPa)
#
#
# Indices 1 2 3 4 5 6 
#
# 1 0.014322 -0.012196 -0.005777 0.000000 0.000000 0.000000
# 2 -0.012196 0.039332 -0.001432 0.000000 0.000000 0.000000
# 3 -0.005777 -0.001432 0.025832 0.000000 0.000000 0.000000
# 4 0.000000 0.000000 0.000000 0.057596 0.000000 0.000000
# 5 0.000000 0.000000 0.000000 0.000000 0.035937 0.000000
# 6 0.000000 0.000000 0.000000 0.000000 0.000000 0.034514
#
#
# Mechanical properties :
#
#
# Convention : Reuss Voigt Hill
#
# Bulk Modulus (GPa) = 24.58458 37.37655 30.98056
# Shear Modulus (GPa) = 19.23812 22.87871 21.05842
#
# Velocity S-wave (km/s) = 3.11515 3.39713 3.25919
# Velocity P-wave (km/s) = 5.03387 5.85157 5.45806
#
# Compressibility (1/GPa) = 0.04067590
#
# Stress axis : x y z
#
# Youngs Moduli (GPa) = 69.82365 25.42440 38.71192
#
# Poissons Ratio (x) = 0.31008 0.22363
# Poissons Ratio (y) = 0.85158 0.05544
# Poissons Ratio (z) = 0.40336 0.03641
#
# Static dielectric constant tensor:
#      x y z
#    x 3.926040 0.000000 0.000000 
#    y 0.000000 3.556610 0.000000 
#    z 0.000000 0.000000 3.414980 
# 
# 
# High freq. dielectric constant tensor:
#      x y z
#    x 1.781740 0.000000 0.000000 
#    y 0.000000 1.758830 0.000000 
#    z 0.000000 0.000000 1.758450 
# 
# From -- ./inp_files/5755.got.cif
#   From: 2010.03.12/outbox.cif.g09.slc.cpg/sg57_3_cif.got.tgz:5755.got - 2010.04.16 15:48:40.
