data_PCOD8233034
_publ_section_title
;
Structure prediction by ZEFSAII (Michael W. Deem and Ramdas Pophale) SiO2 
 PCOD8233034
Probable space group: P B C M
;
_chemical_formula_sum "Si O2"
_cell_formula_units_Z 64
_cell_length_a 9.054700
_cell_length_b 16.353410
_cell_length_c 23.102448
_cell_angle_alpha 90.000000
_cell_angle_beta 90.000000
_cell_angle_gamma 90.000000
_cell_volume 3420.900105
_symmetry_space_group_name_H-M "P B C M"
_symmetry_group_IT_number 57
_symmetry_cell_setting 'orthorhombic'
loop_
_space_group_symop_operation_xyz
x,y,z
-x,-y,1/2+z
x,1/2-y,-z
-x,1/2+y,1/2-z
-x,-y,-z
x,y,1/2-z
-x,1/2+y,z
x,1/2-y,1/2+z
loop_
_atom_site_type_symbol
_atom_site_label
_atom_site_fract_x
_atom_site_fract_y
_atom_site_fract_z
Si Si1 0.347709 0.325720 0.542592
Si Si2 0.374729 0.473045 0.814548
Si Si3 0.170691 0.879761 0.315087
Si Si4 0.964857 0.467291 0.416568
Si Si5 0.395355 0.601182 0.103739
Si Si6 0.167220 0.806753 0.816135
Si Si7 0.756668 0.986716 0.012797
Si Si8 0.879369 0.868734 0.633346
O O1 0.350952 0.250000 0.500000
O O2 0.498613 0.326469 0.580119
O O3 0.344853 0.412564 0.509221
O O4 0.204204 0.316451 0.583870
O O5 0.433973 0.459420 0.750000
O O6 0.316130 0.565020 0.823812
O O7 0.510272 0.460977 0.857404
O O8 0.241869 0.409161 0.824808
O O9 0.105723 0.892858 0.250000
O O10 0.048907 0.905599 0.362488
O O11 0.217915 0.786499 0.324245
O O12 0.822118 0.461839 0.458629
O O13 0.978830 0.560588 0.395373
O O14 0.112355 0.444069 0.450701
O O15 0.264045 0.638476 0.141355
O O16 0.335336 0.549827 0.050244
O O17 0.191394 0.835620 0.750000
O O18 0.992682 0.812082 0.831289
#
# Coordination Sequence:
#
# PCOD8233034 Si02
#       8
#     8   8   8   8   8   8   8   8
#     4  10  23  37  55  81 115 151 185 228 285 346
#     4   9  18  36  58  77 107 153 193 226 278 345
#     4   9  20  36  57  83 113 148 186 233 292 339
#     4   9  18  36  57  82 108 145 186 232 279 333
#     4  11  22  37  56  83 113 151 194 231 280 342
#     4  11  22  36  57  88 118 142 188 250 292 333
#     4  10  20  36  57  80 112 146 192 233 277 336
#     4   9  18  36  57  80 108 144 189 228 282 338
#
# _framework density 18.708527
#
# number of rings (size 3 to 8) (size 9 to 14) (size 15 to 20)
#    0.000    2.250    1.250    1.875    1.750    2.500 
#    0.000    0.625    0.000    0.000    0.000    0.000 
#    0.000    0.000    0.000    0.000    0.000    0.000 
#
# Total GULP energy -793559.681762 kJ/mol
# GULP energy per Si atom -12399.370028 kJ/mol
# Density = 1.866595 g / cm^3
# Si number density = 18.708527 Si / 1000 Ang^3
#
#
#
# Elastic Constant Matrix: (Units=GPa)
#
#
# Indices 1 2 3 4 5 6 
#
# 1 78.5109 37.0294 39.2108 0.0000 0.0000 0.0000
# 2 37.0294 68.6302 37.5618 0.0000 0.0000 0.0000
# 3 39.2108 37.5618 107.0681 0.0000 0.0000 0.0000
# 4 0.0000 0.0000 0.0000 32.1736 0.0000 0.0000
# 5 0.0000 0.0000 0.0000 0.0000 30.5507 0.0000
# 6 0.0000 0.0000 0.0000 0.0000 0.0000 15.1637
#
#
#
# Elastic Compliance Matrix: (Units=1/GPa)
#
#
# Indices 1 2 3 4 5 6 
#
# 1 0.018388 -0.007717 -0.004027 0.000000 0.000000 0.000000
# 2 -0.007717 0.021272 -0.004637 0.000000 0.000000 0.000000
# 3 -0.004027 -0.004637 0.012441 0.000000 0.000000 0.000000
# 4 0.000000 0.000000 0.000000 0.031081 0.000000 0.000000
# 5 0.000000 0.000000 0.000000 0.000000 0.032732 0.000000
# 6 0.000000 0.000000 0.000000 0.000000 0.000000 0.065947
#
#
# Mechanical properties :
#
#
# Convention : Reuss Voigt Hill
#
# Bulk Modulus (GPa) = 51.70559 53.53482 52.62020
# Shear Modulus (GPa) = 22.61723 24.93808 23.77766
#
# Velocity S-wave (km/s) = 3.48073 3.65496 3.56891
# Velocity P-wave (km/s) = 6.62204 6.81828 6.72088
#
# Compressibility (1/GPa) = 0.01934027
#
# Stress axis : x y z
#
# Youngs Moduli (GPa) = 54.38325 47.00932 80.37877
#
# Poissons Ratio (x) = 0.36279 0.32366
# Poissons Ratio (y) = 0.41970 0.37268
# Poissons Ratio (z) = 0.21898 0.21796
#
# Static dielectric constant tensor:
#      x y z
#    x 3.318180 0.000000 0.000000 
#    y 0.000000 3.184700 0.000000 
#    z 0.000000 0.000000 3.688640 
# 
# 
# High freq. dielectric constant tensor:
#      x y z
#    x 1.718040 0.000000 0.000000 
#    y 0.000000 1.703590 0.000000 
#    z 0.000000 0.000000 1.746200 
# 
# From -- ./inp_files/26902.got.cif
#   From: 2010.03.12/outbox.cif.g09.slc.cpg/sg57_14_cif.got.tgz:26902.got - 2010.04.16 15:48:40.
