data_PCOD8233441
_publ_section_title
;
Structure prediction by ZEFSAII (Michael W. Deem and Ramdas Pophale) SiO2 
 PCOD8233441
Probable space group: P B C M
;
_chemical_formula_sum "Si O2"
_cell_formula_units_Z 56
_cell_length_a 9.551402
_cell_length_b 17.732962
_cell_length_c 14.421046
_cell_angle_alpha 90.000000
_cell_angle_beta 90.000000
_cell_angle_gamma 90.000000
_cell_volume 2442.559600
_symmetry_space_group_name_H-M "P B C M"
_symmetry_group_IT_number 57
_symmetry_cell_setting 'orthorhombic'
loop_
_space_group_symop_operation_xyz
x,y,z
-x,-y,1/2+z
x,1/2-y,-z
-x,1/2+y,1/2-z
-x,-y,-z
x,y,1/2-z
-x,1/2+y,z
x,1/2-y,1/2+z
loop_
_atom_site_type_symbol
_atom_site_label
_atom_site_fract_x
_atom_site_fract_y
_atom_site_fract_z
Si Si1 0.910695 0.085755 0.031066
Si Si2 0.544144 0.191449 0.640619
Si Si3 0.635278 0.036590 0.545716
Si Si4 0.177374 0.424297 0.642049
Si Si5 0.992986 0.847872 0.148213
Si Si6 0.255829 0.241398 0.359373
Si Si7 0.198870 0.783714 0.648874
O O1 0.881042 0.168457 0.072041
O O2 0.035018 0.047129 0.090173
O O3 0.760736 0.042680 0.031278
O O4 0.969293 0.088450 0.925985
O O5 0.538014 0.172357 0.750000
O O6 0.595009 0.117479 0.586625
O O7 0.396325 0.220747 0.600769
O O8 0.642859 0.263733 0.620165
O O9 0.500000 0.000000 0.500000
O O10 0.694967 0.982207 0.626199
O O11 0.141671 0.419884 0.750000
O O12 0.223973 0.342413 0.601732
O O13 0.958538 0.883970 0.250000
O O14 0.866279 0.797549 0.110080
O O15 0.128661 0.797015 0.159500
O O16 0.266925 0.233904 0.250000
O O17 0.193923 0.825159 0.750000
#
# Coordination Sequence:
#
# PCOD8233441 Si02
#       7
#     8   8   8   8   8   8   8
#     4  12  24  43  69 104 135 180 236 287 344 418
#     4  10  22  43  69  95 132 179 228 282 347 416
#     4  12  29  46  62  96 145 189 236 276 348 426
#     4  11  25  48  72  98 140 187 230 292 356 417
#     4  10  20  37  66 103 136 169 220 290 353 404
#     4   9  20  39  68 103 130 167 229 287 348 403
#     4  10  20  38  68 103 130 166 226 293 348 404
#
# _framework density 22.926769
#
# number of rings (size 3 to 8) (size 9 to 14) (size 15 to 20)
#    0.000    1.429    2.857    1.714    4.000    0.571 
#    0.000    2.143    0.000    0.000    0.000    0.000 
#    0.000    0.000    0.000    0.000    0.000    0.000 
#
# Total GULP energy -694194.493343 kJ/mol
# GULP energy per Si atom -12396.330238 kJ/mol
# Density = 2.287459 g / cm^3
# Si number density = 22.926769 Si / 1000 Ang^3
#
#
#
# Elastic Constant Matrix: (Units=GPa)
#
#
# Indices 1 2 3 4 5 6 
#
# 1 156.4723 50.4126 35.6349 0.0000 0.0000 0.0000
# 2 50.4126 84.6948 35.3520 0.0000 0.0000 0.0000
# 3 35.6349 35.3520 95.3703 0.0000 0.0000 0.0000
# 4 0.0000 0.0000 0.0000 15.4306 0.0000 0.0000
# 5 0.0000 0.0000 0.0000 0.0000 31.1344 0.0000
# 6 0.0000 0.0000 0.0000 0.0000 0.0000 43.0857
#
#
#
# Elastic Compliance Matrix: (Units=1/GPa)
#
#
# Indices 1 2 3 4 5 6 
#
# 1 0.008076 -0.004197 -0.001462 0.000000 0.000000 0.000000
# 2 -0.004197 0.016149 -0.004418 0.000000 0.000000 0.000000
# 3 -0.001462 -0.004418 0.012669 0.000000 0.000000 0.000000
# 4 0.000000 0.000000 0.000000 0.064806 0.000000 0.000000
# 5 0.000000 0.000000 0.000000 0.000000 0.032119 0.000000
# 6 0.000000 0.000000 0.000000 0.000000 0.000000 0.023210
#
#
# Mechanical properties :
#
#
# Convention : Reuss Voigt Hill
#
# Bulk Modulus (GPa) = 59.73356 64.37071 62.05213
# Shear Modulus (GPa) = 27.35780 32.27268 29.81524
#
# Velocity S-wave (km/s) = 3.45812 3.75593 3.61010
# Velocity P-wave (km/s) = 6.48502 6.85178 6.67092
#
# Compressibility (1/GPa) = 0.01674101
#
# Stress axis : x y z
#
# Youngs Moduli (GPa) = 123.82387 61.92214 78.93046
#
# Poissons Ratio (x) = 0.25988 0.11539
# Poissons Ratio (y) = 0.51967 0.34872
# Poissons Ratio (z) = 0.18102 0.27358
#
# Static dielectric constant tensor:
#      x y z
#    x 4.443950 0.000000 0.000000 
#    y 0.000000 3.947450 0.000000 
#    z 0.000000 0.000000 4.421580 
# 
# 
# High freq. dielectric constant tensor:
#      x y z
#    x 1.919320 0.000000 0.000000 
#    y 0.000000 1.894160 0.000000 
#    z 0.000000 0.000000 1.900260 
# 
# From -- ./inp_files/16691.got.cif
#   From: 2010.03.12/outbox.cif.g09.slc.cpg/sg57_9_cif.got.tgz:16691.got - 2010.04.16 15:48:40.
