data_PCOD8233210
_publ_section_title
;
Structure prediction by ZEFSAII (Michael W. Deem and Ramdas Pophale) SiO2 
 PCOD8233210
Probable space group: P B C M
;
_chemical_formula_sum "Si O2"
_cell_formula_units_Z 48
_cell_length_a 15.127448
_cell_length_b 19.077717
_cell_length_c 8.760936
_cell_angle_alpha 90.000000
_cell_angle_beta 90.000000
_cell_angle_gamma 90.000000
_cell_volume 2528.381353
_symmetry_space_group_name_H-M "P B C M"
_symmetry_group_IT_number 57
_symmetry_cell_setting 'orthorhombic'
loop_
_space_group_symop_operation_xyz
x,y,z
-x,-y,1/2+z
x,1/2-y,-z
-x,1/2+y,1/2-z
-x,-y,-z
x,y,1/2-z
-x,1/2+y,z
x,1/2-y,1/2+z
loop_
_atom_site_type_symbol
_atom_site_label
_atom_site_fract_x
_atom_site_fract_y
_atom_site_fract_z
Si Si1 0.723722 0.425840 0.069029
Si Si2 0.370734 0.173891 0.930983
Si Si3 0.966094 0.571908 0.929826
Si Si4 0.778565 0.579226 0.068386
Si Si5 0.526529 0.426910 0.429605
Si Si6 0.124558 0.674125 0.928641
O O1 0.732235 0.427364 0.250000
O O2 0.748344 0.503050 0.007436
O O3 0.624957 0.405575 0.015079
O O4 0.792039 0.368846 0.001811
O O5 0.361691 0.177579 0.750000
O O6 0.458402 0.132306 0.983185
O O7 0.380282 0.250000 0.000000
O O8 0.284803 0.137627 0.999436
O O9 0.953221 0.561832 0.750000
O O10 0.035653 0.632621 0.968042
O O11 0.875984 0.595793 0.008568
O O12 0.000000 0.500000 0.000000
O O13 0.776490 0.583793 0.250000
O O14 0.500000 0.500000 0.500000
O O15 0.525050 0.436965 0.250000
O O16 0.137254 0.683064 0.750000
O O17 0.119783 0.750000 0.000000
#
# Coordination Sequence:
#
# PCOD8233210 Si02
#       6
#     8   8   8   8   8   8
#     4   9  18  36  60  86 118 154 191 239 299 355
#     4  11  24  40  59  89 124 160 201 249 302 361
#     4  11  22  38  61  90 122 157 204 250 297 361
#     4  11  21  38  64  89 118 158 199 250 308 357
#     4  10  20  36  61  89 118 153 197 244 294 355
#     4  10  22  40  59  85 120 156 192 239 296 352
#
# _framework density 18.984476999999998
#
# number of rings (size 3 to 8) (size 9 to 14) (size 15 to 20)
#    0.000    1.667    3.333    1.500    0.000    3.333 
#    0.000    2.500    0.000    0.000    0.000    0.000 
#    0.000    0.000    0.000    0.000    0.000    0.000 
#
# Total GULP energy -595313.972222 kJ/mol
# GULP energy per Si atom -12402.374421 kJ/mol
# Density = 1.894127 g / cm^3
# Si number density = 18.984477 Si / 1000 Ang^3
#
#
#
# Elastic Constant Matrix: (Units=GPa)
#
#
# Indices 1 2 3 4 5 6 
#
# 1 184.5164 93.7043 53.4549 0.0000 0.0000 0.0000
# 2 93.7043 177.5229 53.5325 0.0000 0.0000 0.0000
# 3 53.4549 53.5325 56.5382 0.0000 0.0000 0.0000
# 4 0.0000 0.0000 0.0000 32.7097 0.0000 0.0000
# 5 0.0000 0.0000 0.0000 0.0000 26.0216 0.0000
# 6 0.0000 0.0000 0.0000 0.0000 0.0000 32.5752
#
#
#
# Elastic Compliance Matrix: (Units=1/GPa)
#
#
# Indices 1 2 3 4 5 6 
#
# 1 0.008380 -0.002847 -0.005227 0.000000 0.000000 0.000000
# 2 -0.002847 0.008851 -0.005689 0.000000 0.000000 0.000000
# 3 -0.005227 -0.005689 0.028016 0.000000 0.000000 0.000000
# 4 0.000000 0.000000 0.000000 0.030572 0.000000 0.000000
# 5 0.000000 0.000000 0.000000 0.000000 0.038430 0.000000
# 6 0.000000 0.000000 0.000000 0.000000 0.000000 0.030698
#
#
# Mechanical properties :
#
#
# Convention : Reuss Voigt Hill
#
# Bulk Modulus (GPa) = 56.43150 91.10676 73.76913
# Shear Modulus (GPa) = 28.03005 32.78703 30.40854
#
# Velocity S-wave (km/s) = 3.84666 4.16028 4.00654
# Velocity P-wave (km/s) = 7.03695 8.43632 7.76821
#
# Compressibility (1/GPa) = 0.01772060
#
# Stress axis : x y z
#
# Youngs Moduli (GPa) = 119.33696 112.97675 35.69391
#
# Poissons Ratio (x) = 0.32163 0.18658
# Poissons Ratio (y) = 0.33974 0.20307
# Poissons Ratio (z) = 0.62379 0.64275
#
# Static dielectric constant tensor:
#      x y z
#    x 4.339770 0.000000 0.000000 
#    y 0.000000 3.416540 0.000000 
#    z 0.000000 0.000000 3.413880 
# 
# 
# High freq. dielectric constant tensor:
#      x y z
#    x 1.759350 0.000000 0.000000 
#    y 0.000000 1.738750 0.000000 
#    z 0.000000 0.000000 1.726970 
# 
# From -- ./inp_files/4611.got.cif
#   From: 2010.03.12/outbox.cif.g09.slc.cpg/sg57_3_cif.got.tgz:4611.got - 2010.04.16 15:48:40.
