data_PCOD8233823
_publ_section_title
;
Structure prediction by ZEFSAII (Michael W. Deem and Ramdas Pophale) SiO2 
 PCOD8233823
Probable space group: P B C M
;
_chemical_formula_sum "Si O2"
_cell_formula_units_Z 48
_cell_length_a 16.350596
_cell_length_b 17.811582
_cell_length_c 8.976435
_cell_angle_alpha 90.000000
_cell_angle_beta 90.000000
_cell_angle_gamma 90.000000
_cell_volume 2614.206998
_symmetry_space_group_name_H-M "P B C M"
_symmetry_group_IT_number 57
_symmetry_cell_setting 'orthorhombic'
loop_
_space_group_symop_operation_xyz
x,y,z
-x,-y,1/2+z
x,1/2-y,-z
-x,1/2+y,1/2-z
-x,-y,-z
x,y,1/2-z
-x,1/2+y,z
x,1/2-y,1/2+z
loop_
_atom_site_type_symbol
_atom_site_label
_atom_site_fract_x
_atom_site_fract_y
_atom_site_fract_z
Si Si1 0.084294 0.520945 0.425017
Si Si2 0.832617 0.174729 0.075202
Si Si3 0.231332 0.045706 0.419569
Si Si4 0.641423 0.671155 0.074651
Si Si5 0.685187 0.108536 0.580753
Si Si6 0.497750 0.580715 0.924986
O O1 0.073597 0.516160 0.250000
O O2 0.111727 0.604419 0.476122
O O3 0.152720 0.461102 0.474619
O O4 0.000000 0.500000 0.500000
O O5 0.834970 0.185493 0.250000
O O6 0.868031 0.250000 0.000000
O O7 0.738820 0.161438 0.025717
O O8 0.199851 0.044830 0.250000
O O9 0.278218 0.122012 0.457443
O O10 0.294920 0.978624 0.449026
O O11 0.624447 0.679128 0.250000
O O12 0.660137 0.750000 0.000000
O O13 0.562737 0.635243 0.998747
O O14 0.706626 0.130825 0.750000
O O15 0.589809 0.119926 0.546742
O O16 0.515185 0.570957 0.750000
O O17 0.500000 0.500000 0.000000
#
# Coordination Sequence:
#
# PCOD8233823 Si02
#       6
#     8   8   8   8   8   8
#     4  10  21  37  60  89 114 142 184 225 274 334
#     4  10  21  36  56  84 114 146 182 225 277 332
#     4   9  18  36  58  79 108 143 182 226 275 332
#     4  11  23  39  56  81 113 151 194 239 289 336
#     4   9  18  34  55  79 107 144 185 226 276 329
#     4  11  21  35  56  82 112 151 195 240 286 336
#
# _framework density 18.361208000000001
#
# number of rings (size 3 to 8) (size 9 to 14) (size 15 to 20)
#    0.000    2.000    1.667    2.000    0.000    5.333 
#    0.000    0.833    0.000    0.000    0.000    0.000 
#    0.000    0.000    0.000    0.000    0.000    0.000 
#
# Total GULP energy -595334.348924 kJ/mol
# GULP energy per Si atom -12402.798936 kJ/mol
# Density = 1.831942 g / cm^3
# Si number density = 18.361208 Si / 1000 Ang^3
#
#
#
# Elastic Constant Matrix: (Units=GPa)
#
#
# Indices 1 2 3 4 5 6 
#
# 1 127.4227 58.5151 65.5731 0.0000 0.0000 0.0000
# 2 58.5151 118.7370 56.9070 0.0000 0.0000 0.0000
# 3 65.5731 56.9070 100.3758 0.0000 0.0000 0.0000
# 4 0.0000 0.0000 0.0000 35.1857 0.0000 0.0000
# 5 0.0000 0.0000 0.0000 0.0000 34.8245 0.0000
# 6 0.0000 0.0000 0.0000 0.0000 0.0000 20.3594
#
#
#
# Elastic Compliance Matrix: (Units=1/GPa)
#
#
# Indices 1 2 3 4 5 6 
#
# 1 0.012607 -0.003111 -0.006472 0.000000 0.000000 0.000000
# 2 -0.003111 0.012332 -0.004959 0.000000 0.000000 0.000000
# 3 -0.006472 -0.004959 0.017002 0.000000 0.000000 0.000000
# 4 0.000000 0.000000 0.000000 0.028421 0.000000 0.000000
# 5 0.000000 0.000000 0.000000 0.000000 0.028715 0.000000
# 6 0.000000 0.000000 0.000000 0.000000 0.000000 0.049117
#
#
# Mechanical properties :
#
#
# Convention : Reuss Voigt Hill
#
# Bulk Modulus (GPa) = 77.78083 78.72510 78.25297
# Shear Modulus (GPa) = 27.53837 29.10994 28.32415
#
# Velocity S-wave (km/s) = 3.87694 3.98603 3.93187
# Velocity P-wave (km/s) = 7.90534 8.00959 7.95763
#
# Compressibility (1/GPa) = 0.01285664
#
# Stress axis : x y z
#
# Youngs Moduli (GPa) = 79.31949 81.09076 58.81599
#
# Poissons Ratio (x) = 0.25228 0.38067
# Poissons Ratio (y) = 0.24677 0.29167
# Poissons Ratio (z) = 0.51337 0.40213
#
# Static dielectric constant tensor:
#      x y z
#    x 3.366420 0.000000 0.000000 
#    y 0.000000 3.421270 0.000000 
#    z 0.000000 0.000000 2.981680 
# 
# 
# High freq. dielectric constant tensor:
#      x y z
#    x 1.705340 0.000000 0.000000 
#    y 0.000000 1.707100 0.000000 
#    z 0.000000 0.000000 1.722550 
# 
# From -- ./inp_files/4590.got.cif
#   From: 2010.03.12/outbox.cif.g09.slc.cpg/sg57_3_cif.got.tgz:4590.got - 2010.04.16 15:48:40.
