data_PCOD8233406
_publ_section_title
;
Structure prediction by ZEFSAII (Michael W. Deem and Ramdas Pophale) SiO2 
 PCOD8233406
Probable space group: P B C M
;
_chemical_formula_sum "Si O2"
_cell_formula_units_Z 64
_cell_length_a 22.665566
_cell_length_b 9.196659
_cell_length_c 14.940343
_cell_angle_alpha 90.000000
_cell_angle_beta 90.000000
_cell_angle_gamma 90.000000
_cell_volume 3114.276872
_symmetry_space_group_name_H-M "P B C M"
_symmetry_group_IT_number 57
_symmetry_cell_setting 'orthorhombic'
loop_
_space_group_symop_operation_xyz
x,y,z
-x,-y,1/2+z
x,1/2-y,-z
-x,1/2+y,1/2-z
-x,-y,-z
x,y,1/2-z
-x,1/2+y,z
x,1/2-y,1/2+z
loop_
_atom_site_type_symbol
_atom_site_label
_atom_site_fract_x
_atom_site_fract_y
_atom_site_fract_z
Si Si1 0.276556 0.093835 0.149209
Si Si2 0.199153 0.372449 0.147382
Si Si3 0.740813 0.089955 0.477790
Si Si4 0.366753 0.957178 0.651320
Si Si5 0.934163 0.643965 0.851830
Si Si6 0.608784 0.773259 0.895264
Si Si7 0.484097 0.629523 0.065886
Si Si8 0.024764 0.869376 0.559154
O O1 0.258641 0.043972 0.250000
O O2 0.245720 0.246544 0.124473
O O3 0.347444 0.104573 0.142402
O O4 0.257717 0.978980 0.075944
O O5 0.205686 0.422820 0.250000
O O6 0.133464 0.314466 0.127909
O O7 0.212160 0.510494 0.085330
O O8 0.762909 0.250000 0.500000
O O9 0.677469 0.092096 0.427329
O O10 0.345327 0.903176 0.750000
O O11 0.432511 0.899881 0.635268
O O12 0.372855 0.129656 0.657027
O O13 0.951576 0.668900 0.750000
O O14 0.973200 0.762350 0.904424
O O15 0.940556 0.467068 0.868447
O O16 0.541483 0.820825 0.877483
O O17 0.619346 0.750000 0.000000
O O18 0.459363 0.750000 0.000000
O O19 0.500000 0.500000 0.000000
O O20 0.063073 0.750000 0.500000
O O21 0.000000 0.000000 0.500000
#
# Coordination Sequence:
#
# PCOD8233406 Si02
#       8
#     8   8   8   8   8   8   8   8
#     4  11  22  40  67  92 115 156 211 256 301 370
#     4  10  22  41  67  94 121 164 218 261 303 367
#     4  12  25  42  63  89 126 161 195 256 327 378
#     4  12  24  40  62  90 121 156 199 252 310 371
#     4  10  20  37  62  93 127 166 213 258 304 360
#     4  11  19  38  66  86 119 156 199 249 306 365
#     4  11  21  39  60  83 116 155 198 245 300 367
#     4   9  19  34  55  86 128 171 209 253 303 360
#
# _framework density 20.550515999999998
#
# number of rings (size 3 to 8) (size 9 to 14) (size 15 to 20)
#    0.000    1.250    5.000    1.875    0.000    5.500 
#    0.000    1.250    0.000    6.000    0.000    0.000 
#    0.000    0.000    0.000    0.000    0.000    0.000 
#
# Total GULP energy -792946.759247 kJ/mol
# GULP energy per Si atom -12389.793113 kJ/mol
# Density = 2.050374 g / cm^3
# Si number density = 20.550516 Si / 1000 Ang^3
#
#
#
# Elastic Constant Matrix: (Units=GPa)
#
#
# Indices 1 2 3 4 5 6 
#
# 1 75.0379 20.2978 33.2940 0.0000 0.0000 0.0000
# 2 20.2978 114.7307 54.7292 0.0000 0.0000 0.0000
# 3 33.2940 54.7292 125.2120 0.0000 0.0000 0.0000
# 4 0.0000 0.0000 0.0000 25.6790 0.0000 0.0000
# 5 0.0000 0.0000 0.0000 0.0000 271.8405 0.0000
# 6 0.0000 0.0000 0.0000 0.0000 0.0000 25.3669
#
#
#
# Elastic Compliance Matrix: (Units=1/GPa)
#
#
# Indices 1 2 3 4 5 6 
#
# 1 0.015193 -0.000961 -0.003620 0.000000 0.000000 0.000000
# 2 -0.000961 0.011073 -0.004584 0.000000 0.000000 0.000000
# 3 -0.003620 -0.004584 0.010953 0.000000 0.000000 0.000000
# 4 0.000000 0.000000 0.000000 0.038942 0.000000 0.000000
# 5 0.000000 0.000000 0.000000 0.000000 0.003679 0.000000
# 6 0.000000 0.000000 0.000000 0.000000 0.000000 0.039421
#
#
# Mechanical properties :
#
#
# Convention : Reuss Voigt Hill
#
# Bulk Modulus (GPa) = 52.94365 59.06918 56.00641
# Shear Modulus (GPa) = 34.74954 78.35460 56.55207
#
# Velocity S-wave (km/s) = 4.11656 6.18147 5.25150
# Velocity P-wave (km/s) = 6.95797 8.93047 8.00520
#
# Compressibility (1/GPa) = 0.01888801
#
# Stress axis : x y z
#
# Youngs Moduli (GPa) = 65.82153 90.31026 91.30187
#
# Poissons Ratio (x) = 0.08681 0.33048
# Poissons Ratio (y) = 0.06327 0.41856
# Poissons Ratio (z) = 0.23825 0.41401
#
# Static dielectric constant tensor:
#      x y z
#    x 4.275550 0.000000 0.000000 
#    y 0.000000 3.996110 0.000000 
#    z 0.000000 0.000000 3.860550 
# 
# 
# High freq. dielectric constant tensor:
#      x y z
#    x 1.790360 0.000000 0.000000 
#    y 0.000000 1.798270 0.000000 
#    z 0.000000 0.000000 1.814920 
# 
# From -- ./inp_files/19491.got.cif
#   From: 2010.03.12/outbox.cif.g09.slc.cpg/sg57_10_cif.got.tgz:19491.got - 2010.04.16 15:48:40.
