data_PCOD8233851
_publ_section_title
;
Structure prediction by ZEFSAII (Michael W. Deem and Ramdas Pophale) SiO2 
 PCOD8233851
Probable space group: P B C M
;
_chemical_formula_sum "Si O2"
_cell_formula_units_Z 40
_cell_length_a 17.251953
_cell_length_b 5.105025
_cell_length_c 22.316742
_cell_angle_alpha 90.000000
_cell_angle_beta 90.000000
_cell_angle_gamma 90.000000
_cell_volume 1965.472321
_symmetry_space_group_name_H-M "P B C M"
_symmetry_group_IT_number 57
_symmetry_cell_setting 'orthorhombic'
loop_
_space_group_symop_operation_xyz
x,y,z
-x,-y,1/2+z
x,1/2-y,-z
-x,1/2+y,1/2-z
-x,-y,-z
x,y,1/2-z
-x,1/2+y,z
x,1/2-y,1/2+z
loop_
_atom_site_type_symbol
_atom_site_label
_atom_site_fract_x
_atom_site_fract_y
_atom_site_fract_z
Si Si1 0.286370 0.778547 0.871877
Si Si2 0.095228 0.271407 0.250000
Si Si3 0.216836 0.274828 0.929563
Si Si4 0.804270 0.270474 0.250000
Si Si5 0.954735 0.726597 0.379851
Si Si6 0.550149 0.270668 0.819005
O O1 0.250628 0.557865 0.914242
O O2 0.246387 0.781328 0.807884
O O3 0.377440 0.730225 0.862924
O O4 0.274205 0.057468 0.903209
O O5 0.124477 0.569807 0.250000
O O6 0.042305 0.221810 0.192210
O O7 0.167336 0.069910 0.250000
O O8 0.132421 0.236215 0.901420
O O9 0.210029 0.250000 0.000000
O O10 0.991896 0.460485 0.405052
O O11 0.577718 0.251602 0.750000
O O12 0.513391 0.551434 0.833085
#
# Coordination Sequence:
#
# PCOD8233851 Si02
#       6
#     8   4   8   4   8   8
#     4  12  22  43  68  94 131 163 211 262 313 373
#     4  12  22  39  60  95 134 152 206 252 332 401
#     4  12  27  45  66  89 121 174 227 262 302 365
#     4  12  20  37  66  97 120 166 198 264 320 377
#     4  12  24  40  62  91 124 165 204 264 326 376
#     4  10  21  36  62 102 137 163 193 245 321 387
#
# _framework density 20.351341999999999
#
# number of rings (size 3 to 8) (size 9 to 14) (size 15 to 20)
#    0.000    0.400    5.000    4.800    0.000    0.800 
#    0.000    0.000    0.000   12.000    0.000    0.000 
#    0.000    0.000    0.000    0.000    0.000    0.000 
#
# Total GULP energy -496291.772651 kJ/mol
# GULP energy per Si atom -12407.294316 kJ/mol
# Density = 2.030502 g / cm^3
# Si number density = 20.351342 Si / 1000 Ang^3
#
#
#
# Elastic Constant Matrix: (Units=GPa)
#
#
# Indices 1 2 3 4 5 6 
#
# 1 94.4368 17.8342 24.8077 0.0000 0.0000 0.0000
# 2 17.8342 98.2652 24.2822 0.0000 0.0000 0.0000
# 3 24.8077 24.2822 77.7089 0.0000 0.0000 0.0000
# 4 0.0000 0.0000 0.0000 254.4101 0.0000 0.0000
# 5 0.0000 0.0000 0.0000 0.0000 5.0124 0.0000
# 6 0.0000 0.0000 0.0000 0.0000 0.0000 28.4020
#
#
#
# Elastic Compliance Matrix: (Units=1/GPa)
#
#
# Indices 1 2 3 4 5 6 
#
# 1 0.011710 -0.001302 -0.003331 0.000000 0.000000 0.000000
# 2 -0.001302 0.011173 -0.003076 0.000000 0.000000 0.000000
# 3 -0.003331 -0.003076 0.014893 0.000000 0.000000 0.000000
# 4 0.000000 0.000000 0.000000 0.003931 0.000000 0.000000
# 5 0.000000 0.000000 0.000000 0.000000 0.199507 0.000000
# 6 0.000000 0.000000 0.000000 0.000000 0.000000 0.035209
#
#
# Mechanical properties :
#
#
# Convention : Reuss Voigt Hill
#
# Bulk Modulus (GPa) = 44.72692 44.91768 44.82230
# Shear Modulus (GPa) = 16.70603 71.13068 43.91836
#
# Velocity S-wave (km/s) = 2.86821 5.91838 4.65048
# Velocity P-wave (km/s) = 5.74403 8.29590 7.13498
#
# Compressibility (1/GPa) = 0.02235790
#
# Stress axis : x y z
#
# Youngs Moduli (GPa) = 85.39614 89.50260 67.14507
#
# Poissons Ratio (x) = 0.11654 0.22369
# Poissons Ratio (y) = 0.11119 0.20651
# Poissons Ratio (z) = 0.28449 0.27527
#
# Static dielectric constant tensor:
#      x y z
#    x 3.599170 0.000000 0.000000 
#    y 0.000000 3.998560 0.000000 
#    z 0.000000 0.000000 3.685350 
# 
# 
# High freq. dielectric constant tensor:
#      x y z
#    x 1.796810 0.000000 0.000000 
#    y 0.000000 1.817820 0.000000 
#    z 0.000000 0.000000 1.778290 
# 
# From -- ./inp_files/27355.got.cif
#   From: 2010.03.12/outbox.cif.g09.slc.cpg/sg57_14_cif.got.tgz:27355.got - 2010.04.16 15:48:40.
