data_PCOD8233909
_publ_section_title
;
Structure prediction by ZEFSAII (Michael W. Deem and Ramdas Pophale) SiO2 
 PCOD8233909
Probable space group: P B C M
;
_chemical_formula_sum "Si O2"
_cell_formula_units_Z 48
_cell_length_a 9.054941
_cell_length_b 10.060741
_cell_length_c 27.169668
_cell_angle_alpha 90.000000
_cell_angle_beta 90.000000
_cell_angle_gamma 90.000000
_cell_volume 2475.140892
_symmetry_space_group_name_H-M "P B C M"
_symmetry_group_IT_number 57
_symmetry_cell_setting 'orthorhombic'
loop_
_space_group_symop_operation_xyz
x,y,z
-x,-y,1/2+z
x,1/2-y,-z
-x,1/2+y,1/2-z
-x,-y,-z
x,y,1/2-z
-x,1/2+y,z
x,1/2-y,1/2+z
loop_
_atom_site_type_symbol
_atom_site_label
_atom_site_fract_x
_atom_site_fract_y
_atom_site_fract_z
Si Si1 0.815562 0.024589 0.619327
Si Si2 0.072460 0.066367 0.691942
Si Si3 0.218390 0.277914 0.107931
Si Si4 0.517651 0.155804 0.852196
Si Si5 0.997801 0.127375 0.966381
Si Si6 0.360760 0.580378 0.195248
O O1 0.650269 0.071903 0.626278
O O2 0.879602 0.118564 0.577173
O O3 0.911590 0.030990 0.669842
O O4 0.811453 0.876159 0.598923
O O5 0.057844 0.104915 0.750000
O O6 0.141602 0.187048 0.660376
O O7 0.185306 0.941526 0.685074
O O8 0.391259 0.314896 0.107629
O O9 0.155086 0.356153 0.060814
O O10 0.445559 0.060327 0.810901
O O11 0.575206 0.300049 0.836468
O O12 0.952490 0.250000 0.000000
O O13 0.000000 0.000000 0.000000
O O14 0.385921 0.629420 0.250000
#
# Coordination Sequence:
#
# PCOD8233909 Si02
#       6
#     8   8   8   8   8   8
#     4  11  23  40  65  93 124 167 209 261 320 371
#     4   9  22  38  59  91 127 168 217 262 303 367
#     4  10  22  42  63  91 129 164 207 263 316 373
#     4  11  22  40  61  87 127 169 209 258 320 374
#     4  11  23  43  72  96 123 158 205 260 318 380
#     4  10  21  37  57  87 126 172 219 260 304 365
#
# _framework density 19.392835999999999
#
# number of rings (size 3 to 8) (size 9 to 14) (size 15 to 20)
#    0.000    1.667    3.333    0.500    4.667    4.000 
#    0.000    1.667    0.000    0.000    0.000    0.000 
#    0.000    0.000    0.000    0.000    0.000    0.000 
#
# Total GULP energy -594958.851608 kJ/mol
# GULP energy per Si atom -12394.976075 kJ/mol
# Density = 1.934870 g / cm^3
# Si number density = 19.392836 Si / 1000 Ang^3
#
#
#
# Elastic Constant Matrix: (Units=GPa)
#
#
# Indices 1 2 3 4 5 6 
#
# 1 124.9474 32.7869 56.1657 0.0000 0.0000 0.0000
# 2 32.7869 110.4983 46.9297 0.0000 0.0000 0.0000
# 3 56.1657 46.9297 117.6107 0.0000 0.0000 0.0000
# 4 0.0000 0.0000 0.0000 31.3170 0.0000 0.0000
# 5 0.0000 0.0000 0.0000 0.0000 19.9758 0.0000
# 6 0.0000 0.0000 0.0000 0.0000 0.0000 29.1074
#
#
#
# Elastic Compliance Matrix: (Units=1/GPa)
#
#
# Indices 1 2 3 4 5 6 
#
# 1 0.010314 -0.001166 -0.004460 0.000000 0.000000 0.000000
# 2 -0.001166 0.011028 -0.003844 0.000000 0.000000 0.000000
# 3 -0.004460 -0.003844 0.012166 0.000000 0.000000 0.000000
# 4 0.000000 0.000000 0.000000 0.031932 0.000000 0.000000
# 5 0.000000 0.000000 0.000000 0.000000 0.050061 0.000000
# 6 0.000000 0.000000 0.000000 0.000000 0.000000 0.034356
#
#
# Mechanical properties :
#
#
# Convention : Reuss Voigt Hill
#
# Bulk Modulus (GPa) = 68.63991 69.42455 69.03223
# Shear Modulus (GPa) = 28.79296 30.55832 29.67564
#
# Velocity S-wave (km/s) = 3.85739 3.97388 3.91607
# Velocity P-wave (km/s) = 7.43711 7.54536 7.49143
#
# Compressibility (1/GPa) = 0.01456878
#
# Stress axis : x y z
#
# Youngs Moduli (GPa) = 96.95207 90.67518 82.19320
#
# Poissons Ratio (x) = 0.10574 0.36661
# Poissons Ratio (y) = 0.11305 0.31593
# Poissons Ratio (z) = 0.43244 0.34853
#
# Static dielectric constant tensor:
#      x y z
#    x 3.716070 0.000000 0.000000 
#    y 0.000000 3.565500 0.000000 
#    z 0.000000 0.000000 3.497430 
# 
# 
# High freq. dielectric constant tensor:
#      x y z
#    x 1.761420 0.000000 0.000000 
#    y 0.000000 1.763000 0.000000 
#    z 0.000000 0.000000 1.741830 
# 
# From -- ./inp_files/29482.got.cif
#   From: 2010.03.12/outbox.cif.g09.slc.cpg/sg57_15_cif.got.tgz:29482.got - 2010.04.16 15:48:40.
