data_PCOD8233703
_publ_section_title
;
Structure prediction by ZEFSAII (Michael W. Deem and Ramdas Pophale) SiO2 
 PCOD8233703
Probable space group: P B C M
;
_chemical_formula_sum "Si O2"
_cell_formula_units_Z 36
_cell_length_a 19.226065
_cell_length_b 8.980214
_cell_length_c 9.729369
_cell_angle_alpha 90.000000
_cell_angle_beta 90.000000
_cell_angle_gamma 90.000000
_cell_volume 1679.816208
_symmetry_space_group_name_H-M "P B C M"
_symmetry_group_IT_number 57
_symmetry_cell_setting 'orthorhombic'
loop_
_space_group_symop_operation_xyz
x,y,z
-x,-y,1/2+z
x,1/2-y,-z
-x,1/2+y,1/2-z
-x,-y,-z
x,y,1/2-z
-x,1/2+y,z
x,1/2-y,1/2+z
loop_
_atom_site_type_symbol
_atom_site_label
_atom_site_fract_x
_atom_site_fract_y
_atom_site_fract_z
Si Si1 0.095604 0.995418 0.399754
Si Si2 0.550726 0.642422 0.750000
Si Si3 0.657200 0.580862 0.976876
Si Si4 0.997704 0.750000 0.000000
Si Si5 0.410673 0.020471 0.250000
Si Si6 0.787868 0.395650 0.592212
O O1 0.132717 0.995420 0.250000
O O2 0.151250 0.993644 0.523306
O O3 0.046579 0.850359 0.403740
O O4 0.050136 0.144447 0.407381
O O5 0.588043 0.577392 0.884438
O O6 0.552791 0.819887 0.750000
O O7 0.469810 0.603921 0.750000
O O8 0.718098 0.491995 0.902760
O O9 0.682640 0.750000 0.000000
O O10 0.638917 0.499436 0.119042
O O11 0.776902 0.250000 0.500000
O O12 0.807823 0.354931 0.750000
#
# Coordination Sequence:
#
# PCOD8233703 Si02
#       6
#     8   4   8   4   4   8
#     4  11  24  44  71 101 135 176 225 274 334 396
#     4  10  20  42  62 100 130 173 214 273 323 395
#     4  10  23  43  65  94 135 176 220 273 325 392
#     4  10  24  44  70 102 138 172 218 278 334 394
#     4  10  22  36  70  96 132 167 220 265 333 387
#     4  12  27  45  66  97 135 177 225 278 335 398
#
# _framework density 21.430917000000001
#
# number of rings (size 3 to 8) (size 9 to 14) (size 15 to 20)
#    0.000    1.333    2.222    2.000    4.667    6.222 
#    0.000    0.000    0.000    0.000    0.000    0.000 
#    0.000    0.000    0.000    0.000    0.000    0.000 
#
# Total GULP energy -446511.653355 kJ/mol
# GULP energy per Si atom -12403.101482 kJ/mol
# Density = 2.138214 g / cm^3
# Si number density = 21.430917 Si / 1000 Ang^3
#
#
#
# Elastic Constant Matrix: (Units=GPa)
#
#
# Indices 1 2 3 4 5 6 
#
# 1 81.9381 28.5677 27.9799 0.0000 0.0000 0.0000
# 2 28.5677 72.4999 25.2680 0.0000 0.0000 0.0000
# 3 27.9799 25.2680 164.1763 0.0000 0.0000 0.0000
# 4 0.0000 0.0000 0.0000 19.2902 0.0000 0.0000
# 5 0.0000 0.0000 0.0000 0.0000 36.1915 0.0000
# 6 0.0000 0.0000 0.0000 0.0000 0.0000 4.1386
#
#
#
# Elastic Compliance Matrix: (Units=1/GPa)
#
#
# Indices 1 2 3 4 5 6 
#
# 1 0.014579 -0.005155 -0.001691 0.000000 0.000000 0.000000
# 2 -0.005155 0.016398 -0.001645 0.000000 0.000000 0.000000
# 3 -0.001691 -0.001645 0.006632 0.000000 0.000000 0.000000
# 4 0.000000 0.000000 0.000000 0.051840 0.000000 0.000000
# 5 0.000000 0.000000 0.000000 0.000000 0.027631 0.000000
# 6 0.000000 0.000000 0.000000 0.000000 0.000000 0.241627
#
#
# Mechanical properties :
#
#
# Convention : Reuss Voigt Hill
#
# Bulk Modulus (GPa) = 48.48216 53.58281 51.03249
# Shear Modulus (GPa) = 13.06965 27.71065 20.39015
#
# Velocity S-wave (km/s) = 2.47219 3.59976 3.08788
# Velocity P-wave (km/s) = 5.55163 6.50650 6.04794
#
# Compressibility (1/GPa) = 0.02062614
#
# Stress axis : x y z
#
# Youngs Moduli (GPa) = 68.59057 60.98342 150.77397
#
# Poissons Ratio (x) = 0.31439 0.25499
# Poissons Ratio (y) = 0.35361 0.24805
# Poissons Ratio (z) = 0.11600 0.10033
#
# Static dielectric constant tensor:
#      x y z
#    x 3.710540 0.000000 0.000000 
#    y 0.000000 3.894910 0.000000 
#    z 0.000000 0.000000 3.935410 
# 
# 
# High freq. dielectric constant tensor:
#      x y z
#    x 1.834820 0.000000 0.000000 
#    y 0.000000 1.839980 0.000000 
#    z 0.000000 0.000000 1.854330 
# 
# From -- ./inp_files/7662.got.cif
#   From: 2010.03.12/outbox.cif.g09.slc.cpg/sg57_4_cif.got.tgz:7662.got - 2010.04.16 15:48:40.
