data_PCOD8233258
_publ_section_title
;
Structure prediction by ZEFSAII (Michael W. Deem and Ramdas Pophale) SiO2 
 PCOD8233258
Probable space group: P B C M
;
_chemical_formula_sum "Si O2"
_cell_formula_units_Z 64
_cell_length_a 14.186421
_cell_length_b 25.553607
_cell_length_c 9.191149
_cell_angle_alpha 90.000000
_cell_angle_beta 90.000000
_cell_angle_gamma 90.000000
_cell_volume 3331.922275
_symmetry_space_group_name_H-M "P B C M"
_symmetry_group_IT_number 57
_symmetry_cell_setting 'orthorhombic'
loop_
_space_group_symop_operation_xyz
x,y,z
-x,-y,1/2+z
x,1/2-y,-z
-x,1/2+y,1/2-z
-x,-y,-z
x,y,1/2-z
-x,1/2+y,z
x,1/2-y,1/2+z
loop_
_atom_site_type_symbol
_atom_site_label
_atom_site_fract_x
_atom_site_fract_y
_atom_site_fract_z
Si Si1 0.206588 0.501346 0.581187
Si Si2 0.406287 0.141529 0.418751
Si Si3 0.096410 0.896501 0.420283
Si Si4 0.591321 0.199164 0.416165
Si Si5 0.412176 0.476393 0.582005
Si Si6 0.122618 0.096504 0.917826
Si Si7 0.757621 0.803268 0.422082
Si Si8 0.803316 0.303821 0.577741
O O1 0.185996 0.492728 0.750000
O O2 0.151264 0.552036 0.523821
O O3 0.318066 0.510190 0.552083
O O4 0.172591 0.449212 0.504377
O O5 0.378050 0.149630 0.250000
O O6 0.516854 0.153146 0.444951
O O7 0.390207 0.082379 0.471187
O O8 0.344132 0.179793 0.517241
O O9 0.115736 0.885726 0.250000
O O10 0.129655 0.848176 0.515664
O O11 0.987219 0.904318 0.454246
O O12 0.556405 0.250000 0.500000
O O13 0.594067 0.216346 0.250000
O O14 0.695696 0.180927 0.464202
O O15 0.500000 0.500000 0.500000
O O16 0.440253 0.475543 0.750000
O O17 0.142001 0.085241 0.750000
O O18 0.165578 0.152590 0.962387
O O19 0.790611 0.750000 0.500000
O O20 0.749975 0.793889 0.250000
O O21 0.831905 0.250000 0.500000
O O22 0.818557 0.298343 0.750000
#
# Coordination Sequence:
#
# PCOD8233258 Si02
#       8
#     8   8   8   8   8   8   8   8
#     4  10  21  39  62  87 117 153 193 239 291 344
#     4  10  20  37  58  81 115 151 190 237 282 340
#     4  10  22  39  60  87 117 149 192 242 289 348
#     4   9  19  34  53  78 107 142 181 225 273 328
#     4  10  22  37  56  85 119 155 190 232 286 341
#     4  10  22  40  60  85 116 150 192 243 294 344
#     4  11  23  38  58  85 115 152 194 239 293 351
#     4  10  21  38  59  84 115 151 190 234 288 342
#
# _framework density 19.208133
#
# number of rings (size 3 to 8) (size 9 to 14) (size 15 to 20)
#    0.000    2.000    1.250    1.500    1.750    5.000 
#    0.000    1.250    0.000    0.000    0.000    0.000 
#    0.000    0.000    0.000    0.000    0.000    0.000 
#
# Total GULP energy -793776.785829 kJ/mol
# GULP energy per Si atom -12402.762279 kJ/mol
# Density = 1.916441 g / cm^3
# Si number density = 19.208133 Si / 1000 Ang^3
#
#
#
# Elastic Constant Matrix: (Units=GPa)
#
#
# Indices 1 2 3 4 5 6 
#
# 1 98.0800 57.3417 43.5357 0.0000 0.0000 0.0000
# 2 57.3417 125.5974 56.3091 0.0000 0.0000 0.0000
# 3 43.5357 56.3091 69.5933 0.0000 0.0000 0.0000
# 4 0.0000 0.0000 0.0000 35.6408 0.0000 0.0000
# 5 0.0000 0.0000 0.0000 0.0000 23.7247 0.0000
# 6 0.0000 0.0000 0.0000 0.0000 0.0000 31.7487
#
#
#
# Elastic Compliance Matrix: (Units=1/GPa)
#
#
# Indices 1 2 3 4 5 6 
#
# 1 0.015448 -0.004269 -0.006210 0.000000 0.000000 0.000000
# 2 -0.004269 0.013674 -0.008393 0.000000 0.000000 0.000000
# 3 -0.006210 -0.008393 0.025045 0.000000 0.000000 0.000000
# 4 0.000000 0.000000 0.000000 0.028058 0.000000 0.000000
# 5 0.000000 0.000000 0.000000 0.000000 0.042150 0.000000
# 6 0.000000 0.000000 0.000000 0.000000 0.000000 0.031497
#
#
# Mechanical properties :
#
#
# Convention : Reuss Voigt Hill
#
# Bulk Modulus (GPa) = 60.89033 67.51594 64.20314
# Shear Modulus (GPa) = 25.11426 27.29513 26.20470
#
# Velocity S-wave (km/s) = 3.61983 3.77373 3.69758
# Velocity P-wave (km/s) = 7.01712 7.36302 7.19215
#
# Compressibility (1/GPa) = 0.01642297
#
# Stress axis : x y z
#
# Youngs Moduli (GPa) = 64.73395 73.13266 39.92796
#
# Poissons Ratio (x) = 0.31218 0.24795
# Poissons Ratio (y) = 0.27633 0.33513
# Poissons Ratio (z) = 0.40199 0.61383
#
# Static dielectric constant tensor:
#      x y z
#    x 3.626950 0.000000 0.000000 
#    y 0.000000 3.572540 0.000000 
#    z 0.000000 0.000000 3.475980 
# 
# 
# High freq. dielectric constant tensor:
#      x y z
#    x 1.755560 0.000000 0.000000 
#    y 0.000000 1.749760 0.000000 
#    z 0.000000 0.000000 1.744020 
# 
# From -- ./inp_files/5649.got.cif
#   From: 2010.03.12/outbox.cif.g09.slc.cpg/sg57_3_cif.got.tgz:5649.got - 2010.04.16 15:48:40.
