data_PCOD8233713
_publ_section_title
;
Structure prediction by ZEFSAII (Michael W. Deem and Ramdas Pophale) SiO2 
 PCOD8233713
Probable space group: P B C M
;
_chemical_formula_sum "Si O2"
_cell_formula_units_Z 56
_cell_length_a 14.596934
_cell_length_b 8.950843
_cell_length_c 19.999972
_cell_angle_alpha 90.000000
_cell_angle_beta 90.000000
_cell_angle_gamma 90.000000
_cell_volume 2613.093632
_symmetry_space_group_name_H-M "P B C M"
_symmetry_group_IT_number 57
_symmetry_cell_setting 'orthorhombic'
loop_
_space_group_symop_operation_xyz
x,y,z
-x,-y,1/2+z
x,1/2-y,-z
-x,1/2+y,1/2-z
-x,-y,-z
x,y,1/2-z
-x,1/2+y,z
x,1/2-y,1/2+z
loop_
_atom_site_type_symbol
_atom_site_label
_atom_site_fract_x
_atom_site_fract_y
_atom_site_fract_z
Si Si1 0.615075 0.979619 0.536267
Si Si2 0.874146 0.954945 0.750000
Si Si3 0.825484 0.581669 0.873911
Si Si4 0.625307 0.970107 0.381769
Si Si5 0.902837 0.423923 0.501582
Si Si6 0.794672 0.584948 0.390534
Si Si7 0.477820 0.742165 0.406675
Si Si8 0.944355 0.624724 0.750000
O O1 0.592459 0.149528 0.555573
O O2 0.650784 0.969884 0.460862
O O3 0.688251 0.915101 0.589025
O O4 0.525138 0.873562 0.540453
O O5 0.807298 0.964826 0.686260
O O6 0.932408 0.802542 0.750000
O O7 0.947590 0.089205 0.750000
O O8 0.722021 0.557053 0.845016
O O9 0.835062 0.749729 0.902033
O O10 0.897115 0.552250 0.814862
O O11 0.846727 0.466185 0.932440
O O12 0.553039 0.837003 0.364931
O O13 0.581787 0.130112 0.359397
O O14 0.919067 0.250000 0.500000
O O15 0.847476 0.467652 0.435924
O O16 0.000000 0.500000 0.500000
#
# Coordination Sequence:
#
# PCOD8233713 Si02
#       8
#     8   4   8   8   8   8   8   4
#     4  11  19  33  56  89 129 164 210 251 318 359
#     4  10  24  46  68  91 119 168 216 257 315 390
#     4  11  23  40  66  93 130 165 211 263 314 376
#     4  11  19  33  56  89 129 164 210 251 318 359
#     4  12  26  42  64  95 128 159 201 263 330 381
#     4  11  23  40  66  93 130 165 211 263 314 376
#     4  10  21  32  54  89 128 171 204 257 302 381
#     4  10  24  46  68  91 119 168 216 257 315 390
#
# _framework density 21.430536
#
# number of rings (size 3 to 8) (size 9 to 14) (size 15 to 20)
#    0.000    1.143    2.857    5.571    2.000    3.429 
#    0.000    0.000    0.000    5.143    0.000    0.000 
#    0.000    0.000    0.000    0.000    0.000    0.000 
#
# Total GULP energy -694523.272794 kJ/mol
# GULP energy per Si atom -12402.201300 kJ/mol
# Density = 2.138176 g / cm^3
# Si number density = 21.430536 Si / 1000 Ang^3
#
#
#
# Elastic Constant Matrix: (Units=GPa)
#
#
# Indices 1 2 3 4 5 6 
#
# 1 81.7399 18.7232 23.6303 0.0000 0.0000 0.0000
# 2 18.7232 130.3483 24.6235 0.0000 0.0000 0.0000
# 3 23.6303 24.6235 84.7668 0.0000 0.0000 0.0000
# 4 0.0000 0.0000 0.0000 10.3858 0.0000 0.0000
# 5 0.0000 0.0000 0.0000 0.0000 27.1838 0.0000
# 6 0.0000 0.0000 0.0000 0.0000 0.0000 38.1916
#
#
#
# Elastic Compliance Matrix: (Units=1/GPa)
#
#
# Indices 1 2 3 4 5 6 
#
# 1 0.013512 -0.001301 -0.003389 0.000000 0.000000 0.000000
# 2 -0.001301 0.008242 -0.002032 0.000000 0.000000 0.000000
# 3 -0.003389 -0.002032 0.013332 0.000000 0.000000 0.000000
# 4 0.000000 0.000000 0.000000 0.096285 0.000000 0.000000
# 5 0.000000 0.000000 0.000000 0.000000 0.036787 0.000000
# 6 0.000000 0.000000 0.000000 0.000000 0.000000 0.026184
#
#
# Mechanical properties :
#
#
# Convention : Reuss Voigt Hill
#
# Bulk Modulus (GPa) = 46.20303 47.86766 47.03534
# Shear Modulus (GPa) = 23.25600 30.47744 26.86672
#
# Velocity S-wave (km/s) = 3.29778 3.77523 3.54456
# Velocity P-wave (km/s) = 6.00889 6.43334 6.22473
#
# Compressibility (1/GPa) = 0.02164360
#
# Stress axis : x y z
#
# Youngs Moduli (GPa) = 74.01093 121.32422 75.00791
#
# Poissons Ratio (x) = 0.15780 0.25418
# Poissons Ratio (y) = 0.09626 0.15239
# Poissons Ratio (z) = 0.25081 0.24650
#
# Static dielectric constant tensor:
#      x y z
#    x 3.885830 0.000000 0.000000 
#    y 0.000000 4.033690 0.000000 
#    z 0.000000 0.000000 3.478260 
# 
# 
# High freq. dielectric constant tensor:
#      x y z
#    x 1.853460 0.000000 0.000000 
#    y 0.000000 1.854700 0.000000 
#    z 0.000000 0.000000 1.795930 
# 
# From -- ./inp_files/25433.got.cif
#   From: 2010.03.12/outbox.cif.g09.slc.cpg/sg57_13_cif.got.tgz:25433.got - 2010.04.16 15:48:40.
