data_PCOD8233796
_publ_section_title
;
Structure prediction by ZEFSAII (Michael W. Deem and Ramdas Pophale) SiO2 
 PCOD8233796
Probable space group: P B C M
;
_chemical_formula_sum "Si O2"
_cell_formula_units_Z 56
_cell_length_a 32.495533
_cell_length_b 5.070102
_cell_length_c 16.977403
_cell_angle_alpha 90.000000
_cell_angle_beta 90.000000
_cell_angle_gamma 90.000000
_cell_volume 2797.123353
_symmetry_space_group_name_H-M "P B C M"
_symmetry_group_IT_number 57
_symmetry_cell_setting 'orthorhombic'
loop_
_space_group_symop_operation_xyz
x,y,z
-x,-y,1/2+z
x,1/2-y,-z
-x,1/2+y,1/2-z
-x,-y,-z
x,y,1/2-z
-x,1/2+y,z
x,1/2-y,1/2+z
loop_
_atom_site_type_symbol
_atom_site_label
_atom_site_fract_x
_atom_site_fract_y
_atom_site_fract_z
Si Si1 0.025004 0.038972 0.656954
Si Si2 0.101222 0.992474 0.947761
Si Si3 0.806289 0.005939 0.052747
Si Si4 0.396140 0.994714 0.447692
Si Si5 0.733250 0.859452 0.341709
Si Si6 0.306613 0.843941 0.088136
Si Si7 0.526048 0.936592 0.842542
O O1 0.028497 0.033279 0.750000
O O2 0.996933 0.801193 0.625458
O O3 0.071367 0.022107 0.626178
O O4 0.147469 0.939533 0.915833
O O5 0.099759 0.250000 0.000000
O O6 0.085750 0.750000 0.000000
O O7 0.777121 0.966928 0.127961
O O8 0.805354 0.750000 0.000000
O O9 0.790434 0.250000 0.000000
O O10 0.411690 0.750000 0.500000
O O11 0.354318 0.919008 0.403007
O O12 0.387164 0.250000 0.500000
O O13 0.429918 0.060816 0.383001
O O14 0.736337 0.788458 0.250000
O O15 0.720757 0.596790 0.389270
O O16 0.700654 0.095727 0.354265
O O17 0.295475 0.750000 0.000000
O O18 0.534271 0.942037 0.750000
O O19 0.501970 0.678249 0.870103
#
# Coordination Sequence:
#
# PCOD8233796 Si02
#       7
#     8   8   8   8   8   8   8
#     4  10  21  36  54  78 110 147 182 223 282 339
#     4  10  21  36  56  83 109 142 189 233 275 329
#     4  10  21  38  59  81 112 152 188 228 286 345
#     4  11  23  39  61  88 113 147 196 240 280 334
#     4  12  24  38  61  92 118 149 197 243 286 341
#     4  11  23  42  62  85 120 159 193 234 294 352
#     4  10  22  39  58  83 117 154 187 227 287 345
#
# _framework density 20.020569999999999
#
# number of rings (size 3 to 8) (size 9 to 14) (size 15 to 20)
#    0.000    1.429    0.000    6.429    0.000    5.143 
#    0.000    1.429    0.000    8.571    0.000    0.000 
#    0.000    0.000    0.000    0.000    0.000    0.000 
#
# Total GULP energy -694630.049083 kJ/mol
# GULP energy per Si atom -12404.108019 kJ/mol
# Density = 1.997500 g / cm^3
# Si number density = 20.020570 Si / 1000 Ang^3
#
#
#
# Elastic Constant Matrix: (Units=GPa)
#
#
# Indices 1 2 3 4 5 6 
#
# 1 136.8581 38.7123 61.4493 0.0000 0.0000 0.0000
# 2 38.7123 142.8880 34.4165 0.0000 0.0000 0.0000
# 3 61.4493 34.4165 73.4772 0.0000 0.0000 0.0000
# 4 0.0000 0.0000 0.0000 -54.3609 0.0000 0.0000
# 5 0.0000 0.0000 0.0000 0.0000 -3.7479 0.0000
# 6 0.0000 0.0000 0.0000 0.0000 0.0000 27.8787
#
#
#
# Elastic Compliance Matrix: (Units=1/GPa)
#
#
# Indices 1 2 3 4 5 6 
#
# 1 0.011808 -0.000925 -0.009442 0.000000 0.000000 0.000000
# 2 -0.000925 0.007961 -0.002955 0.000000 0.000000 0.000000
# 3 -0.009442 -0.002955 0.022890 0.000000 0.000000 0.000000
# 4 0.000000 0.000000 0.000000 -0.018396 0.000000 0.000000
# 5 0.000000 0.000000 0.000000 0.000000 -0.266815 0.000000
# 6 0.000000 0.000000 0.000000 0.000000 0.000000 0.035870
#
#
# Mechanical properties :
#
#
# Convention : Reuss Voigt Hill
#
# Bulk Modulus (GPa) = 62.44199 69.15327 65.79763
# Shear Modulus (GPa) = -28.62044 8.53032 -10.04506
#
# Velocity S-wave (km/s) = -3.78504 2.06641 -2.24238
# Velocity P-wave (km/s) = 3.48634 6.34897 5.12172
#
# Compressibility (1/GPa) = 0.01601486
#
# Stress axis : x y z
#
# Youngs Moduli (GPa) = 84.69003 125.61380 43.68712
#
# Poissons Ratio (x) = 0.11618 0.41248
# Poissons Ratio (y) = 0.07833 0.12911
# Poissons Ratio (z) = 0.79961 0.37124
#
# Static dielectric constant tensor:
#      x y z
#    x 3.803880 0.000000 0.000000 
#    y 0.000000 3.970240 0.000000 
#    z 0.000000 0.000000 3.287500 
# 
# 
# High freq. dielectric constant tensor:
#      x y z
#    x 1.793180 0.000000 0.000000 
#    y 0.000000 1.807610 0.000000 
#    z 0.000000 0.000000 1.759650 
# 
# From -- ./inp_files/19629.got.cif
#   From: 2010.03.12/outbox.cif.g09.slc.cpg/sg57_10_cif.got.tgz:19629.got - 2010.04.16 15:48:40.
