data_PCOD8233103
_publ_section_title
;
Structure prediction by ZEFSAII (Michael W. Deem and Ramdas Pophale) SiO2 
 PCOD8233103
Probable space group: P B C M
;
_chemical_formula_sum "Si O2"
_cell_formula_units_Z 40
_cell_length_a 25.603276
_cell_length_b 9.174207
_cell_length_c 8.748286
_cell_angle_alpha 90.000000
_cell_angle_beta 90.000000
_cell_angle_gamma 90.000000
_cell_volume 2054.882746
_symmetry_space_group_name_H-M "P B C M"
_symmetry_group_IT_number 57
_symmetry_cell_setting 'orthorhombic'
loop_
_space_group_symop_operation_xyz
x,y,z
-x,-y,1/2+z
x,1/2-y,-z
-x,1/2+y,1/2-z
-x,-y,-z
x,y,1/2-z
-x,1/2+y,z
x,1/2-y,1/2+z
loop_
_atom_site_type_symbol
_atom_site_label
_atom_site_fract_x
_atom_site_fract_y
_atom_site_fract_z
Si Si1 0.353918 0.095614 0.929498
Si Si2 0.952773 0.590121 0.068740
Si Si3 0.546120 0.092155 0.428931
Si Si4 0.245291 0.093127 0.068505
Si Si5 0.147471 0.592463 0.570398
O O1 0.345225 0.116064 0.750000
O O2 0.398722 0.980917 0.968298
O O3 0.370512 0.250000 0.000000
O O4 0.300666 0.036707 0.004959
O O5 0.958681 0.599292 0.250000
O O6 0.899469 0.511666 0.017926
O O7 0.952830 0.750000 0.000000
O O8 0.000000 0.500000 0.000000
O O9 0.546019 0.250000 0.500000
O O10 0.536428 0.103572 0.250000
O O11 0.500000 0.000000 0.500000
O O12 0.247675 0.106753 0.250000
O O13 0.201609 0.978815 0.013885
O O14 0.231212 0.250000 0.000000
O O15 0.139757 0.750000 0.500000
O O16 0.147493 0.611676 0.750000
#
# Coordination Sequence:
#
# PCOD8233103 Si02
#       5
#     8   8   8   8   8
#     4  10  21  37  58  85 114 148 187 231 281 335
#     4  11  23  40  61  87 117 151 191 236 286 341
#     4  11  24  40  60  85 115 150 190 234 284 338
#     4  10  20  36  58  84 112 147 188 231 279 334
#     4  10  23  39  57  83 115 150 190 234 282 334
#
# _framework density 19.465831999999999
#
# number of rings (size 3 to 8) (size 9 to 14) (size 15 to 20)
#    0.000    1.600    0.000    5.400    0.000   10.400 
#    0.000    4.000    0.000    0.000    0.000    0.000 
#    0.000    0.000    0.000    0.000    0.000    0.000 
#
# Total GULP energy -496169.005119 kJ/mol
# GULP energy per Si atom -12404.225128 kJ/mol
# Density = 1.942153 g / cm^3
# Si number density = 19.465832 Si / 1000 Ang^3
#
#
#
# Elastic Constant Matrix: (Units=GPa)
#
#
# Indices 1 2 3 4 5 6 
#
# 1 166.0298 112.0914 80.5739 0.0000 0.0000 0.0000
# 2 112.0914 179.3218 68.8224 0.0000 0.0000 0.0000
# 3 80.5739 68.8224 94.4561 0.0000 0.0000 0.0000
# 4 0.0000 0.0000 0.0000 38.8501 0.0000 0.0000
# 5 0.0000 0.0000 0.0000 0.0000 32.6863 0.0000
# 6 0.0000 0.0000 0.0000 0.0000 0.0000 28.0171
#
#
#
# Elastic Compliance Matrix: (Units=1/GPa)
#
#
# Indices 1 2 3 4 5 6 
#
# 1 0.013291 -0.005493 -0.007336 0.000000 0.000000 0.000000
# 2 -0.005493 0.010011 -0.002609 0.000000 0.000000 0.000000
# 3 -0.007336 -0.002609 0.018745 0.000000 0.000000 0.000000
# 4 0.000000 0.000000 0.000000 0.025740 0.000000 0.000000
# 5 0.000000 0.000000 0.000000 0.000000 0.030594 0.000000
# 6 0.000000 0.000000 0.000000 0.000000 0.000000 0.035692
#
#
# Mechanical properties :
#
#
# Convention : Reuss Voigt Hill
#
# Bulk Modulus (GPa) = 89.50007 106.97591 98.23799
# Shear Modulus (GPa) = 29.64299 31.79871 30.72085
#
# Velocity S-wave (km/s) = 3.90657 4.04612 3.97696
# Velocity P-wave (km/s) = 8.15023 8.76945 8.46550
#
# Compressibility (1/GPa) = 0.01117318
#
# Stress axis : x y z
#
# Youngs Moduli (GPa) = 75.23635 99.88683 53.34630
#
# Poissons Ratio (x) = 0.54866 0.39134
# Poissons Ratio (y) = 0.41326 0.13917
# Poissons Ratio (z) = 0.55192 0.26059
#
# Static dielectric constant tensor:
#      x y z
#    x 4.034680 0.000000 0.000000 
#    y 0.000000 3.511720 0.000000 
#    z 0.000000 0.000000 3.648790 
# 
# 
# High freq. dielectric constant tensor:
#      x y z
#    x 1.777730 0.000000 0.000000 
#    y 0.000000 1.764100 0.000000 
#    z 0.000000 0.000000 1.770360 
# 
# From -- ./inp_files/8894.got.cif
#   From: 2010.03.12/outbox.cif.g09.slc.cpg/sg57_5_cif.got.tgz:8894.got - 2010.04.16 15:48:40.
