data_PCOD8233884
_publ_section_title
;
Structure prediction by ZEFSAII (Michael W. Deem and Ramdas Pophale) SiO2 
 PCOD8233884
Probable space group: P B C M
;
_chemical_formula_sum "Si O2"
_cell_formula_units_Z 40
_cell_length_a 24.847313
_cell_length_b 9.638802
_cell_length_c 8.752284
_cell_angle_alpha 90.000000
_cell_angle_beta 90.000000
_cell_angle_gamma 90.000000
_cell_volume 2096.157404
_symmetry_space_group_name_H-M "P B C M"
_symmetry_group_IT_number 57
_symmetry_cell_setting 'orthorhombic'
loop_
_space_group_symop_operation_xyz
x,y,z
-x,-y,1/2+z
x,1/2-y,-z
-x,1/2+y,1/2-z
-x,-y,-z
x,y,1/2-z
-x,1/2+y,z
x,1/2-y,1/2+z
loop_
_atom_site_type_symbol
_atom_site_label
_atom_site_fract_x
_atom_site_fract_y
_atom_site_fract_z
Si Si1 0.631572 0.602763 0.569818
Si Si2 0.756164 0.607747 0.572740
Si Si3 0.453064 0.904742 0.067023
Si Si4 0.042383 0.898866 0.426403
Si Si5 0.162841 0.601490 0.926518
O O1 0.612239 0.750000 0.500000
O O2 0.618581 0.602697 0.750000
O O3 0.694089 0.578024 0.534453
O O4 0.602449 0.475351 0.486015
O O5 0.775887 0.750000 0.500000
O O6 0.766350 0.619401 0.750000
O O7 0.792340 0.488074 0.506807
O O8 0.456628 0.898143 0.250000
O O9 0.457246 0.750000 0.000000
O O10 0.500000 0.000000 0.000000
O O11 0.035957 0.750000 0.500000
O O12 0.028785 0.883013 0.250000
O O13 0.102682 0.958958 0.451737
O O14 0.000000 0.000000 0.500000
O O15 0.177325 0.612718 0.750000
O O16 0.166325 0.750000 0.000000
#
# Coordination Sequence:
#
# PCOD8233884 Si02
#       5
#     8   8   8   8   8
#     4  10  21  39  61  87 117 151 190 233 281 333
#     4  10  21  37  59  85 115 150 189 232 279 331
#     4  12  25  42  63  88 118 153 192 235 282 334
#     4  10  21  37  57  81 109 144 184 230 280 334
#     4  10  21  37  57  81 111 146 186 230 280 334
#
# _framework density 19.082536000000001
#
# number of rings (size 3 to 8) (size 9 to 14) (size 15 to 20)
#    0.000    1.600    0.000    4.800    0.000    6.400 
#    0.000    0.000    0.000    0.000    0.000    0.000 
#    0.000    0.000    0.000    0.000    0.000    0.000 
#
# Total GULP energy -496083.152191 kJ/mol
# GULP energy per Si atom -12402.078805 kJ/mol
# Density = 1.903910 g / cm^3
# Si number density = 19.082536 Si / 1000 Ang^3
#
#
#
# Elastic Constant Matrix: (Units=GPa)
#
#
# Indices 1 2 3 4 5 6 
#
# 1 94.4238 60.5301 65.0941 0.0000 0.0000 0.0000
# 2 60.5301 106.0094 60.3544 0.0000 0.0000 0.0000
# 3 65.0941 60.3544 130.4556 0.0000 0.0000 0.0000
# 4 0.0000 0.0000 0.0000 43.1038 0.0000 0.0000
# 5 0.0000 0.0000 0.0000 0.0000 39.8048 0.0000
# 6 0.0000 0.0000 0.0000 0.0000 0.0000 43.5100
#
#
#
# Elastic Compliance Matrix: (Units=1/GPa)
#
#
# Indices 1 2 3 4 5 6 
#
# 1 0.019961 -0.007775 -0.006363 0.000000 0.000000 0.000000
# 2 -0.007775 0.015835 -0.003446 0.000000 0.000000 0.000000
# 3 -0.006363 -0.003446 0.012435 0.000000 0.000000 0.000000
# 4 0.000000 0.000000 0.000000 0.023200 0.000000 0.000000
# 5 0.000000 0.000000 0.000000 0.000000 0.025123 0.000000
# 6 0.000000 0.000000 0.000000 0.000000 0.000000 0.022983
#
#
# Mechanical properties :
#
#
# Convention : Reuss Voigt Hill
#
# Bulk Modulus (GPa) = 76.55764 78.09400 77.32582
# Shear Modulus (GPa) = 31.43484 34.94440 33.18962
#
# Velocity S-wave (km/s) = 4.06311 4.28392 4.17498
# Velocity P-wave (km/s) = 7.88785 8.09213 7.99064
#
# Compressibility (1/GPa) = 0.01306205
#
# Stress axis : x y z
#
# Youngs Moduli (GPa) = 50.09694 63.15294 80.41879
#
# Poissons Ratio (x) = 0.49101 0.51172
# Poissons Ratio (y) = 0.38950 0.27715
# Poissons Ratio (z) = 0.31878 0.21764
#
# Static dielectric constant tensor:
#      x y z
#    x 3.726190 0.000000 0.000000 
#    y 0.000000 3.586630 0.000000 
#    z 0.000000 0.000000 3.763010 
# 
# 
# High freq. dielectric constant tensor:
#      x y z
#    x 1.752510 0.000000 0.000000 
#    y 0.000000 1.743920 0.000000 
#    z 0.000000 0.000000 1.765320 
# 
# From -- ./inp_files/8854.got.cif
#   From: 2010.03.12/outbox.cif.g09.slc.cpg/sg57_5_cif.got.tgz:8854.got - 2010.04.16 15:48:40.
