data_PCOD8233419
_publ_section_title
;
Structure prediction by ZEFSAII (Michael W. Deem and Ramdas Pophale) SiO2 
 PCOD8233419
Probable space group: P B C M
;
_chemical_formula_sum "Si O2"
_cell_formula_units_Z 48
_cell_length_a 18.605533
_cell_length_b 14.842754
_cell_length_c 8.774094
_cell_angle_alpha 90.000000
_cell_angle_beta 90.000000
_cell_angle_gamma 90.000000
_cell_volume 2423.030542
_symmetry_space_group_name_H-M "P B C M"
_symmetry_group_IT_number 57
_symmetry_cell_setting 'orthorhombic'
loop_
_space_group_symop_operation_xyz
x,y,z
-x,-y,1/2+z
x,1/2-y,-z
-x,1/2+y,1/2-z
-x,-y,-z
x,y,1/2-z
-x,1/2+y,z
x,1/2-y,1/2+z
loop_
_atom_site_type_symbol
_atom_site_label
_atom_site_fract_x
_atom_site_fract_y
_atom_site_fract_z
Si Si1 0.511603 0.350358 0.929796
Si Si2 0.766602 0.500759 0.427004
Si Si3 0.154469 0.659975 0.071186
Si Si4 0.853154 0.658169 0.925488
Si Si5 0.011284 0.595343 0.924278
Si Si6 0.601814 0.500831 0.427178
O O1 0.515960 0.337682 0.750000
O O2 0.442267 0.410168 0.979711
O O3 0.508805 0.250000 0.000000
O O4 0.579971 0.408951 0.985329
O O5 0.778437 0.478517 0.250000
O O6 0.790252 0.417270 0.528276
O O7 0.816719 0.582484 0.473522
O O8 0.684196 0.523146 0.463784
O O9 0.148679 0.668509 0.250000
O O10 0.187524 0.750000 0.000000
O O11 0.074408 0.647017 0.008698
O O12 0.828075 0.650868 0.750000
O O13 0.938969 0.652886 0.938027
O O14 0.826200 0.750000 0.000000
O O15 0.033897 0.580437 0.750000
O O16 0.000000 0.500000 0.000000
O O17 0.588069 0.481975 0.250000
#
# Coordination Sequence:
#
# PCOD8233419 Si02
#       6
#     8   8   8   8   8   8
#     4  10  20  37  63  92 122 156 194 238 286 343
#     4  11  23  41  63  87 121 158 197 247 299 356
#     4  12  25  41  61  87 118 156 204 252 303 361
#     4  11  24  40  60  87 118 156 201 247 299 357
#     4  11  22  38  62  88 117 154 199 252 304 357
#     4   9  21  40  61  89 121 156 197 240 290 346
#
# _framework density 19.809904
#
# number of rings (size 3 to 8) (size 9 to 14) (size 15 to 20)
#    0.000    1.333    1.667    4.000    0.000    6.667 
#    0.000    1.667    0.000    0.000    0.000    0.000 
#    0.000    0.000    0.000    0.000    0.000    0.000 
#
# Total GULP energy -595324.898563 kJ/mol
# GULP energy per Si atom -12402.602053 kJ/mol
# Density = 1.976482 g / cm^3
# Si number density = 19.809904 Si / 1000 Ang^3
#
#
#
# Elastic Constant Matrix: (Units=GPa)
#
#
# Indices 1 2 3 4 5 6 
#
# 1 65.4825 4.5893 32.5133 0.0000 0.0000 0.0000
# 2 4.5893 125.6688 43.1301 0.0000 0.0000 0.0000
# 3 32.5133 43.1301 125.0262 0.0000 0.0000 0.0000
# 4 0.0000 0.0000 0.0000 36.4047 0.0000 0.0000
# 5 0.0000 0.0000 0.0000 0.0000 32.5720 0.0000
# 6 0.0000 0.0000 0.0000 0.0000 0.0000 18.1402
#
#
#
# Elastic Compliance Matrix: (Units=1/GPa)
#
#
# Indices 1 2 3 4 5 6 
#
# 1 0.017658 0.001056 -0.004956 0.000000 0.000000 0.000000
# 2 0.001056 0.009089 -0.003410 0.000000 0.000000 0.000000
# 3 -0.004956 -0.003410 0.010464 0.000000 0.000000 0.000000
# 4 0.000000 0.000000 0.000000 0.027469 0.000000 0.000000
# 5 0.000000 0.000000 0.000000 0.000000 0.030701 0.000000
# 6 0.000000 0.000000 0.000000 0.000000 0.000000 0.055126
#
#
# Mechanical properties :
#
#
# Convention : Reuss Voigt Hill
#
# Bulk Modulus (GPa) = 44.26674 52.96032 48.61353
# Shear Modulus (GPa) = 28.95892 33.15303 31.05598
#
# Velocity S-wave (km/s) = 3.82755 4.09535 3.96371
# Velocity P-wave (km/s) = 6.47517 7.01105 6.74843
#
# Compressibility (1/GPa) = 0.02259032
#
# Stress axis : x y z
#
# Youngs Moduli (GPa) = 56.63101 110.02020 95.56895
#
# Poissons Ratio (x) = -0.11620 0.47368
# Poissons Ratio (y) = -0.05981 0.32591
# Poissons Ratio (z) = 0.28069 0.37519
#
# Static dielectric constant tensor:
#      x y z
#    x 3.695890 0.000000 0.000000 
#    y 0.000000 3.634230 0.000000 
#    z 0.000000 0.000000 3.739090 
# 
# 
# High freq. dielectric constant tensor:
#      x y z
#    x 1.767040 0.000000 0.000000 
#    y 0.000000 1.782890 0.000000 
#    z 0.000000 0.000000 1.786690 
# 
# From -- ./inp_files/6478.got.cif
#   From: 2010.03.12/outbox.cif.g09.slc.cpg/sg57_4_cif.got.tgz:6478.got - 2010.04.16 15:48:40.
