data_PCOD8233270
_publ_section_title
;
Structure prediction by ZEFSAII (Michael W. Deem and Ramdas Pophale) SiO2 
 PCOD8233270
Probable space group: P B C M
;
_chemical_formula_sum "Si O2"
_cell_formula_units_Z 48
_cell_length_a 15.347450
_cell_length_b 17.752802
_cell_length_c 8.728623
_cell_angle_alpha 90.000000
_cell_angle_beta 90.000000
_cell_angle_gamma 90.000000
_cell_volume 2378.202727
_symmetry_space_group_name_H-M "P B C M"
_symmetry_group_IT_number 57
_symmetry_cell_setting 'orthorhombic'
loop_
_space_group_symop_operation_xyz
x,y,z
-x,-y,1/2+z
x,1/2-y,-z
-x,1/2+y,1/2-z
-x,-y,-z
x,y,1/2-z
-x,1/2+y,z
x,1/2-y,1/2+z
loop_
_atom_site_type_symbol
_atom_site_label
_atom_site_fract_x
_atom_site_fract_y
_atom_site_fract_z
Si Si1 0.149396 0.922734 0.068666
Si Si2 0.015322 0.170649 0.568248
Si Si3 0.513689 0.081257 0.929562
Si Si4 0.340950 0.332012 0.430806
Si Si5 0.822250 0.591019 0.067818
Si Si6 0.684095 0.167519 0.567810
O O1 0.155866 0.923223 0.250000
O O2 0.228602 0.872329 0.004134
O O3 0.057363 0.889131 0.013845
O O4 0.156094 0.007536 0.005976
O O5 0.985889 0.250000 0.500000
O O6 0.021933 0.175974 0.750000
O O7 0.108176 0.148817 0.499841
O O8 0.518604 0.069649 0.750000
O O9 0.435730 0.137131 0.975398
O O10 0.602598 0.118264 0.991594
O O11 0.500000 0.000000 0.000000
O O12 0.328338 0.250000 0.500000
O O13 0.325702 0.328687 0.250000
O O14 0.272463 0.388424 0.506599
O O15 0.823827 0.595805 0.250000
O O16 0.677134 0.250000 0.500000
O O17 0.683888 0.173591 0.750000
#
# Coordination Sequence:
#
# PCOD8233270 Si02
#       6
#     8   8   8   8   8   8
#     4   9  20  37  59  84 113 147 186 229 279 333
#     4  11  22  38  58  84 115 148 186 231 278 335
#     4  10  22  38  59  85 116 150 189 232 279 332
#     4  11  23  39  58  85 116 151 192 236 282 335
#     4  11  22  39  61  84 111 149 189 234 287 336
#     4  10  20  37  58  84 114 147 185 228 275 331
#
# _framework density 20.183309000000001
#
# number of rings (size 3 to 8) (size 9 to 14) (size 15 to 20)
#    0.000    1.667    0.000    4.500    0.000    3.333 
#    0.000    5.000    0.000    0.000    0.000    0.000 
#    0.000    0.000    0.000    0.000    0.000    0.000 
#
# Total GULP energy -595438.252347 kJ/mol
# GULP energy per Si atom -12404.963591 kJ/mol
# Density = 2.013737 g / cm^3
# Si number density = 20.183309 Si / 1000 Ang^3
#
#
#
# Elastic Constant Matrix: (Units=GPa)
#
#
# Indices 1 2 3 4 5 6 
#
# 1 100.8705 14.8141 29.8717 0.0000 0.0000 0.0000
# 2 14.8141 110.3993 28.2224 0.0000 0.0000 0.0000
# 3 29.8717 28.2224 59.4666 0.0000 0.0000 0.0000
# 4 0.0000 0.0000 0.0000 33.6023 0.0000 0.0000
# 5 0.0000 0.0000 0.0000 0.0000 20.8605 0.0000
# 6 0.0000 0.0000 0.0000 0.0000 0.0000 43.8518
#
#
#
# Elastic Compliance Matrix: (Units=1/GPa)
#
#
# Indices 1 2 3 4 5 6 
#
# 1 0.011647 -0.000077 -0.005814 0.000000 0.000000 0.000000
# 2 -0.000077 0.010309 -0.004854 0.000000 0.000000 0.000000
# 3 -0.005814 -0.004854 0.022041 0.000000 0.000000 0.000000
# 4 0.000000 0.000000 0.000000 0.029760 0.000000 0.000000
# 5 0.000000 0.000000 0.000000 0.000000 0.047937 0.000000
# 6 0.000000 0.000000 0.000000 0.000000 0.000000 0.022804
#
#
# Mechanical properties :
#
#
# Convention : Reuss Voigt Hill
#
# Bulk Modulus (GPa) = 44.43125 46.28366 45.35746
# Shear Modulus (GPa) = 28.82012 32.85147 30.83579
#
# Velocity S-wave (km/s) = 3.78288 4.03880 3.91293
# Velocity P-wave (km/s) = 6.41419 6.68810 6.55258
#
# Compressibility (1/GPa) = 0.02250668
#
# Stress axis : x y z
#
# Youngs Moduli (GPa) = 85.86092 97.00051 45.37094
#
# Poissons Ratio (x) = 0.00742 0.26379
# Poissons Ratio (y) = 0.00657 0.22024
# Poissons Ratio (z) = 0.49921 0.47086
#
# Static dielectric constant tensor:
#      x y z
#    x 3.947830 0.000000 0.000000 
#    y 0.000000 3.804340 0.000000 
#    z 0.000000 0.000000 3.490940 
# 
# 
# High freq. dielectric constant tensor:
#      x y z
#    x 1.807060 0.000000 0.000000 
#    y 0.000000 1.805270 0.000000 
#    z 0.000000 0.000000 1.772860 
# 
# From -- ./inp_files/4574.got.cif
#   From: 2010.03.12/outbox.cif.g09.slc.cpg/sg57_3_cif.got.tgz:4574.got - 2010.04.16 15:48:40.
