data_PCOD8233147
_publ_section_title
;
Structure prediction by ZEFSAII (Michael W. Deem and Ramdas Pophale) SiO2 
 PCOD8233147
Probable space group: P B C M
;
_chemical_formula_sum "Si O2"
_cell_formula_units_Z 48
_cell_length_a 30.887350
_cell_length_b 9.040715
_cell_length_c 8.547109
_cell_angle_alpha 90.000000
_cell_angle_beta 90.000000
_cell_angle_gamma 90.000000
_cell_volume 2386.726585
_symmetry_space_group_name_H-M "P B C M"
_symmetry_group_IT_number 57
_symmetry_cell_setting 'orthorhombic'
loop_
_space_group_symop_operation_xyz
x,y,z
-x,-y,1/2+z
x,1/2-y,-z
-x,1/2+y,1/2-z
-x,-y,-z
x,y,1/2-z
-x,1/2+y,z
x,1/2-y,1/2+z
loop_
_atom_site_type_symbol
_atom_site_label
_atom_site_fract_x
_atom_site_fract_y
_atom_site_fract_z
Si Si1 0.540577 0.087114 0.064837
Si Si2 0.873979 0.589016 0.069532
Si Si3 0.378912 0.413150 0.935174
Si Si4 0.040292 0.414041 0.433109
Si Si5 0.299578 0.586590 0.065446
Si Si6 0.778086 0.585163 0.432645
O O1 0.538963 0.088544 0.250000
O O2 0.537708 0.250000 0.000000
O O3 0.500000 0.000000 0.000000
O O4 0.585074 0.016984 0.008932
O O5 0.886667 0.598910 0.250000
O O6 0.826599 0.517111 0.044962
O O7 0.869264 0.750000 0.000000
O O8 0.914024 0.506705 0.982092
O O9 0.383693 0.411532 0.750000
O O10 0.385337 0.250000 0.000000
O O11 0.332290 0.473813 0.983577
O O12 0.040221 0.250000 0.500000
O O13 0.035855 0.410229 0.250000
O O14 0.000000 0.500000 0.500000
O O15 0.307317 0.587631 0.250000
O O16 0.306903 0.750000 0.000000
O O17 0.251773 0.529200 0.025566
O O18 0.772969 0.750000 0.500000
O O19 0.765567 0.590082 0.250000
#
# Coordination Sequence:
#
# PCOD8233147 Si02
#       6
#     8   8   8   8   8   8
#     4  12  25  44  67  96 130 168 209 253 304 358
#     4   9  17  31  53  80 110 144 186 232 282 338
#     4  12  25  44  67  94 125 161 204 251 300 353
#     4  11  21  35  55  80 111 146 187 233 285 341
#     4  12  25  42  62  87 120 158 197 242 295 353
#     4  10  20  36  59  87 116 149 190 237 285 341
#
# _framework density 20.111225999999998
#
# number of rings (size 3 to 8) (size 9 to 14) (size 15 to 20)
#    0.000    1.000    0.000    9.500    0.000    2.000 
#    0.000    0.833    0.000    4.000    0.000    0.000 
#    0.000    0.000    0.000    0.000    0.000    0.000 
#
# Total GULP energy -595216.342175 kJ/mol
# GULP energy per Si atom -12400.340462 kJ/mol
# Density = 2.006545 g / cm^3
# Si number density = 20.111226 Si / 1000 Ang^3
#
#
#
# Elastic Constant Matrix: (Units=GPa)
#
#
# Indices 1 2 3 4 5 6 
#
# 1 135.5836 45.0216 56.9977 0.0000 0.0000 0.0000
# 2 45.0216 98.3904 55.1411 0.0000 0.0000 0.0000
# 3 56.9977 55.1411 186.7200 0.0000 0.0000 0.0000
# 4 0.0000 0.0000 0.0000 35.8500 0.0000 0.0000
# 5 0.0000 0.0000 0.0000 0.0000 42.3482 0.0000
# 6 0.0000 0.0000 0.0000 0.0000 0.0000 37.0390
#
#
#
# Elastic Compliance Matrix: (Units=1/GPa)
#
#
# Indices 1 2 3 4 5 6 
#
# 1 0.009216 -0.003164 -0.001879 0.000000 0.000000 0.000000
# 2 -0.003164 0.013266 -0.002952 0.000000 0.000000 0.000000
# 3 -0.001879 -0.002952 0.006801 0.000000 0.000000 0.000000
# 4 0.000000 0.000000 0.000000 0.027894 0.000000 0.000000
# 5 0.000000 0.000000 0.000000 0.000000 0.023614 0.000000
# 6 0.000000 0.000000 0.000000 0.000000 0.000000 0.026999
#
#
# Mechanical properties :
#
#
# Convention : Reuss Voigt Hill
#
# Bulk Modulus (GPa) = 75.22632 81.66831 78.44732
# Shear Modulus (GPa) = 38.99877 40.61634 39.80756
#
# Velocity S-wave (km/s) = 4.40836 4.49886 4.45384
# Velocity P-wave (km/s) = 7.96228 8.22695 8.09570
#
# Compressibility (1/GPa) = 0.01329322
#
# Stress axis : x y z
#
# Youngs Moduli (GPa) = 108.50646 75.38276 147.04114
#
# Poissons Ratio (x) = 0.23852 0.27627
# Poissons Ratio (y) = 0.34333 0.43402
# Poissons Ratio (z) = 0.20387 0.22250
#
# Static dielectric constant tensor:
#      x y z
#    x 4.816990 0.000000 0.000000 
#    y 0.000000 3.493710 0.000000 
#    z 0.000000 0.000000 3.954350 
# 
# 
# High freq. dielectric constant tensor:
#      x y z
#    x 1.813820 0.000000 0.000000 
#    y 0.000000 1.763370 0.000000 
#    z 0.000000 0.000000 1.810690 
# 
# From -- ./inp_files/10020.got.cif
#   From: 2010.03.12/outbox.cif.g09.slc.cpg/sg57_6_cif.got.tgz:10020.got - 2010.04.16 15:48:40.
