data_PCOD8233221
_publ_section_title
;
Structure prediction by ZEFSAII (Michael W. Deem and Ramdas Pophale) SiO2 
 PCOD8233221
Probable space group: P B C M
;
_chemical_formula_sum "Si O2"
_cell_formula_units_Z 64
_cell_length_a 23.767299
_cell_length_b 15.043503
_cell_length_c 9.017264
_cell_angle_alpha 90.000000
_cell_angle_beta 90.000000
_cell_angle_gamma 90.000000
_cell_volume 3224.063534
_symmetry_space_group_name_H-M "P B C M"
_symmetry_group_IT_number 57
_symmetry_cell_setting 'orthorhombic'
loop_
_space_group_symop_operation_xyz
x,y,z
-x,-y,1/2+z
x,1/2-y,-z
-x,1/2+y,1/2-z
-x,-y,-z
x,y,1/2-z
-x,1/2+y,z
x,1/2-y,1/2+z
loop_
_atom_site_type_symbol
_atom_site_label
_atom_site_fract_x
_atom_site_fract_y
_atom_site_fract_z
Si Si1 0.492255 0.339876 0.924922
Si Si2 0.077818 0.507937 0.921878
Si Si3 0.606733 0.916464 0.084265
Si Si4 0.382589 0.619525 0.083732
Si Si5 0.208441 0.490178 0.922579
Si Si6 0.726795 0.334663 0.076775
Si Si7 0.003810 0.848799 0.574086
Si Si8 0.723009 0.839957 0.425457
O O1 0.489746 0.333584 0.750000
O O2 0.554991 0.362128 0.979628
O O3 0.470812 0.250000 0.000000
O O4 0.447678 0.413306 0.978621
O O5 0.066183 0.529023 0.750000
O O6 0.143033 0.498000 0.957648
O O7 0.049383 0.412934 0.965098
O O8 0.056687 0.593895 0.014100
O O9 0.589211 0.886039 0.250000
O O10 0.658922 0.859115 0.022359
O O11 0.629446 0.015717 0.087191
O O12 0.375799 0.658990 0.250000
O O13 0.338224 0.663200 0.973742
O O14 0.220113 0.470298 0.750000
O O15 0.238846 0.579888 0.974531
O O16 0.233320 0.413141 0.022123
O O17 0.729066 0.321178 0.250000
O O18 0.756206 0.250000 0.000000
O O19 0.998610 0.750000 0.500000
O O20 0.009853 0.834077 0.750000
O O21 0.743612 0.750000 0.500000
O O22 0.725976 0.832749 0.250000
#
# Coordination Sequence:
#
# PCOD8233221 Si02
#       8
#     8   8   8   8   8   8   8   8
#     4  11  23  36  54  79 109 143 183 235 290 354
#     4   9  20  39  61  88 124 161 202 250 295 346
#     4  10  21  38  59  82 110 144 186 238 295 355
#     4  10  21  39  59  82 111 143 186 238 294 355
#     4  10  22  41  62  88 121 157 201 249 296 346
#     4  11  23  38  60  86 115 154 196 242 294 353
#     4  10  20  36  61  91 125 164 202 245 294 347
#     4  11  23  39  61  86 117 156 197 246 298 355
#
# _framework density 19.850726000000002
#
# number of rings (size 3 to 8) (size 9 to 14) (size 15 to 20)
#    0.000    1.750    1.250    2.625    0.000    7.000 
#    0.000    2.500    0.000    0.000    0.000    0.000 
#    0.000    0.000    0.000    0.000    0.000    0.000 
#
# Total GULP energy -793586.959343 kJ/mol
# GULP energy per Si atom -12399.796240 kJ/mol
# Density = 1.980554 g / cm^3
# Si number density = 19.850726 Si / 1000 Ang^3
#
#
#
# Elastic Constant Matrix: (Units=GPa)
#
#
# Indices 1 2 3 4 5 6 
#
# 1 118.7508 51.9204 47.8355 0.0000 0.0000 0.0000
# 2 51.9204 137.2856 54.2975 0.0000 0.0000 0.0000
# 3 47.8355 54.2975 75.2193 0.0000 0.0000 0.0000
# 4 0.0000 0.0000 0.0000 36.2378 0.0000 0.0000
# 5 0.0000 0.0000 0.0000 0.0000 27.6677 0.0000
# 6 0.0000 0.0000 0.0000 0.0000 0.0000 711.6822
#
#
#
# Elastic Compliance Matrix: (Units=1/GPa)
#
#
# Indices 1 2 3 4 5 6 
#
# 1 0.011731 -0.002080 -0.005959 0.000000 0.000000 0.000000
# 2 -0.002080 0.010563 -0.006303 0.000000 0.000000 0.000000
# 3 -0.005959 -0.006303 0.021634 0.000000 0.000000 0.000000
# 4 0.000000 0.000000 0.000000 0.027596 0.000000 0.000000
# 5 0.000000 0.000000 0.000000 0.000000 0.036143 0.000000
# 6 0.000000 0.000000 0.000000 0.000000 0.000000 0.001405
#
#
# Mechanical properties :
#
#
# Convention : Reuss Voigt Hill
#
# Bulk Modulus (GPa) = 65.59430 71.04027 68.31728
# Shear Modulus (GPa) = 35.00531 166.93103 100.96817
#
# Velocity S-wave (km/s) = 4.20387 9.18018 7.13962
# Velocity P-wave (km/s) = 7.52854 12.17508 10.12204
#
# Compressibility (1/GPa) = 0.01524523
#
# Stress axis : x y z
#
# Youngs Moduli (GPa) = 85.24692 94.66702 46.22443
#
# Poissons Ratio (x) = 0.19688 0.27544
# Poissons Ratio (y) = 0.17729 0.29134
# Poissons Ratio (z) = 0.50797 0.59665
#
# Static dielectric constant tensor:
#      x y z
#    x 3.560600 0.000000 0.000000 
#    y 0.000000 3.976880 0.000000 
#    z 0.000000 0.000000 3.603980 
# 
# 
# High freq. dielectric constant tensor:
#      x y z
#    x 1.769030 0.000000 0.000000 
#    y 0.000000 1.786000 0.000000 
#    z 0.000000 0.000000 1.773890 
# 
# From -- ./inp_files/9365.got.cif
#   From: 2010.03.12/outbox.cif.g09.slc.cpg/sg57_5_cif.got.tgz:9365.got - 2010.04.16 15:48:40.
