data_PCOD8233687
_publ_section_title
;
Structure prediction by ZEFSAII (Michael W. Deem and Ramdas Pophale) SiO2 
 PCOD8233687
Probable space group: P B C M
;
_chemical_formula_sum "Si O2"
_cell_formula_units_Z 36
_cell_length_a 5.290911
_cell_length_b 13.462297
_cell_length_c 21.991645
_cell_angle_alpha 90.000000
_cell_angle_beta 90.000000
_cell_angle_gamma 90.000000
_cell_volume 1566.416828
_symmetry_space_group_name_H-M "P B C M"
_symmetry_group_IT_number 57
_symmetry_cell_setting 'orthorhombic'
loop_
_space_group_symop_operation_xyz
x,y,z
-x,-y,1/2+z
x,1/2-y,-z
-x,1/2+y,1/2-z
-x,-y,-z
x,y,1/2-z
-x,1/2+y,z
x,1/2-y,1/2+z
loop_
_atom_site_type_symbol
_atom_site_label
_atom_site_fract_x
_atom_site_fract_y
_atom_site_fract_z
Si Si1 0.746824 0.193939 0.250000
Si Si2 0.525744 0.113157 0.750000
Si Si3 0.209297 0.434689 0.143989
Si Si4 0.596523 0.360460 0.620236
Si Si5 0.900254 0.533223 0.250000
Si Si6 0.096340 0.243968 0.071576
O O1 0.769381 0.313488 0.250000
O O2 0.588560 0.156359 0.307505
O O3 0.033903 0.150344 0.250000
O O4 0.378657 0.134110 0.811957
O O5 0.606037 0.996103 0.750000
O O6 0.367186 0.520782 0.108627
O O7 0.095617 0.357289 0.096025
O O8 0.004357 0.487002 0.187279
O O9 0.329443 0.324008 0.593875
O O10 0.830292 0.302896 0.590351
O O11 0.114217 0.250000 0.000000
#
# Coordination Sequence:
#
# PCOD8233687 Si02
#       6
#     4   4   8   8   4   8
#     4  10  20  40  69 102 133 177 212 290 350 419
#     4  11  19  41  66  97 140 177 220 284 361 418
#     4  10  24  41  66 100 136 180 226 292 350 412
#     4  11  26  44  71 105 137 178 229 291 351 416
#     4   9  21  37  61 103 137 170 222 278 361 421
#     4  12  27  47  70  98 139 192 242 280 335 408
#
# _framework density 22.982389999999999
#
# number of rings (size 3 to 8) (size 9 to 14) (size 15 to 20)
#    0.000    1.333    2.222    2.667    6.222    3.556 
#    0.000    0.000    0.000    0.000    0.000    0.000 
#    0.000    0.000    0.000    0.000    0.000    0.000 
#
# Total GULP energy -446103.460943 kJ/mol
# GULP energy per Si atom -12391.762804 kJ/mol
# Density = 2.293008 g / cm^3
# Si number density = 22.982390 Si / 1000 Ang^3
#
#
#
# Elastic Constant Matrix: (Units=GPa)
#
#
# Indices 1 2 3 4 5 6 
#
# 1 59.5600 -7.6799 13.5252 0.0000 0.0000 0.0000
# 2 -7.6799 106.6522 19.8350 0.0000 0.0000 0.0000
# 3 13.5252 19.8350 136.7693 0.0000 0.0000 0.0000
# 4 0.0000 0.0000 0.0000 16.3849 0.0000 0.0000
# 5 0.0000 0.0000 0.0000 0.0000 59.3271 0.0000
# 6 0.0000 0.0000 0.0000 0.0000 0.0000 33.7423
#
#
#
# Elastic Compliance Matrix: (Units=1/GPa)
#
#
# Indices 1 2 3 4 5 6 
#
# 1 0.017444 0.001621 -0.001960 0.000000 0.000000 0.000000
# 2 0.001621 0.009787 -0.001580 0.000000 0.000000 0.000000
# 3 -0.001960 -0.001580 0.007734 0.000000 0.000000 0.000000
# 4 0.000000 0.000000 0.000000 0.061032 0.000000 0.000000
# 5 0.000000 0.000000 0.000000 0.000000 0.016856 0.000000
# 6 0.000000 0.000000 0.000000 0.000000 0.000000 0.029636
#
#
# Mechanical properties :
#
#
# Convention : Reuss Voigt Hill
#
# Bulk Modulus (GPa) = 32.12640 39.37135 35.74888
# Shear Modulus (GPa) = 31.90757 40.37761 36.14259
#
# Velocity S-wave (km/s) = 3.73010 4.19608 3.96993
# Velocity P-wave (km/s) = 5.70619 6.37529 6.05000
#
# Compressibility (1/GPa) = 0.03112705
#
# Stress axis : x y z
#
# Youngs Moduli (GPa) = 57.32679 102.17903 129.29089
#
# Poissons Ratio (x) = -0.16559 0.25342
# Poissons Ratio (y) = -0.09291 0.20423
# Poissons Ratio (z) = 0.11236 0.16140
#
# Static dielectric constant tensor:
#      x y z
#    x 4.049030 0.000000 0.000000 
#    y 0.000000 4.447260 0.000000 
#    z 0.000000 0.000000 4.085240 
# 
# 
# High freq. dielectric constant tensor:
#      x y z
#    x 1.903760 0.000000 0.000000 
#    y 0.000000 1.929030 0.000000 
#    z 0.000000 0.000000 1.893310 
# 
# From -- ./inp_files/23498.got.cif
#   From: 2010.03.12/outbox.cif.g09.slc.cpg/sg57_12_cif.got.tgz:23498.got - 2010.04.16 15:48:40.
