data_PCOD8233902
_publ_section_title
;
Structure prediction by ZEFSAII (Michael W. Deem and Ramdas Pophale) SiO2 
 PCOD8233902
Probable space group: P B C M
;
_chemical_formula_sum "Si O2"
_cell_formula_units_Z 64
_cell_length_a 16.718857
_cell_length_b 9.243364
_cell_length_c 21.352699
_cell_angle_alpha 90.000000
_cell_angle_beta 90.000000
_cell_angle_gamma 90.000000
_cell_volume 3299.813667
_symmetry_space_group_name_H-M "P B C M"
_symmetry_group_IT_number 57
_symmetry_cell_setting 'orthorhombic'
loop_
_space_group_symop_operation_xyz
x,y,z
-x,-y,1/2+z
x,1/2-y,-z
-x,1/2+y,1/2-z
-x,-y,-z
x,y,1/2-z
-x,1/2+y,z
x,1/2-y,1/2+z
loop_
_atom_site_type_symbol
_atom_site_label
_atom_site_fract_x
_atom_site_fract_y
_atom_site_fract_z
Si Si1 0.411490 0.457999 0.319854
Si Si2 0.670683 0.340303 0.057739
Si Si3 0.086531 0.216844 0.674823
Si Si4 0.937229 0.037897 0.677138
Si Si5 0.570415 0.905929 0.530667
Si Si6 0.474635 0.772217 0.627632
Si Si7 0.777656 0.213182 0.822814
Si Si8 0.763026 0.954606 0.176925
O O1 0.403216 0.403433 0.250000
O O2 0.428073 0.631307 0.320754
O O3 0.486050 0.374134 0.348347
O O4 0.325351 0.429288 0.353923
O O5 0.653351 0.503241 0.033165
O O6 0.585174 0.266352 0.071261
O O7 0.717918 0.346103 0.123759
O O8 0.711731 0.250000 0.000000
O O9 0.086796 0.216318 0.750000
O O10 0.075357 0.378613 0.647573
O O11 0.170674 0.153714 0.648499
O O12 0.014946 0.116691 0.648228
O O13 0.952642 0.016773 0.750000
O O14 0.860970 0.136077 0.664106
O O15 0.586689 0.750000 0.500000
O O16 0.544207 0.875531 0.601743
O O17 0.500000 0.000000 0.500000
O O18 0.748537 0.183847 0.750000
O O19 0.791997 0.382107 0.834273
O O20 0.754776 0.924442 0.250000
#
# Coordination Sequence:
#
# PCOD8233902 Si02
#       8
#     8   8   8   8   8   8   8   8
#     4  11  23  36  52  81 120 161 197 239 301 366
#     4  12  24  39  61  85 112 153 204 251 300 353
#     4   9  16  29  51  82 118 155 196 237 284 347
#     4   9  17  30  51  80 116 152 189 233 289 354
#     4  12  21  38  59  78 103 141 198 257 304 340
#     4  12  21  37  57  77 109 151 201 249 292 352
#     4  10  21  37  57  84 121 156 190 240 301 359
#     4   9  18  32  51  76 113 155 191 236 290 343
#
# _framework density 19.395035
#
# number of rings (size 3 to 8) (size 9 to 14) (size 15 to 20)
#    0.000    1.500    5.000    1.125    0.000    4.500 
#    0.000    1.250    0.000    0.000    0.000    3.500 
#    0.000    0.000    0.000    0.000    0.000    0.000 
#
# Total GULP energy -792935.440253 kJ/mol
# GULP energy per Si atom -12389.616254 kJ/mol
# Density = 1.935089 g / cm^3
# Si number density = 19.395035 Si / 1000 Ang^3
#
#
#
# Elastic Constant Matrix: (Units=GPa)
#
#
# Indices 1 2 3 4 5 6 
#
# 1 103.5392 45.9199 22.6288 0.0000 0.0000 0.0000
# 2 45.9199 99.8328 15.8702 0.0000 0.0000 0.0000
# 3 22.6288 15.8702 56.2314 0.0000 0.0000 0.0000
# 4 0.0000 0.0000 0.0000 18.2671 0.0000 0.0000
# 5 0.0000 0.0000 0.0000 0.0000 13.1369 0.0000
# 6 0.0000 0.0000 0.0000 0.0000 0.0000 33.2853
#
#
#
# Elastic Compliance Matrix: (Units=1/GPa)
#
#
# Indices 1 2 3 4 5 6 
#
# 1 0.012814 -0.005312 -0.003657 0.000000 0.000000 0.000000
# 2 -0.005312 0.012690 -0.001444 0.000000 0.000000 0.000000
# 3 -0.003657 -0.001444 0.019663 0.000000 0.000000 0.000000
# 4 0.000000 0.000000 0.000000 0.054743 0.000000 0.000000
# 5 0.000000 0.000000 0.000000 0.000000 0.076121 0.000000
# 6 0.000000 0.000000 0.000000 0.000000 0.000000 0.030043
#
#
# Mechanical properties :
#
#
# Convention : Reuss Voigt Hill
#
# Bulk Modulus (GPa) = 41.08499 47.60459 44.34479
# Shear Modulus (GPa) = 21.27536 24.61683 22.94609
#
# Velocity S-wave (km/s) = 3.31561 3.56650 3.44334
# Velocity P-wave (km/s) = 5.99057 6.44654 6.22273
#
# Compressibility (1/GPa) = 0.02433979
#
# Stress axis : x y z
#
# Youngs Moduli (GPa) = 78.04241 78.80344 50.85742
#
# Poissons Ratio (x) = 0.41864 0.18599
# Poissons Ratio (y) = 0.41460 0.07342
# Poissons Ratio (z) = 0.28541 0.11376
#
# Static dielectric constant tensor:
#      x y z
#    x 3.785540 0.000000 0.000000 
#    y 0.000000 4.054400 0.000000 
#    z 0.000000 0.000000 3.189480 
# 
# 
# High freq. dielectric constant tensor:
#      x y z
#    x 1.743930 0.000000 0.000000 
#    y 0.000000 1.770420 0.000000 
#    z 0.000000 0.000000 1.703850 
# 
# From -- ./inp_files/25645.got.cif
#   From: 2010.03.12/outbox.cif.g09.slc.cpg/sg57_13_cif.got.tgz:25645.got - 2010.04.16 15:48:40.
