data_PCOD8233567
_publ_section_title
;
Structure prediction by ZEFSAII (Michael W. Deem and Ramdas Pophale) SiO2 
 PCOD8233567
Probable space group: P B C M
;
_chemical_formula_sum "Si O2"
_cell_formula_units_Z 64
_cell_length_a 12.453934
_cell_length_b 15.413647
_cell_length_c 15.935111
_cell_angle_alpha 90.000000
_cell_angle_beta 90.000000
_cell_angle_gamma 90.000000
_cell_volume 3058.912551
_symmetry_space_group_name_H-M "P B C M"
_symmetry_group_IT_number 57
_symmetry_cell_setting 'orthorhombic'
loop_
_space_group_symop_operation_xyz
x,y,z
-x,-y,1/2+z
x,1/2-y,-z
-x,1/2+y,1/2-z
-x,-y,-z
x,y,1/2-z
-x,1/2+y,z
x,1/2-y,1/2+z
loop_
_atom_site_type_symbol
_atom_site_label
_atom_site_fract_x
_atom_site_fract_y
_atom_site_fract_z
Si Si1 0.073335 0.642232 0.346561
Si Si2 0.318329 0.187571 0.921734
Si Si3 0.990561 0.038628 0.846310
Si Si4 0.275976 0.741339 0.150749
Si Si5 0.487323 0.300085 0.652832
Si Si6 0.253056 0.562196 0.845489
Si Si7 0.920035 0.714427 0.593397
Si Si8 0.599903 0.950143 0.963248
O O1 0.094316 0.623717 0.250000
O O2 0.044107 0.548389 0.386098
O O3 0.183235 0.679114 0.388531
O O4 0.977573 0.712782 0.350680
O O5 0.413906 0.213665 0.857778
O O6 0.202903 0.198879 0.876681
O O7 0.326282 0.250000 0.000000
O O8 0.335484 0.090268 0.957290
O O9 0.026125 0.056414 0.750000
O O10 0.020551 0.122054 0.901604
O O11 0.864158 0.020633 0.849772
O O12 0.274065 0.732116 0.250000
O O13 0.393472 0.716997 0.116138
O O14 0.246855 0.838559 0.124990
O O15 0.491905 0.325692 0.750000
O O16 0.437051 0.377979 0.601852
O O17 0.298878 0.554589 0.750000
O O18 0.326298 0.514855 0.912225
O O19 0.924554 0.750000 0.500000
O O20 0.500000 0.000000 0.000000
#
# Coordination Sequence:
#
# PCOD8233567 Si02
#       8
#     8   8   8   8   8   8   8   8
#     4  10  21  39  63  88 120 162 204 258 318 369
#     4   9  22  40  57  85 124 158 198 255 308 369
#     4  10  22  39  63  94 122 159 214 263 311 375
#     4   9  18  37  61  89 123 153 201 261 307 362
#     4  10  21  39  64  89 114 161 215 256 309 378
#     4  10  20  38  65  92 120 161 215 260 300 376
#     4  11  23  40  58  90 129 163 202 255 319 382
#     4  11  23  40  58  88 125 163 203 256 322 376
#
# _framework density 20.922467000000001
#
# number of rings (size 3 to 8) (size 9 to 14) (size 15 to 20)
#    0.000    2.000    1.250    1.500    5.250    2.500 
#    2.250    1.250    0.000    0.000    0.000    0.000 
#    0.000    0.000    0.000    0.000    0.000    0.000 
#
# Total GULP energy -793454.587865 kJ/mol
# GULP energy per Si atom -12397.727935 kJ/mol
# Density = 2.087485 g / cm^3
# Si number density = 20.922467 Si / 1000 Ang^3
#
#
#
# Elastic Constant Matrix: (Units=GPa)
#
#
# Indices 1 2 3 4 5 6 
#
# 1 140.1925 55.3568 34.4795 0.0000 0.0000 0.0000
# 2 55.3568 141.4413 34.7360 0.0000 0.0000 0.0000
# 3 34.4795 34.7360 45.7134 0.0000 0.0000 0.0000
# 4 0.0000 0.0000 0.0000 25.8929 0.0000 0.0000
# 5 0.0000 0.0000 0.0000 0.0000 18.8913 0.0000
# 6 0.0000 0.0000 0.0000 0.0000 0.0000 35.7015
#
#
#
# Elastic Compliance Matrix: (Units=1/GPa)
#
#
# Indices 1 2 3 4 5 6 
#
# 1 0.009364 -0.002373 -0.005259 0.000000 0.000000 0.000000
# 2 -0.002373 0.009294 -0.005272 0.000000 0.000000 0.000000
# 3 -0.005259 -0.005272 0.029848 0.000000 0.000000 0.000000
# 4 0.000000 0.000000 0.000000 0.038621 0.000000 0.000000
# 5 0.000000 0.000000 0.000000 0.000000 0.052934 0.000000
# 6 0.000000 0.000000 0.000000 0.000000 0.000000 0.028010
#
#
# Mechanical properties :
#
#
# Convention : Reuss Voigt Hill
#
# Bulk Modulus (GPa) = 44.05918 64.05466 54.05692
# Shear Modulus (GPa) = 24.82070 29.61545 27.21808
#
# Velocity S-wave (km/s) = 3.44803 3.76638 3.61071
# Velocity P-wave (km/s) = 6.07914 7.04243 6.57844
#
# Compressibility (1/GPa) = 0.02269675
#
# Stress axis : x y z
#
# Youngs Moduli (GPa) = 106.79668 107.60143 33.50276
#
# Poissons Ratio (x) = 0.25535 0.17620
# Poissons Ratio (y) = 0.25344 0.17662
# Poissons Ratio (z) = 0.56168 0.56727
#
# Static dielectric constant tensor:
#      x y z
#    x 4.162790 0.000000 0.000000 
#    y 0.000000 3.947560 0.000000 
#    z 0.000000 0.000000 3.593160 
# 
# 
# High freq. dielectric constant tensor:
#      x y z
#    x 1.830020 0.000000 0.000000 
#    y 0.000000 1.823990 0.000000 
#    z 0.000000 0.000000 1.796830 
# 
# From -- ./inp_files/22064.got.cif
#   From: 2010.03.12/outbox.cif.g09.slc.cpg/sg57_12_cif.got.tgz:22064.got - 2010.04.16 15:48:40.
