data_PCOD8233261
_publ_section_title
;
Structure prediction by ZEFSAII (Michael W. Deem and Ramdas Pophale) SiO2 
 PCOD8233261
Probable space group: P B C M
;
_chemical_formula_sum "Si O2"
_cell_formula_units_Z 48
_cell_length_a 30.631860
_cell_length_b 9.341139
_cell_length_c 8.721939
_cell_angle_alpha 90.000000
_cell_angle_beta 90.000000
_cell_angle_gamma 90.000000
_cell_volume 2495.664768
_symmetry_space_group_name_H-M "P B C M"
_symmetry_group_IT_number 57
_symmetry_cell_setting 'orthorhombic'
loop_
_space_group_symop_operation_xyz
x,y,z
-x,-y,1/2+z
x,1/2-y,-z
-x,1/2+y,1/2-z
-x,-y,-z
x,y,1/2-z
-x,1/2+y,z
x,1/2-y,1/2+z
loop_
_atom_site_type_symbol
_atom_site_label
_atom_site_fract_x
_atom_site_fract_y
_atom_site_fract_z
Si Si1 0.866524 0.095021 0.927517
Si Si2 0.964128 0.097388 0.575058
Si Si3 0.703143 0.905474 0.932103
Si Si4 0.622127 0.093548 0.569870
Si Si5 0.793753 0.903357 0.430982
Si Si6 0.539157 0.908712 0.931993
O O1 0.851956 0.099618 0.750000
O O2 0.915494 0.031221 0.943550
O O3 0.865054 0.250000 0.000000
O O4 0.834063 0.001802 0.027276
O O5 0.966076 0.250000 0.500000
O O6 0.976848 0.116562 0.750000
O O7 0.000000 0.000000 0.500000
O O8 0.705405 0.891258 0.750000
O O9 0.666867 0.019299 0.985518
O O10 0.691840 0.750000 0.000000
O O11 0.749014 0.964181 0.996718
O O12 0.616703 0.250000 0.500000
O O13 0.621695 0.113462 0.750000
O O14 0.583131 0.989779 0.517268
O O15 0.804321 0.750000 0.500000
O O16 0.788124 0.892293 0.250000
O O17 0.534405 0.898261 0.750000
O O18 0.539310 0.750000 0.000000
O O19 0.500000 0.000000 0.000000
#
# Coordination Sequence:
#
# PCOD8233261 Si02
#       6
#     8   8   8   8   8   8
#     4  10  21  38  58  82 111 146 185 228 277 333
#     4  10  21  37  58  82 111 145 184 228 277 330
#     4  10  20  37  58  82 111 145 185 231 279 333
#     4  10  23  39  58  84 115 149 189 233 280 334
#     4  11  22  37  58  84 113 148 187 232 280 332
#     4  11  23  40  61  88 118 153 193 236 285 338
#
# _framework density 19.233352
#
# number of rings (size 3 to 8) (size 9 to 14) (size 15 to 20)
#    0.000    1.667    0.000    5.500    0.000    7.333 
#    0.000    1.667    0.000    0.000    0.000    0.000 
#    0.000    0.000    0.000    0.000    0.000    0.000 
#
# Total GULP energy -595265.628447 kJ/mol
# GULP energy per Si atom -12401.367259 kJ/mol
# Density = 1.918958 g / cm^3
# Si number density = 19.233352 Si / 1000 Ang^3
#
#
#
# Elastic Constant Matrix: (Units=GPa)
#
#
# Indices 1 2 3 4 5 6 
#
# 1 142.8039 80.5666 59.1722 0.0000 0.0000 0.0000
# 2 80.5666 119.1861 49.5626 0.0000 0.0000 0.0000
# 3 59.1722 49.5626 114.6591 0.0000 0.0000 0.0000
# 4 0.0000 0.0000 0.0000 38.8572 0.0000 0.0000
# 5 0.0000 0.0000 0.0000 0.0000 29.0895 0.0000
# 6 0.0000 0.0000 0.0000 0.0000 0.0000 55.4387
#
#
#
# Elastic Compliance Matrix: (Units=1/GPa)
#
#
# Indices 1 2 3 4 5 6 
#
# 1 0.012295 -0.006915 -0.003356 0.000000 0.000000 0.000000
# 2 -0.006915 0.014119 -0.002534 0.000000 0.000000 0.000000
# 3 -0.003356 -0.002534 0.011549 0.000000 0.000000 0.000000
# 4 0.000000 0.000000 0.000000 0.025735 0.000000 0.000000
# 5 0.000000 0.000000 0.000000 0.000000 0.034377 0.000000
# 6 0.000000 0.000000 0.000000 0.000000 0.000000 0.018038
#
#
# Mechanical properties :
#
#
# Convention : Reuss Voigt Hill
#
# Bulk Modulus (GPa) = 80.96101 83.91690 82.43895
# Shear Modulus (GPa) = 34.28439 37.16694 35.72567
#
# Velocity S-wave (km/s) = 4.22660 4.40070 4.31453
# Velocity P-wave (km/s) = 8.12431 8.33950 8.23261
#
# Compressibility (1/GPa) = 0.01235162
#
# Stress axis : x y z
#
# Youngs Moduli (GPa) = 81.33702 70.82843 86.59038
#
# Poissons Ratio (x) = 0.48980 0.29056
# Poissons Ratio (y) = 0.56248 0.21943
# Poissons Ratio (z) = 0.27294 0.17949
#
# Static dielectric constant tensor:
#      x y z
#    x 3.955430 0.000000 0.000000 
#    y 0.000000 3.423320 0.000000 
#    z 0.000000 0.000000 3.668880 
# 
# 
# High freq. dielectric constant tensor:
#      x y z
#    x 1.765640 0.000000 0.000000 
#    y 0.000000 1.746920 0.000000 
#    z 0.000000 0.000000 1.764310 
# 
# From -- ./inp_files/10056.got.cif
#   From: 2010.03.12/outbox.cif.g09.slc.cpg/sg57_6_cif.got.tgz:10056.got - 2010.04.16 15:48:40.
