data_PCOD8233440
_publ_section_title
;
Structure prediction by ZEFSAII (Michael W. Deem and Ramdas Pophale) SiO2 
 PCOD8233440
Probable space group: P B C M
;
_chemical_formula_sum "Si O2"
_cell_formula_units_Z 64
_cell_length_a 12.598759
_cell_length_b 15.183051
_cell_length_c 16.418854
_cell_angle_alpha 90.000000
_cell_angle_beta 90.000000
_cell_angle_gamma 90.000000
_cell_volume 3140.723184
_symmetry_space_group_name_H-M "P B C M"
_symmetry_group_IT_number 57
_symmetry_cell_setting 'orthorhombic'
loop_
_space_group_symop_operation_xyz
x,y,z
-x,-y,1/2+z
x,1/2-y,-z
-x,1/2+y,1/2-z
-x,-y,-z
x,y,1/2-z
-x,1/2+y,z
x,1/2-y,1/2+z
loop_
_atom_site_type_symbol
_atom_site_label
_atom_site_fract_x
_atom_site_fract_y
_atom_site_fract_z
Si Si1 0.254311 0.043665 0.051498
Si Si2 0.924376 0.954488 0.061690
Si Si3 0.425477 0.116083 0.344130
Si Si4 0.496684 0.709950 0.588032
Si Si5 0.882642 0.093630 0.655805
Si Si6 0.595067 0.518646 0.591618
Si Si7 0.778644 0.428153 0.840327
Si Si8 0.280920 0.760484 0.156443
O O1 0.308172 0.110755 0.115369
O O2 0.189003 0.972536 0.103135
O O3 0.171626 0.093489 0.988801
O O4 0.347419 0.999739 0.995611
O O5 0.996683 0.894316 0.121204
O O6 0.878633 0.036265 0.111808
O O7 0.000000 0.000000 0.000000
O O8 0.421747 0.085483 0.250000
O O9 0.464661 0.216587 0.347355
O O10 0.499213 0.050039 0.396810
O O11 0.519515 0.750000 0.500000
O O12 0.559359 0.619421 0.600135
O O13 0.372359 0.691877 0.603812
O O14 0.886686 0.062232 0.750000
O O15 0.829674 0.188778 0.648180
O O16 0.682617 0.498920 0.660862
O O17 0.818321 0.408369 0.750000
O O18 0.736692 0.337129 0.879699
O O19 0.319265 0.757076 0.250000
#
# Coordination Sequence:
#
# PCOD8233440 Si02
#       8
#     8   8   8   8   8   8   8   8
#     4  10  21  38  60  88 127 169 214 259 318 389
#     4   9  20  37  61  87 116 157 208 258 320 387
#     4  12  24  39  62  93 130 172 220 266 316 384
#     4  12  25  38  62  92 130 174 218 263 313 385
#     4  10  20  37  65  95 125 161 210 274 331 381
#     4  11  23  40  61  90 130 173 212 260 323 378
#     4  10  20  38  64  89 122 165 208 261 323 385
#     4  10  22  38  59  95 128 155 208 266 319 383
#
# _framework density 20.377472999999998
#
# number of rings (size 3 to 8) (size 9 to 14) (size 15 to 20)
#    0.000    1.500    2.500    2.625    1.750    4.000 
#    0.000    0.000   19.250    0.000    0.000    0.000 
#    0.000    0.000    0.000    0.000    0.000    0.000 
#
# Total GULP energy -793153.610221 kJ/mol
# GULP energy per Si atom -12393.025160 kJ/mol
# Density = 2.033109 g / cm^3
# Si number density = 20.377473 Si / 1000 Ang^3
#
#
#
# Elastic Constant Matrix: (Units=GPa)
#
#
# Indices 1 2 3 4 5 6 
#
# 1 130.1860 58.3585 64.2937 0.0000 0.0000 0.0000
# 2 58.3585 110.8046 34.0694 0.0000 0.0000 0.0000
# 3 64.2937 34.0694 99.6452 0.0000 0.0000 0.0000
# 4 0.0000 0.0000 0.0000 21.4174 0.0000 0.0000
# 5 0.0000 0.0000 0.0000 0.0000 40.3914 0.0000
# 6 0.0000 0.0000 0.0000 0.0000 0.0000 31.2067
#
#
#
# Elastic Compliance Matrix: (Units=1/GPa)
#
#
# Indices 1 2 3 4 5 6 
#
# 1 0.013270 -0.004868 -0.006898 0.000000 0.000000 0.000000
# 2 -0.004868 0.011871 -0.000918 0.000000 0.000000 0.000000
# 3 -0.006898 -0.000918 0.014800 0.000000 0.000000 0.000000
# 4 0.000000 0.000000 0.000000 0.046691 0.000000 0.000000
# 5 0.000000 0.000000 0.000000 0.000000 0.024758 0.000000
# 6 0.000000 0.000000 0.000000 0.000000 0.000000 0.032044
#
#
# Mechanical properties :
#
#
# Convention : Reuss Voigt Hill
#
# Bulk Modulus (GPa) = 68.61617 72.67545 70.64581
# Shear Modulus (GPa) = 28.79198 30.86406 29.82802
#
# Velocity S-wave (km/s) = 3.76298 3.89603 3.83008
# Velocity P-wave (km/s) = 7.25435 7.48203 7.36907
#
# Compressibility (1/GPa) = 0.01457382
#
# Stress axis : x y z
#
# Youngs Moduli (GPa) = 75.35725 84.23848 67.56769
#
# Poissons Ratio (x) = 0.41009 0.46606
# Poissons Ratio (y) = 0.36686 0.06201
# Poissons Ratio (z) = 0.51980 0.07730
#
# Static dielectric constant tensor:
#      x y z
#    x 4.368400 0.000000 0.000000 
#    y 0.000000 3.853810 0.000000 
#    z 0.000000 0.000000 3.994670 
# 
# 
# High freq. dielectric constant tensor:
#      x y z
#    x 1.804360 0.000000 0.000000 
#    y 0.000000 1.764690 0.000000 
#    z 0.000000 0.000000 1.812300 
# 
# From -- ./inp_files/22092.got.cif
#   From: 2010.03.12/outbox.cif.g09.slc.cpg/sg57_12_cif.got.tgz:22092.got - 2010.04.16 15:48:40.
