data_PCOD8233731
_publ_section_title
;
Structure prediction by ZEFSAII (Michael W. Deem and Ramdas Pophale) SiO2 
 PCOD8233731
Probable space group: P B C M
;
_chemical_formula_sum "Si O2"
_cell_formula_units_Z 56
_cell_length_a 13.598092
_cell_length_b 9.791662
_cell_length_c 20.793440
_cell_angle_alpha 90.000000
_cell_angle_beta 90.000000
_cell_angle_gamma 90.000000
_cell_volume 2768.603300
_symmetry_space_group_name_H-M "P B C M"
_symmetry_group_IT_number 57
_symmetry_cell_setting 'orthorhombic'
loop_
_space_group_symop_operation_xyz
x,y,z
-x,-y,1/2+z
x,1/2-y,-z
-x,1/2+y,1/2-z
-x,-y,-z
x,y,1/2-z
-x,1/2+y,z
x,1/2-y,1/2+z
loop_
_atom_site_type_symbol
_atom_site_label
_atom_site_fract_x
_atom_site_fract_y
_atom_site_fract_z
Si Si1 0.298904 0.965529 0.602944
Si Si2 0.092463 0.585910 0.922235
Si Si3 0.586011 0.100311 0.984423
Si Si4 0.367869 0.278301 0.322653
Si Si5 0.742467 0.501103 0.319855
Si Si6 0.403185 0.794309 0.348984
Si Si7 0.910028 0.402105 0.571508
O O1 0.320036 0.942438 0.526984
O O2 0.363675 0.858424 0.642634
O O3 0.183926 0.941617 0.614423
O O4 0.326309 0.115824 0.625786
O O5 0.181210 0.540744 0.875785
O O6 0.064520 0.744684 0.914029
O O7 0.999512 0.493585 0.903271
O O8 0.116908 0.564278 0.997394
O O9 0.612676 0.104283 0.910085
O O10 0.545119 0.250000 0.000000
O O11 0.500000 0.000000 0.000000
O O12 0.338873 0.320490 0.250000
O O13 0.320032 0.133933 0.341463
O O14 0.485780 0.276369 0.326371
O O15 0.794816 0.529174 0.250000
O O16 0.667073 0.377782 0.301637
#
# Coordination Sequence:
#
# PCOD8233731 Si02
#       7
#     8   8   8   8   8   8   8
#     4  11  22  39  61  91 125 162 208 259 314 372
#     4  10  22  44  68  95 126 154 204 261 319 380
#     4  10  21  34  56  89 123 158 200 256 309 364
#     4  11  25  40  58  88 130 171 216 258 296 374
#     4  11  24  42  64  92 127 168 211 259 314 371
#     4  11  21  39  62  88 126 169 209 253 314 375
#     4  10  22  42  70  95 121 158 201 262 323 375
#
# _framework density 20.226806
#
# number of rings (size 3 to 8) (size 9 to 14) (size 15 to 20)
#    0.000    1.429    2.857    2.143    8.000    2.286 
#    0.000    2.857    0.000    0.000    0.000    0.000 
#    0.000    0.000    0.000    0.000    0.000    0.000 
#
# Total GULP energy -694056.861338 kJ/mol
# GULP energy per Si atom -12393.872524 kJ/mol
# Density = 2.018077 g / cm^3
# Si number density = 20.226806 Si / 1000 Ang^3
#
#
#
# Elastic Constant Matrix: (Units=GPa)
#
#
# Indices 1 2 3 4 5 6 
#
# 1 134.0053 66.0049 27.0226 0.0000 0.0000 0.0000
# 2 66.0049 112.4715 39.2775 0.0000 0.0000 0.0000
# 3 27.0226 39.2775 83.2220 0.0000 0.0000 0.0000
# 4 0.0000 0.0000 0.0000 16.1061 0.0000 0.0000
# 5 0.0000 0.0000 0.0000 0.0000 22.7006 0.0000
# 6 0.0000 0.0000 0.0000 0.0000 0.0000 39.1916
#
#
#
# Elastic Compliance Matrix: (Units=1/GPa)
#
#
# Indices 1 2 3 4 5 6 
#
# 1 0.010522 -0.005965 -0.000601 0.000000 0.000000 0.000000
# 2 -0.005965 0.014027 -0.004684 0.000000 0.000000 0.000000
# 3 -0.000601 -0.004684 0.014422 0.000000 0.000000 0.000000
# 4 0.000000 0.000000 0.000000 0.062088 0.000000 0.000000
# 5 0.000000 0.000000 0.000000 0.000000 0.044052 0.000000
# 6 0.000000 0.000000 0.000000 0.000000 0.000000 0.025516
#
#
# Mechanical properties :
#
#
# Convention : Reuss Voigt Hill
#
# Bulk Modulus (GPa) = 60.71106 66.03430 63.37268
# Shear Modulus (GPa) = 25.17427 28.75925 26.96676
#
# Velocity S-wave (km/s) = 3.53172 3.77482 3.65529
# Velocity P-wave (km/s) = 6.83454 7.19144 7.01526
#
# Compressibility (1/GPa) = 0.01647146
#
# Stress axis : x y z
#
# Youngs Moduli (GPa) = 95.04274 71.29033 69.33978
#
# Poissons Ratio (x) = 0.42522 0.04169
# Poissons Ratio (y) = 0.56690 0.32475
# Poissons Ratio (z) = 0.05715 0.33389
#
# Static dielectric constant tensor:
#      x y z
#    x 3.933710 0.000000 0.000000 
#    y 0.000000 3.791400 0.000000 
#    z 0.000000 0.000000 3.793820 
# 
# 
# High freq. dielectric constant tensor:
#      x y z
#    x 1.782850 0.000000 0.000000 
#    y 0.000000 1.801160 0.000000 
#    z 0.000000 0.000000 1.788030 
# 
# From -- ./inp_files/25392.got.cif
#   From: 2010.03.12/outbox.cif.g09.slc.cpg/sg57_13_cif.got.tgz:25392.got - 2010.04.16 15:48:40.
