data_PCOD8233381
_publ_section_title
;
Structure prediction by ZEFSAII (Michael W. Deem and Ramdas Pophale) SiO2 
 PCOD8233381
Probable space group: P B C M
;
_chemical_formula_sum "Si O2"
_cell_formula_units_Z 64
_cell_length_a 11.757118
_cell_length_b 31.422423
_cell_length_c 8.718425
_cell_angle_alpha 90.000000
_cell_angle_beta 90.000000
_cell_angle_gamma 90.000000
_cell_volume 3220.909954
_symmetry_space_group_name_H-M "P B C M"
_symmetry_group_IT_number 57
_symmetry_cell_setting 'orthorhombic'
loop_
_space_group_symop_operation_xyz
x,y,z
-x,-y,1/2+z
x,1/2-y,-z
-x,1/2+y,1/2-z
-x,-y,-z
x,y,1/2-z
-x,1/2+y,z
x,1/2-y,1/2+z
loop_
_atom_site_type_symbol
_atom_site_label
_atom_site_fract_x
_atom_site_fract_y
_atom_site_fract_z
Si Si1 0.378701 0.655136 0.571087
Si Si2 0.541104 0.041338 0.077972
Si Si3 0.833177 0.878770 0.072185
Si Si4 0.019902 0.296095 0.069705
Si Si5 0.230331 0.581135 0.424812
Si Si6 0.587172 0.877215 0.568878
Si Si7 0.993753 0.047429 0.930011
Si Si8 0.200766 0.706078 0.069067
O O1 0.376372 0.644934 0.750000
O O2 0.295337 0.623257 0.478516
O O3 0.508712 0.659074 0.510564
O O4 0.316487 0.698838 0.527216
O O5 0.497692 0.039796 0.250000
O O6 0.677481 0.043237 0.065809
O O7 0.477863 0.081335 0.001810
O O8 0.500000 0.000000 0.000000
O O9 0.806556 0.886046 0.250000
O O10 0.884124 0.831981 0.044834
O O11 0.909538 0.918995 0.012837
O O12 0.716690 0.878286 0.978742
O O13 0.993159 0.289931 0.250000
O O14 0.059976 0.250000 0.000000
O O15 0.912546 0.319729 0.982501
O O16 0.188671 0.588043 0.250000
O O17 0.126471 0.568776 0.531945
O O18 0.577005 0.871869 0.750000
O O19 0.003791 0.041514 0.750000
O O20 0.000000 0.000000 0.000000
O O21 0.223081 0.704533 0.250000
O O22 0.154717 0.750000 0.000000
#
# Coordination Sequence:
#
# PCOD8233381 Si02
#       8
#     8   8   8   8   8   8   8   8
#     4  11  21  37  60  85 115 151 190 236 293 352
#     4   9  20  35  54  80 108 140 183 237 289 345
#     4  10  23  41  60  83 117 160 202 246 300 363
#     4  10  20  37  61  91 123 156 201 248 299 362
#     4  10  21  38  57  82 111 145 190 238 288 343
#     4  10  22  39  58  84 113 149 198 246 294 353
#     4  11  24  40  58  84 118 158 201 247 300 357
#     4  11  21  35  58  89 122 154 191 240 294 351
#
# _framework density 19.870161
#
# number of rings (size 3 to 8) (size 9 to 14) (size 15 to 20)
#    0.000    1.750    0.000    6.000    1.750    6.000 
#    0.000    0.625    0.000    1.500    0.000    0.000 
#    0.000    0.000    0.000    0.000    0.000    0.000 
#
# Total GULP energy -792969.601543 kJ/mol
# GULP energy per Si atom -12390.150024 kJ/mol
# Density = 1.982494 g / cm^3
# Si number density = 19.870161 Si / 1000 Ang^3
#
#
#
# Elastic Constant Matrix: (Units=GPa)
#
#
# Indices 1 2 3 4 5 6 
#
# 1 131.5021 34.5522 48.2545 0.0000 0.0000 0.0000
# 2 34.5522 63.8629 24.4835 0.0000 0.0000 0.0000
# 3 48.2545 24.4835 87.7547 0.0000 0.0000 0.0000
# 4 0.0000 0.0000 0.0000 32.6000 0.0000 0.0000
# 5 0.0000 0.0000 0.0000 0.0000 40.1090 0.0000
# 6 0.0000 0.0000 0.0000 0.0000 0.0000 22.7016
#
#
#
# Elastic Compliance Matrix: (Units=1/GPa)
#
#
# Indices 1 2 3 4 5 6 
#
# 1 0.010291 -0.003805 -0.004597 0.000000 0.000000 0.000000
# 2 -0.003805 0.018941 -0.003192 0.000000 0.000000 0.000000
# 3 -0.004597 -0.003192 0.014814 0.000000 0.000000 0.000000
# 4 0.000000 0.000000 0.000000 0.030675 0.000000 0.000000
# 5 0.000000 0.000000 0.000000 0.000000 0.024932 0.000000
# 6 0.000000 0.000000 0.000000 0.000000 0.000000 0.044050
#
#
# Mechanical properties :
#
#
# Convention : Reuss Voigt Hill
#
# Bulk Modulus (GPa) = 47.94579 55.30000 51.62289
# Shear Modulus (GPa) = 28.76130 30.80411 29.78270
#
# Velocity S-wave (km/s) = 3.80868 3.94162 3.87572
# Velocity P-wave (km/s) = 6.59722 6.97182 6.78710
#
# Compressibility (1/GPa) = 0.02085689
#
# Stress axis : x y z
#
# Youngs Moduli (GPa) = 97.16959 52.79495 67.50419
#
# Poissons Ratio (x) = 0.20091 0.31033
# Poissons Ratio (y) = 0.36978 0.21547
# Poissons Ratio (z) = 0.44671 0.16852
#
# Static dielectric constant tensor:
#      x y z
#    x 3.865240 0.000000 0.000000 
#    y 0.000000 3.923650 0.000000 
#    z 0.000000 0.000000 3.606330 
# 
# 
# High freq. dielectric constant tensor:
#      x y z
#    x 1.779760 0.000000 0.000000 
#    y 0.000000 1.770170 0.000000 
#    z 0.000000 0.000000 1.781620 
# 
# From -- ./inp_files/3803.got.cif
#   From: 2010.03.12/outbox.cif.g09.slc.cpg/sg57_2_cif.got.tgz:3803.got - 2010.04.16 15:48:40.
