data_PCOD8233879
_publ_section_title
;
Structure prediction by ZEFSAII (Michael W. Deem and Ramdas Pophale) SiO2 
 PCOD8233879
Probable space group: P B C M
;
_chemical_formula_sum "Si O2"
_cell_formula_units_Z 64
_cell_length_a 16.603329
_cell_length_b 21.497767
_cell_length_c 9.007972
_cell_angle_alpha 90.000000
_cell_angle_beta 90.000000
_cell_angle_gamma 90.000000
_cell_volume 3215.255966
_symmetry_space_group_name_H-M "P B C M"
_symmetry_group_IT_number 57
_symmetry_cell_setting 'orthorhombic'
loop_
_space_group_symop_operation_xyz
x,y,z
-x,-y,1/2+z
x,1/2-y,-z
-x,1/2+y,1/2-z
-x,-y,-z
x,y,1/2-z
-x,1/2+y,z
x,1/2-y,1/2+z
loop_
_atom_site_type_symbol
_atom_site_label
_atom_site_fract_x
_atom_site_fract_y
_atom_site_fract_z
Si Si1 0.953982 0.090858 0.085447
Si Si2 0.627772 0.812439 0.578414
Si Si3 0.300901 0.892529 0.574192
Si Si4 0.070524 0.184570 0.926988
Si Si5 0.448121 0.684954 0.425173
Si Si6 0.179306 0.517730 0.923705
Si Si7 0.788054 0.624644 0.078789
Si Si8 0.171648 0.696758 0.094086
O O1 0.986357 0.068531 0.250000
O O2 0.886934 0.140614 0.117486
O O3 0.022806 0.124116 0.988921
O O4 0.907275 0.035871 0.997368
O O5 0.656994 0.750000 0.500000
O O6 0.623292 0.796226 0.750000
O O7 0.538825 0.833449 0.524034
O O8 0.693031 0.866194 0.545299
O O9 0.291604 0.905670 0.750000
O O10 0.392453 0.874705 0.528360
O O11 0.260232 0.949946 0.488060
O O12 0.253519 0.829966 0.524715
O O13 0.060168 0.189216 0.750000
O O14 0.041673 0.250000 0.000000
O O15 0.162679 0.171707 0.973312
O O16 0.421966 0.750000 0.500000
O O17 0.440315 0.695083 0.250000
O O18 0.174513 0.533221 0.750000
O O19 0.189314 0.445609 0.958120
O O20 0.807978 0.641067 0.250000
O O21 0.191893 0.728753 0.250000
O O22 0.129419 0.750000 0.000000
#
# Coordination Sequence:
#
# PCOD8233879 Si02
#       8
#     8   8   8   8   8   8   8   8
#     4  10  21  38  57  79 111 146 181 223 270 323
#     4   9  18  34  56  81 109 141 178 225 280 332
#     4   9  18  32  48  71 106 144 181 222 270 326
#     4  12  25  40  61  88 115 143 178 222 274 329
#     4   9  17  30  51  79 110 143 180 225 277 331
#     4  10  21  37  57  80 108 146 190 232 273 321
#     4  10  22  40  59  80 109 145 187 233 279 328
#     4   9  17  27  43  68  98 134 171 209 256 309
#
# _framework density 19.905101999999999
#
# number of rings (size 3 to 8) (size 9 to 14) (size 15 to 20)
#    0.000    2.250    0.000    3.750    0.000    7.000 
#    0.000    0.625    0.000    0.000    0.000    0.000 
#    0.000    0.000    0.000    0.000    0.000    0.000 
#
# Total GULP energy -792946.136283 kJ/mol
# GULP energy per Si atom -12389.783379 kJ/mol
# Density = 1.985980 g / cm^3
# Si number density = 19.905102 Si / 1000 Ang^3
#
#
#
# Elastic Constant Matrix: (Units=GPa)
#
#
# Indices 1 2 3 4 5 6 
#
# 1 94.3428 18.0832 31.4076 0.0000 0.0000 0.0000
# 2 18.0832 50.9872 33.8309 0.0000 0.0000 0.0000
# 3 31.4076 33.8309 89.5849 0.0000 0.0000 0.0000
# 4 0.0000 0.0000 0.0000 28.2307 0.0000 0.0000
# 5 0.0000 0.0000 0.0000 0.0000 27.1087 0.0000
# 6 0.0000 0.0000 0.0000 0.0000 0.0000 44.8036
#
#
#
# Elastic Compliance Matrix: (Units=1/GPa)
#
#
# Indices 1 2 3 4 5 6 
#
# 1 0.012148 -0.001978 -0.003512 0.000000 0.000000 0.000000
# 2 -0.001978 0.026492 -0.009311 0.000000 0.000000 0.000000
# 3 -0.003512 -0.009311 0.015910 0.000000 0.000000 0.000000
# 4 0.000000 0.000000 0.000000 0.035422 0.000000 0.000000
# 5 0.000000 0.000000 0.000000 0.000000 0.036889 0.000000
# 6 0.000000 0.000000 0.000000 0.000000 0.000000 0.022320
#
#
# Mechanical properties :
#
#
# Convention : Reuss Voigt Hill
#
# Bulk Modulus (GPa) = 40.08321 44.61757 42.35039
# Shear Modulus (GPa) = 26.72375 30.13482 28.42928
#
# Velocity S-wave (km/s) = 3.66807 3.89514 3.78331
# Velocity P-wave (km/s) = 6.17418 6.53401 6.35664
#
# Compressibility (1/GPa) = 0.02494810
#
# Stress axis : x y z
#
# Youngs Moduli (GPa) = 82.31835 37.74661 62.85325
#
# Poissons Ratio (x) = 0.07467 0.22073
# Poissons Ratio (y) = 0.16284 0.58523
# Poissons Ratio (z) = 0.28909 0.35146
#
# Static dielectric constant tensor:
#      x y z
#    x 4.117860 0.000000 0.000000 
#    y 0.000000 3.454370 0.000000 
#    z 0.000000 0.000000 3.675700 
# 
# 
# High freq. dielectric constant tensor:
#      x y z
#    x 1.784360 0.000000 0.000000 
#    y 0.000000 1.758350 0.000000 
#    z 0.000000 0.000000 1.774780 
# 
# From -- ./inp_files/7288.got.cif
#   From: 2010.03.12/outbox.cif.g09.slc.cpg/sg57_4_cif.got.tgz:7288.got - 2010.04.16 15:48:40.
