data_PCOD8233058
_publ_section_title
;
Structure prediction by ZEFSAII (Michael W. Deem and Ramdas Pophale) SiO2 
 PCOD8233058
Probable space group: P B C M
;
_chemical_formula_sum "Si O2"
_cell_formula_units_Z 48
_cell_length_a 28.057621
_cell_length_b 9.829885
_cell_length_c 9.168788
_cell_angle_alpha 90.000000
_cell_angle_beta 90.000000
_cell_angle_gamma 90.000000
_cell_volume 2528.780959
_symmetry_space_group_name_H-M "P B C M"
_symmetry_group_IT_number 57
_symmetry_cell_setting 'orthorhombic'
loop_
_space_group_symop_operation_xyz
x,y,z
-x,-y,1/2+z
x,1/2-y,-z
-x,1/2+y,1/2-z
-x,-y,-z
x,y,1/2-z
-x,1/2+y,z
x,1/2-y,1/2+z
loop_
_atom_site_type_symbol
_atom_site_label
_atom_site_fract_x
_atom_site_fract_y
_atom_site_fract_z
Si Si1 0.134580 0.110534 0.424815
Si Si2 0.963430 0.896057 0.429021
Si Si3 0.683263 0.376198 0.412113
Si Si4 0.531440 0.837670 0.750000
Si Si5 0.390798 0.400963 0.522413
Si Si6 0.789841 0.382846 0.080284
Si Si7 0.555051 0.967088 0.250000
O O1 0.150746 0.250000 0.500000
O O2 0.124968 0.126923 0.250000
O O3 0.088038 0.057218 0.510739
O O4 0.177277 0.009049 0.459930
O O5 0.975305 0.750000 0.500000
O O6 0.965290 0.893387 0.250000
O O7 0.000000 0.000000 0.500000
O O8 0.660547 0.250000 0.500000
O O9 0.688761 0.320655 0.250000
O O10 0.650215 0.508967 0.407270
O O11 0.735728 0.415300 0.473117
O O12 0.560681 0.887948 0.612155
O O13 0.525168 0.674132 0.750000
O O14 0.479482 0.903761 0.750000
O O15 0.369037 0.250000 0.500000
O O16 0.407712 0.477760 0.379855
O O17 0.791981 0.352098 0.250000
O O18 0.809919 0.250000 0.000000
#
# Coordination Sequence:
#
# PCOD8233058 Si02
#       7
#     8   8   8   4   8   8   4
#     4  10  20  36  57  83 115 150 191 236 285 338
#     4  11  22  38  59  85 118 155 198 244 292 344
#     4  10  21  38  58  82 111 143 183 228 276 328
#     4  10  20  38  54  80 106 146 172 230 263 326
#     4  10  21  37  57  79 111 144 179 224 272 324
#     4   9  20  37  57  81 111 145 183 230 279 333
#     4  10  22  34  56  80 110 136 186 212 277 320
#
# _framework density 18.981479
#
# number of rings (size 3 to 8) (size 9 to 14) (size 15 to 20)
#    0.000    2.000    0.833    3.500    1.167    4.000 
#    0.000    1.667    0.000    0.000    0.000    0.000 
#    0.000    0.000    0.000    0.000    0.000    0.000 
#
# Total GULP energy -594914.522885 kJ/mol
# GULP energy per Si atom -12394.052560 kJ/mol
# Density = 1.893828 g / cm^3
# Si number density = 18.981479 Si / 1000 Ang^3
#
#
#
# Elastic Constant Matrix: (Units=GPa)
#
#
# Indices 1 2 3 4 5 6 
#
# 1 78.5955 57.3715 25.8499 0.0000 0.0000 0.0000
# 2 57.3715 90.0535 28.4543 0.0000 0.0000 0.0000
# 3 25.8499 28.4543 101.7747 0.0000 0.0000 0.0000
# 4 0.0000 0.0000 0.0000 33.7514 0.0000 0.0000
# 5 0.0000 0.0000 0.0000 0.0000 34.1662 0.0000
# 6 0.0000 0.0000 0.0000 0.0000 0.0000 37.3773
#
#
#
# Elastic Compliance Matrix: (Units=1/GPa)
#
#
# Indices 1 2 3 4 5 6 
#
# 1 0.024153 -0.014752 -0.002010 0.000000 0.000000 0.000000
# 2 -0.014752 0.021191 -0.002178 0.000000 0.000000 0.000000
# 3 -0.002010 -0.002178 0.010945 0.000000 0.000000 0.000000
# 4 0.000000 0.000000 0.000000 0.029628 0.000000 0.000000
# 5 0.000000 0.000000 0.000000 0.000000 0.029269 0.000000
# 6 0.000000 0.000000 0.000000 0.000000 0.000000 0.026754
#
#
# Mechanical properties :
#
#
# Convention : Reuss Voigt Hill
#
# Bulk Modulus (GPa) = 54.32189 54.86390 54.59289
# Shear Modulus (GPa) = 26.88790 31.64219 29.26504
#
# Velocity S-wave (km/s) = 3.76777 4.08732 3.93080
# Velocity P-wave (km/s) = 6.89990 7.15833 7.03030
#
# Compressibility (1/GPa) = 0.01840878
#
# Stress axis : x y z
#
# Youngs Moduli (GPa) = 41.40245 47.18970 91.36571
#
# Poissons Ratio (x) = 0.69616 0.18366
# Poissons Ratio (y) = 0.61078 0.19896
# Poissons Ratio (z) = 0.08323 0.10276
#
# Static dielectric constant tensor:
#      x y z
#    x 3.417000 0.000000 0.000000 
#    y 0.000000 3.430240 0.000000 
#    z 0.000000 0.000000 3.698620 
# 
# 
# High freq. dielectric constant tensor:
#      x y z
#    x 1.732600 0.000000 0.000000 
#    y 0.000000 1.736100 0.000000 
#    z 0.000000 0.000000 1.755010 
# 
# From -- ./inp_files/10117.got.cif
#   From: 2010.03.12/outbox.cif.g09.slc.cpg/sg57_6_cif.got.tgz:10117.got - 2010.04.16 15:48:40.
