data_PCOD8233610
_publ_section_title
;
Structure prediction by ZEFSAII (Michael W. Deem and Ramdas Pophale) SiO2 
 PCOD8233610
Probable space group: P B C M
;
_chemical_formula_sum "Si O2"
_cell_formula_units_Z 64
_cell_length_a 11.919425
_cell_length_b 30.800362
_cell_length_c 8.736630
_cell_angle_alpha 90.000000
_cell_angle_beta 90.000000
_cell_angle_gamma 90.000000
_cell_volume 3207.414363
_symmetry_space_group_name_H-M "P B C M"
_symmetry_group_IT_number 57
_symmetry_cell_setting 'orthorhombic'
loop_
_space_group_symop_operation_xyz
x,y,z
-x,-y,1/2+z
x,1/2-y,-z
-x,1/2+y,1/2-z
-x,-y,-z
x,y,1/2-z
-x,1/2+y,z
x,1/2-y,1/2+z
loop_
_atom_site_type_symbol
_atom_site_label
_atom_site_fract_x
_atom_site_fract_y
_atom_site_fract_z
Si Si1 0.222838 0.452629 0.571388
Si Si2 0.006782 0.083532 0.574060
Si Si3 0.995532 0.175802 0.070894
Si Si4 0.381044 0.375871 0.568409
Si Si5 0.236877 0.949429 0.423776
Si Si6 0.759660 0.705145 0.069507
Si Si7 0.634210 0.126505 0.429519
Si Si8 0.230099 0.794667 0.430006
O O1 0.194468 0.445271 0.750000
O O2 0.110690 0.446133 0.474013
O O3 0.317486 0.419189 0.512511
O O4 0.269791 0.500857 0.541832
O O5 0.019018 0.098448 0.750000
O O6 0.000187 0.125115 0.465667
O O7 0.895643 0.055268 0.549175
O O8 0.971084 0.181661 0.250000
O O9 0.112089 0.197472 0.020339
O O10 0.899065 0.199559 0.976475
O O11 0.381521 0.374716 0.750000
O O12 0.316305 0.333809 0.502798
O O13 0.507709 0.375930 0.506002
O O14 0.267939 0.936427 0.250000
O O15 0.305830 0.919061 0.537839
O O16 0.747755 0.707094 0.250000
O O17 0.714997 0.750000 0.000000
O O18 0.637315 0.135830 0.250000
O O19 0.697300 0.165177 0.513352
O O20 0.277893 0.750000 0.500000
O O21 0.239168 0.791883 0.250000
#
# Coordination Sequence:
#
# PCOD8233610 Si02
#       8
#     8   8   8   8   8   8   8   8
#     4  10  20  39  63  85 118 161 200 244 300 361
#     4  11  21  34  56  90 126 156 193 246 299 357
#     4  11  21  37  63  90 119 161 198 235 296 361
#     4   9  20  40  61  84 114 155 204 251 294 350
#     4  10  22  38  59  88 122 158 196 246 303 354
#     4  10  21  38  60  87 119 151 192 238 291 351
#     4  11  23  40  63  86 116 158 204 249 297 351
#     4  12  25  42  63  90 124 156 197 246 296 355
#
# _framework density 19.953766999999999
#
# number of rings (size 3 to 8) (size 9 to 14) (size 15 to 20)
#    0.000    1.500    2.500    3.000    0.000    4.000 
#    0.000    3.750    0.000    0.000    0.000    0.000 
#    0.000    0.000    0.000    0.000    0.000    0.000 
#
# Total GULP energy -793899.968062 kJ/mol
# GULP energy per Si atom -12404.687001 kJ/mol
# Density = 1.990835 g / cm^3
# Si number density = 19.953767 Si / 1000 Ang^3
#
#
#
# Elastic Constant Matrix: (Units=GPa)
#
#
# Indices 1 2 3 4 5 6 
#
# 1 139.0666 62.2733 43.2389 0.0000 0.0000 0.0000
# 2 62.2733 151.7276 36.6478 0.0000 0.0000 0.0000
# 3 43.2389 36.6478 71.0611 0.0000 0.0000 0.0000
# 4 0.0000 0.0000 0.0000 32.5530 0.0000 0.0000
# 5 0.0000 0.0000 0.0000 0.0000 2.7214 0.0000
# 6 0.0000 0.0000 0.0000 0.0000 0.0000 -17.8687
#
#
#
# Elastic Compliance Matrix: (Units=1/GPa)
#
#
# Indices 1 2 3 4 5 6 
#
# 1 0.009928 -0.002988 -0.004500 0.000000 0.000000 0.000000
# 2 -0.002988 0.008428 -0.002528 0.000000 0.000000 0.000000
# 3 -0.004500 -0.002528 0.018114 0.000000 0.000000 0.000000
# 4 0.000000 0.000000 0.000000 0.030719 0.000000 0.000000
# 5 0.000000 0.000000 0.000000 0.000000 0.367458 0.000000
# 6 0.000000 0.000000 0.000000 0.000000 0.000000 -0.055964
#
#
# Mechanical properties :
#
#
# Convention : Reuss Voigt Hill
#
# Bulk Modulus (GPa) = 60.83549 71.79724 66.31637
# Shear Modulus (GPa) = 12.37027 18.12749 15.24888
#
# Velocity S-wave (km/s) = 2.49257 3.01736 2.76744
# Velocity P-wave (km/s) = 6.23204 6.94256 6.59688
#
# Compressibility (1/GPa) = 0.01643777
#
# Stress axis : x y z
#
# Youngs Moduli (GPa) = 100.72675 118.65614 55.20442
#
# Poissons Ratio (x) = 0.35452 0.24842
# Poissons Ratio (y) = 0.30095 0.13958
# Poissons Ratio (z) = 0.45327 0.30001
#
# Static dielectric constant tensor:
#      x y z
#    x 3.766300 0.000000 0.000000 
#    y 0.000000 3.764970 0.000000 
#    z 0.000000 0.000000 3.498400 
# 
# 
# High freq. dielectric constant tensor:
#      x y z
#    x 1.775720 0.000000 0.000000 
#    y 0.000000 1.792610 0.000000 
#    z 0.000000 0.000000 1.766400 
# 
# From -- ./inp_files/3840.got.cif
#   From: 2010.03.12/outbox.cif.g09.slc.cpg/sg57_2_cif.got.tgz:3840.got - 2010.04.16 15:48:40.
