data_PCOD8233105
_publ_section_title
;
Structure prediction by ZEFSAII (Michael W. Deem and Ramdas Pophale) SiO2 
 PCOD8233105
Probable space group: P B C M
;
_chemical_formula_sum "Si O2"
_cell_formula_units_Z 64
_cell_length_a 20.740616
_cell_length_b 8.825291
_cell_length_c 16.881773
_cell_angle_alpha 90.000000
_cell_angle_beta 90.000000
_cell_angle_gamma 90.000000
_cell_volume 3090.073016
_symmetry_space_group_name_H-M "P B C M"
_symmetry_group_IT_number 57
_symmetry_cell_setting 'orthorhombic'
loop_
_space_group_symop_operation_xyz
x,y,z
-x,-y,1/2+z
x,1/2-y,-z
-x,1/2+y,1/2-z
-x,-y,-z
x,y,1/2-z
-x,1/2+y,z
x,1/2-y,1/2+z
loop_
_atom_site_type_symbol
_atom_site_label
_atom_site_fract_x
_atom_site_fract_y
_atom_site_fract_z
Si Si1 0.064294 0.366076 0.341222
Si Si2 0.823390 0.812768 0.585667
Si Si3 0.561449 0.831509 0.342126
Si Si4 0.562361 0.335116 0.657418
Si Si5 0.821767 0.169515 0.915259
Si Si6 0.323006 0.176967 0.083126
Si Si7 0.052334 0.809592 0.590796
Si Si8 0.319954 0.676229 0.585261
O O1 0.060827 0.420081 0.250000
O O2 0.131298 0.275590 0.352839
O O3 0.056245 0.508175 0.401169
O O4 0.007799 0.247400 0.358911
O O5 0.840284 0.750000 0.500000
O O6 0.749391 0.778547 0.609560
O O7 0.836442 0.991420 0.581874
O O8 0.548196 0.848893 0.250000
O O9 0.499589 0.748233 0.381435
O O10 0.627118 0.738240 0.352476
O O11 0.568019 0.997980 0.381091
O O12 0.551168 0.349852 0.750000
O O13 0.627974 0.243748 0.644369
O O14 0.881674 0.244877 0.868903
O O15 0.751565 0.202143 0.876805
O O16 0.820358 0.250000 0.000000
O O17 0.332131 0.999699 0.074454
O O18 0.341246 0.250000 0.000000
O O19 0.046326 0.750000 0.500000
O O20 0.327153 0.750000 0.500000
#
# Coordination Sequence:
#
# PCOD8233105 Si02
#       8
#     8   8   8   8   8   8   8   8
#     4  12  25  40  60  91 125 155 195 252 304 349
#     4  10  20  38  62  86 115 153 194 236 286 352
#     4  10  21  37  57  79 110 147 188 234 284 341
#     4  10  21  37  56  80 109 147 189 232 282 344
#     4   9  19  36  60  87 112 145 192 238 280 336
#     4  10  21  36  58  86 115 147 188 235 283 336
#     4  11  22  40  64  87 116 159 204 242 291 361
#     4  10  20  36  58  84 114 145 183 235 284 331
#
# _framework density 20.711483999999999
#
# number of rings (size 3 to 8) (size 9 to 14) (size 15 to 20)
#    0.000    1.750    0.000    4.875    0.000    5.500 
#    0.000    7.500    0.000    0.000    0.000    0.000 
#    0.000    0.000    0.000    0.000    0.000    0.000 
#
# Total GULP energy -793406.196660 kJ/mol
# GULP energy per Si atom -12396.971823 kJ/mol
# Density = 2.066434 g / cm^3
# Si number density = 20.711484 Si / 1000 Ang^3
#
#
#
# Elastic Constant Matrix: (Units=GPa)
#
#
# Indices 1 2 3 4 5 6 
#
# 1 160.0887 68.8147 24.9527 0.0000 0.0000 0.0000
# 2 68.8147 139.1741 26.0608 0.0000 0.0000 0.0000
# 3 24.9527 26.0608 46.8446 0.0000 0.0000 0.0000
# 4 0.0000 0.0000 0.0000 26.3988 0.0000 0.0000
# 5 0.0000 0.0000 0.0000 0.0000 73.0086 0.0000
# 6 0.0000 0.0000 0.0000 0.0000 0.0000 45.6689
#
#
#
# Elastic Compliance Matrix: (Units=1/GPa)
#
#
# Indices 1 2 3 4 5 6 
#
# 1 0.008157 -0.003594 -0.002346 0.000000 0.000000 0.000000
# 2 -0.003594 0.009604 -0.003429 0.000000 0.000000 0.000000
# 3 -0.002346 -0.003429 0.024504 0.000000 0.000000 0.000000
# 4 0.000000 0.000000 0.000000 0.037880 0.000000 0.000000
# 5 0.000000 0.000000 0.000000 0.000000 0.013697 0.000000
# 6 0.000000 0.000000 0.000000 0.000000 0.000000 0.021897
#
#
# Mechanical properties :
#
#
# Convention : Reuss Voigt Hill
#
# Bulk Modulus (GPa) = 42.50099 65.08486 53.79292
# Shear Modulus (GPa) = 35.13228 44.10054 39.61641
#
# Velocity S-wave (km/s) = 4.12305 4.61942 4.37827
# Velocity P-wave (km/s) = 6.57503 7.74240 7.18247
#
# Compressibility (1/GPa) = 0.02352887
#
# Stress axis : x y z
#
# Youngs Moduli (GPa) = 122.59336 104.11951 40.80955
#
# Poissons Ratio (x) = 0.37421 0.09572
# Poissons Ratio (y) = 0.44061 0.13992
# Poissons Ratio (z) = 0.28755 0.35699
#
# Static dielectric constant tensor:
#      x y z
#    x 4.240130 0.000000 0.000000 
#    y 0.000000 3.934110 0.000000 
#    z 0.000000 0.000000 3.264340 
# 
# 
# High freq. dielectric constant tensor:
#      x y z
#    x 1.834160 0.000000 0.000000 
#    y 0.000000 1.829500 0.000000 
#    z 0.000000 0.000000 1.767910 
# 
# From -- ./inp_files/23065.got.cif
#   From: 2010.03.12/outbox.cif.g09.slc.cpg/sg57_12_cif.got.tgz:23065.got - 2010.04.16 15:48:40.
