data_PCOD8233495
_publ_section_title
;
Structure prediction by ZEFSAII (Michael W. Deem and Ramdas Pophale) SiO2 
 PCOD8233495
Probable space group: P B C M
;
_chemical_formula_sum "Si O2"
_cell_formula_units_Z 64
_cell_length_a 20.106302
_cell_length_b 8.966407
_cell_length_c 17.624887
_cell_angle_alpha 90.000000
_cell_angle_beta 90.000000
_cell_angle_gamma 90.000000
_cell_volume 3177.437312
_symmetry_space_group_name_H-M "P B C M"
_symmetry_group_IT_number 57
_symmetry_cell_setting 'orthorhombic'
loop_
_space_group_symop_operation_xyz
x,y,z
-x,-y,1/2+z
x,1/2-y,-z
-x,1/2+y,1/2-z
-x,-y,-z
x,y,1/2-z
-x,1/2+y,z
x,1/2-y,1/2+z
loop_
_atom_site_type_symbol
_atom_site_label
_atom_site_fract_x
_atom_site_fract_y
_atom_site_fract_z
Si Si1 0.047350 0.100833 0.336541
Si Si2 0.825692 0.831437 0.576055
Si Si3 0.570354 0.918365 0.338968
Si Si4 0.542373 0.266706 0.588975
Si Si5 0.791144 0.327508 0.077412
Si Si6 0.302408 0.232389 0.163559
Si Si7 0.080920 0.739571 0.662547
Si Si8 0.337559 0.603173 0.662458
O O1 0.047634 0.152229 0.250000
O O2 0.109644 0.186496 0.372092
O O3 0.976219 0.151938 0.370776
O O4 0.053070 0.925876 0.347161
O O5 0.844767 0.750000 0.500000
O O6 0.762670 0.747125 0.612539
O O7 0.809929 0.003001 0.560236
O O8 0.560592 0.954437 0.250000
O O9 0.520913 0.786758 0.363112
O O10 0.645273 0.862625 0.355557
O O11 0.556706 0.062587 0.389763
O O12 0.527513 0.250000 0.500000
O O13 0.604895 0.165379 0.609577
O O14 0.853083 0.237372 0.112739
O O15 0.731781 0.321799 0.138179
O O16 0.768017 0.250000 0.000000
O O17 0.278270 0.241285 0.250000
O O18 0.337067 0.073491 0.149108
O O19 0.098983 0.773308 0.750000
O O20 0.351016 0.644758 0.750000
#
# Coordination Sequence:
#
# PCOD8233495 Si02
#       8
#     8   8   8   8   8   8   8   8
#     4   9  18  34  55  77 104 138 182 227 270 324
#     4  10  21  35  54  79 110 145 179 221 277 335
#     4  11  23  41  63  87 116 154 196 235 279 340
#     4  12  25  40  60  89 122 153 188 237 290 337
#     4  10  21  36  54  79 111 145 182 228 279 333
#     4   9  20  38  61  84 108 143 188 233 277 328
#     4   9  18  34  55  78 103 139 183 228 275 328
#     4  10  20  38  61  83 110 149 192 233 280 339
#
# _framework density 20.142016999999999
#
# number of rings (size 3 to 8) (size 9 to 14) (size 15 to 20)
#    0.000    2.000    0.000    3.375    0.000    9.000 
#    0.000    2.500    0.000    6.000    0.000    0.000 
#    0.000    0.000    0.000    0.000    0.000    0.000 
#
# Total GULP energy -793805.227046 kJ/mol
# GULP energy per Si atom -12403.206673 kJ/mol
# Density = 2.009617 g / cm^3
# Si number density = 20.142017 Si / 1000 Ang^3
#
#
#
# Elastic Constant Matrix: (Units=GPa)
#
#
# Indices 1 2 3 4 5 6 
#
# 1 51.5952 4.5451 24.5792 0.0000 0.0000 0.0000
# 2 4.5451 39.7719 32.2739 0.0000 0.0000 0.0000
# 3 24.5792 32.2739 71.6886 0.0000 0.0000 0.0000
# 4 0.0000 0.0000 0.0000 29.4172 0.0000 0.0000
# 5 0.0000 0.0000 0.0000 0.0000 22.6648 0.0000
# 6 0.0000 0.0000 0.0000 0.0000 0.0000 30.2962
#
#
#
# Elastic Compliance Matrix: (Units=1/GPa)
#
#
# Indices 1 2 3 4 5 6 
#
# 1 0.024106 0.006227 -0.011068 0.000000 0.000000 0.000000
# 2 0.006227 0.041224 -0.020694 0.000000 0.000000 0.000000
# 3 -0.011068 -0.020694 0.027060 0.000000 0.000000 0.000000
# 4 0.000000 0.000000 0.000000 0.033994 0.000000 0.000000
# 5 0.000000 0.000000 0.000000 0.000000 0.044121 0.000000
# 6 0.000000 0.000000 0.000000 0.000000 0.000000 0.033007
#
#
# Mechanical properties :
#
#
# Convention : Reuss Voigt Hill
#
# Bulk Modulus (GPa) = 24.20148 31.76135 27.98142
# Shear Modulus (GPa) = 18.63191 23.25281 20.94236
#
# Velocity S-wave (km/s) = 3.04473 3.40140 3.22799
# Velocity P-wave (km/s) = 4.93984 5.58828 5.27404
#
# Compressibility (1/GPa) = 0.04131979
#
# Stress axis : x y z
#
# Youngs Moduli (GPa) = 41.48381 24.25752 36.95447
#
# Poissons Ratio (x) = -0.15104 0.40902
# Poissons Ratio (y) = -0.25831 0.76473
# Poissons Ratio (z) = 0.45915 0.50198
#
# Static dielectric constant tensor:
#      x y z
#    x 3.823760 0.000000 0.000000 
#    y 0.000000 3.546650 0.000000 
#    z 0.000000 0.000000 3.607920 
# 
# 
# High freq. dielectric constant tensor:
#      x y z
#    x 1.799160 0.000000 0.000000 
#    y 0.000000 1.779450 0.000000 
#    z 0.000000 0.000000 1.784870 
# 
# From -- ./inp_files/23064.got.cif
#   From: 2010.03.12/outbox.cif.g09.slc.cpg/sg57_12_cif.got.tgz:23064.got - 2010.04.16 15:48:40.
