data_PCOD8233896
_publ_section_title
;
Structure prediction by ZEFSAII (Michael W. Deem and Ramdas Pophale) SiO2 
 PCOD8233896
Probable space group: P B C M
;
_chemical_formula_sum "Si O2"
_cell_formula_units_Z 48
_cell_length_a 14.807495
_cell_length_b 19.430110
_cell_length_c 8.848312
_cell_angle_alpha 90.000000
_cell_angle_beta 90.000000
_cell_angle_gamma 90.000000
_cell_volume 2545.758965
_symmetry_space_group_name_H-M "P B C M"
_symmetry_group_IT_number 57
_symmetry_cell_setting 'orthorhombic'
loop_
_space_group_symop_operation_xyz
x,y,z
-x,-y,1/2+z
x,1/2-y,-z
-x,1/2+y,1/2-z
-x,-y,-z
x,y,1/2-z
-x,1/2+y,z
x,1/2-y,1/2+z
loop_
_atom_site_type_symbol
_atom_site_label
_atom_site_fract_x
_atom_site_fract_y
_atom_site_fract_z
Si Si1 0.361105 0.321340 0.072377
Si Si2 0.727738 0.412059 0.429040
Si Si3 0.565117 0.321041 0.428093
Si Si4 0.759117 0.935342 0.923990
Si Si5 0.101771 0.825015 0.070024
Si Si6 0.029822 0.070779 0.424921
O O1 0.355430 0.312460 0.250000
O O2 0.463438 0.339011 0.019999
O O3 0.328243 0.250000 0.000000
O O4 0.296586 0.381924 0.021782
O O5 0.734243 0.414981 0.250000
O O6 0.632111 0.381202 0.484611
O O7 0.737893 0.489179 0.492211
O O8 0.809285 0.364779 0.488837
O O9 0.598454 0.250000 0.500000
O O10 0.571886 0.312197 0.250000
O O11 0.728571 0.929877 0.750000
O O12 0.863849 0.918950 0.942160
O O13 0.097684 0.820066 0.250000
O O14 0.102376 0.750000 0.000000
O O15 0.014622 0.865384 0.010691
O O16 0.000786 0.069659 0.250000
O O17 0.000000 0.000000 0.500000
#
# Coordination Sequence:
#
# PCOD8233896 Si02
#       6
#     8   8   8   8   8   8
#     4  10  21  37  57  83 111 146 189 236 281 330
#     4   9  18  35  57  82 115 151 184 226 282 339
#     4   9  18  34  56  80 112 149 187 229 279 332
#     4  10  21  38  59  82 111 150 186 226 284 340
#     4  11  22  38  59  87 118 152 192 236 284 337
#     4  11  22  39  61  84 112 151 191 232 286 343
#
# _framework density 18.854887999999999
#
# number of rings (size 3 to 8) (size 9 to 14) (size 15 to 20)
#    0.000    2.000    1.667    2.000    0.000    3.333 
#    0.000    1.667    0.000    0.000    0.000    0.000 
#    0.000    0.000    0.000    0.000    0.000    0.000 
#
# Total GULP energy -595316.599894 kJ/mol
# GULP energy per Si atom -12402.429164 kJ/mol
# Density = 1.881197 g / cm^3
# Si number density = 18.854888 Si / 1000 Ang^3
#
#
#
# Elastic Constant Matrix: (Units=GPa)
#
#
# Indices 1 2 3 4 5 6 
#
# 1 98.6263 75.7702 38.5919 0.0000 0.0000 0.0000
# 2 75.7702 173.5066 49.2714 0.0000 0.0000 0.0000
# 3 38.5919 49.2714 67.2541 0.0000 0.0000 0.0000
# 4 0.0000 0.0000 0.0000 36.0805 0.0000 0.0000
# 5 0.0000 0.0000 0.0000 0.0000 23.1978 0.0000
# 6 0.0000 0.0000 0.0000 0.0000 0.0000 37.7872
#
#
#
# Elastic Compliance Matrix: (Units=1/GPa)
#
#
# Indices 1 2 3 4 5 6 
#
# 1 0.016649 -0.005755 -0.005337 0.000000 0.000000 0.000000
# 2 -0.005755 0.009267 -0.003487 0.000000 0.000000 0.000000
# 3 -0.005337 -0.003487 0.020486 0.000000 0.000000 0.000000
# 4 0.000000 0.000000 0.000000 0.027716 0.000000 0.000000
# 5 0.000000 0.000000 0.000000 0.000000 0.043108 0.000000
# 6 0.000000 0.000000 0.000000 0.000000 0.000000 0.026464
#
#
# Mechanical properties :
#
#
# Convention : Reuss Voigt Hill
#
# Bulk Modulus (GPa) = 57.99170 74.07267 66.03218
# Shear Modulus (GPa) = 27.99625 31.13000 29.56313
#
# Velocity S-wave (km/s) = 3.85753 4.06770 3.96400
# Velocity P-wave (km/s) = 7.11789 7.83789 7.48655
#
# Compressibility (1/GPa) = 0.01724385
#
# Stress axis : x y z
#
# Youngs Moduli (GPa) = 60.06349 107.91243 48.81353
#
# Poissons Ratio (x) = 0.62103 0.26054
# Poissons Ratio (y) = 0.34566 0.17020
# Poissons Ratio (z) = 0.32059 0.37626
#
# Static dielectric constant tensor:
#      x y z
#    x 3.710390 0.000000 0.000000 
#    y 0.000000 3.577310 0.000000 
#    z 0.000000 0.000000 3.410840 
# 
# 
# High freq. dielectric constant tensor:
#      x y z
#    x 1.740740 0.000000 0.000000 
#    y 0.000000 1.740000 0.000000 
#    z 0.000000 0.000000 1.722540 
# 
# From -- ./inp_files/4612.got.cif
#   From: 2010.03.12/outbox.cif.g09.slc.cpg/sg57_3_cif.got.tgz:4612.got - 2010.04.16 15:48:40.
