data_PCOD8233502
_publ_section_title
;
Structure prediction by ZEFSAII (Michael W. Deem and Ramdas Pophale) SiO2 
 PCOD8233502
Probable space group: P B C M
;
_chemical_formula_sum "Si O2"
_cell_formula_units_Z 48
_cell_length_a 29.974455
_cell_length_b 9.509325
_cell_length_c 8.747981
_cell_angle_alpha 90.000000
_cell_angle_beta 90.000000
_cell_angle_gamma 90.000000
_cell_volume 2493.496811
_symmetry_space_group_name_H-M "P B C M"
_symmetry_group_IT_number 57
_symmetry_cell_setting 'orthorhombic'
loop_
_space_group_symop_operation_xyz
x,y,z
-x,-y,1/2+z
x,1/2-y,-z
-x,1/2+y,1/2-z
-x,-y,-z
x,y,1/2-z
-x,1/2+y,z
x,1/2-y,1/2+z
loop_
_atom_site_type_symbol
_atom_site_label
_atom_site_fract_x
_atom_site_fract_y
_atom_site_fract_z
Si Si1 0.282289 0.897842 0.931479
Si Si2 0.136523 0.597876 0.071947
Si Si3 0.616259 0.105727 0.428412
Si Si4 0.964942 0.398572 0.574521
Si Si5 0.538307 0.904279 0.069256
Si Si6 0.790031 0.595999 0.431557
O O1 0.276049 0.895579 0.750000
O O2 0.333325 0.925489 0.982156
O O3 0.265311 0.750000 0.000000
O O4 0.254091 0.022547 0.004003
O O5 0.150026 0.603412 0.250000
O O6 0.085564 0.547939 0.049855
O O7 0.144759 0.750000 0.000000
O O8 0.166056 0.486237 0.982862
O O9 0.597714 0.250000 0.500000
O O10 0.614496 0.130686 0.250000
O O11 0.585512 0.974690 0.476781
O O12 0.971832 0.250000 0.500000
O O13 0.976873 0.384042 0.750000
O O14 0.000000 0.500000 0.500000
O O15 0.531988 0.894706 0.250000
O O16 0.536410 0.750000 0.000000
O O17 0.500000 0.000000 0.000000
O O18 0.792644 0.750000 0.500000
O O19 0.787688 0.603119 0.250000
#
# Coordination Sequence:
#
# PCOD8233502 Si02
#       6
#     8   8   8   8   8   8
#     4  10  20  38  61  86 115 150 189 230 276 333
#     4  10  21  39  61  85 112 148 190 232 277 333
#     4   9  20  37  59  85 114 147 187 231 278 331
#     4  10  21  37  59  85 115 149 188 231 279 332
#     4  11  23  39  58  84 115 151 191 234 283 336
#     4  12  25  40  58  83 114 149 187 234 285 335
#
# _framework density 19.250074999999999
#
# number of rings (size 3 to 8) (size 9 to 14) (size 15 to 20)
#    0.000    1.667    0.000    4.500    0.000    6.667 
#    0.000    1.667    0.000    0.000    0.000    0.000 
#    0.000    0.000    0.000    0.000    0.000    0.000 
#
# Total GULP energy -595356.964938 kJ/mol
# GULP energy per Si atom -12403.270103 kJ/mol
# Density = 1.920626 g / cm^3
# Si number density = 19.250075 Si / 1000 Ang^3
#
#
#
# Elastic Constant Matrix: (Units=GPa)
#
#
# Indices 1 2 3 4 5 6 
#
# 1 114.6173 76.9112 64.0514 0.0000 0.0000 0.0000
# 2 76.9112 142.4265 72.2740 0.0000 0.0000 0.0000
# 3 64.0514 72.2740 132.7053 0.0000 0.0000 0.0000
# 4 0.0000 0.0000 0.0000 40.7573 0.0000 0.0000
# 5 0.0000 0.0000 0.0000 0.0000 31.7879 0.0000
# 6 0.0000 0.0000 0.0000 0.0000 0.0000 82.0487
#
#
#
# Elastic Compliance Matrix: (Units=1/GPa)
#
#
# Indices 1 2 3 4 5 6 
#
# 1 0.015023 -0.006126 -0.003915 0.000000 0.000000 0.000000
# 2 -0.006126 0.012201 -0.003688 0.000000 0.000000 0.000000
# 3 -0.003915 -0.003688 0.011433 0.000000 0.000000 0.000000
# 4 0.000000 0.000000 0.000000 0.024535 0.000000 0.000000
# 5 0.000000 0.000000 0.000000 0.000000 0.031458 0.000000
# 6 0.000000 0.000000 0.000000 0.000000 0.000000 0.012188
#
#
# Mechanical properties :
#
#
# Convention : Reuss Voigt Hill
#
# Bulk Modulus (GPa) = 89.28637 90.69140 89.98888
# Shear Modulus (GPa) = 36.22409 42.68629 39.45519
#
# Velocity S-wave (km/s) = 4.34264 4.71410 4.53218
# Velocity P-wave (km/s) = 8.46331 8.76612 8.61605
#
# Compressibility (1/GPa) = 0.01119992
#
# Stress axis : x y z
#
# Youngs Moduli (GPa) = 66.56435 81.96232 87.46261
#
# Poissons Ratio (x) = 0.50211 0.34238
# Poissons Ratio (y) = 0.40778 0.32256
# Poissons Ratio (z) = 0.26057 0.30227
#
# Static dielectric constant tensor:
#      x y z
#    x 3.839480 0.000000 0.000000 
#    y 0.000000 2.977340 0.000000 
#    z 0.000000 0.000000 3.695490 
# 
# 
# High freq. dielectric constant tensor:
#      x y z
#    x 1.763230 0.000000 0.000000 
#    y 0.000000 1.750250 0.000000 
#    z 0.000000 0.000000 1.765490 
# 
# From -- ./inp_files/10064.got.cif
#   From: 2010.03.12/outbox.cif.g09.slc.cpg/sg57_6_cif.got.tgz:10064.got - 2010.04.16 15:48:40.
