data_PCOD8233957
_publ_section_title
;
Structure prediction by ZEFSAII (Michael W. Deem and Ramdas Pophale) SiO2 
 PCOD8233957
Probable space group: P B C M
;
_chemical_formula_sum "Si O2"
_cell_formula_units_Z 40
_cell_length_a 25.395378
_cell_length_b 9.147354
_cell_length_c 8.534041
_cell_angle_alpha 90.000000
_cell_angle_beta 90.000000
_cell_angle_gamma 90.000000
_cell_volume 1982.462098
_symmetry_space_group_name_H-M "P B C M"
_symmetry_group_IT_number 57
_symmetry_cell_setting 'orthorhombic'
loop_
_space_group_symop_operation_xyz
x,y,z
-x,-y,1/2+z
x,1/2-y,-z
-x,1/2+y,1/2-z
-x,-y,-z
x,y,1/2-z
-x,1/2+y,z
x,1/2-y,1/2+z
loop_
_atom_site_type_symbol
_atom_site_label
_atom_site_fract_x
_atom_site_fract_y
_atom_site_fract_z
Si Si1 0.242336 0.588015 0.564808
Si Si2 0.453828 0.406311 0.068185
Si Si3 0.049069 0.587998 0.935395
Si Si4 0.664565 0.588311 0.565114
Si Si5 0.146494 0.087742 0.564486
O O1 0.233116 0.750000 0.500000
O O2 0.233312 0.588305 0.750000
O O3 0.300419 0.531941 0.522556
O O4 0.202868 0.475439 0.482741
O O5 0.461639 0.398378 0.250000
O O6 0.395097 0.462005 0.026451
O O7 0.462721 0.250000 0.000000
O O8 0.500000 0.500000 0.000000
O O9 0.046596 0.591500 0.750000
O O10 0.046459 0.750000 0.000000
O O11 0.102766 0.514795 0.989534
O O12 0.000000 0.500000 0.000000
O O13 0.676365 0.750000 0.500000
O O14 0.676247 0.587914 0.750000
O O15 0.139853 0.250000 0.500000
O O16 0.140110 0.089762 0.750000
#
# Coordination Sequence:
#
# PCOD8233957 Si02
#       5
#     8   8   8   8   8
#     4  12  25  42  63  90 122 159 200 249 302 359
#     4  10  21  37  59  85 117 154 197 244 297 355
#     4  12  25  44  67  96 130 168 210 256 307 362
#     4  10  21  39  61  87 117 155 198 245 297 357
#     4  12  25  44  67  94 126 164 206 252 303 361
#
# _framework density 20.176929999999999
#
# number of rings (size 3 to 8) (size 9 to 14) (size 15 to 20)
#    0.000    0.800    0.000    8.400    0.000    3.200 
#    0.000    0.000    0.000    0.000    0.000    0.000 
#    0.000    0.000    0.000    0.000    0.000    0.000 
#
# Total GULP energy -496165.572607 kJ/mol
# GULP energy per Si atom -12404.139315 kJ/mol
# Density = 2.013101 g / cm^3
# Si number density = 20.176930 Si / 1000 Ang^3
#
#
#
# Elastic Constant Matrix: (Units=GPa)
#
#
# Indices 1 2 3 4 5 6 
#
# 1 127.8925 65.5439 56.0961 0.0000 0.0000 0.0000
# 2 65.5439 127.0284 87.2584 0.0000 0.0000 0.0000
# 3 56.0961 87.2584 129.0493 0.0000 0.0000 0.0000
# 4 0.0000 0.0000 0.0000 43.2479 0.0000 0.0000
# 5 0.0000 0.0000 0.0000 0.0000 41.9852 0.0000
# 6 0.0000 0.0000 0.0000 0.0000 0.0000 48.5287
#
#
#
# Elastic Compliance Matrix: (Units=1/GPa)
#
#
# Indices 1 2 3 4 5 6 
#
# 1 0.010834 -0.004398 -0.001736 0.000000 0.000000 0.000000
# 2 -0.004398 0.016485 -0.009235 0.000000 0.000000 0.000000
# 3 -0.001736 -0.009235 0.014748 0.000000 0.000000 0.000000
# 4 0.000000 0.000000 0.000000 0.023123 0.000000 0.000000
# 5 0.000000 0.000000 0.000000 0.000000 0.023818 0.000000
# 6 0.000000 0.000000 0.000000 0.000000 0.000000 0.020606
#
#
# Mechanical properties :
#
#
# Convention : Reuss Voigt Hill
#
# Bulk Modulus (GPa) = 88.26155 89.08522 88.67339
# Shear Modulus (GPa) = 34.69136 38.42381 36.55759
#
# Velocity S-wave (km/s) = 4.15101 4.36861 4.26120
# Velocity P-wave (km/s) = 8.17394 8.34831 8.26158
#
# Compressibility (1/GPa) = 0.01132996
#
# Stress axis : x y z
#
# Youngs Moduli (GPa) = 92.29915 60.66074 67.80649
#
# Poissons Ratio (x) = 0.26678 0.11770
# Poissons Ratio (y) = 0.40592 0.62619
# Poissons Ratio (z) = 0.16022 0.56020
#
# Static dielectric constant tensor:
#      x y z
#    x 4.127090 0.000000 0.000000 
#    y 0.000000 3.041680 0.000000 
#    z 0.000000 0.000000 3.952650 
# 
# 
# High freq. dielectric constant tensor:
#      x y z
#    x 1.808370 0.000000 0.000000 
#    y 0.000000 1.796430 0.000000 
#    z 0.000000 0.000000 1.812750 
# 
# From -- ./inp_files/8884.got.cif
#   From: 2010.03.12/outbox.cif.g09.slc.cpg/sg57_5_cif.got.tgz:8884.got - 2010.04.16 15:48:40.
