data_PCOD8233681
_publ_section_title
;
Structure prediction by ZEFSAII (Michael W. Deem and Ramdas Pophale) SiO2 
 PCOD8233681
Probable space group: P B C M
;
_chemical_formula_sum "Si O2"
_cell_formula_units_Z 40
_cell_length_a 8.292553
_cell_length_b 8.796586
_cell_length_c 26.108714
_cell_angle_alpha 90.000000
_cell_angle_beta 90.000000
_cell_angle_gamma 90.000000
_cell_volume 1904.530315
_symmetry_space_group_name_H-M "P B C M"
_symmetry_group_IT_number 57
_symmetry_cell_setting 'orthorhombic'
loop_
_space_group_symop_operation_xyz
x,y,z
-x,-y,1/2+z
x,1/2-y,-z
-x,1/2+y,1/2-z
-x,-y,-z
x,y,1/2-z
-x,1/2+y,z
x,1/2-y,1/2+z
loop_
_atom_site_type_symbol
_atom_site_label
_atom_site_fract_x
_atom_site_fract_y
_atom_site_fract_z
Si Si1 0.703579 0.753501 0.192494
Si Si2 0.594343 0.058485 0.846768
Si Si3 0.180920 0.728092 0.098998
Si Si4 0.125627 0.394207 0.102291
Si Si5 0.413237 0.980795 0.553405
O O1 0.765053 0.783653 0.250000
O O2 0.656317 0.577480 0.188328
O O3 0.845764 0.793221 0.152842
O O4 0.553018 0.862506 0.181506
O O5 0.545084 0.988224 0.901779
O O6 0.737264 0.180583 0.854417
O O7 0.104377 0.570025 0.119789
O O8 0.320162 0.683661 0.057039
O O9 0.036900 0.830949 0.075053
O O10 0.277873 0.386082 0.062614
O O11 0.500000 0.000000 0.500000
#
# Coordination Sequence:
#
# PCOD8233681 Si02
#       5
#     8   8   8   8   8
#     4  11  21  38  62  95 131 175 226 272 332 399
#     4  11  20  39  63  93 133 171 220 281 321 389
#     4  10  20  40  67  91 134 170 213 279 337 384
#     4   9  21  40  64  94 133 170 214 284 330 391
#     4   9  21  39  67  96 126 178 220 268 332 406
#
# _framework density 21.002554
#
# number of rings (size 3 to 8) (size 9 to 14) (size 15 to 20)
#    1.200    0.800    2.000    1.800    0.000    0.800 
#    0.000    7.000    4.400    0.000    0.000    0.000 
#    0.000    0.000    0.000    0.000    0.000    0.000 
#
# Total GULP energy -495658.964236 kJ/mol
# GULP energy per Si atom -12391.474106 kJ/mol
# Density = 2.095475 g / cm^3
# Si number density = 21.002554 Si / 1000 Ang^3
#
#
#
# Elastic Constant Matrix: (Units=GPa)
#
#
# Indices 1 2 3 4 5 6 
#
# 1 88.3202 34.6613 35.9696 0.0000 0.0000 0.0000
# 2 34.6613 109.3101 27.9650 0.0000 0.0000 0.0000
# 3 35.9696 27.9650 119.0239 0.0000 0.0000 0.0000
# 4 0.0000 0.0000 0.0000 22.9355 0.0000 0.0000
# 5 0.0000 0.0000 0.0000 0.0000 17.1274 0.0000
# 6 0.0000 0.0000 0.0000 0.0000 0.0000 53.4790
#
#
#
# Elastic Compliance Matrix: (Units=1/GPa)
#
#
# Indices 1 2 3 4 5 6 
#
# 1 0.014132 -0.003605 -0.003424 0.000000 0.000000 0.000000
# 2 -0.003605 0.010653 -0.001413 0.000000 0.000000 0.000000
# 3 -0.003424 -0.001413 0.009768 0.000000 0.000000 0.000000
# 4 0.000000 0.000000 0.000000 0.043600 0.000000 0.000000
# 5 0.000000 0.000000 0.000000 0.000000 0.058386 0.000000
# 6 0.000000 0.000000 0.000000 0.000000 0.000000 0.018699
#
#
# Mechanical properties :
#
#
# Convention : Reuss Voigt Hill
#
# Bulk Modulus (GPa) = 56.59752 57.09400 56.84576
# Shear Modulus (GPa) = 28.08796 33.24561 30.66678
#
# Velocity S-wave (km/s) = 3.66096 3.98292 3.82533
# Velocity P-wave (km/s) = 6.69900 6.95664 6.82904
#
# Compressibility (1/GPa) = 0.01766862
#
# Stress axis : x y z
#
# Youngs Moduli (GPa) = 70.76346 93.86979 102.37088
#
# Poissons Ratio (x) = 0.33841 0.35048
# Poissons Ratio (y) = 0.25511 0.14470
# Poissons Ratio (z) = 0.24227 0.13268
#
# Static dielectric constant tensor:
#      x y z
#    x 3.858810 0.000000 0.000000 
#    y 0.000000 3.899470 0.000000 
#    z 0.000000 0.000000 3.415020 
# 
# 
# High freq. dielectric constant tensor:
#      x y z
#    x 1.823220 0.000000 0.000000 
#    y 0.000000 1.833530 0.000000 
#    z 0.000000 0.000000 1.779610 
# 
# From -- ./inp_files/28247.got.cif
#   From: 2010.03.12/outbox.cif.g09.slc.cpg/sg57_15_cif.got.tgz:28247.got - 2010.04.16 15:48:40.
