data_PCOD8233973
_publ_section_title
;
Structure prediction by ZEFSAII (Michael W. Deem and Ramdas Pophale) SiO2 
 PCOD8233973
Probable space group: P B C M
;
_chemical_formula_sum "Si O2"
_cell_formula_units_Z 64
_cell_length_a 11.930663
_cell_length_b 30.825114
_cell_length_c 8.802061
_cell_angle_alpha 90.000000
_cell_angle_beta 90.000000
_cell_angle_gamma 90.000000
_cell_volume 3237.081576
_symmetry_space_group_name_H-M "P B C M"
_symmetry_group_IT_number 57
_symmetry_cell_setting 'orthorhombic'
loop_
_space_group_symop_operation_xyz
x,y,z
-x,-y,1/2+z
x,1/2-y,-z
-x,1/2+y,1/2-z
-x,-y,-z
x,y,1/2-z
-x,1/2+y,z
x,1/2-y,1/2+z
loop_
_atom_site_type_symbol
_atom_site_label
_atom_site_fract_x
_atom_site_fract_y
_atom_site_fract_z
Si Si1 0.491061 0.077074 0.070846
Si Si2 0.269234 0.046807 0.571395
Si Si3 0.266614 0.550242 0.428672
Si Si4 0.498628 0.667665 0.575675
Si Si5 0.265414 0.205475 0.575879
Si Si6 0.882196 0.128719 0.429751
Si Si7 0.739939 0.204225 0.928867
Si Si8 0.860150 0.874811 0.571217
O O1 0.476477 0.069679 0.250000
O O2 0.610118 0.060664 0.005812
O O3 0.397220 0.050342 0.981804
O O4 0.477573 0.127731 0.035043
O O5 0.262754 0.056098 0.750000
O O6 0.189842 0.079996 0.485219
O O7 0.227840 0.998313 0.528770
O O8 0.275263 0.555627 0.250000
O O9 0.176999 0.584849 0.492032
O O10 0.489017 0.651371 0.750000
O O11 0.600846 0.701072 0.557378
O O12 0.385734 0.691349 0.521805
O O13 0.225100 0.250000 0.500000
O O14 0.228841 0.206774 0.750000
O O15 0.204292 0.165228 0.500116
O O16 0.867356 0.133651 0.250000
O O17 0.827759 0.169631 0.510197
O O18 0.011000 0.126668 0.478445
O O19 0.751326 0.207692 0.750000
O O20 0.772121 0.250000 0.000000
O O21 0.845041 0.872423 0.750000
#
# Coordination Sequence:
#
# PCOD8233973 Si02
#       8
#     8   8   8   8   8   8   8   8
#     4  11  20  34  61  90 120 157 197 238 292 357
#     4  11  22  38  60  87 124 159 195 242 298 357
#     4   9  20  38  61  89 119 158 196 240 299 354
#     4  10  21  37  59  90 123 156 190 237 296 352
#     4  11  23  40  63  89 122 157 194 241 296 354
#     4  10  22  43  64  84 116 156 202 253 298 346
#     4  11  23  39  62  92 123 156 197 240 293 356
#     4  11  24  41  62  87 116 155 205 252 297 349
#
# _framework density 19.770894999999999
#
# number of rings (size 3 to 8) (size 9 to 14) (size 15 to 20)
#    0.000    1.500    2.500    2.625    0.000    3.000 
#    0.000    3.125    0.000    0.000    0.000    0.000 
#    0.000    0.000    0.000    0.000    0.000    0.000 
#
# Total GULP energy -793855.066022 kJ/mol
# GULP energy per Si atom -12403.985407 kJ/mol
# Density = 1.972590 g / cm^3
# Si number density = 19.770895 Si / 1000 Ang^3
#
#
#
# Elastic Constant Matrix: (Units=GPa)
#
#
# Indices 1 2 3 4 5 6 
#
# 1 126.1785 55.0342 43.2380 0.0000 0.0000 0.0000
# 2 55.0342 140.2285 36.1597 0.0000 0.0000 0.0000
# 3 43.2380 36.1597 61.3311 0.0000 0.0000 0.0000
# 4 0.0000 0.0000 0.0000 27.7807 0.0000 0.0000
# 5 0.0000 0.0000 0.0000 0.0000 19.5800 0.0000
# 6 0.0000 0.0000 0.0000 0.0000 0.0000 46.7104
#
#
#
# Elastic Compliance Matrix: (Units=1/GPa)
#
#
# Indices 1 2 3 4 5 6 
#
# 1 0.011318 -0.002812 -0.006321 0.000000 0.000000 0.000000
# 2 -0.002812 0.009108 -0.003388 0.000000 0.000000 0.000000
# 3 -0.006321 -0.003388 0.022759 0.000000 0.000000 0.000000
# 4 0.000000 0.000000 0.000000 0.035996 0.000000 0.000000
# 5 0.000000 0.000000 0.000000 0.000000 0.051073 0.000000
# 6 0.000000 0.000000 0.000000 0.000000 0.000000 0.021409
#
#
# Mechanical properties :
#
#
# Convention : Reuss Voigt Hill
#
# Bulk Modulus (GPa) = 55.11688 66.28910 60.70299
# Shear Modulus (GPa) = 27.35959 31.70130 29.53044
#
# Velocity S-wave (km/s) = 3.72402 4.00863 3.86895
# Velocity P-wave (km/s) = 6.81392 7.41801 7.12237
#
# Compressibility (1/GPa) = 0.01814326
#
# Stress axis : x y z
#
# Youngs Moduli (GPa) = 88.35674 109.78968 43.93926
#
# Poissons Ratio (x) = 0.30870 0.27775
# Poissons Ratio (y) = 0.24844 0.14886
# Poissons Ratio (z) = 0.55852 0.37195
#
# Static dielectric constant tensor:
#      x y z
#    x 3.749970 0.000000 0.000000 
#    y 0.000000 3.700410 0.000000 
#    z 0.000000 0.000000 3.539960 
# 
# 
# High freq. dielectric constant tensor:
#      x y z
#    x 1.772300 0.000000 0.000000 
#    y 0.000000 1.782430 0.000000 
#    z 0.000000 0.000000 1.766170 
# 
# From -- ./inp_files/3779.got.cif
#   From: 2010.03.12/outbox.cif.g09.slc.cpg/sg57_2_cif.got.tgz:3779.got - 2010.04.16 15:48:40.
