data_PCOD8233988
_publ_section_title
;
Structure prediction by ZEFSAII (Michael W. Deem and Ramdas Pophale) SiO2 
 PCOD8233988
Probable space group: P B C M
;
_chemical_formula_sum "Si O2"
_cell_formula_units_Z 64
_cell_length_a 9.765585
_cell_length_b 18.335055
_cell_length_c 18.331635
_cell_angle_alpha 90.000000
_cell_angle_beta 90.000000
_cell_angle_gamma 90.000000
_cell_volume 3282.325774
_symmetry_space_group_name_H-M "P B C M"
_symmetry_group_IT_number 57
_symmetry_cell_setting 'orthorhombic'
loop_
_space_group_symop_operation_xyz
x,y,z
-x,-y,1/2+z
x,1/2-y,-z
-x,1/2+y,1/2-z
-x,-y,-z
x,y,1/2-z
-x,1/2+y,z
x,1/2-y,1/2+z
loop_
_atom_site_type_symbol
_atom_site_label
_atom_site_fract_x
_atom_site_fract_y
_atom_site_fract_z
Si Si1 0.919745 0.149051 0.334475
Si Si2 0.778557 0.829409 0.032634
Si Si3 0.686540 0.277935 0.576319
Si Si4 0.259804 0.850983 0.332367
Si Si5 0.931631 0.556744 0.053932
Si Si6 0.653923 0.481234 0.087559
Si Si7 0.958545 0.695133 0.832731
Si Si8 0.492821 0.393554 0.974402
O O1 0.887151 0.129471 0.250000
O O2 0.782922 0.168617 0.378311
O O3 0.980165 0.077594 0.374474
O O4 0.022268 0.217678 0.338176
O O5 0.830774 0.827217 0.116286
O O6 0.753087 0.750000 0.000000
O O7 0.899007 0.867887 0.987197
O O8 0.638652 0.876733 0.025921
O O9 0.753169 0.250000 0.500000
O O10 0.649440 0.206193 0.622243
O O11 0.543431 0.319348 0.562621
O O12 0.267307 0.824973 0.250000
O O13 0.330356 0.930347 0.341030
O O14 0.099726 0.845813 0.357409
O O15 0.798834 0.517400 0.081380
O O16 0.000000 0.500000 0.000000
O O17 0.543936 0.547195 0.089267
O O18 0.617480 0.427637 0.020480
O O19 0.920552 0.672575 0.750000
#
# Coordination Sequence:
#
# PCOD8233988 Si02
#       8
#     8   8   8   8   8   8   8   8
#     4  10  22  38  59  91 128 160 199 257 318 376
#     4  11  21  35  61  89 120 157 203 256 301 358
#     4  11  20  35  66  91 120 159 210 262 304 356
#     4  10  21  37  60  90 120 155 202 258 314 370
#     4  11  22  35  60  92 121 155 201 250 307 369
#     4  10  21  39  57  82 121 160 201 246 297 364
#     4   9  19  36  59  89 124 154 194 254 317 369
#     4  10  22  38  59  88 120 160 211 257 295 357
#
# _framework density 19.498369
#
# number of rings (size 3 to 8) (size 9 to 14) (size 15 to 20)
#    0.000    1.750    2.500    3.000    3.500    0.500 
#    0.000    2.500    0.000    1.500    0.000    0.000 
#    0.000    0.000    0.000    0.000    0.000    0.000 
#
# Total GULP energy -793191.245560 kJ/mol
# GULP energy per Si atom -12393.613212 kJ/mol
# Density = 1.945399 g / cm^3
# Si number density = 19.498369 Si / 1000 Ang^3
#
#
#
# Elastic Constant Matrix: (Units=GPa)
#
#
# Indices 1 2 3 4 5 6 
#
# 1 63.2926 38.7805 46.2942 0.0000 0.0000 0.0000
# 2 38.7805 102.6480 48.3209 0.0000 0.0000 0.0000
# 3 46.2942 48.3209 119.3899 0.0000 0.0000 0.0000
# 4 0.0000 0.0000 0.0000 34.0992 0.0000 0.0000
# 5 0.0000 0.0000 0.0000 0.0000 23.1096 0.0000
# 6 0.0000 0.0000 0.0000 0.0000 0.0000 34.6272
#
#
#
# Elastic Compliance Matrix: (Units=1/GPa)
#
#
# Indices 1 2 3 4 5 6 
#
# 1 0.024687 -0.005955 -0.007162 0.000000 0.000000 0.000000
# 2 -0.005955 0.013472 -0.003143 0.000000 0.000000 0.000000
# 3 -0.007162 -0.003143 0.012425 0.000000 0.000000 0.000000
# 4 0.000000 0.000000 0.000000 0.029326 0.000000 0.000000
# 5 0.000000 0.000000 0.000000 0.000000 0.043272 0.000000
# 6 0.000000 0.000000 0.000000 0.000000 0.000000 0.028879
#
#
# Mechanical properties :
#
#
# Convention : Reuss Voigt Hill
#
# Bulk Modulus (GPa) = 55.36313 61.34686 58.35500
# Shear Modulus (GPa) = 26.23240 28.49620 27.36430
#
# Velocity S-wave (km/s) = 3.67190 3.82706 3.75028
# Velocity P-wave (km/s) = 6.81414 7.14558 6.98183
#
# Compressibility (1/GPa) = 0.01806256
#
# Stress axis : x y z
#
# Youngs Moduli (GPa) = 40.50662 74.23039 80.48070
#
# Poissons Ratio (x) = 0.44206 0.57643
# Poissons Ratio (y) = 0.24123 0.25297
# Poissons Ratio (z) = 0.29012 0.23332
#
# Static dielectric constant tensor:
#      x y z
#    x 3.343840 0.000000 0.000000 
#    y 0.000000 3.750020 0.000000 
#    z 0.000000 0.000000 3.513970 
# 
# 
# High freq. dielectric constant tensor:
#      x y z
#    x 1.743050 0.000000 0.000000 
#    y 0.000000 1.771810 0.000000 
#    z 0.000000 0.000000 1.744080 
# 
# From -- ./inp_files/21410.got.cif
#   From: 2010.03.12/outbox.cif.g09.slc.cpg/sg57_11_cif.got.tgz:21410.got - 2010.04.16 15:48:40.
