data_PCOD8233694
_publ_section_title
;
Structure prediction by ZEFSAII (Michael W. Deem and Ramdas Pophale) SiO2 
 PCOD8233694
Probable space group: P B C M
;
_chemical_formula_sum "Si O2"
_cell_formula_units_Z 40
_cell_length_a 9.282367
_cell_length_b 13.612273
_cell_length_c 14.237385
_cell_angle_alpha 90.000000
_cell_angle_beta 90.000000
_cell_angle_gamma 90.000000
_cell_volume 1798.952163
_symmetry_space_group_name_H-M "P B C M"
_symmetry_group_IT_number 57
_symmetry_cell_setting 'orthorhombic'
loop_
_space_group_symop_operation_xyz
x,y,z
-x,-y,1/2+z
x,1/2-y,-z
-x,1/2+y,1/2-z
-x,-y,-z
x,y,1/2-z
-x,1/2+y,z
x,1/2-y,1/2+z
loop_
_atom_site_type_symbol
_atom_site_label
_atom_site_fract_x
_atom_site_fract_y
_atom_site_fract_z
Si Si1 0.152301 0.464590 0.411927
Si Si2 0.473392 0.489463 0.109626
Si Si3 0.934809 0.066198 0.750000
Si Si4 0.995293 0.843316 0.941120
Si Si5 0.853272 0.655482 0.250000
Si Si6 0.526906 0.843146 0.750000
Si Si7 0.634481 0.356576 0.250000
O O1 0.311507 0.451536 0.371123
O O2 0.135200 0.402189 0.507584
O O3 0.034243 0.421958 0.340731
O O4 0.127898 0.581068 0.429515
O O5 0.497774 0.594756 0.156423
O O6 0.580108 0.410500 0.155691
O O7 0.500000 0.500000 0.000000
O O8 0.808669 0.147241 0.750000
O O9 0.852082 0.962384 0.750000
O O10 0.936294 0.804288 0.841461
O O11 0.049861 0.750000 0.000000
O O12 0.690810 0.695862 0.250000
O O13 0.416243 0.754455 0.750000
#
# Coordination Sequence:
#
# PCOD8233694 Si02
#       7
#     8   8   4   8   4   4   4
#     4  10  23  41  68  95 131 179 218 274 336 413
#     4  11  24  45  71  96 139 179 224 281 348 411
#     4  10  20  43  69  91 136 175 218 273 339 398
#     4  10  23  39  65  98 130 167 231 267 335 397
#     4  10  20  41  63  90 134 174 209 283 327 406
#     4  11  24  43  65  99 140 169 229 274 349 401
#     4  11  26  41  67 104 132 180 228 284 339 403
#
# _framework density 22.235166
#
# number of rings (size 3 to 8) (size 9 to 14) (size 15 to 20)
#    0.000    1.600    2.000    2.400    8.400    3.200 
#    0.000    1.000    0.000    0.000    0.000    0.000 
#    0.000    0.000    0.000    0.000    0.000    0.000 
#
# Total GULP energy -496199.133278 kJ/mol
# GULP energy per Si atom -12404.978332 kJ/mol
# Density = 2.218456 g / cm^3
# Si number density = 22.235166 Si / 1000 Ang^3
#
#
#
# Elastic Constant Matrix: (Units=GPa)
#
#
# Indices 1 2 3 4 5 6 
#
# 1 136.2116 26.6625 46.9528 0.0000 0.0000 0.0000
# 2 26.6625 99.9963 50.2935 0.0000 0.0000 0.0000
# 3 46.9528 50.2935 177.0232 0.0000 0.0000 0.0000
# 4 0.0000 0.0000 0.0000 15.3871 0.0000 0.0000
# 5 0.0000 0.0000 0.0000 0.0000 26.3937 0.0000
# 6 0.0000 0.0000 0.0000 0.0000 0.0000 22.5447
#
#
#
# Elastic Compliance Matrix: (Units=1/GPa)
#
#
# Indices 1 2 3 4 5 6 
#
# 1 0.008218 -0.001277 -0.001817 0.000000 0.000000 0.000000
# 2 -0.001277 0.011866 -0.003032 0.000000 0.000000 0.000000
# 3 -0.001817 -0.003032 0.006992 0.000000 0.000000 0.000000
# 4 0.000000 0.000000 0.000000 0.064990 0.000000 0.000000
# 5 0.000000 0.000000 0.000000 0.000000 0.037888 0.000000
# 6 0.000000 0.000000 0.000000 0.000000 0.000000 0.044356
#
#
# Mechanical properties :
#
#
# Convention : Reuss Voigt Hill
#
# Bulk Modulus (GPa) = 67.46206 73.44987 70.45597
# Shear Modulus (GPa) = 26.10908 32.15325 29.13116
#
# Velocity S-wave (km/s) = 3.43041 3.80683 3.62351
# Velocity P-wave (km/s) = 6.78944 7.24068 7.01869
#
# Compressibility (1/GPa) = 0.01482315
#
# Stress axis : x y z
#
# Youngs Moduli (GPa) = 121.68703 84.27336 143.01299
#
# Poissons Ratio (x) = 0.10765 0.25982
# Poissons Ratio (y) = 0.15545 0.43368
# Poissons Ratio (z) = 0.22107 0.25555
#
# Static dielectric constant tensor:
#      x y z
#    x 3.899270 0.000000 0.000000 
#    y 0.000000 3.815690 0.000000 
#    z 0.000000 0.000000 3.914430 
# 
# 
# High freq. dielectric constant tensor:
#      x y z
#    x 1.869870 0.000000 0.000000 
#    y 0.000000 1.865970 0.000000 
#    z 0.000000 0.000000 1.889790 
# 
# From -- ./inp_files/16008.got.cif
#   From: 2010.03.12/outbox.cif.g09.slc.cpg/sg57_9_cif.got.tgz:16008.got - 2010.04.16 15:48:40.
