data_PCOD8233764
_publ_section_title
;
Structure prediction by ZEFSAII (Michael W. Deem and Ramdas Pophale) SiO2 
 PCOD8233764
Probable space group: P B C M
;
_chemical_formula_sum "Si O2"
_cell_formula_units_Z 56
_cell_length_a 13.301492
_cell_length_b 9.796952
_cell_length_c 21.382964
_cell_angle_alpha 90.000000
_cell_angle_beta 90.000000
_cell_angle_gamma 90.000000
_cell_volume 2786.501253
_symmetry_space_group_name_H-M "P B C M"
_symmetry_group_IT_number 57
_symmetry_cell_setting 'orthorhombic'
loop_
_space_group_symop_operation_xyz
x,y,z
-x,-y,1/2+z
x,1/2-y,-z
-x,1/2+y,1/2-z
-x,-y,-z
x,y,1/2-z
-x,1/2+y,z
x,1/2-y,1/2+z
loop_
_atom_site_type_symbol
_atom_site_label
_atom_site_fract_x
_atom_site_fract_y
_atom_site_fract_z
Si Si1 0.298025 0.038154 0.606614
Si Si2 0.091059 0.605147 0.923904
Si Si3 0.363883 0.179400 0.146285
Si Si4 0.589215 0.899410 0.512533
Si Si5 0.742592 0.425517 0.180877
Si Si6 0.409180 0.687555 0.321429
Si Si7 0.901956 0.419085 0.567037
O O1 0.297666 0.182829 0.642578
O O2 0.320156 0.067170 0.534154
O O3 0.382787 0.940961 0.635589
O O4 0.191040 0.963335 0.610666
O O5 0.171537 0.564530 0.871418
O O6 0.065478 0.765053 0.917136
O O7 0.990744 0.519234 0.912642
O O8 0.129240 0.569883 0.993923
O O9 0.367471 0.094017 0.081813
O O10 0.474274 0.224173 0.168955
O O11 0.309294 0.073124 0.191622
O O12 0.543817 0.750000 0.500000
O O13 0.500000 0.000000 0.500000
O O14 0.785843 0.385645 0.250000
O O15 0.658210 0.317062 0.159111
O O16 0.389093 0.646541 0.250000
#
# Coordination Sequence:
#
# PCOD8233764 Si02
#       7
#     8   8   8   8   8   8   8
#     4  11  22  40  61  91 125 161 207 256 314 369
#     4  10  22  43  68  96 123 158 202 258 319 374
#     4  11  23  37  60  91 127 168 207 255 308 367
#     4  10  21  35  55  89 123 158 198 255 305 361
#     4  11  24  42  63  91 127 168 212 256 309 372
#     4  11  23  40  61  84 124 171 216 254 297 373
#     4  10  22  42  70  96 122 157 201 261 322 374
#
# _framework density 20.096886000000001
#
# number of rings (size 3 to 8) (size 9 to 14) (size 15 to 20)
#    0.000    1.429    2.857    2.143    4.000    2.286 
#    7.714    1.429    0.000    0.000    0.000    0.000 
#    0.000    0.000    0.000    0.000    0.000    0.000 
#
# Total GULP energy -694406.643173 kJ/mol
# GULP energy per Si atom -12400.118628 kJ/mol
# Density = 2.005114 g / cm^3
# Si number density = 20.096886 Si / 1000 Ang^3
#
#
#
# Elastic Constant Matrix: (Units=GPa)
#
#
# Indices 1 2 3 4 5 6 
#
# 1 105.6079 59.6249 36.8855 0.0000 0.0000 0.0000
# 2 59.6249 136.3751 30.9683 0.0000 0.0000 0.0000
# 3 36.8855 30.9683 83.8183 0.0000 0.0000 0.0000
# 4 0.0000 0.0000 0.0000 21.7266 0.0000 0.0000
# 5 0.0000 0.0000 0.0000 0.0000 26.0021 0.0000
# 6 0.0000 0.0000 0.0000 0.0000 0.0000 39.2297
#
#
#
# Elastic Compliance Matrix: (Units=1/GPa)
#
#
# Indices 1 2 3 4 5 6 
#
# 1 0.013804 -0.005082 -0.004197 0.000000 0.000000 0.000000
# 2 -0.005082 0.009875 -0.001412 0.000000 0.000000 0.000000
# 3 -0.004197 -0.001412 0.014299 0.000000 0.000000 0.000000
# 4 0.000000 0.000000 0.000000 0.046026 0.000000 0.000000
# 5 0.000000 0.000000 0.000000 0.000000 0.038458 0.000000
# 6 0.000000 0.000000 0.000000 0.000000 0.000000 0.025491
#
#
# Mechanical properties :
#
#
# Convention : Reuss Voigt Hill
#
# Bulk Modulus (GPa) = 60.25529 64.52875 62.39202
# Shear Modulus (GPa) = 28.59269 30.61319 29.60294
#
# Velocity S-wave (km/s) = 3.77602 3.90716 3.84215
# Velocity P-wave (km/s) = 7.00418 7.24797 7.12712
#
# Compressibility (1/GPa) = 0.01659605
#
# Stress axis : x y z
#
# Youngs Moduli (GPa) = 72.44111 101.26127 69.93366
#
# Poissons Ratio (x) = 0.51465 0.29351
# Poissons Ratio (y) = 0.36817 0.09875
# Poissons Ratio (z) = 0.30404 0.14299
#
# Static dielectric constant tensor:
#      x y z
#    x 3.378460 0.000000 0.000000 
#    y 0.000000 3.810610 0.000000 
#    z 0.000000 0.000000 3.707970 
# 
# 
# High freq. dielectric constant tensor:
#      x y z
#    x 1.765370 0.000000 0.000000 
#    y 0.000000 1.801100 0.000000 
#    z 0.000000 0.000000 1.783130 
# 
# From -- ./inp_files/25393.got.cif
#   From: 2010.03.12/outbox.cif.g09.slc.cpg/sg57_13_cif.got.tgz:25393.got - 2010.04.16 15:48:40.
