data_PCOD8233979
_publ_section_title
;
Structure prediction by ZEFSAII (Michael W. Deem and Ramdas Pophale) SiO2 
 PCOD8233979
Probable space group: P B C M
;
_chemical_formula_sum "Si O2"
_cell_formula_units_Z 40
_cell_length_a 4.903563
_cell_length_b 17.337911
_cell_length_c 21.832440
_cell_angle_alpha 90.000000
_cell_angle_beta 90.000000
_cell_angle_gamma 90.000000
_cell_volume 1856.140316
_symmetry_space_group_name_H-M "P B C M"
_symmetry_group_IT_number 57
_symmetry_cell_setting 'orthorhombic'
loop_
_space_group_symop_operation_xyz
x,y,z
-x,-y,1/2+z
x,1/2-y,-z
-x,1/2+y,1/2-z
-x,-y,-z
x,y,1/2-z
-x,1/2+y,z
x,1/2-y,1/2+z
loop_
_atom_site_type_symbol
_atom_site_label
_atom_site_fract_x
_atom_site_fract_y
_atom_site_fract_z
Si Si1 0.834341 0.030799 0.442203
Si Si2 0.839371 0.202142 0.439336
Si Si3 0.342637 0.480117 0.636653
Si Si4 0.760877 0.699473 0.750000
Si Si5 0.645341 0.804675 0.861109
Si Si6 0.725691 0.091691 0.750000
O O1 0.743149 0.116953 0.457778
O O2 0.550331 0.991333 0.418337
O O3 0.032223 0.023141 0.384646
O O4 0.000000 0.000000 0.500000
O O5 0.807059 0.250000 0.500000
O O6 0.639022 0.232565 0.385105
O O7 0.151068 0.199182 0.418521
O O8 0.415440 0.393220 0.659930
O O9 0.347289 0.540731 0.691266
O O10 0.787483 0.754766 0.808510
O O11 0.458424 0.666894 0.750000
O O12 0.969374 0.627193 0.750000
#
# Coordination Sequence:
#
# PCOD8233979 Si02
#       6
#     8   8   8   4   8   4
#     4  10  21  37  60  88 118 156 199 243 295 355
#     4  10  21  37  60  88 117 155 200 242 293 352
#     4  10  22  41  61  84 120 163 200 238 299 371
#     4  12  25  40  61  92 120 152 202 258 305 346
#     4  10  22  41  61  84 119 162 199 238 296 365
#     4  12  25  40  61  92 120 152 200 256 305 348
#
# _framework density 21.550094000000001
#
# number of rings (size 3 to 8) (size 9 to 14) (size 15 to 20)
#    0.000    1.600    0.000    4.200    0.000    4.800 
#    0.000    8.000    0.000    0.000    0.000    0.000 
#    0.000    0.000    0.000    0.000    0.000    0.000 
#
# Total GULP energy -495740.389372 kJ/mol
# GULP energy per Si atom -12393.509734 kJ/mol
# Density = 2.150105 g / cm^3
# Si number density = 21.550094 Si / 1000 Ang^3
#
#
#
# Elastic Constant Matrix: (Units=GPa)
#
#
# Indices 1 2 3 4 5 6 
#
# 1 101.5091 21.6452 15.9041 0.0000 0.0000 0.0000
# 2 21.6452 80.0329 56.0222 0.0000 0.0000 0.0000
# 3 15.9041 56.0222 97.8908 0.0000 0.0000 0.0000
# 4 0.0000 0.0000 0.0000 31.6156 0.0000 0.0000
# 5 0.0000 0.0000 0.0000 0.0000 34.9794 0.0000
# 6 0.0000 0.0000 0.0000 0.0000 0.0000 33.4841
#
#
#
# Elastic Compliance Matrix: (Units=1/GPa)
#
#
# Indices 1 2 3 4 5 6 
#
# 1 0.010455 -0.002734 -0.000134 0.000000 0.000000 0.000000
# 2 -0.002734 0.021560 -0.011895 0.000000 0.000000 0.000000
# 3 -0.000134 -0.011895 0.017044 0.000000 0.000000 0.000000
# 4 0.000000 0.000000 0.000000 0.031630 0.000000 0.000000
# 5 0.000000 0.000000 0.000000 0.000000 0.028588 0.000000
# 6 0.000000 0.000000 0.000000 0.000000 0.000000 0.029865
#
#
# Mechanical properties :
#
#
# Convention : Reuss Voigt Hill
#
# Bulk Modulus (GPa) = 51.19028 51.84176 51.51602
# Shear Modulus (GPa) = 28.54205 32.40658 30.47431
#
# Velocity S-wave (km/s) = 3.64325 3.88207 3.76455
# Velocity P-wave (km/s) = 6.44231 6.64850 6.54622
#
# Compressibility (1/GPa) = 0.01953496
#
# Stress axis : x y z
#
# Youngs Moduli (GPa) = 95.64539 46.38133 58.66997
#
# Poissons Ratio (x) = 0.12680 0.00787
# Poissons Ratio (y) = 0.26148 0.69786
# Poissons Ratio (z) = 0.01283 0.55169
#
# Static dielectric constant tensor:
#      x y z
#    x 4.239750 0.000000 0.000000 
#    y 0.000000 3.839000 0.000000 
#    z 0.000000 0.000000 3.732820 
# 
# 
# High freq. dielectric constant tensor:
#      x y z
#    x 1.867030 0.000000 0.000000 
#    y 0.000000 1.835900 0.000000 
#    z 0.000000 0.000000 1.839810 
# 
# From -- ./inp_files/20012.got.cif
#   From: 2010.03.12/outbox.cif.g09.slc.cpg/sg57_11_cif.got.tgz:20012.got - 2010.04.16 15:48:40.
