data_PCOD8233389
_publ_section_title
;
Structure prediction by ZEFSAII (Michael W. Deem and Ramdas Pophale) SiO2 
 PCOD8233389
Probable space group: P B C M
;
_chemical_formula_sum "Si O2"
_cell_formula_units_Z 40
_cell_length_a 7.658458
_cell_length_b 15.565803
_cell_length_c 17.225640
_cell_angle_alpha 90.000000
_cell_angle_beta 90.000000
_cell_angle_gamma 90.000000
_cell_volume 2053.469380
_symmetry_space_group_name_H-M "P B C M"
_symmetry_group_IT_number 57
_symmetry_cell_setting 'orthorhombic'
loop_
_space_group_symop_operation_xyz
x,y,z
-x,-y,1/2+z
x,1/2-y,-z
-x,1/2+y,1/2-z
-x,-y,-z
x,y,1/2-z
-x,1/2+y,z
x,1/2-y,1/2+z
loop_
_atom_site_type_symbol
_atom_site_label
_atom_site_fract_x
_atom_site_fract_y
_atom_site_fract_z
Si Si1 0.256711 0.157158 0.474471
Si Si2 0.390866 0.062306 0.163662
Si Si3 0.865555 0.156633 0.988340
Si Si4 0.728566 0.498432 0.582898
Si Si5 0.068016 0.935770 0.162242
O O1 0.325983 0.250000 0.500000
O O2 0.345658 0.141773 0.391509
O O3 0.317085 0.083508 0.534168
O O4 0.048010 0.156107 0.465294
O O5 0.409606 0.099831 0.250000
O O6 0.571173 0.016934 0.141240
O O7 0.238284 0.993354 0.158950
O O8 0.745826 0.081082 0.022846
O O9 0.775278 0.250000 0.000000
O O10 0.901916 0.143603 0.896414
O O11 0.903770 0.508702 0.632975
O O12 0.034820 0.901670 0.250000
#
# Coordination Sequence:
#
# PCOD8233389 Si02
#       5
#     8   8   8   8   8
#     4  10  20  38  62  88 116 157 199 238 289 351
#     4  11  22  37  59  87 114 152 195 242 296 342
#     4  10  20  37  62  89 115 158 203 234 288 354
#     4  11  20  39  61  84 117 158 200 235 288 351
#     4  10  20  38  59  83 117 151 188 249 296 337
#
# _framework density 19.479229
#
# number of rings (size 3 to 8) (size 9 to 14) (size 15 to 20)
#    0.000    1.600    4.000    2.400    0.000    0.800 
#    0.000   12.000    0.000    0.000    0.000    0.000 
#    0.000    0.000    0.000    0.000    0.000    0.000 
#
# Total GULP energy -496033.000128 kJ/mol
# GULP energy per Si atom -12400.825003 kJ/mol
# Density = 1.943489 g / cm^3
# Si number density = 19.479229 Si / 1000 Ang^3
#
#
#
# Elastic Constant Matrix: (Units=GPa)
#
#
# Indices 1 2 3 4 5 6 
#
# 1 82.1456 31.7251 54.9413 0.0000 0.0000 0.0000
# 2 31.7251 146.2353 72.1920 0.0000 0.0000 0.0000
# 3 54.9413 72.1920 162.3544 0.0000 0.0000 0.0000
# 4 0.0000 0.0000 0.0000 18.4931 0.0000 0.0000
# 5 0.0000 0.0000 0.0000 0.0000 18.3516 0.0000
# 6 0.0000 0.0000 0.0000 0.0000 0.0000 3.0982
#
#
#
# Elastic Compliance Matrix: (Units=1/GPa)
#
#
# Indices 1 2 3 4 5 6 
#
# 1 0.015851 -0.001013 -0.004914 0.000000 0.000000 0.000000
# 2 -0.001013 0.008826 -0.003582 0.000000 0.000000 0.000000
# 3 -0.004914 -0.003582 0.009415 0.000000 0.000000 0.000000
# 4 0.000000 0.000000 0.000000 0.054074 0.000000 0.000000
# 5 0.000000 0.000000 0.000000 0.000000 0.054491 0.000000
# 6 0.000000 0.000000 0.000000 0.000000 0.000000 0.322770
#
#
# Mechanical properties :
#
#
# Convention : Reuss Voigt Hill
#
# Bulk Modulus (GPa) = 66.33421 78.71688 72.52555
# Shear Modulus (GPa) = 10.21514 23.44705 16.83109
#
# Velocity S-wave (km/s) = 2.29249 3.47319 2.94267
# Velocity P-wave (km/s) = 6.41366 7.52213 6.98991
#
# Compressibility (1/GPa) = 0.01507518
#
# Stress axis : x y z
#
# Youngs Moduli (GPa) = 63.08696 113.29725 106.21549
#
# Poissons Ratio (x) = 0.11479 0.52190
# Poissons Ratio (y) = 0.06392 0.38045
# Poissons Ratio (z) = 0.30998 0.40581
#
# Static dielectric constant tensor:
#      x y z
#    x 3.548260 0.000000 0.000000 
#    y 0.000000 3.525740 0.000000 
#    z 0.000000 0.000000 3.887700 
# 
# 
# High freq. dielectric constant tensor:
#      x y z
#    x 1.764900 0.000000 0.000000 
#    y 0.000000 1.741730 0.000000 
#    z 0.000000 0.000000 1.759400 
# 
# From -- ./inp_files/20715.got.cif
#   From: 2010.03.12/outbox.cif.g09.slc.cpg/sg57_11_cif.got.tgz:20715.got - 2010.04.16 15:48:40.
