data_PCOD8233246
_publ_section_title
;
Structure prediction by ZEFSAII (Michael W. Deem and Ramdas Pophale) SiO2 
 PCOD8233246
Probable space group: P B C M
;
_chemical_formula_sum "Si O2"
_cell_formula_units_Z 56
_cell_length_a 14.739336
_cell_length_b 22.242740
_cell_length_c 9.202053
_cell_angle_alpha 90.000000
_cell_angle_beta 90.000000
_cell_angle_gamma 90.000000
_cell_volume 3016.830672
_symmetry_space_group_name_H-M "P B C M"
_symmetry_group_IT_number 57
_symmetry_cell_setting 'orthorhombic'
loop_
_space_group_symop_operation_xyz
x,y,z
-x,-y,1/2+z
x,1/2-y,-z
-x,1/2+y,1/2-z
-x,-y,-z
x,y,1/2-z
-x,1/2+y,z
x,1/2-y,1/2+z
loop_
_atom_site_type_symbol
_atom_site_label
_atom_site_fract_x
_atom_site_fract_y
_atom_site_fract_z
Si Si1 0.598993 0.445124 0.416085
Si Si2 0.574623 0.919062 0.579652
Si Si3 0.879052 0.653115 0.916486
Si Si4 0.908260 0.986153 0.083224
Si Si5 0.297612 0.190042 0.076754
Si Si6 0.800002 0.079754 0.917433
Si Si7 0.920324 0.309024 0.420317
O O1 0.566637 0.443776 0.250000
O O2 0.611677 0.514902 0.465097
O O3 0.524053 0.409944 0.508792
O O4 0.692936 0.409620 0.437550
O O5 0.562239 0.912712 0.750000
O O6 0.643040 0.867247 0.524617
O O7 0.857505 0.671494 0.750000
O O8 0.879239 0.582106 0.934224
O O9 0.976724 0.677402 0.966398
O O10 0.805401 0.681469 0.023470
O O11 0.923262 0.003853 0.250000
O O12 0.826485 0.023506 0.015370
O O13 0.000000 0.000000 0.000000
O O14 0.298593 0.197718 0.250000
O O15 0.337532 0.250000 0.000000
O O16 0.824211 0.065130 0.750000
O O17 0.855018 0.137461 0.972385
O O18 0.884866 0.250000 0.500000
O O19 0.911485 0.299299 0.250000
#
# Coordination Sequence:
#
# PCOD8233246 Si02
#       7
#     8   8   8   8   8   8   8
#     4   9  18  34  60  85 107 141 178 218 276 332
#     4   9  19  36  56  82 112 139 175 223 275 330
#     4  10  21  37  55  79 110 145 184 226 272 324
#     4  11  21  34  54  82 113 145 181 224 274 324
#     4  11  23  38  57  82 112 150 189 231 279 331
#     4  10  20  37  56  79 112 144 180 226 272 326
#     4  10  21  37  53  72 104 143 183 225 264 312
#
# _framework density 18.562526999999999
#
# number of rings (size 3 to 8) (size 9 to 14) (size 15 to 20)
#    0.000    2.000    1.429    2.143    0.000    6.286 
#    0.000    3.571    0.000    3.429    0.000    0.000 
#    0.000    0.000    0.000    0.000    0.000    0.000 
#
# Total GULP energy -694540.666740 kJ/mol
# GULP energy per Si atom -12402.511906 kJ/mol
# Density = 1.852028 g / cm^3
# Si number density = 18.562527 Si / 1000 Ang^3
#
#
#
# Elastic Constant Matrix: (Units=GPa)
#
#
# Indices 1 2 3 4 5 6 
#
# 1 98.2924 42.3076 31.1223 0.0000 0.0000 0.0000
# 2 42.3076 87.1991 35.0068 0.0000 0.0000 0.0000
# 3 31.1223 35.0068 57.1250 0.0000 0.0000 0.0000
# 4 0.0000 0.0000 0.0000 32.4325 0.0000 0.0000
# 5 0.0000 0.0000 0.0000 0.0000 31.9055 0.0000
# 6 0.0000 0.0000 0.0000 0.0000 0.0000 18.5191
#
#
#
# Elastic Compliance Matrix: (Units=1/GPa)
#
#
# Indices 1 2 3 4 5 6 
#
# 1 0.013675 -0.004833 -0.004489 0.000000 0.000000 0.000000
# 2 -0.004833 0.016918 -0.007734 0.000000 0.000000 0.000000
# 3 -0.004489 -0.007734 0.024691 0.000000 0.000000 0.000000
# 4 0.000000 0.000000 0.000000 0.030833 0.000000 0.000000
# 5 0.000000 0.000000 0.000000 0.000000 0.031343 0.000000
# 6 0.000000 0.000000 0.000000 0.000000 0.000000 0.053998
#
#
# Mechanical properties :
#
#
# Convention : Reuss Voigt Hill
#
# Bulk Modulus (GPa) = 47.23299 51.05443 49.14371
# Shear Modulus (GPa) = 23.51531 25.51675 24.51603
#
# Velocity S-wave (km/s) = 3.56310 3.71163 3.63812
# Velocity P-wave (km/s) = 6.51369 6.77732 6.64681
#
# Compressibility (1/GPa) = 0.02117164
#
# Stress axis : x y z
#
# Youngs Moduli (GPa) = 73.12503 59.10886 40.50105
#
# Poissons Ratio (x) = 0.28567 0.18180
# Poissons Ratio (y) = 0.35341 0.31325
# Poissons Ratio (z) = 0.32824 0.45717
#
# Static dielectric constant tensor:
#      x y z
#    x 3.530200 0.000000 0.000000 
#    y 0.000000 3.462120 0.000000 
#    z 0.000000 0.000000 3.293880 
# 
# 
# High freq. dielectric constant tensor:
#      x y z
#    x 1.717500 0.000000 0.000000 
#    y 0.000000 1.718900 0.000000 
#    z 0.000000 0.000000 1.718790 
# 
# From -- ./inp_files/5258.got.cif
#   From: 2010.03.12/outbox.cif.g09.slc.cpg/sg57_3_cif.got.tgz:5258.got - 2010.04.16 15:48:40.
