data_PCOD8233380
_publ_section_title
;
Structure prediction by ZEFSAII (Michael W. Deem and Ramdas Pophale) SiO2 
 PCOD8233380
Probable space group: P B C M
;
_chemical_formula_sum "Si O2"
_cell_formula_units_Z 64
_cell_length_a 14.583602
_cell_length_b 25.139184
_cell_length_c 8.629111
_cell_angle_alpha 90.000000
_cell_angle_beta 90.000000
_cell_angle_gamma 90.000000
_cell_volume 3163.603415
_symmetry_space_group_name_H-M "P B C M"
_symmetry_group_IT_number 57
_symmetry_cell_setting 'orthorhombic'
loop_
_space_group_symop_operation_xyz
x,y,z
-x,-y,1/2+z
x,1/2-y,-z
-x,1/2+y,1/2-z
-x,-y,-z
x,y,1/2-z
-x,1/2+y,z
x,1/2-y,1/2+z
loop_
_atom_site_type_symbol
_atom_site_label
_atom_site_fract_x
_atom_site_fract_y
_atom_site_fract_z
Si Si1 0.172360 0.304049 0.566615
Si Si2 0.987678 0.337845 0.068100
Si Si3 0.961272 0.053210 0.070074
Si Si4 0.216391 0.979501 0.428716
Si Si5 0.338537 0.899741 0.929148
Si Si6 0.720700 0.906103 0.930960
Si Si7 0.783465 0.193013 0.934189
Si Si8 0.472008 0.443879 0.928636
O O1 0.217466 0.250000 0.500000
O O2 0.176790 0.304035 0.750000
O O3 0.066158 0.303876 0.514790
O O4 0.229524 0.354272 0.496199
O O5 0.996956 0.329975 0.250000
O O6 0.886729 0.320565 0.008316
O O7 0.006944 0.398465 0.020939
O O8 0.985341 0.058577 0.250000
O O9 0.853041 0.052126 0.039836
O O10 0.000000 0.000000 0.000000
O O11 0.192430 0.967352 0.250000
O O12 0.312446 0.953311 0.476055
O O13 0.215023 0.042486 0.460724
O O14 0.309779 0.904241 0.750000
O O15 0.448800 0.899006 0.947091
O O16 0.291229 0.848226 0.002415
O O17 0.708808 0.895608 0.750000
O O18 0.620341 0.918311 0.004531
O O19 0.779120 0.192605 0.750000
O O20 0.754759 0.250000 0.000000
O O21 0.451007 0.456213 0.750000
O O22 0.500000 0.500000 0.000000
#
# Coordination Sequence:
#
# PCOD8233380 Si02
#       8
#     8   8   8   8   8   8   8   8
#     4  11  23  41  63  87 118 161 206 255 306 356
#     4  11  23  40  62  89 119 157 204 253 303 361
#     4  12  24  37  55  83 123 164 205 250 301 361
#     4  11  20  35  59  86 120 159 199 245 303 363
#     4  11  22  36  59  90 124 158 198 248 303 362
#     4   9  20  38  61  87 120 159 198 245 307 365
#     4  11  24  41  63  87 120 161 205 252 303 361
#     4  10  20  37  61  91 122 157 198 248 304 367
#
# _framework density 20.230097000000001
#
# number of rings (size 3 to 8) (size 9 to 14) (size 15 to 20)
#    0.000    1.250    2.500    4.125    0.000    4.000 
#    0.000    3.750    0.000    1.500    0.000    0.000 
#    0.000    0.000    0.000    0.000    0.000    0.000 
#
# Total GULP energy -793548.776830 kJ/mol
# GULP energy per Si atom -12399.199638 kJ/mol
# Density = 2.018405 g / cm^3
# Si number density = 20.230097 Si / 1000 Ang^3
#
#
#
# Elastic Constant Matrix: (Units=GPa)
#
#
# Indices 1 2 3 4 5 6 
#
# 1 88.9746 40.8871 27.5768 0.0000 0.0000 0.0000
# 2 40.8871 140.3204 35.5458 0.0000 0.0000 0.0000
# 3 27.5768 35.5458 62.7024 0.0000 0.0000 0.0000
# 4 0.0000 0.0000 0.0000 33.7100 0.0000 0.0000
# 5 0.0000 0.0000 0.0000 0.0000 23.1794 0.0000
# 6 0.0000 0.0000 0.0000 0.0000 0.0000 49.6839
#
#
#
# Elastic Compliance Matrix: (Units=1/GPa)
#
#
# Indices 1 2 3 4 5 6 
#
# 1 0.013978 -0.002938 -0.004482 0.000000 0.000000 0.000000
# 2 -0.002938 0.008939 -0.003775 0.000000 0.000000 0.000000
# 3 -0.004482 -0.003775 0.020060 0.000000 0.000000 0.000000
# 4 0.000000 0.000000 0.000000 0.029665 0.000000 0.000000
# 5 0.000000 0.000000 0.000000 0.000000 0.043142 0.000000
# 6 0.000000 0.000000 0.000000 0.000000 0.000000 0.020127
#
#
# Mechanical properties :
#
#
# Convention : Reuss Voigt Hill
#
# Bulk Modulus (GPa) = 48.57591 55.55741 52.06666
# Shear Modulus (GPa) = 30.27292 33.84719 32.06005
#
# Velocity S-wave (km/s) = 3.87257 4.09480 3.98524
# Velocity P-wave (km/s) = 6.63774 7.06250 6.85341
#
# Compressibility (1/GPa) = 0.02058634
#
# Stress axis : x y z
#
# Youngs Moduli (GPa) = 71.53909 111.87040 49.85031
#
# Poissons Ratio (x) = 0.32863 0.22345
# Poissons Ratio (y) = 0.21015 0.18821
# Poissons Ratio (z) = 0.32067 0.42237
#
# Static dielectric constant tensor:
#      x y z
#    x 4.087440 0.000000 0.000000 
#    y 0.000000 3.785600 0.000000 
#    z 0.000000 0.000000 3.614350 
# 
# 
# High freq. dielectric constant tensor:
#      x y z
#    x 1.790660 0.000000 0.000000 
#    y 0.000000 1.793100 0.000000 
#    z 0.000000 0.000000 1.780850 
# 
# From -- ./inp_files/5766.got.cif
#   From: 2010.03.12/outbox.cif.g09.slc.cpg/sg57_3_cif.got.tgz:5766.got - 2010.04.16 15:48:40.
