data_PCOD8233207
_publ_section_title
;
Structure prediction by ZEFSAII (Michael W. Deem and Ramdas Pophale) SiO2 
 PCOD8233207
Probable space group: P B C M
;
_chemical_formula_sum "Si O2"
_cell_formula_units_Z 48
_cell_length_a 9.234222
_cell_length_b 13.820541
_cell_length_c 18.761270
_cell_angle_alpha 90.000000
_cell_angle_beta 90.000000
_cell_angle_gamma 90.000000
_cell_volume 2394.349745
_symmetry_space_group_name_H-M "P B C M"
_symmetry_group_IT_number 57
_symmetry_cell_setting 'orthorhombic'
loop_
_space_group_symop_operation_xyz
x,y,z
-x,-y,1/2+z
x,1/2-y,-z
-x,1/2+y,1/2-z
-x,-y,-z
x,y,1/2-z
-x,1/2+y,z
x,1/2-y,1/2+z
loop_
_atom_site_type_symbol
_atom_site_label
_atom_site_fract_x
_atom_site_fract_y
_atom_site_fract_z
Si Si1 0.490444 0.155955 0.332140
Si Si2 0.800676 0.260307 0.668061
Si Si3 0.294975 0.212761 0.920378
Si Si4 0.901510 0.424928 0.924527
Si Si5 0.985866 0.129544 0.575071
Si Si6 0.592493 0.992452 0.430027
O O1 0.457200 0.138042 0.250000
O O2 0.629655 0.224942 0.343479
O O3 0.349586 0.204474 0.367033
O O4 0.518168 0.051049 0.366120
O O5 0.839045 0.239360 0.750000
O O6 0.886445 0.357197 0.644444
O O7 0.849768 0.170658 0.619000
O O8 0.128272 0.189449 0.902684
O O9 0.392740 0.118432 0.906268
O O10 0.317501 0.250000 0.000000
O O11 0.748224 0.465244 0.950808
O O12 0.003627 0.515680 0.905002
O O13 0.965662 0.361125 0.989588
O O14 0.500000 0.000000 0.500000
#
# Coordination Sequence:
#
# PCOD8233207 Si02
#       6
#     8   8   8   8   8   8
#     4  10  23  40  57  84 121 155 195 244 295 352
#     4  10  21  37  57  81 113 156 194 230 289 354
#     4  11  21  35  60  90 116 148 198 246 291 353
#     4   9  20  37  59  84 117 150 190 246 285 342
#     4  10  21  37  60  87 115 149 193 241 293 345
#     4  10  20  36  61  88 112 157 200 238 294 354
#
# _framework density 20.047197000000001
#
# number of rings (size 3 to 8) (size 9 to 14) (size 15 to 20)
#    0.000    2.000    1.667    1.500    2.333    2.000 
#    0.000    3.333    0.000    0.000    0.000    0.000 
#    0.000    0.000    0.000    0.000    0.000    0.000 
#
# Total GULP energy -595348.289618 kJ/mol
# GULP energy per Si atom -12403.089367 kJ/mol
# Density = 2.000157 g / cm^3
# Si number density = 20.047197 Si / 1000 Ang^3
#
#
#
# Elastic Constant Matrix: (Units=GPa)
#
#
# Indices 1 2 3 4 5 6 
#
# 1 38.2296 17.9544 24.4739 0.0000 0.0000 0.0000
# 2 17.9544 81.0420 35.0812 0.0000 0.0000 0.0000
# 3 24.4739 35.0812 111.7772 0.0000 0.0000 0.0000
# 4 0.0000 0.0000 0.0000 31.9237 0.0000 0.0000
# 5 0.0000 0.0000 0.0000 0.0000 20.1208 0.0000
# 6 0.0000 0.0000 0.0000 0.0000 0.0000 34.7558
#
#
#
# Elastic Compliance Matrix: (Units=1/GPa)
#
#
# Indices 1 2 3 4 5 6 
#
# 1 0.031884 -0.004677 -0.005513 0.000000 0.000000 0.000000
# 2 -0.004677 0.014965 -0.003673 0.000000 0.000000 0.000000
# 3 -0.005513 -0.003673 0.011306 0.000000 0.000000 0.000000
# 4 0.000000 0.000000 0.000000 0.031325 0.000000 0.000000
# 5 0.000000 0.000000 0.000000 0.000000 0.049700 0.000000
# 6 0.000000 0.000000 0.000000 0.000000 0.000000 0.028772
#
#
# Mechanical properties :
#
#
# Convention : Reuss Voigt Hill
#
# Bulk Modulus (GPa) = 32.86324 42.89644 37.87984
# Shear Modulus (GPa) = 24.29296 27.59603 25.94449
#
# Velocity S-wave (km/s) = 3.48485 3.71422 3.60136
# Velocity P-wave (km/s) = 5.71146 6.31174 6.01909
#
# Compressibility (1/GPa) = 0.03042914
#
# Stress axis : x y z
#
# Youngs Moduli (GPa) = 31.36398 66.82103 88.44725
#
# Poissons Ratio (x) = 0.31253 0.48762
# Poissons Ratio (y) = 0.14669 0.32485
# Poissons Ratio (z) = 0.17291 0.24542
#
# Static dielectric constant tensor:
#      x y z
#    x 3.656550 0.000000 0.000000 
#    y 0.000000 3.668720 0.000000 
#    z 0.000000 0.000000 2.298740 
# 
# 
# High freq. dielectric constant tensor:
#      x y z
#    x 1.781010 0.000000 0.000000 
#    y 0.000000 1.791480 0.000000 
#    z 0.000000 0.000000 1.766990 
# 
# From -- ./inp_files/20908.got.cif
#   From: 2010.03.12/outbox.cif.g09.slc.cpg/sg57_11_cif.got.tgz:20908.got - 2010.04.16 15:48:40.
