data_PCOD8233826
_publ_section_title
;
Structure prediction by ZEFSAII (Michael W. Deem and Ramdas Pophale) SiO2 
 PCOD8233826
Probable space group: P B C M
;
_chemical_formula_sum "Si O2"
_cell_formula_units_Z 36
_cell_length_a 11.291318
_cell_length_b 8.450148
_cell_length_c 19.314972
_cell_angle_alpha 90.000000
_cell_angle_beta 90.000000
_cell_angle_gamma 90.000000
_cell_volume 1842.905377
_symmetry_space_group_name_H-M "P B C M"
_symmetry_group_IT_number 57
_symmetry_cell_setting 'orthorhombic'
loop_
_space_group_symop_operation_xyz
x,y,z
-x,-y,1/2+z
x,1/2-y,-z
-x,1/2+y,1/2-z
-x,-y,-z
x,y,1/2-z
-x,1/2+y,z
x,1/2-y,1/2+z
loop_
_atom_site_type_symbol
_atom_site_label
_atom_site_fract_x
_atom_site_fract_y
_atom_site_fract_z
Si Si1 0.480575 0.750000 0.000000
Si Si2 0.334666 0.485543 0.443162
Si Si3 0.076675 0.447018 0.670927
Si Si4 0.878710 0.073366 0.971547
Si Si5 0.835176 0.899466 0.327092
O O1 0.561909 0.860312 0.046380
O O2 0.395672 0.657242 0.053341
O O3 0.230874 0.469652 0.500249
O O4 0.279089 0.453727 0.368772
O O5 0.119381 0.489427 0.750000
O O6 0.130466 0.564498 0.612433
O O7 0.108762 0.268226 0.648903
O O8 0.934675 0.464604 0.667230
O O9 0.866891 0.250000 0.000000
O O10 0.000000 0.000000 0.000000
O O11 0.787860 0.880028 0.250000
#
# Coordination Sequence:
#
# PCOD8233826 Si02
#       5
#     4   8   8   8   8
#     4  10  24  40  62  80 112 164 208 262 300 336
#     4  11  22  41  60  86 119 155 211 255 296 360
#     4  10  21  36  56  91 132 162 189 240 320 387
#     4  12  23  35  60  95 122 156 203 252 314 376
#     4  10  21  37  60  89 125 162 196 245 312 379
#
# _framework density 19.534372999999999
#
# number of rings (size 3 to 8) (size 9 to 14) (size 15 to 20)
#    0.000    1.333    3.333    2.667    1.556    0.000 
#    0.000    1.111    0.000    5.333    0.000    0.000 
#    0.000    0.000    0.000    0.000    0.000    0.000 
#
# Total GULP energy -446274.098990 kJ/mol
# GULP energy per Si atom -12396.502750 kJ/mol
# Density = 1.948991 g / cm^3
# Si number density = 19.534373 Si / 1000 Ang^3
#
#
#
# Elastic Constant Matrix: (Units=GPa)
#
#
# Indices 1 2 3 4 5 6 
#
# 1 118.1088 55.0584 57.8317 0.0000 0.0000 0.0000
# 2 55.0584 117.7700 62.6392 0.0000 0.0000 0.0000
# 3 57.8317 62.6392 137.2026 0.0000 0.0000 0.0000
# 4 0.0000 0.0000 0.0000 31.6135 0.0000 0.0000
# 5 0.0000 0.0000 0.0000 0.0000 32.2720 0.0000
# 6 0.0000 0.0000 0.0000 0.0000 0.0000 12.8091
#
#
#
# Elastic Compliance Matrix: (Units=1/GPa)
#
#
# Indices 1 2 3 4 5 6 
#
# 1 0.011831 -0.003802 -0.003251 0.000000 0.000000 0.000000
# 2 -0.003802 0.012436 -0.004075 0.000000 0.000000 0.000000
# 3 -0.003251 -0.004075 0.010519 0.000000 0.000000 0.000000
# 4 0.000000 0.000000 0.000000 0.031632 0.000000 0.000000
# 5 0.000000 0.000000 0.000000 0.000000 0.030987 0.000000
# 6 0.000000 0.000000 0.000000 0.000000 0.000000 0.078069
#
#
# Mechanical properties :
#
#
# Convention : Reuss Voigt Hill
#
# Bulk Modulus (GPa) = 79.80746 80.45997 80.13372
# Shear Modulus (GPa) = 24.76387 28.50907 26.63647
#
# Velocity S-wave (km/s) = 3.56435 3.82439 3.69666
# Velocity P-wave (km/s) = 7.60809 7.79613 7.70268
#
# Compressibility (1/GPa) = 0.01253016
#
# Stress axis : x y z
#
# Youngs Moduli (GPa) = 84.52392 80.41189 95.06342
#
# Poissons Ratio (x) = 0.30572 0.30906
# Poissons Ratio (y) = 0.32135 0.38739
# Poissons Ratio (z) = 0.27479 0.32768
#
# Static dielectric constant tensor:
#      x y z
#    x 3.626700 0.000000 0.000000 
#    y 0.000000 3.776320 0.000000 
#    z 0.000000 0.000000 3.741180 
# 
# 
# High freq. dielectric constant tensor:
#      x y z
#    x 1.749520 0.000000 0.000000 
#    y 0.000000 1.768210 0.000000 
#    z 0.000000 0.000000 1.758350 
# 
# From -- ./inp_files/24827.got.cif
#   From: 2010.03.12/outbox.cif.g09.slc.cpg/sg57_13_cif.got.tgz:24827.got - 2010.04.16 15:48:40.
