data_PCOD8233914
_publ_section_title
;
Structure prediction by ZEFSAII (Michael W. Deem and Ramdas Pophale) SiO2 
 PCOD8233914
Probable space group: P B C M
;
_chemical_formula_sum "Si O2"
_cell_formula_units_Z 48
_cell_length_a 29.398634
_cell_length_b 10.133160
_cell_length_c 8.469627
_cell_angle_alpha 90.000000
_cell_angle_beta 90.000000
_cell_angle_gamma 90.000000
_cell_volume 2523.110879
_symmetry_space_group_name_H-M "P B C M"
_symmetry_group_IT_number 57
_symmetry_cell_setting 'orthorhombic'
loop_
_space_group_symop_operation_xyz
x,y,z
-x,-y,1/2+z
x,1/2-y,-z
-x,1/2+y,1/2-z
-x,-y,-z
x,y,1/2-z
-x,1/2+y,z
x,1/2-y,1/2+z
loop_
_atom_site_type_symbol
_atom_site_label
_atom_site_fract_x
_atom_site_fract_y
_atom_site_fract_z
Si Si1 0.298394 0.889191 0.435775
Si Si2 0.199854 0.606474 0.436017
Si Si3 0.965638 0.892793 0.435826
Si Si4 0.363679 0.391530 0.436897
Si Si5 0.867346 0.890821 0.935504
Si Si6 0.467821 0.111331 0.934612
O O1 0.317305 0.750000 0.500000
O O2 0.288723 0.879122 0.250000
O O3 0.252064 0.925751 0.525436
O O4 0.335495 0.998867 0.471685
O O5 0.186026 0.750000 0.500000
O O6 0.191443 0.599236 0.250000
O O7 0.169702 0.499511 0.524215
O O8 0.979878 0.750000 0.500000
O O9 0.968368 0.889335 0.250000
O O10 0.914989 0.932118 0.487468
O O11 0.000000 0.000000 0.500000
O O12 0.347087 0.250000 0.500000
O O13 0.355925 0.401291 0.250000
O O14 0.415945 0.415126 0.486146
O O15 0.874398 0.879564 0.750000
O O16 0.850256 0.750000 0.000000
O O17 0.472253 0.115280 0.750000
O O18 0.485452 0.250000 0.000000
O O19 0.500000 0.000000 0.000000
#
# Coordination Sequence:
#
# PCOD8233914 Si02
#       6
#     8   8   8   8   8   8
#     4  11  22  38  59  84 113 148 186 230 278 331
#     4  11  22  39  60  85 115 149 187 232 280 333
#     4  11  22  39  60  86 116 151 190 234 283 335
#     4  10  21  38  58  83 112 146 185 230 278 331
#     4  11  22  39  60  86 116 150 189 233 281 334
#     4  10  21  37  58  82 112 146 185 229 278 330
#
# _framework density 19.024135000000001
#
# number of rings (size 3 to 8) (size 9 to 14) (size 15 to 20)
#    0.000    1.333    0.000    9.000    0.000    4.000 
#    0.000    6.667    0.000    0.000    0.000    0.000 
#    0.000    0.000    0.000    0.000    0.000    0.000 
#
# Total GULP energy -595451.140239 kJ/mol
# GULP energy per Si atom -12405.232088 kJ/mol
# Density = 1.898084 g / cm^3
# Si number density = 19.024135 Si / 1000 Ang^3
#
#
#
# Elastic Constant Matrix: (Units=GPa)
#
#
# Indices 1 2 3 4 5 6 
#
# 1 83.1929 85.5760 23.7436 0.0000 0.0000 0.0000
# 2 85.5760 150.3120 36.1776 0.0000 0.0000 0.0000
# 3 23.7436 36.1776 117.7269 0.0000 0.0000 0.0000
# 4 0.0000 0.0000 0.0000 39.0497 0.0000 0.0000
# 5 0.0000 0.0000 0.0000 0.0000 33.9339 0.0000
# 6 0.0000 0.0000 0.0000 0.0000 0.0000 27.0454
#
#
#
# Elastic Compliance Matrix: (Units=1/GPa)
#
#
# Indices 1 2 3 4 5 6 
#
# 1 0.029085 -0.016357 -0.000840 0.000000 0.000000 0.000000
# 2 -0.016357 0.016383 -0.001736 0.000000 0.000000 0.000000
# 3 -0.000840 -0.001736 0.009197 0.000000 0.000000 0.000000
# 4 0.000000 0.000000 0.000000 0.025608 0.000000 0.000000
# 5 0.000000 0.000000 0.000000 0.000000 0.029469 0.000000
# 6 0.000000 0.000000 0.000000 0.000000 0.000000 0.036975
#
#
# Mechanical properties :
#
#
# Convention : Reuss Voigt Hill
#
# Bulk Modulus (GPa) = 59.51983 71.35849 65.43916
# Shear Modulus (GPa) = 26.29065 33.72143 30.00604
#
# Velocity S-wave (km/s) = 3.72151 4.21475 3.97578
# Velocity P-wave (km/s) = 7.05837 7.82792 7.45308
#
# Compressibility (1/GPa) = 0.01680112
#
# Stress axis : x y z
#
# Youngs Moduli (GPa) = 34.38168 61.03933 108.73232
#
# Poissons Ratio (x) = 0.99841 0.09129
# Poissons Ratio (y) = 0.56238 0.18871
# Poissons Ratio (z) = 0.02886 0.10594
#
# Static dielectric constant tensor:
#      x y z
#    x 3.355180 0.000000 0.000000 
#    y 0.000000 3.846030 0.000000 
#    z 0.000000 0.000000 3.691320 
# 
# 
# High freq. dielectric constant tensor:
#      x y z
#    x 1.738160 0.000000 0.000000 
#    y 0.000000 1.750030 0.000000 
#    z 0.000000 0.000000 1.765240 
# 
# From -- ./inp_files/10057.got.cif
#   From: 2010.03.12/outbox.cif.g09.slc.cpg/sg57_6_cif.got.tgz:10057.got - 2010.04.16 15:48:40.
