data_PCOD8233673
_publ_section_title
;
Structure prediction by ZEFSAII (Michael W. Deem and Ramdas Pophale) SiO2 
 PCOD8233673
Probable space group: P B C M
;
_chemical_formula_sum "Si O2"
_cell_formula_units_Z 64
_cell_length_a 14.684254
_cell_length_b 13.161510
_cell_length_c 16.343638
_cell_angle_alpha 90.000000
_cell_angle_beta 90.000000
_cell_angle_gamma 90.000000
_cell_volume 3158.685164
_symmetry_space_group_name_H-M "P B C M"
_symmetry_group_IT_number 57
_symmetry_cell_setting 'orthorhombic'
loop_
_space_group_symop_operation_xyz
x,y,z
-x,-y,1/2+z
x,1/2-y,-z
-x,1/2+y,1/2-z
-x,-y,-z
x,y,1/2-z
-x,1/2+y,z
x,1/2-y,1/2+z
loop_
_atom_site_type_symbol
_atom_site_label
_atom_site_fract_x
_atom_site_fract_y
_atom_site_fract_z
Si Si1 0.918170 0.628334 0.655336
Si Si2 0.604965 0.002036 0.581065
Si Si3 0.353357 0.302646 0.841849
Si Si4 0.147539 0.162502 0.154926
Si Si5 0.073696 0.530777 0.566023
Si Si6 0.421742 0.108123 0.911923
Si Si7 0.251413 0.998835 0.844967
Si Si8 0.244629 0.867701 0.997635
O O1 0.896192 0.628937 0.750000
O O2 0.918343 0.745694 0.625718
O O3 0.834985 0.561703 0.618179
O O4 0.017529 0.582648 0.639237
O O5 0.521687 0.070198 0.613811
O O6 0.688394 0.075642 0.560536
O O7 0.624486 0.922415 0.652964
O O8 0.587805 0.927813 0.504619
O O9 0.374674 0.266585 0.750000
O O10 0.246955 0.291895 0.862138
O O11 0.412512 0.230500 0.902648
O O12 0.133958 0.132165 0.250000
O O13 0.128451 0.066254 0.098342
O O14 0.142316 0.612157 0.527786
O O15 0.000000 0.500000 0.500000
O O16 0.343971 0.062793 0.852825
O O17 0.238406 0.965724 0.750000
O O18 0.259289 0.900811 0.903364
O O19 0.267600 0.750000 0.000000
#
# Coordination Sequence:
#
# PCOD8233673 Si02
#       8
#     8   8   8   8   8   8   8   8
#     4  10  21  38  63  92 123 164 210 263 325 379
#     4  10  23  42  61  91 127 168 205 260 323 380
#     4  11  21  38  65  96 128 164 208 262 321 381
#     4  10  22  41  64  93 129 166 211 266 323 381
#     4  12  24  39  61  93 127 167 211 267 314 381
#     4  10  21  38  67  92 122 162 211 262 313 377
#     4  10  20  40  65  93 123 158 209 265 314 370
#     4  11  25  44  61  88 130 169 212 256 312 389
#
# _framework density 20.261596000000001
#
# number of rings (size 3 to 8) (size 9 to 14) (size 15 to 20)
#    0.000    1.500    3.750    1.125    1.750    4.000 
#    2.250    1.875    0.000    0.000    0.000    0.000 
#    0.000    0.000    0.000    0.000    0.000    0.000 
#
# Total GULP energy -793490.637341 kJ/mol
# GULP energy per Si atom -12398.291208 kJ/mol
# Density = 2.021548 g / cm^3
# Si number density = 20.261596 Si / 1000 Ang^3
#
#
#
# Elastic Constant Matrix: (Units=GPa)
#
#
# Indices 1 2 3 4 5 6 
#
# 1 110.9412 41.7093 26.5668 0.0000 0.0000 0.0000
# 2 41.7093 135.3444 36.3099 0.0000 0.0000 0.0000
# 3 26.5668 36.3099 54.7945 0.0000 0.0000 0.0000
# 4 0.0000 0.0000 0.0000 28.5532 0.0000 0.0000
# 5 0.0000 0.0000 0.0000 0.0000 26.6899 0.0000
# 6 0.0000 0.0000 0.0000 0.0000 0.0000 36.7064
#
#
#
# Elastic Compliance Matrix: (Units=1/GPa)
#
#
# Indices 1 2 3 4 5 6 
#
# 1 0.010771 -0.002333 -0.003676 0.000000 0.000000 0.000000
# 2 -0.002333 0.009491 -0.005158 0.000000 0.000000 0.000000
# 3 -0.003676 -0.005158 0.023451 0.000000 0.000000 0.000000
# 4 0.000000 0.000000 0.000000 0.035022 0.000000 0.000000
# 5 0.000000 0.000000 0.000000 0.000000 0.037467 0.000000
# 6 0.000000 0.000000 0.000000 0.000000 0.000000 0.027243
#
#
# Mechanical properties :
#
#
# Convention : Reuss Voigt Hill
#
# Bulk Modulus (GPa) = 46.77755 56.69467 51.73611
# Shear Modulus (GPa) = 28.91711 31.48950 30.20331
#
# Velocity S-wave (km/s) = 3.78191 3.94654 3.86511
# Velocity P-wave (km/s) = 6.49672 6.98635 6.74598
#
# Compressibility (1/GPa) = 0.02137777
#
# Stress axis : x y z
#
# Youngs Moduli (GPa) = 92.83921 105.35818 42.64265
#
# Poissons Ratio (x) = 0.24581 0.15677
# Poissons Ratio (y) = 0.21661 0.21997
# Poissons Ratio (z) = 0.34131 0.54347
#
# Static dielectric constant tensor:
#      x y z
#    x 3.949770 0.000000 0.000000 
#    y 0.000000 3.829840 0.000000 
#    z 0.000000 0.000000 3.539250 
# 
# 
# High freq. dielectric constant tensor:
#      x y z
#    x 1.792100 0.000000 0.000000 
#    y 0.000000 1.790780 0.000000 
#    z 0.000000 0.000000 1.784370 
# 
# From -- ./inp_files/22668.got.cif
#   From: 2010.03.12/outbox.cif.g09.slc.cpg/sg57_12_cif.got.tgz:22668.got - 2010.04.16 15:48:40.
