data_PCOD8233347
_publ_section_title
;
Structure prediction by ZEFSAII (Michael W. Deem and Ramdas Pophale) SiO2 
 PCOD8233347
Probable space group: P B C M
;
_chemical_formula_sum "Si O2"
_cell_formula_units_Z 48
_cell_length_a 14.223114
_cell_length_b 8.192317
_cell_length_c 20.418561
_cell_angle_alpha 90.000000
_cell_angle_beta 90.000000
_cell_angle_gamma 90.000000
_cell_volume 2379.176008
_symmetry_space_group_name_H-M "P B C M"
_symmetry_group_IT_number 57
_symmetry_cell_setting 'orthorhombic'
loop_
_space_group_symop_operation_xyz
x,y,z
-x,-y,1/2+z
x,1/2-y,-z
-x,1/2+y,1/2-z
-x,-y,-z
x,y,1/2-z
-x,1/2+y,z
x,1/2-y,1/2+z
loop_
_atom_site_type_symbol
_atom_site_label
_atom_site_fract_x
_atom_site_fract_y
_atom_site_fract_z
Si Si1 0.651168 0.497299 0.750000
Si Si2 0.744060 0.361497 0.442259
Si Si3 0.459201 0.849223 0.250000
Si Si4 0.240294 0.963464 0.617497
Si Si5 0.103556 0.060836 0.985050
Si Si6 0.578710 0.964814 0.880228
Si Si7 0.590378 0.642375 0.935395
O O1 0.584053 0.334502 0.750000
O O2 0.574031 0.643375 0.750000
O O3 0.722859 0.514178 0.810877
O O4 0.701679 0.250000 0.500000
O O5 0.837775 0.452072 0.464219
O O6 0.671264 0.497107 0.421173
O O7 0.763338 0.233656 0.383065
O O8 0.418542 0.945592 0.311676
O O9 0.138502 0.028281 0.590793
O O10 0.311788 0.044333 0.564655
O O11 0.114091 0.250000 0.000000
O O12 0.000000 0.000000 0.000000
O O13 0.490624 0.009986 0.925989
O O14 0.578747 0.767854 0.873251
O O15 0.579870 0.750000 0.000000
#
# Coordination Sequence:
#
# PCOD8233347 Si02
#       7
#     4   8   4   8   8   8   8
#     4  12  24  42  60  89 137 182 236 260 312 378
#     4  10  20  37  60  90 123 161 211 263 327 379
#     4  12  24  40  58  83 129 186 228 262 302 380
#     4  11  22  39  62  93 127 173 214 270 320 391
#     4  11  23  44  72 101 126 161 208 275 347 405
#     4  12  22  36  55  82 124 172 218 262 317 378
#     4  12  23  36  55  85 124 170 215 272 323 380
#
# _framework density 20.175052999999998
#
# number of rings (size 3 to 8) (size 9 to 14) (size 15 to 20)
#    0.000    0.667    3.333    8.000    0.000    0.000 
#    0.000    0.000    0.000    5.000    0.000    0.000 
#    0.000    0.000    0.000    0.000    0.000    0.000 
#
# Total GULP energy -594799.766727 kJ/mol
# GULP energy per Si atom -12391.661807 kJ/mol
# Density = 2.012913 g / cm^3
# Si number density = 20.175053 Si / 1000 Ang^3
#
#
#
# Elastic Constant Matrix: (Units=GPa)
#
#
# Indices 1 2 3 4 5 6 
#
# 1 134.3108 35.3529 48.6823 0.0000 0.0000 0.0000
# 2 35.3529 104.2352 12.4263 0.0000 0.0000 0.0000
# 3 48.6823 12.4263 92.5223 0.0000 0.0000 0.0000
# 4 0.0000 0.0000 0.0000 29.1795 0.0000 0.0000
# 5 0.0000 0.0000 0.0000 0.0000 10.6938 0.0000
# 6 0.0000 0.0000 0.0000 0.0000 0.0000 36.6545
#
#
#
# Elastic Compliance Matrix: (Units=1/GPa)
#
#
# Indices 1 2 3 4 5 6 
#
# 1 0.009940 -0.002793 -0.004855 0.000000 0.000000 0.000000
# 2 -0.002793 0.010534 0.000055 0.000000 0.000000 0.000000
# 3 -0.004855 0.000055 0.013356 0.000000 0.000000 0.000000
# 4 0.000000 0.000000 0.000000 0.034271 0.000000 0.000000
# 5 0.000000 0.000000 0.000000 0.000000 0.093512 0.000000
# 6 0.000000 0.000000 0.000000 0.000000 0.000000 0.027282
#
#
# Mechanical properties :
#
#
# Convention : Reuss Voigt Hill
#
# Bulk Modulus (GPa) = 53.63752 58.22126 55.92939
# Shear Modulus (GPa) = 23.77600 30.94600 27.36100
#
# Velocity S-wave (km/s) = 3.43663 3.92072 3.68663
# Velocity P-wave (km/s) = 6.51084 7.02970 6.77524
#
# Compressibility (1/GPa) = 0.01864367
#
# Stress axis : x y z
#
# Youngs Moduli (GPa) = 100.60064 94.92770 74.87536
#
# Poissons Ratio (x) = 0.26509 0.36354
# Poissons Ratio (y) = 0.28094 -0.00408
# Poissons Ratio (z) = 0.48844 -0.00518
#
# Static dielectric constant tensor:
#      x y z
#    x 3.482530 0.000000 0.000000 
#    y 0.000000 4.244470 0.000000 
#    z 0.000000 0.000000 3.703000 
# 
# 
# High freq. dielectric constant tensor:
#      x y z
#    x 1.761470 0.000000 0.000000 
#    y 0.000000 1.817110 0.000000 
#    z 0.000000 0.000000 1.782760 
# 
# From -- ./inp_files/25283.got.cif
#   From: 2010.03.12/outbox.cif.g09.slc.cpg/sg57_13_cif.got.tgz:25283.got - 2010.04.16 15:48:40.
