data_PCOD8233501
_publ_section_title
;
Structure prediction by ZEFSAII (Michael W. Deem and Ramdas Pophale) SiO2 
 PCOD8233501
Probable space group: P B C M
;
_chemical_formula_sum "Si O2"
_cell_formula_units_Z 48
_cell_length_a 15.096634
_cell_length_b 18.676707
_cell_length_c 8.403766
_cell_angle_alpha 90.000000
_cell_angle_beta 90.000000
_cell_angle_gamma 90.000000
_cell_volume 2369.487287
_symmetry_space_group_name_H-M "P B C M"
_symmetry_group_IT_number 57
_symmetry_cell_setting 'orthorhombic'
loop_
_space_group_symop_operation_xyz
x,y,z
-x,-y,1/2+z
x,1/2-y,-z
-x,1/2+y,1/2-z
-x,-y,-z
x,y,1/2-z
-x,1/2+y,z
x,1/2-y,1/2+z
loop_
_atom_site_type_symbol
_atom_site_label
_atom_site_fract_x
_atom_site_fract_y
_atom_site_fract_z
Si Si1 0.507321 0.172376 0.439227
Si Si2 0.160042 0.423247 0.563974
Si Si3 0.357527 0.068130 0.436958
Si Si4 0.669468 0.409102 0.437544
Si Si5 0.139787 0.923255 0.565971
Si Si6 0.988221 0.672400 0.565448
O O1 0.479701 0.250000 0.500000
O O2 0.512061 0.170559 0.250000
O O3 0.433984 0.117817 0.511734
O O4 0.602688 0.152734 0.510647
O O5 0.157831 0.442059 0.750000
O O6 0.260320 0.404371 0.510071
O O7 0.126548 0.492956 0.470054
O O8 0.098537 0.356125 0.525466
O O9 0.367176 0.073745 0.250000
O O10 0.370148 0.985922 0.492487
O O11 0.686725 0.407665 0.250000
O O12 0.762237 0.395790 0.524500
O O13 0.119235 0.908916 0.750000
O O14 0.070993 0.879237 0.461003
O O15 0.012938 0.750000 0.500000
O O16 0.965519 0.676736 0.750000
#
# Coordination Sequence:
#
# PCOD8233501 Si02
#       6
#     8   8   8   8   8   8
#     4  11  22  37  55  82 116 153 190 231 281 339
#     4  10  20  39  63  89 118 152 192 239 286 338
#     4   8  18  36  60  85 113 146 188 236 283 331
#     4  10  20  38  61  86 112 146 189 239 289 338
#     4  11  22  39  62  89 116 150 192 238 286 341
#     4  12  25  41  59  85 118 155 193 237 289 345
#
# _framework density 20.257546999999999
#
# number of rings (size 3 to 8) (size 9 to 14) (size 15 to 20)
#    0.000    1.667    0.000    6.500    0.000    1.333 
#    0.000   14.167    0.000    0.000    0.000    0.000 
#    0.000    0.000    0.000    0.000    0.000    0.000 
#
# Total GULP energy -595393.071414 kJ/mol
# GULP energy per Si atom -12404.022321 kJ/mol
# Density = 2.021144 g / cm^3
# Si number density = 20.257547 Si / 1000 Ang^3
#
#
#
# Elastic Constant Matrix: (Units=GPa)
#
#
# Indices 1 2 3 4 5 6 
#
# 1 86.0440 35.7817 12.7510 0.0000 0.0000 0.0000
# 2 35.7817 64.5938 14.7358 0.0000 0.0000 0.0000
# 3 12.7510 14.7358 65.0240 0.0000 0.0000 0.0000
# 4 0.0000 0.0000 0.0000 32.2120 0.0000 0.0000
# 5 0.0000 0.0000 0.0000 0.0000 25.1617 0.0000
# 6 0.0000 0.0000 0.0000 0.0000 0.0000 19.3071
#
#
#
# Elastic Compliance Matrix: (Units=1/GPa)
#
#
# Indices 1 2 3 4 5 6 
#
# 1 0.015179 -0.008151 -0.001129 0.000000 0.000000 0.000000
# 2 -0.008151 0.020702 -0.003093 0.000000 0.000000 0.000000
# 3 -0.001129 -0.003093 0.016301 0.000000 0.000000 0.000000
# 4 0.000000 0.000000 0.000000 0.031044 0.000000 0.000000
# 5 0.000000 0.000000 0.000000 0.000000 0.039743 0.000000
# 6 0.000000 0.000000 0.000000 0.000000 0.000000 0.051794
#
#
# Mechanical properties :
#
#
# Convention : Reuss Voigt Hill
#
# Bulk Modulus (GPa) = 36.44879 38.02209 37.23544
# Shear Modulus (GPa) = 23.96293 25.49571 24.72932
#
# Velocity S-wave (km/s) = 3.44308 3.55149 3.49771
# Velocity P-wave (km/s) = 5.81706 5.96888 5.89346
#
# Compressibility (1/GPa) = 0.02743575
#
# Stress axis : x y z
#
# Youngs Moduli (GPa) = 65.88138 48.30441 61.34448
#
# Poissons Ratio (x) = 0.39371 0.06928
# Poissons Ratio (y) = 0.53697 0.18975
# Poissons Ratio (z) = 0.07441 0.14941
#
# Static dielectric constant tensor:
#      x y z
#    x 3.837250 0.000000 0.000000 
#    y 0.000000 3.449720 0.000000 
#    z 0.000000 0.000000 3.551700 
# 
# 
# High freq. dielectric constant tensor:
#      x y z
#    x 1.803190 0.000000 0.000000 
#    y 0.000000 1.784930 0.000000 
#    z 0.000000 0.000000 1.788660 
# 
# From -- ./inp_files/4542.got.cif
#   From: 2010.03.12/outbox.cif.g09.slc.cpg/sg57_3_cif.got.tgz:4542.got - 2010.04.16 15:48:40.
