data_PCOD8233206
_publ_section_title
;
Structure prediction by ZEFSAII (Michael W. Deem and Ramdas Pophale) SiO2 
 PCOD8233206
Probable space group: P B C M
;
_chemical_formula_sum "Si O2"
_cell_formula_units_Z 48
_cell_length_a 7.791838
_cell_length_b 18.323656
_cell_length_c 14.464225
_cell_angle_alpha 90.000000
_cell_angle_beta 90.000000
_cell_angle_gamma 90.000000
_cell_volume 2065.129133
_symmetry_space_group_name_H-M "P B C M"
_symmetry_group_IT_number 57
_symmetry_cell_setting 'orthorhombic'
loop_
_space_group_symop_operation_xyz
x,y,z
-x,-y,1/2+z
x,1/2-y,-z
-x,1/2+y,1/2-z
-x,-y,-z
x,y,1/2-z
-x,1/2+y,z
x,1/2-y,1/2+z
loop_
_atom_site_type_symbol
_atom_site_label
_atom_site_fract_x
_atom_site_fract_y
_atom_site_fract_z
Si Si1 0.435041 0.215554 0.599690
Si Si2 0.445405 0.559875 0.641336
Si Si3 0.250000 0.707998 0.098723
Si Si4 0.064959 0.215554 0.599690
Si Si5 0.250000 0.954360 0.641220
Si Si6 0.054595 0.940125 0.141336
O O1 0.408140 0.250000 0.500000
O O2 0.502292 0.133157 0.588336
O O3 0.578863 0.264309 0.653104
O O4 0.250000 0.216894 0.651872
O O5 0.463928 0.575546 0.750000
O O6 0.577491 0.496702 0.610820
O O7 0.250000 0.536608 0.615779
O O8 0.250000 0.621445 0.086347
O O9 0.078863 0.735691 0.153104
O O10 0.250000 0.750000 0.000000
O O11 0.091860 0.250000 0.500000
O O12 0.997707 0.133157 0.588335
O O13 0.250000 0.938218 0.750000
O O14 0.077491 0.996702 0.610820
O O15 0.036071 0.924454 0.250000
#
# Coordination Sequence:
#
# PCOD8233206 Si02
#       6
#     8   8   8   8   8   8
#     4  10  20  36  61  86 122 159 202 246 291 356
#     4  10  20  36  62  91 119 156 200 248 304 362
#     4  10  22  40  58  85 124 159 196 249 295 359
#     4  10  20  36  61  86 122 159 202 246 291 356
#     4  10  22  40  61  89 122 151 194 251 302 353
#     4  10  20  36  62  91 119 156 200 248 304 362
#
# _framework density 23.243099000000001
#
# number of rings (size 3 to 8) (size 9 to 14) (size 15 to 20)
#    0.000    2.000    3.333    0.000    0.000    2.667 
#    0.000    6.667    0.000    0.000    0.000    0.000 
#    0.000    0.000    0.000    0.000    0.000    0.000 
#
# Total GULP energy -594779.576691 kJ/mol
# GULP energy per Si atom -12391.241181 kJ/mol
# Density = 2.319020 g / cm^3
# Si number density = 23.243099 Si / 1000 Ang^3
#
#
#
# Elastic Constant Matrix: (Units=GPa)
#
#
# Indices 1 2 3 4 5 6 
#
# 1 289.7291 110.8978 12.6492 0.0000 0.0000 0.0000
# 2 110.8978 222.1442 28.4661 0.0000 0.0000 0.0000
# 3 12.6492 28.4661 31.6754 0.0000 0.0000 0.0000
# 4 0.0000 0.0000 0.0000 -21.0395 0.0000 0.0000
# 5 0.0000 0.0000 0.0000 0.0000 5.1418 0.0000
# 6 0.0000 0.0000 0.0000 0.0000 0.0000 45.5826
#
#
#
# Elastic Compliance Matrix: (Units=1/GPa)
#
#
# Indices 1 2 3 4 5 6 
#
# 1 0.004268 -0.002161 0.000238 0.000000 0.000000 0.000000
# 2 -0.002161 0.006182 -0.004692 0.000000 0.000000 0.000000
# 3 0.000238 -0.004692 0.035692 0.000000 0.000000 0.000000
# 4 0.000000 0.000000 0.000000 -0.047530 0.000000 0.000000
# 5 0.000000 0.000000 0.000000 0.000000 0.194483 0.000000
# 6 0.000000 0.000000 0.000000 0.000000 0.000000 0.021938
#
#
# Mechanical properties :
#
#
# Convention : Reuss Voigt Hill
#
# Bulk Modulus (GPa) = 30.38534 94.17499 62.28016
# Shear Modulus (GPa) = 20.89986 32.03937 26.46961
#
# Velocity S-wave (km/s) = 3.00190 3.71677 3.37830
# Velocity P-wave (km/s) = 5.01163 7.68274 6.48618
#
# Compressibility (1/GPa) = 0.03291061
#
# Stress axis : x y z
#
# Youngs Moduli (GPa) = 234.28027 161.76415 28.01732
#
# Poissons Ratio (x) = 0.34962 -0.00666
# Poissons Ratio (y) = 0.50635 0.13147
# Poissons Ratio (z) = -0.05571 0.75906
#
# Static dielectric constant tensor:
#      x y z
#    x 7.084320 0.000000 0.000000 
#    y 0.000000 3.978440 0.000000 
#    z 0.000000 0.000000 3.573530 
# 
# 
# High freq. dielectric constant tensor:
#      x y z
#    x 1.959920 0.000000 0.000000 
#    y 0.000000 1.911860 0.000000 
#    z 0.000000 0.000000 1.882970 
# 
# From -- ./inp_files/20944.got.cif
#   From: 2010.03.12/outbox.cif.g09.slc.cpg/sg57_11_cif.got.tgz:20944.got - 2010.04.16 15:48:40.
