data_PCOD8233727
_publ_section_title
;
Structure prediction by ZEFSAII (Michael W. Deem and Ramdas Pophale) SiO2 
 PCOD8233727
Probable space group: P B C M
;
_chemical_formula_sum "Si O2"
_cell_formula_units_Z 64
_cell_length_a 29.843464
_cell_length_b 5.412901
_cell_length_c 18.446640
_cell_angle_alpha 90.000000
_cell_angle_beta 90.000000
_cell_angle_gamma 90.000000
_cell_volume 2979.864989
_symmetry_space_group_name_H-M "P B C M"
_symmetry_group_IT_number 57
_symmetry_cell_setting 'orthorhombic'
loop_
_space_group_symop_operation_xyz
x,y,z
-x,-y,1/2+z
x,1/2-y,-z
-x,1/2+y,1/2-z
-x,-y,-z
x,y,1/2-z
-x,1/2+y,z
x,1/2-y,1/2+z
loop_
_atom_site_type_symbol
_atom_site_label
_atom_site_fract_x
_atom_site_fract_y
_atom_site_fract_z
Si Si1 0.174367 0.259250 0.913844
Si Si2 0.023779 0.743818 0.413563
Si Si3 0.316410 0.630779 0.428586
Si Si4 0.472562 0.590922 0.166947
Si Si5 0.124692 0.756593 0.585651
Si Si6 0.261839 0.179173 0.831708
Si Si7 0.402756 0.363771 0.072549
Si Si8 0.646193 0.978124 0.830796
O O1 0.145246 0.495348 0.888796
O O2 0.220561 0.308234 0.871600
O O3 0.151872 0.000376 0.887896
O O4 0.182766 0.250000 0.000000
O O5 0.022765 0.750000 0.500000
O O6 0.074369 0.726939 0.383503
O O7 0.998248 0.498874 0.384423
O O8 0.294705 0.750000 0.500000
O O9 0.273891 0.559055 0.379871
O O10 0.351972 0.426088 0.454370
O O11 0.350349 0.788608 0.381255
O O12 0.454799 0.587157 0.250000
O O13 0.497949 0.846479 0.151680
O O14 0.432483 0.582658 0.107498
O O15 0.123071 0.750000 0.500000
O O16 0.248758 0.100734 0.750000
O O17 0.305622 0.346618 0.831878
O O18 0.395908 0.176420 0.139806
O O19 0.426063 0.250000 0.000000
O O20 0.633621 0.061326 0.750000
#
# Coordination Sequence:
#
# PCOD8233727 Si02
#       8
#     8   8   8   8   8   8   8   8
#     4  10  21  34  55  78 112 157 195 243 299 358
#     4   9  15  24  43  69 104 146 184 233 296 359
#     4  11  23  38  65  91 122 157 200 254 305 368
#     4  10  24  44  66  94 128 169 211 251 303 368
#     4   9  18  32  47  76 112 149 196 240 297 366
#     4  10  24  40  57  85 117 155 205 254 302 361
#     4  11  23  40  62  94 126 158 202 252 309 364
#     4  10  22  40  61  87 119 157 198 252 305 357
#
# _framework density 21.477481999999998
#
# number of rings (size 3 to 8) (size 9 to 14) (size 15 to 20)
#    0.000    2.000    1.250    1.500    5.250    5.500 
#    0.000    0.000    0.000    0.000    0.000    0.000 
#    0.000   10.000    0.000    0.000    0.000    0.000 
#
# Total GULP energy -793109.340050 kJ/mol
# GULP energy per Si atom -12392.333438 kJ/mol
# Density = 2.142860 g / cm^3
# Si number density = 21.477482 Si / 1000 Ang^3
#
#
#
# Elastic Constant Matrix: (Units=GPa)
#
#
# Indices 1 2 3 4 5 6 
#
# 1 93.3887 28.1906 28.3310 0.0000 0.0000 0.0000
# 2 28.1906 117.5144 21.0935 0.0000 0.0000 0.0000
# 3 28.3310 21.0935 97.0902 0.0000 0.0000 0.0000
# 4 0.0000 0.0000 0.0000 21.0407 0.0000 0.0000
# 5 0.0000 0.0000 0.0000 0.0000 -2.0128 0.0000
# 6 0.0000 0.0000 0.0000 0.0000 0.0000 40.2825
#
#
#
# Elastic Compliance Matrix: (Units=1/GPa)
#
#
# Indices 1 2 3 4 5 6 
#
# 1 0.012373 -0.002414 -0.003086 0.000000 0.000000 0.000000
# 2 -0.002414 0.009326 -0.001322 0.000000 0.000000 0.000000
# 3 -0.003086 -0.001322 0.011487 0.000000 0.000000 0.000000
# 4 0.000000 0.000000 0.000000 0.047527 0.000000 0.000000
# 5 0.000000 0.000000 0.000000 0.000000 -0.496810 0.000000
# 6 0.000000 0.000000 0.000000 0.000000 0.000000 0.024825
#
#
# Mechanical properties :
#
#
# Convention : Reuss Voigt Hill
#
# Bulk Modulus (GPa) = 51.17035 51.46929 51.31982
# Shear Modulus (GPa) = -13.47293 27.22062 6.87384
#
# Velocity S-wave (km/s) = -2.50732 3.56392 1.79093
# Velocity P-wave (km/s) = 3.93632 6.39935 5.31255
#
# Compressibility (1/GPa) = 0.01954257
#
# Stress axis : x y z
#
# Youngs Moduli (GPa) = 80.82210 107.22738 87.05260
#
# Poissons Ratio (x) = 0.25887 0.26864
# Poissons Ratio (y) = 0.19512 0.11505
# Poissons Ratio (z) = 0.24941 0.14172
#
# Static dielectric constant tensor:
#      x y z
#    x 3.808680 0.000000 0.000000 
#    y 0.000000 3.992900 0.000000 
#    z 0.000000 0.000000 4.384060 
# 
# 
# High freq. dielectric constant tensor:
#      x y z
#    x 1.837960 0.000000 0.000000 
#    y 0.000000 1.850260 0.000000 
#    z 0.000000 0.000000 1.814400 
# 
# From -- ./inp_files/23183.got.cif
#   From: 2010.03.12/outbox.cif.g09.slc.cpg/sg57_12_cif.got.tgz:23183.got - 2010.04.16 15:48:40.
