data_PCOD8233917
_publ_section_title
;
Structure prediction by ZEFSAII (Michael W. Deem and Ramdas Pophale) SiO2 
 PCOD8233917
Probable space group: P B C M
;
_chemical_formula_sum "Si O2"
_cell_formula_units_Z 64
_cell_length_a 15.729270
_cell_length_b 7.551513
_cell_length_c 25.861072
_cell_angle_alpha 90.000000
_cell_angle_beta 90.000000
_cell_angle_gamma 90.000000
_cell_volume 3071.772621
_symmetry_space_group_name_H-M "P B C M"
_symmetry_group_IT_number 57
_symmetry_cell_setting 'orthorhombic'
loop_
_space_group_symop_operation_xyz
x,y,z
-x,-y,1/2+z
x,1/2-y,-z
-x,1/2+y,1/2-z
-x,-y,-z
x,y,1/2-z
-x,1/2+y,z
x,1/2-y,1/2+z
loop_
_atom_site_type_symbol
_atom_site_label
_atom_site_fract_x
_atom_site_fract_y
_atom_site_fract_z
Si Si1 0.909216 0.160996 0.807381
Si Si2 0.733504 0.571664 0.850742
Si Si3 0.615775 0.864840 0.691056
Si Si4 0.350439 0.897202 0.457028
Si Si5 0.632409 0.904262 0.053111
Si Si6 0.736676 0.342503 0.355358
Si Si7 0.091311 0.426577 0.192776
Si Si8 0.516162 0.893252 0.907326
O O1 0.905521 0.072603 0.750000
O O2 0.831844 0.089424 0.842203
O O3 0.897917 0.367111 0.801573
O O4 0.000578 0.118414 0.833776
O O5 0.668366 0.682438 0.815166
O O6 0.714305 0.620370 0.910492
O O7 0.722795 0.362410 0.839100
O O8 0.829151 0.642671 0.840763
O O9 0.584335 0.881435 0.750000
O O10 0.532120 0.856831 0.653784
O O11 0.671747 0.035440 0.676331
O O12 0.357193 0.750000 0.500000
O O13 0.337470 0.072829 0.493591
O O14 0.272777 0.868799 0.417409
O O15 0.436737 0.919044 0.422836
O O16 0.582777 0.082368 0.076736
O O17 0.565509 0.746762 0.057484
O O18 0.094450 0.338028 0.250000
#
# Coordination Sequence:
#
# PCOD8233917 Si02
#       8
#     8   8   8   8   8   8   8   8
#     4   9  18  32  54  84 115 147 187 234 285 340
#     4  10  21  37  58  82 119 154 195 240 287 347
#     4  10  22  38  58  83 117 157 193 235 290 350
#     4  11  20  36  60  86 112 149 190 243 302 345
#     4  11  21  38  60  84 116 152 194 249 300 343
#     4  10  21  37  59  88 117 151 193 240 293 348
#     4   9  18  32  53  83 111 146 192 234 285 339
#     4  10  23  37  59  86 117 145 199 244 293 350
#
# _framework density 20.834876000000001
#
# number of rings (size 3 to 8) (size 9 to 14) (size 15 to 20)
#    0.000    2.000    1.250    2.250    3.500    1.500 
#    0.000    3.125    0.000    0.750    0.000    0.000 
#    0.000    0.000    0.000    0.000    0.000    0.000 
#
# Total GULP energy -793045.321606 kJ/mol
# GULP energy per Si atom -12391.333150 kJ/mol
# Density = 2.078745 g / cm^3
# Si number density = 20.834876 Si / 1000 Ang^3
#
#
#
# Elastic Constant Matrix: (Units=GPa)
#
#
# Indices 1 2 3 4 5 6 
#
# 1 120.4831 0.5432 59.2729 0.0000 0.0000 0.0000
# 2 0.5432 55.3116 16.7481 0.0000 0.0000 0.0000
# 3 59.2729 16.7481 143.4705 0.0000 0.0000 0.0000
# 4 0.0000 0.0000 0.0000 23.1527 0.0000 0.0000
# 5 0.0000 0.0000 0.0000 0.0000 15.7240 0.0000
# 6 0.0000 0.0000 0.0000 0.0000 0.0000 20.6930
#
#
#
# Elastic Compliance Matrix: (Units=1/GPa)
#
#
# Indices 1 2 3 4 5 6 
#
# 1 0.010501 0.001255 -0.004485 0.000000 0.000000 0.000000
# 2 0.001255 0.018892 -0.002724 0.000000 0.000000 0.000000
# 3 -0.004485 -0.002724 0.009141 0.000000 0.000000 0.000000
# 4 0.000000 0.000000 0.000000 0.043191 0.000000 0.000000
# 5 0.000000 0.000000 0.000000 0.000000 0.063597 0.000000
# 6 0.000000 0.000000 0.000000 0.000000 0.000000 0.048326
#
#
# Mechanical properties :
#
#
# Convention : Reuss Voigt Hill
#
# Bulk Modulus (GPa) = 37.55731 52.48818 45.02275
# Shear Modulus (GPa) = 23.31768 28.09401 25.70585
#
# Velocity S-wave (km/s) = 3.34902 3.67606 3.51634
# Velocity P-wave (km/s) = 5.74630 6.57761 6.17596
#
# Compressibility (1/GPa) = 0.02662598
#
# Stress axis : x y z
#
# Youngs Moduli (GPa) = 95.23336 52.93298 109.39966
#
# Poissons Ratio (x) = -0.06642 0.49062
# Poissons Ratio (y) = -0.11950 0.29798
# Poissons Ratio (z) = 0.42709 0.14418
#
# Static dielectric constant tensor:
#      x y z
#    x 3.885810 0.000000 0.000000 
#    y 0.000000 4.579590 0.000000 
#    z 0.000000 0.000000 4.063780 
# 
# 
# High freq. dielectric constant tensor:
#      x y z
#    x 1.789050 0.000000 0.000000 
#    y 0.000000 1.843460 0.000000 
#    z 0.000000 0.000000 1.797520 
# 
# From -- ./inp_files/27487.got.cif
#   From: 2010.03.12/outbox.cif.g09.slc.cpg/sg57_14_cif.got.tgz:27487.got - 2010.04.16 15:48:40.
