data_PCOD8233992
_publ_section_title
;
Structure prediction by ZEFSAII (Michael W. Deem and Ramdas Pophale) SiO2 
 PCOD8233992
Probable space group: P B C M
;
_chemical_formula_sum "Si O2"
_cell_formula_units_Z 64
_cell_length_a 10.973322
_cell_length_b 17.839289
_cell_length_c 16.575944
_cell_angle_alpha 90.000000
_cell_angle_beta 90.000000
_cell_angle_gamma 90.000000
_cell_volume 3244.844844
_symmetry_space_group_name_H-M "P B C M"
_symmetry_group_IT_number 57
_symmetry_cell_setting 'orthorhombic'
loop_
_space_group_symop_operation_xyz
x,y,z
-x,-y,1/2+z
x,1/2-y,-z
-x,1/2+y,1/2-z
-x,-y,-z
x,y,1/2-z
-x,1/2+y,z
x,1/2-y,1/2+z
loop_
_atom_site_type_symbol
_atom_site_label
_atom_site_fract_x
_atom_site_fract_y
_atom_site_fract_z
Si Si1 0.532588 0.814489 0.340278
Si Si2 0.945747 0.310131 0.157309
Si Si3 0.717642 0.942279 0.345028
Si Si4 0.400720 0.601618 0.343763
Si Si5 0.703766 0.249259 0.091689
Si Si6 0.348607 0.344709 0.660587
Si Si7 0.124388 0.197398 0.432307
Si Si8 0.956452 0.925544 0.454505
O O1 0.485020 0.832061 0.250000
O O2 0.616508 0.882018 0.371950
O O3 0.415526 0.801702 0.397174
O O4 0.617110 0.742215 0.339770
O O5 0.975599 0.325053 0.250000
O O6 0.810552 0.278500 0.148597
O O7 0.044753 0.249258 0.126793
O O8 0.951616 0.390767 0.111893
O O9 0.755243 0.931929 0.250000
O O10 0.829822 0.936337 0.406417
O O11 0.656593 0.021922 0.359951
O O12 0.405369 0.624003 0.250000
O O13 0.319352 0.663165 0.387180
O O14 0.540576 0.605615 0.376224
O O15 0.748207 0.250000 0.000000
O O16 0.318147 0.373366 0.750000
O O17 0.226298 0.353142 0.610129
O O18 0.187036 0.250000 0.500000
O O19 0.040971 0.136309 0.475412
O O20 0.000000 0.000000 0.500000
#
# Coordination Sequence:
#
# PCOD8233992 Si02
#       8
#     8   8   8   8   8   8   8   8
#     4   9  18  35  59  87 117 157 200 246 295 362
#     4  11  23  42  66  89 116 165 218 255 302 375
#     4  10  21  39  64  87 119 169 211 246 310 386
#     4   9  20  37  59  87 119 159 203 248 298 370
#     4  11  22  36  60  91 125 156 202 260 316 361
#     4   9  17  34  57  84 116 148 198 251 294 350
#     4  10  21  37  61  87 118 156 201 255 311 361
#     4  11  25  42  60  87 130 156 202 260 316 373
#
# _framework density 19.723593000000001
#
# number of rings (size 3 to 8) (size 9 to 14) (size 15 to 20)
#    0.000    2.000    0.000    5.250    3.500    5.000 
#    2.250    3.125    0.000    0.000    0.000    0.000 
#    0.000    0.000    0.000    0.000    0.000    0.000 
#
# Total GULP energy -793339.626704 kJ/mol
# GULP energy per Si atom -12395.931667 kJ/mol
# Density = 1.967870 g / cm^3
# Si number density = 19.723593 Si / 1000 Ang^3
#
#
#
# Elastic Constant Matrix: (Units=GPa)
#
#
# Indices 1 2 3 4 5 6 
#
# 1 78.1987 17.6612 30.8324 0.0000 0.0000 0.0000
# 2 17.6612 77.3417 34.1893 0.0000 0.0000 0.0000
# 3 30.8324 34.1893 93.8086 0.0000 0.0000 0.0000
# 4 0.0000 0.0000 0.0000 29.3476 0.0000 0.0000
# 5 0.0000 0.0000 0.0000 0.0000 29.0216 0.0000
# 6 0.0000 0.0000 0.0000 0.0000 0.0000 21.4696
#
#
#
# Elastic Compliance Matrix: (Units=1/GPa)
#
#
# Indices 1 2 3 4 5 6 
#
# 1 0.014830 -0.001468 -0.004339 0.000000 0.000000 0.000000
# 2 -0.001468 0.015558 -0.005188 0.000000 0.000000 0.000000
# 3 -0.004339 -0.005188 0.013977 0.000000 0.000000 0.000000
# 4 0.000000 0.000000 0.000000 0.034074 0.000000 0.000000
# 5 0.000000 0.000000 0.000000 0.000000 0.034457 0.000000
# 6 0.000000 0.000000 0.000000 0.000000 0.000000 0.046578
#
#
# Mechanical properties :
#
#
# Convention : Reuss Voigt Hill
#
# Bulk Modulus (GPa) = 44.69290 46.07944 45.38617
# Shear Modulus (GPa) = 26.46575 27.07882 26.77229
#
# Velocity S-wave (km/s) = 3.66708 3.70931 3.68825
# Velocity P-wave (km/s) = 6.37485 6.46209 6.41862
#
# Compressibility (1/GPa) = 0.02237492
#
# Stress axis : x y z
#
# Youngs Moduli (GPa) = 67.42886 64.27481 71.54672
#
# Poissons Ratio (x) = 0.09438 0.31046
# Poissons Ratio (y) = 0.09901 0.37116
# Poissons Ratio (z) = 0.29259 0.33344
#
# Static dielectric constant tensor:
#      x y z
#    x 3.518250 0.000000 0.000000 
#    y 0.000000 3.614980 0.000000 
#    z 0.000000 0.000000 3.683550 
# 
# 
# High freq. dielectric constant tensor:
#      x y z
#    x 1.767310 0.000000 0.000000 
#    y 0.000000 1.760620 0.000000 
#    z 0.000000 0.000000 1.771690 
# 
# From -- ./inp_files/17963.got.cif
#   From: 2010.03.12/outbox.cif.g09.slc.cpg/sg57_9_cif.got.tgz:17963.got - 2010.04.16 15:48:40.
