data_PCOD8233339
_publ_section_title
;
Structure prediction by ZEFSAII (Michael W. Deem and Ramdas Pophale) SiO2 
 PCOD8233339
Probable space group: P B C M
;
_chemical_formula_sum "Si O2"
_cell_formula_units_Z 48
_cell_length_a 12.509333
_cell_length_b 23.451316
_cell_length_c 8.718557
_cell_angle_alpha 90.000000
_cell_angle_beta 90.000000
_cell_angle_gamma 90.000000
_cell_volume 2557.678681
_symmetry_space_group_name_H-M "P B C M"
_symmetry_group_IT_number 57
_symmetry_cell_setting 'orthorhombic'
loop_
_space_group_symop_operation_xyz
x,y,z
-x,-y,1/2+z
x,1/2-y,-z
-x,1/2+y,1/2-z
-x,-y,-z
x,y,1/2-z
-x,1/2+y,z
x,1/2-y,1/2+z
loop_
_atom_site_type_symbol
_atom_site_label
_atom_site_fract_x
_atom_site_fract_y
_atom_site_fract_z
Si Si1 0.997262 0.310708 0.069547
Si Si2 0.627888 0.689984 0.431665
Si Si3 0.811154 0.381823 0.929969
Si Si4 0.198646 0.389610 0.070489
Si Si5 0.882734 0.002244 0.569117
Si Si6 0.386670 0.808189 0.928163
O O1 0.975123 0.305597 0.250000
O O2 0.093499 0.353426 0.033108
O O3 0.029198 0.250000 0.000000
O O4 0.892908 0.333465 0.984213
O O5 0.668103 0.750000 0.500000
O O6 0.640699 0.691998 0.250000
O O7 0.697863 0.639440 0.499154
O O8 0.506333 0.677627 0.485950
O O9 0.827683 0.393473 0.750000
O O10 0.691857 0.360157 0.968507
O O11 0.825968 0.439162 0.024891
O O12 0.215740 0.397295 0.250000
O O13 0.189063 0.451244 0.994096
O O14 0.893065 0.997837 0.750000
O O15 0.000000 0.000000 0.500000
O O16 0.389087 0.796394 0.750000
O O17 0.342238 0.750000 0.000000
#
# Coordination Sequence:
#
# PCOD8233339 Si02
#       6
#     8   8   8   8   8   8
#     4  11  23  36  54  82 117 150 187 236 291 346
#     4  10  20  37  60  87 119 154 195 239 290 345
#     4  11  22  38  60  85 116 152 195 240 289 345
#     4  11  23  39  59  85 116 151 196 241 289 344
#     4  12  24  40  61  85 115 154 196 238 289 346
#     4   9  20  37  59  87 118 154 193 239 289 343
#
# _framework density 18.767016999999999
#
# number of rings (size 3 to 8) (size 9 to 14) (size 15 to 20)
#    0.000    1.333    1.667    4.500    0.000    6.667 
#    0.000    0.833    0.000    0.000    0.000    0.000 
#    0.000    0.000    0.000    0.000    0.000    0.000 
#
# Total GULP energy -595459.738648 kJ/mol
# GULP energy per Si atom -12405.411222 kJ/mol
# Density = 1.872430 g / cm^3
# Si number density = 18.767017 Si / 1000 Ang^3
#
#
#
# Elastic Constant Matrix: (Units=GPa)
#
#
# Indices 1 2 3 4 5 6 
#
# 1 91.2134 41.4676 39.0685 0.0000 0.0000 0.0000
# 2 41.4676 105.6407 36.9449 0.0000 0.0000 0.0000
# 3 39.0685 36.9449 87.1346 0.0000 0.0000 0.0000
# 4 0.0000 0.0000 0.0000 38.7067 0.0000 0.0000
# 5 0.0000 0.0000 0.0000 0.0000 27.4999 0.0000
# 6 0.0000 0.0000 0.0000 0.0000 0.0000 25.2718
#
#
#
# Elastic Compliance Matrix: (Units=1/GPa)
#
#
# Indices 1 2 3 4 5 6 
#
# 1 0.014969 -0.004143 -0.004955 0.000000 0.000000 0.000000
# 2 -0.004143 0.012261 -0.003341 0.000000 0.000000 0.000000
# 3 -0.004955 -0.003341 0.015115 0.000000 0.000000 0.000000
# 4 0.000000 0.000000 0.000000 0.025835 0.000000 0.000000
# 5 0.000000 0.000000 0.000000 0.000000 0.036364 0.000000
# 6 0.000000 0.000000 0.000000 0.000000 0.000000 0.039570
#
#
# Mechanical properties :
#
#
# Convention : Reuss Voigt Hill
#
# Bulk Modulus (GPa) = 57.25214 57.66119 57.45667
# Shear Modulus (GPa) = 28.60187 29.39619 28.99903
#
# Velocity S-wave (km/s) = 3.90814 3.96204 3.93518
# Velocity P-wave (km/s) = 7.13707 7.19179 7.16448
#
# Compressibility (1/GPa) = 0.01746660
#
# Stress axis : x y z
#
# Youngs Moduli (GPa) = 66.80397 81.56125 66.16050
#
# Poissons Ratio (x) = 0.33791 0.32783
# Poissons Ratio (y) = 0.27677 0.22104
# Poissons Ratio (z) = 0.33102 0.27249
#
# Static dielectric constant tensor:
#      x y z
#    x 3.654100 0.000000 0.000000 
#    y 0.000000 3.604190 0.000000 
#    z 0.000000 0.000000 3.573110 
# 
# 
# High freq. dielectric constant tensor:
#      x y z
#    x 1.729680 0.000000 0.000000 
#    y 0.000000 1.732180 0.000000 
#    z 0.000000 0.000000 1.744530 
# 
# From -- ./inp_files/3100.got.cif
#   From: 2010.03.12/outbox.cif.g09.slc.cpg/sg57_2_cif.got.tgz:3100.got - 2010.04.16 15:48:40.
