data_PCOD8233627
_publ_section_title
;
Structure prediction by ZEFSAII (Michael W. Deem and Ramdas Pophale) SiO2 
 PCOD8233627
Probable space group: P B C M
;
_chemical_formula_sum "Si O2"
_cell_formula_units_Z 40
_cell_length_a 12.235076
_cell_length_b 16.238191
_cell_length_c 9.976849
_cell_angle_alpha 90.000000
_cell_angle_beta 90.000000
_cell_angle_gamma 90.000000
_cell_volume 1982.155473
_symmetry_space_group_name_H-M "P B C M"
_symmetry_group_IT_number 57
_symmetry_cell_setting 'orthorhombic'
loop_
_space_group_symop_operation_xyz
x,y,z
-x,-y,1/2+z
x,1/2-y,-z
-x,1/2+y,1/2-z
-x,-y,-z
x,y,1/2-z
-x,1/2+y,z
x,1/2-y,1/2+z
loop_
_atom_site_type_symbol
_atom_site_label
_atom_site_fract_x
_atom_site_fract_y
_atom_site_fract_z
Si Si1 0.233654 0.447798 0.497690
Si Si2 0.169652 0.750000 0.000000
Si Si3 0.920502 0.539326 0.250000
Si Si4 0.541191 0.929987 0.902403
Si Si5 0.686288 0.120656 0.099585
Si Si6 0.020067 0.776339 0.750000
Si Si7 0.101385 0.392496 0.250000
O O1 0.151667 0.471816 0.617235
O O2 0.338743 0.396513 0.554235
O O3 0.283173 0.526945 0.426098
O O4 0.171659 0.396287 0.385266
O O5 0.250120 0.672156 0.986939
O O6 0.093635 0.736995 0.123550
O O7 0.970214 0.631662 0.250000
O O8 0.010760 0.465950 0.250000
O O9 0.549198 0.963997 0.750000
O O10 0.444541 0.861848 0.910801
O O11 0.500000 0.000000 0.000000
O O12 0.726124 0.144342 0.250000
O O13 0.934950 0.702031 0.750000
#
# Coordination Sequence:
#
# PCOD8233627 Si02
#       7
#     8   4   4   8   8   4   4
#     4  11  21  40  65  92 125 166 212 256 316 374
#     4  12  22  42  62  88 126 164 200 266 318 362
#     4  12  24  42  64  94 128 170 220 266 306 370
#     4   9  19  36  62  92 122 155 201 258 316 380
#     4  10  20  39  64  93 124 160 205 257 316 379
#     4  12  26  42  62  94 130 162 216 268 314 362
#     4  12  24  40  62  92 124 178 218 254 314 376
#
# _framework density 20.180052
#
# number of rings (size 3 to 8) (size 9 to 14) (size 15 to 20)
#    0.000    1.200    3.000    4.200    1.400    0.000 
#    1.800    2.000    0.000    0.000    0.000    0.000 
#    0.000    0.000    0.000    0.000    0.000    0.000 
#
# Total GULP energy -495536.127599 kJ/mol
# GULP energy per Si atom -12388.403190 kJ/mol
# Density = 2.013412 g / cm^3
# Si number density = 20.180052 Si / 1000 Ang^3
#
#
#
# Elastic Constant Matrix: (Units=GPa)
#
#
# Indices 1 2 3 4 5 6 
#
# 1 141.7279 33.1813 62.3306 0.0000 0.0000 0.0000
# 2 33.1813 69.8696 6.4572 0.0000 0.0000 0.0000
# 3 62.3306 6.4572 108.3509 0.0000 0.0000 0.0000
# 4 0.0000 0.0000 0.0000 15.5743 0.0000 0.0000
# 5 0.0000 0.0000 0.0000 0.0000 600.0869 0.0000
# 6 0.0000 0.0000 0.0000 0.0000 0.0000 13.3421
#
#
#
# Elastic Compliance Matrix: (Units=1/GPa)
#
#
# Indices 1 2 3 4 5 6 
#
# 1 0.010709 -0.004542 -0.005890 0.000000 0.000000 0.000000
# 2 -0.004542 0.016318 0.001640 0.000000 0.000000 0.000000
# 3 -0.005890 0.001640 0.012520 0.000000 0.000000 0.000000
# 4 0.000000 0.000000 0.000000 0.064208 0.000000 0.000000
# 5 0.000000 0.000000 0.000000 0.000000 0.001666 0.000000
# 6 0.000000 0.000000 0.000000 0.000000 0.000000 0.074951
#
#
# Mechanical properties :
#
#
# Convention : Reuss Voigt Hill
#
# Bulk Modulus (GPa) = 45.52929 58.20963 51.86946
# Shear Modulus (GPa) = 24.35734 140.33263 82.34498
#
# Velocity S-wave (km/s) = 3.47796 8.34813 6.39482
# Velocity P-wave (km/s) = 6.22405 11.03764 8.96014
#
# Compressibility (1/GPa) = 0.02196388
#
# Stress axis : x y z
#
# Youngs Moduli (GPa) = 93.37511 61.28345 79.87265
#
# Poissons Ratio (x) = 0.27833 0.47046
# Poissons Ratio (y) = 0.42407 -0.13101
# Poissons Ratio (z) = 0.54999 -0.10052
#
# Static dielectric constant tensor:
#      x y z
#    x 4.597260 0.000000 0.000000 
#    y 0.000000 3.613090 0.000000 
#    z 0.000000 0.000000 3.884120 
# 
# 
# High freq. dielectric constant tensor:
#      x y z
#    x 1.818500 0.000000 0.000000 
#    y 0.000000 1.748400 0.000000 
#    z 0.000000 0.000000 1.808200 
# 
# From -- ./inp_files/2767.got.cif
#   From: 2010.03.12/outbox.cif.g09.slc.cpg/sg57_2_cif.got.tgz:2767.got - 2010.04.16 15:48:40.
