data_PCOD8233533
_publ_section_title
;
Structure prediction by ZEFSAII (Michael W. Deem and Ramdas Pophale) SiO2 
 PCOD8233533
Probable space group: P B C M
;
_chemical_formula_sum "Si O2"
_cell_formula_units_Z 40
_cell_length_a 10.044445
_cell_length_b 22.696303
_cell_length_c 8.740540
_cell_angle_alpha 90.000000
_cell_angle_beta 90.000000
_cell_angle_gamma 90.000000
_cell_volume 1992.596350
_symmetry_space_group_name_H-M "P B C M"
_symmetry_group_IT_number 57
_symmetry_cell_setting 'orthorhombic'
loop_
_space_group_symop_operation_xyz
x,y,z
-x,-y,1/2+z
x,1/2-y,-z
-x,1/2+y,1/2-z
-x,-y,-z
x,y,1/2-z
-x,1/2+y,z
x,1/2-y,1/2+z
loop_
_atom_site_type_symbol
_atom_site_label
_atom_site_fract_x
_atom_site_fract_y
_atom_site_fract_z
Si Si1 0.252305 0.613510 0.427086
Si Si2 0.019962 0.813514 0.430956
Si Si3 0.642345 0.511236 0.572624
Si Si4 0.472476 0.688507 0.928513
Si Si5 0.251735 0.366803 0.428050
O O1 0.232123 0.629967 0.250000
O O2 0.257052 0.543209 0.452255
O O3 0.393178 0.637498 0.485717
O O4 0.133883 0.640362 0.525954
O O5 0.053154 0.750000 0.500000
O O6 0.013427 0.806557 0.250000
O O7 0.881366 0.838620 0.500931
O O8 0.500000 0.500000 0.500000
O O9 0.613570 0.522840 0.750000
O O10 0.712723 0.569225 0.499850
O O11 0.436644 0.687578 0.750000
O O12 0.628367 0.678436 0.958614
O O13 0.427567 0.750000 0.000000
O O14 0.224689 0.375849 0.250000
#
# Coordination Sequence:
#
# PCOD8233533 Si02
#       5
#     8   8   8   8   8
#     4  11  23  38  59  88 120 155 196 243 291 350
#     4  11  23  41  62  85 119 159 198 244 296 353
#     4  10  20  38  62  89 121 153 194 244 294 350
#     4  11  21  36  59  85 116 152 197 246 295 351
#     4   9  20  38  61  87 117 154 193 242 299 349
#
# _framework density 20.074311999999999
#
# number of rings (size 3 to 8) (size 9 to 14) (size 15 to 20)
#    0.000    1.600    2.000    3.000    0.000    1.600 
#    0.000    5.000    0.000    0.000    0.000    0.000 
#    0.000    0.000    0.000    0.000    0.000    0.000 
#
# Total GULP energy -496092.140405 kJ/mol
# GULP energy per Si atom -12402.303510 kJ/mol
# Density = 2.002862 g / cm^3
# Si number density = 20.074312 Si / 1000 Ang^3
#
#
#
# Elastic Constant Matrix: (Units=GPa)
#
#
# Indices 1 2 3 4 5 6 
#
# 1 92.0827 15.6363 18.6520 0.0000 0.0000 0.0000
# 2 15.6363 99.9668 31.1171 0.0000 0.0000 0.0000
# 3 18.6520 31.1171 58.8699 0.0000 0.0000 0.0000
# 4 0.0000 0.0000 0.0000 19.7425 0.0000 0.0000
# 5 0.0000 0.0000 0.0000 0.0000 25.4584 0.0000
# 6 0.0000 0.0000 0.0000 0.0000 0.0000 35.9649
#
#
#
# Elastic Compliance Matrix: (Units=1/GPa)
#
#
# Indices 1 2 3 4 5 6 
#
# 1 0.011659 -0.000806 -0.003268 0.000000 0.000000 0.000000
# 2 -0.000806 0.012029 -0.006103 0.000000 0.000000 0.000000
# 3 -0.003268 -0.006103 0.021248 0.000000 0.000000 0.000000
# 4 0.000000 0.000000 0.000000 0.050652 0.000000 0.000000
# 5 0.000000 0.000000 0.000000 0.000000 0.039280 0.000000
# 6 0.000000 0.000000 0.000000 0.000000 0.000000 0.027805
#
#
# Mechanical properties :
#
#
# Convention : Reuss Voigt Hill
#
# Bulk Modulus (GPa) = 40.68053 42.41447 41.54750
# Shear Modulus (GPa) = 26.14794 28.60077 27.37436
#
# Velocity S-wave (km/s) = 3.61301 3.77867 3.69677
# Velocity P-wave (km/s) = 6.14118 6.34133 6.24206
#
# Compressibility (1/GPa) = 0.02458178
#
# Stress axis : x y z
#
# Youngs Moduli (GPa) = 85.77346 83.13176 47.06400
#
# Poissons Ratio (x) = 0.06704 0.15378
# Poissons Ratio (y) = 0.06917 0.28722
# Poissons Ratio (z) = 0.28027 0.50733
#
# Static dielectric constant tensor:
#      x y z
#    x 3.677900 0.000000 0.000000 
#    y 0.000000 3.513000 0.000000 
#    z 0.000000 0.000000 3.508270 
# 
# 
# High freq. dielectric constant tensor:
#      x y z
#    x 1.785430 0.000000 0.000000 
#    y 0.000000 1.800110 0.000000 
#    z 0.000000 0.000000 1.767980 
# 
# From -- ./inp_files/1504.got.cif
#   From: 2010.03.12/outbox.cif.g09.slc.cpg/sg57_1_cif.got.tgz:1504.got - 2010.04.16 15:48:40.
