data_PCOD8233263
_publ_section_title
;
Structure prediction by ZEFSAII (Michael W. Deem and Ramdas Pophale) SiO2 
 PCOD8233263
Probable space group: P B C M
;
_chemical_formula_sum "Si O2"
_cell_formula_units_Z 48
_cell_length_a 11.441109
_cell_length_b 23.793818
_cell_length_c 8.400459
_cell_angle_alpha 90.000000
_cell_angle_beta 90.000000
_cell_angle_gamma 90.000000
_cell_volume 2286.837341
_symmetry_space_group_name_H-M "P B C M"
_symmetry_group_IT_number 57
_symmetry_cell_setting 'orthorhombic'
loop_
_space_group_symop_operation_xyz
x,y,z
-x,-y,1/2+z
x,1/2-y,-z
-x,1/2+y,1/2-z
-x,-y,-z
x,y,1/2-z
-x,1/2+y,z
x,1/2-y,1/2+z
loop_
_atom_site_type_symbol
_atom_site_label
_atom_site_fract_x
_atom_site_fract_y
_atom_site_fract_z
Si Si1 0.223203 0.907582 0.566181
Si Si2 0.157050 0.310008 0.936988
Si Si3 0.972355 0.912627 0.065196
Si Si4 0.626117 0.187807 0.934769
Si Si5 0.257752 0.471329 0.061768
Si Si6 0.383340 0.138437 0.560147
O O1 0.248531 0.895707 0.750000
O O2 0.265024 0.853024 0.470120
O O3 0.086971 0.919568 0.540937
O O4 0.289602 0.965017 0.507534
O O5 0.132787 0.316857 0.750000
O O6 0.119019 0.250000 0.000000
O O7 0.077012 0.350549 0.041071
O O8 0.293185 0.320064 0.975041
O O9 0.002944 0.922287 0.250000
O O10 0.872081 0.954911 0.998654
O O11 0.610896 0.195174 0.750000
O O12 0.510200 0.157393 0.003965
O O13 0.647970 0.250000 0.000000
O O14 0.248862 0.468750 0.250000
O O15 0.355319 0.426081 0.004815
O O16 0.371806 0.144302 0.750000
#
# Coordination Sequence:
#
# PCOD8233263 Si02
#       6
#     8   8   8   8   8   8
#     4  11  22  37  58  85 117 152 190 229 276 335
#     4  11  21  34  55  84 114 146 188 236 288 340
#     4  10  20  37  58  82 115 152 190 232 282 334
#     4  11  24  41  60  82 112 152 195 236 281 333
#     4   8  17  35  60  88 117 147 180 227 282 336
#     4   9  19  38  61  85 114 147 186 233 284 335
#
# _framework density 20.989687
#
# number of rings (size 3 to 8) (size 9 to 14) (size 15 to 20)
#    0.000    2.000    0.000    5.000    0.000    4.000 
#    0.000   10.833    0.000    0.000    0.000    0.000 
#    0.000    0.000    0.000    0.000    0.000    0.000 
#
# Total GULP energy -595055.081842 kJ/mol
# GULP energy per Si atom -12396.980872 kJ/mol
# Density = 2.094191 g / cm^3
# Si number density = 20.989687 Si / 1000 Ang^3
#
#
#
# Elastic Constant Matrix: (Units=GPa)
#
#
# Indices 1 2 3 4 5 6 
#
# 1 58.9982 42.0781 6.9252 0.0000 0.0000 0.0000
# 2 42.0781 156.3880 8.0946 0.0000 0.0000 0.0000
# 3 6.9252 8.0946 37.1247 0.0000 0.0000 0.0000
# 4 0.0000 0.0000 0.0000 20.7412 0.0000 0.0000
# 5 0.0000 0.0000 0.0000 0.0000 27.8495 0.0000
# 6 0.0000 0.0000 0.0000 0.0000 0.0000 6.0473
#
#
#
# Elastic Compliance Matrix: (Units=1/GPa)
#
#
# Indices 1 2 3 4 5 6 
#
# 1 0.021248 -0.005575 -0.002748 0.000000 0.000000 0.000000
# 2 -0.005575 0.007930 -0.000689 0.000000 0.000000 0.000000
# 3 -0.002748 -0.000689 0.027599 0.000000 0.000000 0.000000
# 4 0.000000 0.000000 0.000000 0.048213 0.000000 0.000000
# 5 0.000000 0.000000 0.000000 0.000000 0.035907 0.000000
# 6 0.000000 0.000000 0.000000 0.000000 0.000000 0.165364
#
#
# Mechanical properties :
#
#
# Convention : Reuss Voigt Hill
#
# Bulk Modulus (GPa) = 25.80428 40.74518 33.27473
# Shear Modulus (GPa) = 14.82782 23.95511 19.39146
#
# Velocity S-wave (km/s) = 2.66077 3.38195 3.04280
# Velocity P-wave (km/s) = 4.66477 5.89103 5.31339
#
# Compressibility (1/GPa) = 0.03875326
#
# Stress axis : x y z
#
# Youngs Moduli (GPa) = 47.06258 126.10329 36.23301
#
# Poissons Ratio (x) = 0.70301 0.09957
# Poissons Ratio (y) = 0.26237 0.02497
# Poissons Ratio (z) = 0.12933 0.08690
#
# Static dielectric constant tensor:
#      x y z
#    x 3.717030 0.000000 0.000000 
#    y 0.000000 4.126410 0.000000 
#    z 0.000000 0.000000 3.532830 
# 
# 
# High freq. dielectric constant tensor:
#      x y z
#    x 1.808400 0.000000 0.000000 
#    y 0.000000 1.838390 0.000000 
#    z 0.000000 0.000000 1.806160 
# 
# From -- ./inp_files/3178.got.cif
#   From: 2010.03.12/outbox.cif.g09.slc.cpg/sg57_2_cif.got.tgz:3178.got - 2010.04.16 15:48:40.
