data_PCOD8233368
_publ_section_title
;
Structure prediction by ZEFSAII (Michael W. Deem and Ramdas Pophale) SiO2 
 PCOD8233368
Probable space group: P B C M
;
_chemical_formula_sum "Si O2"
_cell_formula_units_Z 64
_cell_length_a 18.102740
_cell_length_b 10.047290
_cell_length_c 17.317595
_cell_angle_alpha 90.000000
_cell_angle_beta 90.000000
_cell_angle_gamma 90.000000
_cell_volume 3149.784419
_symmetry_space_group_name_H-M "P B C M"
_symmetry_group_IT_number 57
_symmetry_cell_setting 'orthorhombic'
loop_
_space_group_symop_operation_xyz
x,y,z
-x,-y,1/2+z
x,1/2-y,-z
-x,1/2+y,1/2-z
-x,-y,-z
x,y,1/2-z
-x,1/2+y,z
x,1/2-y,1/2+z
loop_
_atom_site_type_symbol
_atom_site_label
_atom_site_fract_x
_atom_site_fract_y
_atom_site_fract_z
Si Si1 0.032902 0.519975 0.586193
Si Si2 0.073766 0.263630 0.408602
Si Si3 0.583434 0.879183 0.958896
Si Si4 0.300685 0.100915 0.335150
Si Si5 0.279549 0.860903 0.659283
Si Si6 0.178756 0.889704 0.340816
Si Si7 0.419227 0.637448 0.441794
Si Si8 0.781053 0.639534 0.662766
O O1 0.043656 0.376149 0.627140
O O2 0.110462 0.599314 0.598668
O O3 0.000000 0.500000 0.500000
O O4 0.973060 0.614476 0.627888
O O5 0.064645 0.250000 0.500000
O O6 0.157955 0.292056 0.390182
O O7 0.634637 0.938474 0.892480
O O8 0.505047 0.836577 0.919958
O O9 0.618663 0.750000 0.000000
O O10 0.579727 0.990530 0.023789
O O11 0.326870 0.057175 0.250000
O O12 0.287745 0.259502 0.338506
O O13 0.226347 0.021797 0.355786
O O14 0.287690 0.868416 0.750000
O O15 0.227226 0.738614 0.634589
O O16 0.363286 0.849881 0.629333
O O17 0.242781 0.997342 0.627595
O O18 0.154131 0.880611 0.250000
O O19 0.391242 0.750000 0.500000
O O20 0.811275 0.622573 0.750000
#
# Coordination Sequence:
#
# PCOD8233368 Si02
#       8
#     8   8   8   8   8   8   8   8
#     4  10  22  41  58  85 120 151 191 246 294 358
#     4  10  22  39  58  83 116 149 187 237 291 346
#     4  10  21  37  59  87 124 159 200 247 299 356
#     4  10  20  37  61  88 116 156 204 245 296 356
#     4  10  22  39  60  89 120 156 203 250 298 357
#     4  10  21  40  62  84 118 157 199 249 301 359
#     4  10  21  39  57  87 124 160 199 246 300 357
#     4  10  21  38  58  83 115 147 190 242 287 345
#
# _framework density 20.318852
#
# number of rings (size 3 to 8) (size 9 to 14) (size 15 to 20)
#    0.000    2.000    1.250    1.500    1.750    2.500 
#    4.500    0.000    0.000    9.000    0.000    0.000 
#    0.000    0.000    0.000    0.000    0.000    0.000 
#
# Total GULP energy -793143.022664 kJ/mol
# GULP energy per Si atom -12392.859729 kJ/mol
# Density = 2.027261 g / cm^3
# Si number density = 20.318852 Si / 1000 Ang^3
#
#
#
# Elastic Constant Matrix: (Units=GPa)
#
#
# Indices 1 2 3 4 5 6 
#
# 1 92.7733 10.2899 45.7806 0.0000 0.0000 0.0000
# 2 10.2899 101.1305 10.4379 0.0000 0.0000 0.0000
# 3 45.7806 10.4379 47.1503 0.0000 0.0000 0.0000
# 4 0.0000 0.0000 0.0000 19.7717 0.0000 0.0000
# 5 0.0000 0.0000 0.0000 0.0000 24.4464 0.0000
# 6 0.0000 0.0000 0.0000 0.0000 0.0000 23.9001
#
#
#
# Elastic Compliance Matrix: (Units=1/GPa)
#
#
# Indices 1 2 3 4 5 6 
#
# 1 0.020694 -0.000032 -0.020086 0.000000 0.000000 0.000000
# 2 -0.000032 0.010119 -0.002209 0.000000 0.000000 0.000000
# 3 -0.020086 -0.002209 0.041200 0.000000 0.000000 0.000000
# 4 0.000000 0.000000 0.000000 0.050577 0.000000 0.000000
# 5 0.000000 0.000000 0.000000 0.000000 0.040906 0.000000
# 6 0.000000 0.000000 0.000000 0.000000 0.000000 0.041841
#
#
# Mechanical properties :
#
#
# Convention : Reuss Voigt Hill
#
# Bulk Modulus (GPa) = 36.55002 41.56343 39.05672
# Shear Modulus (GPa) = 19.29668 25.26003 22.27836
#
# Velocity S-wave (km/s) = 3.08505 3.52970 3.31484
# Velocity P-wave (km/s) = 5.54232 6.09194 5.82362
#
# Compressibility (1/GPa) = 0.02735977
#
# Stress axis : x y z
#
# Youngs Moduli (GPa) = 48.32243 98.81929 24.27174
#
# Poissons Ratio (x) = 0.00321 0.48752
# Poissons Ratio (y) = 0.00157 0.05361
# Poissons Ratio (z) = 0.97060 0.21826
#
# Static dielectric constant tensor:
#      x y z
#    x 3.631630 0.000000 0.000000 
#    y 0.000000 4.268910 0.000000 
#    z 0.000000 0.000000 3.408550 
# 
# 
# High freq. dielectric constant tensor:
#      x y z
#    x 1.789680 0.000000 0.000000 
#    y 0.000000 1.819630 0.000000 
#    z 0.000000 0.000000 1.763030 
# 
# From -- ./inp_files/22660.got.cif
#   From: 2010.03.12/outbox.cif.g09.slc.cpg/sg57_12_cif.got.tgz:22660.got - 2010.04.16 15:48:40.
