data_PCOD8233308
_publ_section_title
;
Structure prediction by ZEFSAII (Michael W. Deem and Ramdas Pophale) SiO2 
 PCOD8233308
Probable space group: P B C M
;
_chemical_formula_sum "Si O2"
_cell_formula_units_Z 56
_cell_length_a 15.648255
_cell_length_b 19.741118
_cell_length_c 8.659675
_cell_angle_alpha 90.000000
_cell_angle_beta 90.000000
_cell_angle_gamma 90.000000
_cell_volume 2675.095263
_symmetry_space_group_name_H-M "P B C M"
_symmetry_group_IT_number 57
_symmetry_cell_setting 'orthorhombic'
loop_
_space_group_symop_operation_xyz
x,y,z
-x,-y,1/2+z
x,1/2-y,-z
-x,1/2+y,1/2-z
-x,-y,-z
x,y,1/2-z
-x,1/2+y,z
x,1/2-y,1/2+z
loop_
_atom_site_type_symbol
_atom_site_label
_atom_site_fract_x
_atom_site_fract_y
_atom_site_fract_z
Si Si1 0.747434 0.958338 0.930114
Si Si2 0.927049 0.952842 0.068021
Si Si3 0.808655 0.179825 0.431048
Si Si4 0.338201 0.580088 0.067104
Si Si5 0.525556 0.321424 0.067239
Si Si6 0.998005 0.678639 0.432962
Si Si7 0.659597 0.819024 0.931116
O O1 0.759839 0.971669 0.750000
O O2 0.724314 0.880274 0.963436
O O3 0.834081 0.978889 0.017827
O O4 0.670933 0.005297 0.994940
O O5 0.934158 0.955837 0.250000
O O6 0.936767 0.877040 0.005908
O O7 0.000000 0.000000 0.000000
O O8 0.775149 0.250000 0.500000
O O9 0.806657 0.188352 0.250000
O O10 0.746108 0.120844 0.486697
O O11 0.904811 0.163243 0.486495
O O12 0.347000 0.575136 0.250000
O O13 0.421390 0.616032 0.999858
O O14 0.534395 0.319572 0.250000
O O15 0.559931 0.250000 0.000000
O O16 0.428371 0.333777 0.018711
O O17 0.967217 0.750000 0.500000
O O18 0.987796 0.677997 0.250000
O O19 0.640582 0.810137 0.750000
O O20 0.700779 0.750000 0.000000
#
# Coordination Sequence:
#
# PCOD8233308 Si02
#       7
#     8   8   8   8   8   8   8
#     4  11  25  43  63  90 121 156 199 248 305 366
#     4  12  25  42  64  89 120 160 204 252 305 362
#     4   9  19  33  53  81 114 153 194 239 291 347
#     4  11  22  37  58  87 123 161 203 248 296 356
#     4  11  22  38  62  91 124 162 203 247 297 353
#     4  10  20  37  59  86 118 153 198 250 304 361
#     4  10  22  42  67  92 120 155 199 250 303 360
#
# _framework density 20.933834999999998
#
# number of rings (size 3 to 8) (size 9 to 14) (size 15 to 20)
#    0.000    1.429    0.000    6.429    0.000    7.429 
#    0.000    1.429    0.000    0.000    0.000    0.000 
#    0.000    0.000    0.000    0.000    0.000    0.000 
#
# Total GULP energy -694695.037044 kJ/mol
# GULP energy per Si atom -12405.268519 kJ/mol
# Density = 2.088619 g / cm^3
# Si number density = 20.933835 Si / 1000 Ang^3
#
#
#
# Elastic Constant Matrix: (Units=GPa)
#
#
# Indices 1 2 3 4 5 6 
#
# 1 66.4204 39.5348 33.2538 0.0000 0.0000 0.0000
# 2 39.5348 114.9836 56.5819 0.0000 0.0000 0.0000
# 3 33.2538 56.5819 128.2455 0.0000 0.0000 0.0000
# 4 0.0000 0.0000 0.0000 39.6156 0.0000 0.0000
# 5 0.0000 0.0000 0.0000 0.0000 31.9257 0.0000
# 6 0.0000 0.0000 0.0000 0.0000 0.0000 35.4987
#
#
#
# Elastic Compliance Matrix: (Units=1/GPa)
#
#
# Indices 1 2 3 4 5 6 
#
# 1 0.019635 -0.005423 -0.002699 0.000000 0.000000 0.000000
# 2 -0.005423 0.012607 -0.004156 0.000000 0.000000 0.000000
# 3 -0.002699 -0.004156 0.010331 0.000000 0.000000 0.000000
# 4 0.000000 0.000000 0.000000 0.025243 0.000000 0.000000
# 5 0.000000 0.000000 0.000000 0.000000 0.031323 0.000000
# 6 0.000000 0.000000 0.000000 0.000000 0.000000 0.028170
#
#
# Mechanical properties :
#
#
# Convention : Reuss Voigt Hill
#
# Bulk Modulus (GPa) = 55.50286 63.15451 59.32869
# Shear Modulus (GPa) = 31.67209 33.42661 32.54935
#
# Velocity S-wave (km/s) = 3.89390 4.00030 3.94746
# Velocity P-wave (km/s) = 6.84015 7.18127 7.01279
#
# Compressibility (1/GPa) = 0.01801709
#
# Stress axis : x y z
#
# Youngs Moduli (GPa) = 50.93063 79.32411 96.79780
#
# Poissons Ratio (x) = 0.43018 0.26121
# Poissons Ratio (y) = 0.27620 0.40227
# Poissons Ratio (z) = 0.13744 0.32966
#
# Static dielectric constant tensor:
#      x y z
#    x 3.612660 0.000000 0.000000 
#    y 0.000000 4.002650 0.000000 
#    z 0.000000 0.000000 3.843960 
# 
# 
# High freq. dielectric constant tensor:
#      x y z
#    x 1.814310 0.000000 0.000000 
#    y 0.000000 1.830010 0.000000 
#    z 0.000000 0.000000 1.830530 
# 
# From -- ./inp_files/5177.got.cif
#   From: 2010.03.12/outbox.cif.g09.slc.cpg/sg57_3_cif.got.tgz:5177.got - 2010.04.16 15:48:40.
