data_PCOD8233118
_publ_section_title
;
Structure prediction by ZEFSAII (Michael W. Deem and Ramdas Pophale) SiO2 
 PCOD8233118
Probable space group: P B C M
;
_chemical_formula_sum "Si O2"
_cell_formula_units_Z 56
_cell_length_a 16.002654
_cell_length_b 8.948328
_cell_length_c 19.753839
_cell_angle_alpha 90.000000
_cell_angle_beta 90.000000
_cell_angle_gamma 90.000000
_cell_volume 2828.690421
_symmetry_space_group_name_H-M "P B C M"
_symmetry_group_IT_number 57
_symmetry_cell_setting 'orthorhombic'
loop_
_space_group_symop_operation_xyz
x,y,z
-x,-y,1/2+z
x,1/2-y,-z
-x,1/2+y,1/2-z
-x,-y,-z
x,y,1/2-z
-x,1/2+y,z
x,1/2-y,1/2+z
loop_
_atom_site_type_symbol
_atom_site_label
_atom_site_fract_x
_atom_site_fract_y
_atom_site_fract_z
Si Si1 0.515109 0.528784 0.135594
Si Si2 0.927492 0.360314 0.673194
Si Si3 0.901772 0.790538 0.172985
Si Si4 0.214250 0.674963 0.428125
Si Si5 0.384483 0.202491 0.677945
Si Si6 0.240745 0.328734 0.072362
Si Si7 0.390075 0.738965 0.923303
O O1 0.572966 0.634604 0.180967
O O2 0.456465 0.423323 0.180136
O O3 0.459107 0.635365 0.089028
O O4 0.576647 0.426137 0.091413
O O5 0.908117 0.307922 0.750000
O O6 0.926277 0.537475 0.667184
O O7 0.859817 0.285179 0.623785
O O8 0.019109 0.307340 0.650927
O O9 0.873552 0.752330 0.250000
O O10 0.828144 0.750276 0.120319
O O11 0.194154 0.750000 0.500000
O O12 0.218619 0.498857 0.441441
O O13 0.299504 0.729279 0.389260
O O14 0.335463 0.184489 0.750000
O O15 0.328498 0.182813 0.611818
O O16 0.248641 0.250000 0.000000
O O17 0.363520 0.750000 0.000000
#
# Coordination Sequence:
#
# PCOD8233118 Si02
#       7
#     8   8   8   8   8   8   8
#     4  10  22  38  60  85 114 155 202 245 294 347
#     4   9  19  38  63  89 115 153 195 237 291 351
#     4   9  19  39  63  88 117 151 195 239 290 349
#     4  10  22  39  58  86 123 157 194 244 293 349
#     4  11  23  41  61  86 119 155 198 246 297 349
#     4  11  24  39  61  88 121 159 197 240 294 351
#     4  10  20  36  58  86 120 156 197 244 293 345
#
# _framework density 19.797146999999999
#
# number of rings (size 3 to 8) (size 9 to 14) (size 15 to 20)
#    0.000    2.000    1.429    1.286    4.000    4.571 
#    0.000    4.286    0.000    0.000    0.000    0.000 
#    0.000    0.000    0.000    0.000    0.000    0.000 
#
# Total GULP energy -694177.743827 kJ/mol
# GULP energy per Si atom -12396.031140 kJ/mol
# Density = 1.975209 g / cm^3
# Si number density = 19.797147 Si / 1000 Ang^3
#
#
#
# Elastic Constant Matrix: (Units=GPa)
#
#
# Indices 1 2 3 4 5 6 
#
# 1 82.5565 21.4181 51.3987 0.0000 0.0000 0.0000
# 2 21.4181 78.1468 32.6486 0.0000 0.0000 0.0000
# 3 51.3987 32.6486 122.7750 0.0000 0.0000 0.0000
# 4 0.0000 0.0000 0.0000 14.1388 0.0000 0.0000
# 5 0.0000 0.0000 0.0000 0.0000 125.6764 0.0000
# 6 0.0000 0.0000 0.0000 0.0000 0.0000 17.7103
#
#
#
# Elastic Compliance Matrix: (Units=1/GPa)
#
#
# Indices 1 2 3 4 5 6 
#
# 1 0.016618 -0.001854 -0.006464 0.000000 0.000000 0.000000
# 2 -0.001854 0.014603 -0.003107 0.000000 0.000000 0.000000
# 3 -0.006464 -0.003107 0.011677 0.000000 0.000000 0.000000
# 4 0.000000 0.000000 0.000000 0.070727 0.000000 0.000000
# 5 0.000000 0.000000 0.000000 0.000000 0.007957 0.000000
# 6 0.000000 0.000000 0.000000 0.000000 0.000000 0.056464
#
#
# Mechanical properties :
#
#
# Convention : Reuss Voigt Hill
#
# Bulk Modulus (GPa) = 49.88017 54.93435 52.40726
# Shear Modulus (GPa) = 24.08707 43.37262 33.72984
#
# Velocity S-wave (km/s) = 3.49190 4.68573 4.13216
# Velocity P-wave (km/s) = 6.44268 7.55537 7.02110
#
# Compressibility (1/GPa) = 0.02004805
#
# Stress axis : x y z
#
# Youngs Moduli (GPa) = 60.17421 68.48081 85.63592
#
# Poissons Ratio (x) = 0.12697 0.55356
# Poissons Ratio (y) = 0.11157 0.26607
# Poissons Ratio (z) = 0.38897 0.21277
#
# Static dielectric constant tensor:
#      x y z
#    x 3.699760 0.000000 0.000000 
#    y 0.000000 3.689750 0.000000 
#    z 0.000000 0.000000 3.503490 
# 
# 
# High freq. dielectric constant tensor:
#      x y z
#    x 1.776890 0.000000 0.000000 
#    y 0.000000 1.773560 0.000000 
#    z 0.000000 0.000000 1.767300 
# 
# From -- ./inp_files/25409.got.cif
#   From: 2010.03.12/outbox.cif.g09.slc.cpg/sg57_13_cif.got.tgz:25409.got - 2010.04.16 15:48:40.
