data_PCOD8233427
_publ_section_title
;
Structure prediction by ZEFSAII (Michael W. Deem and Ramdas Pophale) SiO2 
 PCOD8233427
Probable space group: P B C M
;
_chemical_formula_sum "Si O2"
_cell_formula_units_Z 64
_cell_length_a 9.159888
_cell_length_b 21.862217
_cell_length_c 14.165247
_cell_angle_alpha 90.000000
_cell_angle_beta 90.000000
_cell_angle_gamma 90.000000
_cell_volume 2836.668042
_symmetry_space_group_name_H-M "P B C M"
_symmetry_group_IT_number 57
_symmetry_cell_setting 'orthorhombic'
loop_
_space_group_symop_operation_xyz
x,y,z
-x,-y,1/2+z
x,1/2-y,-z
-x,1/2+y,1/2-z
-x,-y,-z
x,y,1/2-z
-x,1/2+y,z
x,1/2-y,1/2+z
loop_
_atom_site_type_symbol
_atom_site_label
_atom_site_fract_x
_atom_site_fract_y
_atom_site_fract_z
Si Si1 0.565005 0.103416 0.642462
Si Si2 0.358998 0.140377 0.480036
Si Si3 0.978175 0.973021 0.358628
Si Si4 0.396950 0.686874 0.141588
Si Si5 0.041635 0.146843 0.979234
Si Si6 0.195855 0.701406 0.640470
Si Si7 0.291243 0.477275 0.641011
Si Si8 0.850711 0.098288 0.356981
O O1 0.519808 0.117178 0.750000
O O2 0.431198 0.125691 0.580170
O O3 0.713640 0.139871 0.618089
O O4 0.595347 0.032246 0.625548
O O5 0.458307 0.188134 0.421744
O O6 0.203059 0.172186 0.498485
O O7 0.344042 0.078830 0.420430
O O8 0.989478 0.951554 0.250000
O O9 0.937211 0.915616 0.421211
O O10 0.130875 0.002029 0.392449
O O11 0.854238 0.025133 0.373516
O O12 0.442133 0.697436 0.250000
O O13 0.288736 0.740282 0.107017
O O14 0.314455 0.621904 0.126150
O O15 0.953561 0.197397 0.919092
O O16 0.962294 0.134709 0.077750
O O17 0.154406 0.707019 0.750000
O O18 0.287029 0.456798 0.750000
O O19 0.899902 0.113646 0.250000
#
# Coordination Sequence:
#
# PCOD8233427 Si02
#       8
#     8   8   8   8   8   8   8   8
#     4  10  22  40  62  92 132 182 223 267 329 397
#     4  12  25  37  62  98 140 172 208 276 339 399
#     4  10  20  37  63  96 136 175 222 276 331 388
#     4  10  24  46  69  94 127 177 226 266 325 398
#     4  12  23  37  67 101 129 167 217 279 335 385
#     4  10  22  46  74  92 120 172 231 276 319 389
#     4  10  20  38  63  93 136 181 222 267 330 397
#     4  10  22  39  61  90 131 181 224 264 312 387
#
# _framework density 22.561679999999999
#
# number of rings (size 3 to 8) (size 9 to 14) (size 15 to 20)
#    0.000    1.500    2.500    2.250    0.000    4.500 
#    0.000    5.000    0.000    4.500    0.000    0.000 
#    0.000    0.000    0.000    0.000    0.000    0.000 
#
# Total GULP energy -793938.862317 kJ/mol
# GULP energy per Si atom -12405.294724 kJ/mol
# Density = 2.251033 g / cm^3
# Si number density = 22.561680 Si / 1000 Ang^3
#
#
#
# Elastic Constant Matrix: (Units=GPa)
#
#
# Indices 1 2 3 4 5 6 
#
# 1 147.0815 43.2438 70.4993 0.0000 0.0000 0.0000
# 2 43.2438 80.7804 36.6867 0.0000 0.0000 0.0000
# 3 70.4993 36.6867 94.5697 0.0000 0.0000 0.0000
# 4 0.0000 0.0000 0.0000 23.0207 0.0000 0.0000
# 5 0.0000 0.0000 0.0000 0.0000 33.1588 0.0000
# 6 0.0000 0.0000 0.0000 0.0000 0.0000 33.5805
#
#
#
# Elastic Compliance Matrix: (Units=1/GPa)
#
#
# Indices 1 2 3 4 5 6 
#
# 1 0.011022 -0.002632 -0.007195 0.000000 0.000000 0.000000
# 2 -0.002632 0.015655 -0.004111 0.000000 0.000000 0.000000
# 3 -0.007195 -0.004111 0.017533 0.000000 0.000000 0.000000
# 4 0.000000 0.000000 0.000000 0.043439 0.000000 0.000000
# 5 0.000000 0.000000 0.000000 0.000000 0.030158 0.000000
# 6 0.000000 0.000000 0.000000 0.000000 0.000000 0.029779
#
#
# Mechanical properties :
#
#
# Convention : Reuss Voigt Hill
#
# Bulk Modulus (GPa) = 61.22595 69.25458 65.24026
# Shear Modulus (GPa) = 27.63844 29.41879 28.52861
#
# Velocity S-wave (km/s) = 3.50382 3.61491 3.55980
# Velocity P-wave (km/s) = 6.60038 6.94160 6.77314
#
# Compressibility (1/GPa) = 0.01633294
#
# Stress axis : x y z
#
# Youngs Moduli (GPa) = 90.72971 63.87570 57.03605
#
# Poissons Ratio (x) = 0.16815 0.41039
# Poissons Ratio (y) = 0.23884 0.23446
# Poissons Ratio (z) = 0.65282 0.26258
#
# Static dielectric constant tensor:
#      x y z
#    x 4.027960 0.000000 0.000000 
#    y 0.000000 3.990440 0.000000 
#    z 0.000000 0.000000 4.224030 
# 
# 
# High freq. dielectric constant tensor:
#      x y z
#    x 1.874540 0.000000 0.000000 
#    y 0.000000 1.878190 0.000000 
#    z 0.000000 0.000000 1.908080 
# 
# From -- ./inp_files/16989.got.cif
#   From: 2010.03.12/outbox.cif.g09.slc.cpg/sg57_9_cif.got.tgz:16989.got - 2010.04.16 15:48:40.
