data_PCOD8233417
_publ_section_title
;
Structure prediction by ZEFSAII (Michael W. Deem and Ramdas Pophale) SiO2 
 PCOD8233417
Probable space group: P B C M
;
_chemical_formula_sum "Si O2"
_cell_formula_units_Z 64
_cell_length_a 11.883495
_cell_length_b 31.506925
_cell_length_c 8.839619
_cell_angle_alpha 90.000000
_cell_angle_beta 90.000000
_cell_angle_gamma 90.000000
_cell_volume 3309.662838
_symmetry_space_group_name_H-M "P B C M"
_symmetry_group_IT_number 57
_symmetry_cell_setting 'orthorhombic'
loop_
_space_group_symop_operation_xyz
x,y,z
-x,-y,1/2+z
x,1/2-y,-z
-x,1/2+y,1/2-z
-x,-y,-z
x,y,1/2-z
-x,1/2+y,z
x,1/2-y,1/2+z
loop_
_atom_site_type_symbol
_atom_site_label
_atom_site_fract_x
_atom_site_fract_y
_atom_site_fract_z
Si Si1 0.105080 0.372907 0.924739
Si Si2 0.887442 0.482413 0.427687
Si Si3 0.761249 0.707412 0.426001
Si Si4 0.761971 0.947076 0.424403
Si Si5 0.855136 0.106806 0.425255
Si Si6 0.499054 0.294362 0.571140
Si Si7 0.508863 0.546025 0.575519
Si Si8 0.630324 0.372592 0.069280
O O1 0.137280 0.381106 0.750000
O O2 0.164599 0.331103 0.989938
O O3 0.971173 0.367270 0.944095
O O4 0.150724 0.411913 0.020851
O O5 0.899920 0.484838 0.250000
O O6 0.781631 0.510148 0.481032
O O7 0.863919 0.435269 0.477822
O O8 0.000000 0.500000 0.500000
O O9 0.808185 0.750000 0.500000
O O10 0.779834 0.712217 0.250000
O O11 0.631845 0.699666 0.467643
O O12 0.787710 0.956430 0.250000
O O13 0.632709 0.933882 0.450556
O O14 0.831809 0.096305 0.250000
O O15 0.753110 0.133596 0.495711
O O16 0.542659 0.250000 0.500000
O O17 0.522905 0.294376 0.750000
O O18 0.558287 0.333586 0.491160
O O19 0.500000 0.500000 0.500000
O O20 0.484499 0.537802 0.750000
O O21 0.422412 0.582027 0.514630
O O22 0.636144 0.370569 0.250000
#
# Coordination Sequence:
#
# PCOD8233417 Si02
#       8
#     8   8   8   8   8   8   8   8
#     4  10  21  37  57  82 113 147 187 232 283 339
#     4  12  23  37  56  81 113 151 195 239 287 340
#     4   9  19  36  59  88 117 147 181 227 287 348
#     4  11  22  36  57  84 112 144 189 238 290 343
#     4  11  23  39  58  82 115 155 199 243 289 342
#     4  10  20  37  63  92 120 150 190 239 295 357
#     4  10  23  39  56  82 115 153 194 242 294 351
#     4  11  23  40  60  85 119 158 201 247 300 356
#
# _framework density 19.337318
#
# number of rings (size 3 to 8) (size 9 to 14) (size 15 to 20)
#    0.000    1.500    1.250    4.125    0.000    5.500 
#    0.000    0.625    0.000    1.500    0.000    0.000 
#    0.000    0.000    0.000    0.000    0.000    0.000 
#
# Total GULP energy -793729.909089 kJ/mol
# GULP energy per Si atom -12402.029830 kJ/mol
# Density = 1.929331 g / cm^3
# Si number density = 19.337318 Si / 1000 Ang^3
#
#
#
# Elastic Constant Matrix: (Units=GPa)
#
#
# Indices 1 2 3 4 5 6 
#
# 1 87.8531 38.9759 43.2298 0.0000 0.0000 0.0000
# 2 38.9759 108.7454 41.4031 0.0000 0.0000 0.0000
# 3 43.2298 41.4031 104.5920 0.0000 0.0000 0.0000
# 4 0.0000 0.0000 0.0000 35.7600 0.0000 0.0000
# 5 0.0000 0.0000 0.0000 0.0000 29.2388 0.0000
# 6 0.0000 0.0000 0.0000 0.0000 0.0000 29.1704
#
#
#
# Elastic Compliance Matrix: (Units=1/GPa)
#
#
# Indices 1 2 3 4 5 6 
#
# 1 0.015430 -0.003653 -0.004931 0.000000 0.000000 0.000000
# 2 -0.003653 0.011692 -0.003119 0.000000 0.000000 0.000000
# 3 -0.004931 -0.003119 0.012834 0.000000 0.000000 0.000000
# 4 0.000000 0.000000 0.000000 0.027964 0.000000 0.000000
# 5 0.000000 0.000000 0.000000 0.000000 0.034201 0.000000
# 6 0.000000 0.000000 0.000000 0.000000 0.000000 0.034281
#
#
# Mechanical properties :
#
#
# Convention : Reuss Voigt Hill
#
# Bulk Modulus (GPa) = 60.42244 60.93421 60.67833
# Shear Modulus (GPa) = 30.24346 30.67264 30.45805
#
# Velocity S-wave (km/s) = 3.95903 3.98702 3.97305
# Velocity P-wave (km/s) = 7.22585 7.26462 7.24526
#
# Compressibility (1/GPa) = 0.01655014
#
# Stress axis : x y z
#
# Youngs Moduli (GPa) = 64.80984 85.52580 77.91922
#
# Poissons Ratio (x) = 0.31240 0.38426
# Poissons Ratio (y) = 0.23673 0.24301
# Poissons Ratio (z) = 0.31961 0.26673
#
# Static dielectric constant tensor:
#      x y z
#    x 3.803810 0.000000 0.000000 
#    y 0.000000 3.731560 0.000000 
#    z 0.000000 0.000000 -5.242350 
# 
# 
# High freq. dielectric constant tensor:
#      x y z
#    x 1.758620 0.000000 0.000000 
#    y 0.000000 1.747890 0.000000 
#    z 0.000000 0.000000 1.759670 
# 
# From -- ./inp_files/3831.got.cif
#   From: 2010.03.12/outbox.cif.g09.slc.cpg/sg57_2_cif.got.tgz:3831.got - 2010.04.16 15:48:40.
