data_PCOD8233679
_publ_section_title
;
Structure prediction by ZEFSAII (Michael W. Deem and Ramdas Pophale) SiO2 
 PCOD8233679
Probable space group: P B C M
;
_chemical_formula_sum "Si O2"
_cell_formula_units_Z 48
_cell_length_a 8.200051
_cell_length_b 11.988844
_cell_length_c 22.547643
_cell_angle_alpha 90.000000
_cell_angle_beta 90.000000
_cell_angle_gamma 90.000000
_cell_volume 2216.639217
_symmetry_space_group_name_H-M "P B C M"
_symmetry_group_IT_number 57
_symmetry_cell_setting 'orthorhombic'
loop_
_space_group_symop_operation_xyz
x,y,z
-x,-y,1/2+z
x,1/2-y,-z
-x,1/2+y,1/2-z
-x,-y,-z
x,y,1/2-z
-x,1/2+y,z
x,1/2-y,1/2+z
loop_
_atom_site_type_symbol
_atom_site_label
_atom_site_fract_x
_atom_site_fract_y
_atom_site_fract_z
Si Si1 0.832086 0.035666 0.184551
Si Si2 0.481151 0.524758 0.815916
Si Si3 0.485296 0.884734 0.573525
Si Si4 0.749199 0.951423 0.492738
Si Si5 0.965922 0.423487 0.413818
Si Si6 0.716642 0.229974 0.641197
O O1 0.910284 0.023326 0.250000
O O2 0.761199 0.161003 0.178832
O O3 0.676332 0.952605 0.177963
O O4 0.971373 0.007884 0.137035
O O5 0.445893 0.474798 0.750000
O O6 0.428953 0.438408 0.867727
O O7 0.378319 0.638486 0.820457
O O8 0.617875 0.867748 0.521715
O O9 0.406473 0.764923 0.587929
O O10 0.338573 0.964252 0.552197
O O11 0.884100 0.883635 0.455474
O O12 0.830243 0.017583 0.546686
O O13 0.886844 0.315159 0.384509
#
# Coordination Sequence:
#
# PCOD8233679 Si02
#       6
#     8   8   8   8   8   8
#     4  10  23  45  65  92 133 166 215 276 324 386
#     4  10  20  40  66  93 125 166 217 270 317 385
#     4  10  21  44  65  95 125 174 216 267 316 391
#     4  10  21  43  65  90 138 163 215 268 322 383
#     4  11  22  41  65  99 131 171 208 275 330 384
#     4  11  22  41  68  96 126 174 222 256 339 382
#
# _framework density 21.654404
#
# number of rings (size 3 to 8) (size 9 to 14) (size 15 to 20)
#    0.000    1.667    5.000    0.500    0.000    2.667 
#    3.000    1.667    0.000    0.000    0.000    0.000 
#    0.000    0.000    0.000    0.000    0.000    0.000 
#
# Total GULP energy -594989.310497 kJ/mol
# GULP energy per Si atom -12395.610635 kJ/mol
# Density = 2.160512 g / cm^3
# Si number density = 21.654404 Si / 1000 Ang^3
#
#
#
# Elastic Constant Matrix: (Units=GPa)
#
#
# Indices 1 2 3 4 5 6 
#
# 1 100.0216 42.2198 49.8333 0.0000 0.0000 0.0000
# 2 42.2198 70.8891 32.4879 0.0000 0.0000 0.0000
# 3 49.8333 32.4879 122.6430 0.0000 0.0000 0.0000
# 4 0.0000 0.0000 0.0000 17.3359 0.0000 0.0000
# 5 0.0000 0.0000 0.0000 0.0000 26.2161 0.0000
# 6 0.0000 0.0000 0.0000 0.0000 0.0000 41.8255
#
#
#
# Elastic Compliance Matrix: (Units=1/GPa)
#
#
# Indices 1 2 3 4 5 6 
#
# 1 0.015094 -0.007033 -0.004270 0.000000 0.000000 0.000000
# 2 -0.007033 0.019332 -0.002264 0.000000 0.000000 0.000000
# 3 -0.004270 -0.002264 0.010488 0.000000 0.000000 0.000000
# 4 0.000000 0.000000 0.000000 0.057684 0.000000 0.000000
# 5 0.000000 0.000000 0.000000 0.000000 0.038145 0.000000
# 6 0.000000 0.000000 0.000000 0.000000 0.000000 0.023909
#
#
# Mechanical properties :
#
#
# Convention : Reuss Voigt Hill
#
# Bulk Modulus (GPa) = 56.23640 60.29285 58.26462
# Shear Modulus (GPa) = 25.28938 28.34302 26.81620
#
# Velocity S-wave (km/s) = 3.42111 3.62177 3.52287
# Velocity P-wave (km/s) = 6.45226 6.73745 6.59640
#
# Compressibility (1/GPa) = 0.01778208
#
# Stress axis : x y z
#
# Youngs Moduli (GPa) = 66.25238 51.72688 95.34310
#
# Poissons Ratio (x) = 0.36377 0.40713
# Poissons Ratio (y) = 0.46592 0.21582
# Poissons Ratio (z) = 0.28291 0.11709
#
# Static dielectric constant tensor:
#      x y z
#    x 4.024660 0.000000 0.000000 
#    y 0.000000 3.448020 0.000000 
#    z 0.000000 0.000000 4.149160 
# 
# 
# High freq. dielectric constant tensor:
#      x y z
#    x 1.854290 0.000000 0.000000 
#    y 0.000000 1.808860 0.000000 
#    z 0.000000 0.000000 1.874010 
# 
# From -- ./inp_files/26695.got.cif
#   From: 2010.03.12/outbox.cif.g09.slc.cpg/sg57_14_cif.got.tgz:26695.got - 2010.04.16 15:48:40.
