data_PCOD8233597
_publ_section_title
;
Structure prediction by ZEFSAII (Michael W. Deem and Ramdas Pophale) SiO2 
 PCOD8233597
Probable space group: P B C M
;
_chemical_formula_sum "Si O2"
_cell_formula_units_Z 56
_cell_length_a 10.209399
_cell_length_b 15.044041
_cell_length_c 16.771455
_cell_angle_alpha 90.000000
_cell_angle_beta 90.000000
_cell_angle_gamma 90.000000
_cell_volume 2575.938124
_symmetry_space_group_name_H-M "P B C M"
_symmetry_group_IT_number 57
_symmetry_cell_setting 'orthorhombic'
loop_
_space_group_symop_operation_xyz
x,y,z
-x,-y,1/2+z
x,1/2-y,-z
-x,1/2+y,1/2-z
-x,-y,-z
x,y,1/2-z
-x,1/2+y,z
x,1/2-y,1/2+z
loop_
_atom_site_type_symbol
_atom_site_label
_atom_site_fract_x
_atom_site_fract_y
_atom_site_fract_z
Si Si1 0.399428 0.833929 0.899209
Si Si2 0.355929 0.447294 0.893713
Si Si3 0.881680 0.335151 0.844419
Si Si4 0.014317 0.155042 0.845312
Si Si5 0.268619 0.156417 0.544988
Si Si6 0.451336 0.856445 0.084693
Si Si7 0.915455 0.970760 0.838522
O O1 0.523041 0.887419 0.861537
O O2 0.258555 0.871273 0.874380
O O3 0.392526 0.730419 0.871089
O O4 0.420542 0.846353 0.992106
O O5 0.396857 0.550163 0.885878
O O6 0.232471 0.434483 0.836087
O O7 0.296817 0.422770 0.981020
O O8 0.880022 0.334080 0.750000
O O9 0.927080 0.238084 0.874532
O O10 0.988038 0.402350 0.883536
O O11 0.046589 0.160388 0.750000
O O12 0.145465 0.144612 0.897425
O O13 0.925948 0.070835 0.871334
O O14 0.259956 0.250000 0.500000
O O15 0.394274 0.152393 0.602261
O O16 0.971515 0.972968 0.750000
#
# Coordination Sequence:
#
# PCOD8233597 Si02
#       7
#     8   8   8   8   8   8   8
#     4  10  20  39  60  85 120 156 198 246 311 363
#     4  11  22  38  63  91 120 161 203 256 308 360
#     4  10  22  40  61  86 120 160 203 250 301 366
#     4  10  23  42  62  87 130 169 201 253 312 366
#     4  11  20  39  63  92 125 158 206 256 305 365
#     4  10  21  38  60  85 124 157 190 256 316 354
#     4  10  23  42  60  87 127 163 203 255 308 364
#
# _framework density 21.739652
#
# number of rings (size 3 to 8) (size 9 to 14) (size 15 to 20)
#    0.000    1.714    2.857    3.429    4.000    1.143 
#   10.286    1.429    0.000    0.000    0.000    0.000 
#    0.000    0.000    0.000    0.000    0.000    0.000 
#
# Total GULP energy -693754.534214 kJ/mol
# GULP energy per Si atom -12388.473825 kJ/mol
# Density = 2.169017 g / cm^3
# Si number density = 21.739652 Si / 1000 Ang^3
#
#
#
# Elastic Constant Matrix: (Units=GPa)
#
#
# Indices 1 2 3 4 5 6 
#
# 1 184.6140 79.8716 24.2298 0.0000 0.0000 0.0000
# 2 79.8716 156.2396 13.4678 0.0000 0.0000 0.0000
# 3 24.2298 13.4678 19.9446 0.0000 0.0000 0.0000
# 4 0.0000 0.0000 0.0000 6.6738 0.0000 0.0000
# 5 0.0000 0.0000 0.0000 0.0000 18.6268 0.0000
# 6 0.0000 0.0000 0.0000 0.0000 0.0000 39.6886
#
#
#
# Elastic Compliance Matrix: (Units=1/GPa)
#
#
# Indices 1 2 3 4 5 6 
#
# 1 0.007827 -0.003378 -0.007227 0.000000 0.000000 0.000000
# 2 -0.003378 0.008254 -0.001470 0.000000 0.000000 0.000000
# 3 -0.007227 -0.001470 0.059911 0.000000 0.000000 0.000000
# 4 0.000000 0.000000 0.000000 0.149841 0.000000 0.000000
# 5 0.000000 0.000000 0.000000 0.000000 0.053686 0.000000
# 6 0.000000 0.000000 0.000000 0.000000 0.000000 0.025196
#
#
# Mechanical properties :
#
#
# Convention : Reuss Voigt Hill
#
# Bulk Modulus (GPa) = 19.28941 66.21519 42.75230
# Shear Modulus (GPa) = 14.44478 29.21311 21.82894
#
# Velocity S-wave (km/s) = 2.58048 3.66972 3.17220
# Velocity P-wave (km/s) = 4.21553 6.96277 5.75547
#
# Compressibility (1/GPa) = 0.05184192
#
# Stress axis : x y z
#
# Youngs Moduli (GPa) = 127.76637 121.15237 16.69135
#
# Poissons Ratio (x) = 0.40927 0.12063
# Poissons Ratio (y) = 0.43162 0.02453
# Poissons Ratio (z) = 0.92340 0.17806
#
# Static dielectric constant tensor:
#      x y z
#    x 4.178340 0.000000 0.000000 
#    y 0.000000 4.474860 0.000000 
#    z 0.000000 0.000000 3.426990 
# 
# 
# High freq. dielectric constant tensor:
#      x y z
#    x 1.870460 0.000000 0.000000 
#    y 0.000000 1.872300 0.000000 
#    z 0.000000 0.000000 1.806890 
# 
# From -- ./inp_files/24431.got.cif
#   From: 2010.03.12/outbox.cif.g09.slc.cpg/sg57_13_cif.got.tgz:24431.got - 2010.04.16 15:48:40.
