data_PCOD8233899
_publ_section_title
;
Structure prediction by ZEFSAII (Michael W. Deem and Ramdas Pophale) SiO2 
 PCOD8233899
Probable space group: P B C M
;
_chemical_formula_sum "Si O2"
_cell_formula_units_Z 64
_cell_length_a 6.691900
_cell_length_b 30.493620
_cell_length_c 15.796144
_cell_angle_alpha 90.000000
_cell_angle_beta 90.000000
_cell_angle_gamma 90.000000
_cell_volume 3223.365183
_symmetry_space_group_name_H-M "P B C M"
_symmetry_group_IT_number 57
_symmetry_cell_setting 'orthorhombic'
loop_
_space_group_symop_operation_xyz
x,y,z
-x,-y,1/2+z
x,1/2-y,-z
-x,1/2+y,1/2-z
-x,-y,-z
x,y,1/2-z
-x,1/2+y,z
x,1/2-y,1/2+z
loop_
_atom_site_type_symbol
_atom_site_label
_atom_site_fract_x
_atom_site_fract_y
_atom_site_fract_z
Si Si1 0.481098 0.365064 0.443013
Si Si2 0.865267 0.800286 0.491511
Si Si3 0.676873 0.093661 0.395418
Si Si4 0.963760 0.488699 0.594221
Si Si5 0.868205 0.157708 0.650936
Si Si6 0.007446 0.153698 0.153113
Si Si7 0.164908 0.081451 0.655275
Si Si8 0.254025 0.074684 0.342806
O O1 0.342044 0.326391 0.478998
O O2 0.613440 0.388706 0.513470
O O3 0.634345 0.344820 0.374051
O O4 0.344246 0.403664 0.405017
O O5 0.804480 0.750000 0.500000
O O6 0.014281 0.808914 0.411819
O O7 0.975086 0.808976 0.581981
O O8 0.813978 0.051424 0.400375
O O9 0.785518 0.133136 0.345969
O O10 0.490272 0.077300 0.341735
O O11 0.885139 0.530346 0.645228
O O12 0.000000 0.500000 0.500000
O O13 0.182015 0.472453 0.624144
O O14 0.885811 0.172825 0.750000
O O15 0.965687 0.109727 0.637733
O O16 0.058214 0.169802 0.250000
O O17 0.158630 0.117250 0.111996
O O18 0.241178 0.089435 0.750000
O O19 0.162937 0.079075 0.250000
#
# Coordination Sequence:
#
# PCOD8233899 Si02
#       8
#     8   8   8   8   8   8   8   8
#     4  11  21  39  65  90 124 163 209 253 312 377
#     4  11  24  42  68  95 125 158 200 255 318 379
#     4  11  21  37  61  87 117 165 209 251 303 368
#     4  11  23  35  54  85 123 160 209 259 302 356
#     4  10  22  42  67  91 124 166 209 253 306 371
#     4  10  21  40  63  90 122 159 199 247 307 372
#     4  10  22  38  57  86 124 166 208 258 310 362
#     4  10  21  37  57  83 118 159 205 253 301 357
#
# _framework density 19.855025000000001
#
# number of rings (size 3 to 8) (size 9 to 14) (size 15 to 20)
#    0.000    1.500    2.500    2.625    3.500    6.000 
#    0.000    0.000    0.000    0.000    0.000    0.000 
#    0.000    0.000    0.000    0.000    0.000    0.000 
#
# Total GULP energy -793242.755022 kJ/mol
# GULP energy per Si atom -12394.418047 kJ/mol
# Density = 1.980983 g / cm^3
# Si number density = 19.855025 Si / 1000 Ang^3
#
#
#
# Elastic Constant Matrix: (Units=GPa)
#
#
# Indices 1 2 3 4 5 6 
#
# 1 99.8510 28.3543 28.6106 0.0000 0.0000 0.0000
# 2 28.3543 103.2010 37.1585 0.0000 0.0000 0.0000
# 3 28.6106 37.1585 114.9645 0.0000 0.0000 0.0000
# 4 0.0000 0.0000 0.0000 19.0333 0.0000 0.0000
# 5 0.0000 0.0000 0.0000 0.0000 33.2993 0.0000
# 6 0.0000 0.0000 0.0000 0.0000 0.0000 16.7148
#
#
#
# Elastic Compliance Matrix: (Units=1/GPa)
#
#
# Indices 1 2 3 4 5 6 
#
# 1 0.011270 -0.002361 -0.002042 0.000000 0.000000 0.000000
# 2 -0.002361 0.011461 -0.003117 0.000000 0.000000 0.000000
# 3 -0.002042 -0.003117 0.010214 0.000000 0.000000 0.000000
# 4 0.000000 0.000000 0.000000 0.052540 0.000000 0.000000
# 5 0.000000 0.000000 0.000000 0.000000 0.030031 0.000000
# 6 0.000000 0.000000 0.000000 0.000000 0.000000 0.059827
#
#
# Mechanical properties :
#
#
# Convention : Reuss Voigt Hill
#
# Bulk Modulus (GPa) = 55.84810 56.25149 56.04979
# Shear Modulus (GPa) = 25.46465 28.73567 27.10016
#
# Velocity S-wave (km/s) = 3.58513 3.80843 3.69847
# Velocity P-wave (km/s) = 6.73250 6.90880 6.82122
#
# Compressibility (1/GPa) = 0.01790571
#
# Stress axis : x y z
#
# Youngs Moduli (GPa) = 88.72741 87.25377 97.90706
#
# Poissons Ratio (x) = 0.20605 0.19988
# Poissons Ratio (y) = 0.20953 0.30514
# Poissons Ratio (z) = 0.18114 0.27194
#
# Static dielectric constant tensor:
#      x y z
#    x 3.664450 0.000000 0.000000 
#    y 0.000000 3.222750 0.000000 
#    z 0.000000 0.000000 3.733750 
# 
# 
# High freq. dielectric constant tensor:
#      x y z
#    x 1.779070 0.000000 0.000000 
#    y 0.000000 1.753470 0.000000 
#    z 0.000000 0.000000 1.791280 
# 
# From -- ./inp_files/20361.got.cif
#   From: 2010.03.12/outbox.cif.g09.slc.cpg/sg57_11_cif.got.tgz:20361.got - 2010.04.16 15:48:40.
