data_PCOD8233808
_publ_section_title
;
Structure prediction by ZEFSAII (Michael W. Deem and Ramdas Pophale) SiO2 
 PCOD8233808
Probable space group: P B C M
;
_chemical_formula_sum "Si O2"
_cell_formula_units_Z 48
_cell_length_a 14.207501
_cell_length_b 9.516712
_cell_length_c 17.707739
_cell_angle_alpha 90.000000
_cell_angle_beta 90.000000
_cell_angle_gamma 90.000000
_cell_volume 2394.240286
_symmetry_space_group_name_H-M "P B C M"
_symmetry_group_IT_number 57
_symmetry_cell_setting 'orthorhombic'
loop_
_space_group_symop_operation_xyz
x,y,z
-x,-y,1/2+z
x,1/2-y,-z
-x,1/2+y,1/2-z
-x,-y,-z
x,y,1/2-z
-x,1/2+y,z
x,1/2-y,1/2+z
loop_
_atom_site_type_symbol
_atom_site_label
_atom_site_fract_x
_atom_site_fract_y
_atom_site_fract_z
Si Si1 0.616317 0.273547 0.662931
Si Si2 0.904024 0.761307 0.339767
Si Si3 0.722957 0.653464 0.927833
Si Si4 0.789103 0.148530 0.068166
Si Si5 0.016241 0.525535 0.411283
Si Si6 0.452274 0.421763 0.162047
O O1 0.641870 0.269042 0.750000
O O2 0.717106 0.270629 0.622815
O O3 0.554778 0.412730 0.644119
O O4 0.555004 0.137665 0.638477
O O5 0.906814 0.752611 0.250000
O O6 0.800199 0.801274 0.366759
O O7 0.929565 0.610997 0.376145
O O8 0.978805 0.875998 0.369582
O O9 0.741634 0.496586 0.958378
O O10 0.623678 0.664355 0.885935
O O11 0.724152 0.750000 0.000000
O O12 0.888558 0.112748 0.107093
O O13 0.812155 0.250000 0.000000
O O14 0.000000 0.500000 0.500000
O O15 0.433551 0.390150 0.250000
#
# Coordination Sequence:
#
# PCOD8233808 Si02
#       6
#     8   8   8   8   8   8
#     4   9  19  35  56  79 107 142 181 225 277 330
#     4  11  22  37  58  85 113 146 188 235 283 339
#     4  10  21  36  56  79 108 145 183 226 277 333
#     4  10  21  36  55  79 108 142 181 225 273 333
#     4  11  22  39  60  83 114 152 190 234 287 344
#     4   9  18  35  55  77 104 139 180 223 270 325
#
# _framework density 20.048112
#
# number of rings (size 3 to 8) (size 9 to 14) (size 15 to 20)
#    0.000    2.000    0.000    4.500    0.000    6.667 
#    0.000    3.333    0.000    5.000    0.000    0.000 
#    0.000    0.000    0.000    0.000    0.000    0.000 
#
# Total GULP energy -595196.389179 kJ/mol
# GULP energy per Si atom -12399.924775 kJ/mol
# Density = 2.000248 g / cm^3
# Si number density = 20.048112 Si / 1000 Ang^3
#
#
#
# Elastic Constant Matrix: (Units=GPa)
#
#
# Indices 1 2 3 4 5 6 
#
# 1 59.5920 -0.5230 6.6240 0.0000 0.0000 0.0000
# 2 -0.5230 35.8264 20.3817 0.0000 0.0000 0.0000
# 3 6.6240 20.3817 93.8645 0.0000 0.0000 0.0000
# 4 0.0000 0.0000 0.0000 30.8668 0.0000 0.0000
# 5 0.0000 0.0000 0.0000 0.0000 21.4345 0.0000
# 6 0.0000 0.0000 0.0000 0.0000 0.0000 33.9653
#
#
#
# Elastic Compliance Matrix: (Units=1/GPa)
#
#
# Indices 1 2 3 4 5 6 
#
# 1 0.016949 0.001059 -0.001426 0.000000 0.000000 0.000000
# 2 0.001059 0.031913 -0.007004 0.000000 0.000000 0.000000
# 3 -0.001426 -0.007004 0.012275 0.000000 0.000000 0.000000
# 4 0.000000 0.000000 0.000000 0.032397 0.000000 0.000000
# 5 0.000000 0.000000 0.000000 0.000000 0.046654 0.000000
# 6 0.000000 0.000000 0.000000 0.000000 0.000000 0.029442
#
#
# Mechanical properties :
#
#
# Convention : Reuss Voigt Hill
#
# Bulk Modulus (GPa) = 21.55483 26.91647 24.23565
# Shear Modulus (GPa) = 25.02047 28.10669 26.56358
#
# Velocity S-wave (km/s) = 3.53657 3.74834 3.64399
# Velocity P-wave (km/s) = 5.23940 5.67349 5.46076
#
# Compressibility (1/GPa) = 0.04639332
#
# Stress axis : x y z
#
# Youngs Moduli (GPa) = 59.00206 31.33565 81.46535
#
# Poissons Ratio (x) = -0.03317 0.11616
# Poissons Ratio (y) = -0.06246 0.57060
# Poissons Ratio (z) = 0.08413 0.21948
#
# Static dielectric constant tensor:
#      x y z
#    x 3.714470 0.000000 0.000000 
#    y 0.000000 3.815450 0.000000 
#    z 0.000000 0.000000 3.489160 
# 
# 
# High freq. dielectric constant tensor:
#      x y z
#    x 1.784030 0.000000 0.000000 
#    y 0.000000 1.788360 0.000000 
#    z 0.000000 0.000000 1.773840 
# 
# From -- ./inp_files/22469.got.cif
#   From: 2010.03.12/outbox.cif.g09.slc.cpg/sg57_12_cif.got.tgz:22469.got - 2010.04.16 15:48:40.
