data_PCOD8233868
_publ_section_title
;
Structure prediction by ZEFSAII (Michael W. Deem and Ramdas Pophale) SiO2 
 PCOD8233868
Probable space group: P B C M
;
_chemical_formula_sum "Si O2"
_cell_formula_units_Z 48
_cell_length_a 11.660982
_cell_length_b 25.182502
_cell_length_c 8.954368
_cell_angle_alpha 90.000000
_cell_angle_beta 90.000000
_cell_angle_gamma 90.000000
_cell_volume 2629.474363
_symmetry_space_group_name_H-M "P B C M"
_symmetry_group_IT_number 57
_symmetry_cell_setting 'orthorhombic'
loop_
_space_group_symop_operation_xyz
x,y,z
-x,-y,1/2+z
x,1/2-y,-z
-x,1/2+y,1/2-z
-x,-y,-z
x,y,1/2-z
-x,1/2+y,z
x,1/2-y,1/2+z
loop_
_atom_site_type_symbol
_atom_site_label
_atom_site_fract_x
_atom_site_fract_y
_atom_site_fract_z
Si Si1 0.493586 0.443618 0.922600
Si Si2 0.879156 0.004051 0.921469
Si Si3 0.138274 0.694721 0.926223
Si Si4 0.741560 0.603769 0.079755
Si Si5 0.741803 0.402924 0.924229
Si Si6 0.124111 0.304552 0.075504
O O1 0.474019 0.456474 0.750000
O O2 0.385209 0.409942 0.981842
O O3 0.606279 0.408748 0.951028
O O4 0.500000 0.500000 0.000000
O O5 0.894342 0.022182 0.750000
O O6 0.820257 0.947513 0.933467
O O7 0.803050 0.046367 0.007234
O O8 0.000000 0.000000 0.000000
O O9 0.156760 0.698558 0.750000
O O10 0.006747 0.680983 0.967756
O O11 0.175254 0.750000 0.000000
O O12 0.219445 0.649938 0.993016
O O13 0.737399 0.624291 0.250000
O O14 0.792413 0.649220 0.976556
O O15 0.772931 0.399182 0.750000
O O16 0.137305 0.296729 0.250000
O O17 0.162866 0.250000 0.000000
#
# Coordination Sequence:
#
# PCOD8233868 Si02
#       6
#     8   8   8   8   8   8
#     4  10  21  38  58  81 111 151 193 235 280 332
#     4  11  22  35  54  81 115 149 184 231 286 340
#     4  10  21  38  60  85 115 149 188 233 285 341
#     4  10  21  37  56  80 112 148 187 231 279 331
#     4  11  22  36  57  84 114 148 190 235 282 338
#     4  10  21  37  59  85 112 146 185 229 281 336
#
# _framework density 18.2546
#
# number of rings (size 3 to 8) (size 9 to 14) (size 15 to 20)
#    0.000    1.667    1.667    3.000    0.000    7.333 
#    0.000    0.833    0.000    0.000    0.000    0.000 
#    0.000    0.000    0.000    0.000    0.000    0.000 
#
# Total GULP energy -595406.190973 kJ/mol
# GULP energy per Si atom -12404.295645 kJ/mol
# Density = 1.821305 g / cm^3
# Si number density = 18.254600 Si / 1000 Ang^3
#
#
#
# Elastic Constant Matrix: (Units=GPa)
#
#
# Indices 1 2 3 4 5 6 
#
# 1 111.0209 47.5834 46.9429 0.0000 0.0000 0.0000
# 2 47.5834 111.8405 53.0078 0.0000 0.0000 0.0000
# 3 46.9429 53.0078 90.0562 0.0000 0.0000 0.0000
# 4 0.0000 0.0000 0.0000 40.0716 0.0000 0.0000
# 5 0.0000 0.0000 0.0000 0.0000 27.2721 0.0000
# 6 0.0000 0.0000 0.0000 0.0000 0.0000 73.2270
#
#
#
# Elastic Compliance Matrix: (Units=1/GPa)
#
#
# Indices 1 2 3 4 5 6 
#
# 1 0.012253 -0.003032 -0.004602 0.000000 0.000000 0.000000
# 2 -0.003032 0.013151 -0.006160 0.000000 0.000000 0.000000
# 3 -0.004602 -0.006160 0.017129 0.000000 0.000000 0.000000
# 4 0.000000 0.000000 0.000000 0.024955 0.000000 0.000000
# 5 0.000000 0.000000 0.000000 0.000000 0.036668 0.000000
# 6 0.000000 0.000000 0.000000 0.000000 0.000000 0.013656
#
#
# Mechanical properties :
#
#
# Convention : Reuss Voigt Hill
#
# Bulk Modulus (GPa) = 66.91683 67.55398 67.23541
# Shear Modulus (GPa) = 33.24856 39.13970 36.19413
#
# Velocity S-wave (km/s) = 4.27239 4.63547 4.45763
# Velocity P-wave (km/s) = 7.81504 8.10783 7.96278
#
# Compressibility (1/GPa) = 0.01494392
#
# Stress axis : x y z
#
# Youngs Moduli (GPa) = 81.61452 76.04017 58.37935
#
# Poissons Ratio (x) = 0.23053 0.26869
# Poissons Ratio (y) = 0.24743 0.35964
# Poissons Ratio (z) = 0.37563 0.46844
#
# Static dielectric constant tensor:
#      x y z
#    x 3.519270 0.000000 0.000000 
#    y 0.000000 3.340330 0.000000 
#    z 0.000000 0.000000 3.315130 
# 
# 
# High freq. dielectric constant tensor:
#      x y z
#    x 1.711570 0.000000 0.000000 
#    y 0.000000 1.709230 0.000000 
#    z 0.000000 0.000000 1.719540 
# 
# From -- ./inp_files/3084.got.cif
#   From: 2010.03.12/outbox.cif.g09.slc.cpg/sg57_2_cif.got.tgz:3084.got - 2010.04.16 15:48:40.
