data_PCOD8233121
_publ_section_title
;
Structure prediction by ZEFSAII (Michael W. Deem and Ramdas Pophale) SiO2 
 PCOD8233121
Probable space group: P B C M
;
_chemical_formula_sum "Si O2"
_cell_formula_units_Z 64
_cell_length_a 21.124856
_cell_length_b 18.445460
_cell_length_c 8.670218
_cell_angle_alpha 90.000000
_cell_angle_beta 90.000000
_cell_angle_gamma 90.000000
_cell_volume 3378.417086
_symmetry_space_group_name_H-M "P B C M"
_symmetry_group_IT_number 57
_symmetry_cell_setting 'orthorhombic'
loop_
_space_group_symop_operation_xyz
x,y,z
-x,-y,1/2+z
x,1/2-y,-z
-x,1/2+y,1/2-z
-x,-y,-z
x,y,1/2-z
-x,1/2+y,z
x,1/2-y,1/2+z
loop_
_atom_site_type_symbol
_atom_site_label
_atom_site_fract_x
_atom_site_fract_y
_atom_site_fract_z
Si Si1 0.120020 0.672505 0.931913
Si Si2 0.937111 0.466324 0.931898
Si Si3 0.506341 0.078338 0.429844
Si Si4 0.613217 0.826031 0.568791
Si Si5 0.746984 0.105550 0.927314
Si Si6 0.183262 0.038982 0.429827
Si Si7 0.253803 0.171258 0.933102
Si Si8 0.624017 0.170240 0.431013
O O1 0.111004 0.672035 0.750000
O O2 0.192040 0.652545 0.976525
O O3 0.102183 0.750000 0.000000
O O4 0.071822 0.614528 0.002812
O O5 0.942379 0.462185 0.750000
O O6 0.879133 0.517080 0.979156
O O7 0.000000 0.500000 0.000000
O O8 0.517185 0.069845 0.250000
O O9 0.441341 0.117851 0.469592
O O10 0.565484 0.123468 0.499873
O O11 0.500000 0.000000 0.500000
O O12 0.590645 0.750000 0.500000
O O13 0.626906 0.817965 0.750000
O O14 0.676372 0.853463 0.484768
O O15 0.729070 0.120520 0.750000
O O16 0.761686 0.020750 0.955098
O O17 0.688856 0.128680 0.033064
O O18 0.166534 0.045176 0.250000
O O19 0.204094 0.115674 0.496321
O O20 0.248849 0.172258 0.750000
O O21 0.237628 0.250000 0.000000
O O22 0.623753 0.250000 0.500000
O O23 0.616556 0.178869 0.250000
#
# Coordination Sequence:
#
# PCOD8233121 Si02
#       8
#     8   8   8   8   8   8   8   8
#     4  10  20  36  58  87 120 156 198 242 289 340
#     4  11  22  39  62  89 121 160 200 238 285 339
#     4  10  24  40  55  78 107 143 187 235 286 343
#     4  10  20  37  58  80 106 142 187 235 289 345
#     4   9  20  36  57  84 115 151 187 230 284 337
#     4  10  21  39  61  87 119 153 192 237 286 338
#     4  11  22  37  59  87 116 149 190 238 292 347
#     4  11  23  38  56  81 111 145 187 231 283 342
#
# _framework density 18.943781999999999
#
# number of rings (size 3 to 8) (size 9 to 14) (size 15 to 20)
#    0.000    1.750    0.000    6.000    1.750    6.000 
#    0.000    0.625    0.000    0.000    0.000    0.000 
#    0.000    0.000    0.000    0.000    0.000    0.000 
#
# Total GULP energy -793824.396413 kJ/mol
# GULP energy per Si atom -12403.506194 kJ/mol
# Density = 1.890067 g / cm^3
# Si number density = 18.943782 Si / 1000 Ang^3
#
#
#
# Elastic Constant Matrix: (Units=GPa)
#
#
# Indices 1 2 3 4 5 6 
#
# 1 82.5931 71.2674 32.4059 0.0000 0.0000 0.0000
# 2 71.2674 134.5642 45.3302 0.0000 0.0000 0.0000
# 3 32.4059 45.3302 88.7949 0.0000 0.0000 0.0000
# 4 0.0000 0.0000 0.0000 35.8403 0.0000 0.0000
# 5 0.0000 0.0000 0.0000 0.0000 33.1113 0.0000
# 6 0.0000 0.0000 0.0000 0.0000 0.0000 29.0397
#
#
#
# Elastic Compliance Matrix: (Units=1/GPa)
#
#
# Indices 1 2 3 4 5 6 
#
# 1 0.022785 -0.011190 -0.002603 0.000000 0.000000 0.000000
# 2 -0.011190 0.014471 -0.003303 0.000000 0.000000 0.000000
# 3 -0.002603 -0.003303 0.013898 0.000000 0.000000 0.000000
# 4 0.000000 0.000000 0.000000 0.027902 0.000000 0.000000
# 5 0.000000 0.000000 0.000000 0.000000 0.030201 0.000000
# 6 0.000000 0.000000 0.000000 0.000000 0.000000 0.034436
#
#
# Mechanical properties :
#
#
# Convention : Reuss Voigt Hill
#
# Bulk Modulus (GPa) = 58.95958 67.10659 63.03309
# Shear Modulus (GPa) = 27.24230 30.06152 28.65191
#
# Velocity S-wave (km/s) = 3.79629 3.98789 3.89327
# Velocity P-wave (km/s) = 7.09977 7.53029 7.31820
#
# Compressibility (1/GPa) = 0.01696077
#
# Stress axis : x y z
#
# Youngs Moduli (GPa) = 43.88946 69.10457 71.95202
#
# Poissons Ratio (x) = 0.77330 0.18726
# Poissons Ratio (y) = 0.49114 0.23769
# Poissons Ratio (z) = 0.11422 0.22829
#
# Static dielectric constant tensor:
#      x y z
#    x 3.450050 0.000000 0.000000 
#    y 0.000000 3.474810 0.000000 
#    z 0.000000 0.000000 3.541270 
# 
# 
# High freq. dielectric constant tensor:
#      x y z
#    x 1.731770 0.000000 0.000000 
#    y 0.000000 1.746050 0.000000 
#    z 0.000000 0.000000 1.747500 
# 
# From -- ./inp_files/8539.got.cif
#   From: 2010.03.12/outbox.cif.g09.slc.cpg/sg57_5_cif.got.tgz:8539.got - 2010.04.16 15:48:40.
