data_PCOD8233838
_publ_section_title
;
Structure prediction by ZEFSAII (Michael W. Deem and Ramdas Pophale) SiO2 
 PCOD8233838
Probable space group: P B C M
;
_chemical_formula_sum "Si O2"
_cell_formula_units_Z 48
_cell_length_a 8.006612
_cell_length_b 14.158579
_cell_length_c 19.240873
_cell_angle_alpha 90.000000
_cell_angle_beta 90.000000
_cell_angle_gamma 90.000000
_cell_volume 2181.188627
_symmetry_space_group_name_H-M "P B C M"
_symmetry_group_IT_number 57
_symmetry_cell_setting 'orthorhombic'
loop_
_space_group_symop_operation_xyz
x,y,z
-x,-y,1/2+z
x,1/2-y,-z
-x,1/2+y,1/2-z
-x,-y,-z
x,y,1/2-z
-x,1/2+y,z
x,1/2-y,1/2+z
loop_
_atom_site_type_symbol
_atom_site_label
_atom_site_fract_x
_atom_site_fract_y
_atom_site_fract_z
Si Si1 0.453339 0.331455 0.426646
Si Si2 0.925279 0.108996 0.828224
Si Si3 0.023815 0.954088 0.925106
Si Si4 0.815037 0.233984 0.074748
Si Si5 0.672579 0.639345 0.422882
Si Si6 0.437744 0.516173 0.828006
O O1 0.628921 0.275581 0.430256
O O2 0.404448 0.378448 0.500291
O O3 0.321416 0.250739 0.405684
O O4 0.442434 0.411718 0.368757
O O5 0.991725 0.123905 0.750000
O O6 0.916456 0.210897 0.865462
O O7 0.745114 0.060784 0.828286
O O8 0.048973 0.038387 0.869556
O O9 0.859265 0.893866 0.912073
O O10 0.178119 0.880425 0.914686
O O11 0.000000 0.000000 0.000000
O O12 0.904083 0.250000 0.000000
O O13 0.557841 0.583723 0.367499
O O14 0.505168 0.501670 0.750000
#
# Coordination Sequence:
#
# PCOD8233838 Si02
#       6
#     8   8   8   8   8   8
#     4  10  21  36  58  87 115 147 190 239 290 342
#     4   9  20  38  57  83 118 153 190 239 296 346
#     4  11  23  36  61  88 113 151 197 244 288 350
#     4  11  20  36  61  87 114 153 197 241 290 349
#     4  10  21  36  58  85 114 149 190 241 290 338
#     4   9  19  36  57  81 113 153 188 230 288 346
#
# _framework density 22.006350999999999
#
# number of rings (size 3 to 8) (size 9 to 14) (size 15 to 20)
#    0.000    2.000    3.333    0.500    2.333    2.667 
#    0.000    0.000    0.000    7.000    0.000    0.000 
#    0.000    0.000    0.000    0.000    0.000    0.000 
#
# Total GULP energy -594922.241148 kJ/mol
# GULP energy per Si atom -12394.213357 kJ/mol
# Density = 2.195626 g / cm^3
# Si number density = 22.006351 Si / 1000 Ang^3
#
#
#
# Elastic Constant Matrix: (Units=GPa)
#
#
# Indices 1 2 3 4 5 6 
#
# 1 25.6314 -6.6843 -3.0949 0.0000 0.0000 0.0000
# 2 -6.6843 81.8665 38.1332 0.0000 0.0000 0.0000
# 3 -3.0949 38.1332 146.9864 0.0000 0.0000 0.0000
# 4 0.0000 0.0000 0.0000 36.8701 0.0000 0.0000
# 5 0.0000 0.0000 0.0000 0.0000 21.1271 0.0000
# 6 0.0000 0.0000 0.0000 0.0000 0.0000 22.5923
#
#
#
# Elastic Compliance Matrix: (Units=1/GPa)
#
#
# Indices 1 2 3 4 5 6 
#
# 1 0.039863 0.003257 -0.000006 0.000000 0.000000 0.000000
# 2 0.003257 0.014160 -0.003605 0.000000 0.000000 0.000000
# 3 -0.000006 -0.003605 0.007739 0.000000 0.000000 0.000000
# 4 0.000000 0.000000 0.000000 0.027122 0.000000 0.000000
# 5 0.000000 0.000000 0.000000 0.000000 0.047333 0.000000
# 6 0.000000 0.000000 0.000000 0.000000 0.000000 0.044263
#
#
# Mechanical properties :
#
#
# Convention : Reuss Voigt Hill
#
# Bulk Modulus (GPa) = 16.37853 34.57692 25.47773
# Shear Modulus (GPa) = 24.80918 31.19325 28.00121
#
# Velocity S-wave (km/s) = 3.36127 3.76901 3.57096
# Velocity P-wave (km/s) = 4.74584 5.88956 5.34836
#
# Compressibility (1/GPa) = 0.06105552
#
# Stress axis : x y z
#
# Youngs Moduli (GPa) = 25.08564 70.62046 129.22399
#
# Poissons Ratio (x) = -0.23005 0.00074
# Poissons Ratio (y) = -0.08172 0.46586
# Poissons Ratio (z) = 0.00014 0.25459
#
# Static dielectric constant tensor:
#      x y z
#    x 3.677910 0.000000 0.000000 
#    y 0.000000 4.359960 0.000000 
#    z 0.000000 0.000000 4.150590 
# 
# 
# High freq. dielectric constant tensor:
#      x y z
#    x 1.839380 0.000000 0.000000 
#    y 0.000000 1.877510 0.000000 
#    z 0.000000 0.000000 1.857690 
# 
# From -- ./inp_files/21100.got.cif
#   From: 2010.03.12/outbox.cif.g09.slc.cpg/sg57_11_cif.got.tgz:21100.got - 2010.04.16 15:48:40.
