data_PCOD8233665
_publ_section_title
;
Structure prediction by ZEFSAII (Michael W. Deem and Ramdas Pophale) SiO2 
 PCOD8233665
Probable space group: P B C M
;
_chemical_formula_sum "Si O2"
_cell_formula_units_Z 56
_cell_length_a 13.364232
_cell_length_b 9.001655
_cell_length_c 22.338554
_cell_angle_alpha 90.000000
_cell_angle_beta 90.000000
_cell_angle_gamma 90.000000
_cell_volume 2687.332644
_symmetry_space_group_name_H-M "P B C M"
_symmetry_group_IT_number 57
_symmetry_cell_setting 'orthorhombic'
loop_
_space_group_symop_operation_xyz
x,y,z
-x,-y,1/2+z
x,1/2-y,-z
-x,1/2+y,1/2-z
-x,-y,-z
x,y,1/2-z
-x,1/2+y,z
x,1/2-y,1/2+z
loop_
_atom_site_type_symbol
_atom_site_label
_atom_site_fract_x
_atom_site_fract_y
_atom_site_fract_z
Si Si1 0.367880 0.317311 0.681883
Si Si2 0.816276 0.213434 0.120084
Si Si3 0.169268 0.060184 0.131259
Si Si4 0.941956 0.998291 0.750000
Si Si5 0.999606 0.628360 0.453349
Si Si6 0.610254 0.192873 0.433546
Si Si7 0.867073 0.176501 0.250000
Si Si8 0.505423 0.558141 0.868024
O O1 0.329845 0.311648 0.750000
O O2 0.277351 0.362622 0.637648
O O3 0.407211 0.153642 0.663802
O O4 0.453771 0.443719 0.678100
O O5 0.823860 0.389662 0.110979
O O6 0.724494 0.153242 0.081145
O O7 0.798476 0.174836 0.190443
O O8 0.914636 0.126039 0.097667
O O9 0.110284 0.074561 0.192976
O O10 0.107064 0.146003 0.079925
O O11 0.934765 0.175673 0.750000
O O12 0.059717 0.964215 0.750000
O O13 0.026877 0.750000 0.500000
O O14 0.000000 0.500000 0.500000
O O15 0.594188 0.250000 0.500000
O O16 0.577132 0.326648 0.390652
O O17 0.548248 0.041331 0.422727
#
# Coordination Sequence:
#
# PCOD8233665 Si02
#       8
#     8   8   8   4   8   8   4   8
#     4  11  22  43  68  98 135 174 217 274 336 398
#     4  11  23  42  66  95 130 172 213 263 333 388
#     4  11  22  41  65  94 129 173 212 266 326 386
#     4  10  20  40  64  87 125 166 212 261 317 377
#     4  12  25  41  64  93 132 172 218 266 319 390
#     4  11  23  44  70  94 132 172 222 276 330 396
#     4  10  22  40  64  91 125 170 212 263 321 391
#     4  10  24  43  66 100 128 171 226 275 333 392
#
# _framework density 20.838507
#
# number of rings (size 3 to 8) (size 9 to 14) (size 15 to 20)
#    0.000    1.143    5.000    1.286    0.000    1.143 
#    9.000    0.714    0.000    0.000    0.000    0.000 
#    0.000    0.000    0.000    0.000    0.000    0.000 
#
# Total GULP energy -694228.796860 kJ/mol
# GULP energy per Si atom -12396.942801 kJ/mol
# Density = 2.079108 g / cm^3
# Si number density = 20.838507 Si / 1000 Ang^3
#
#
#
# Elastic Constant Matrix: (Units=GPa)
#
#
# Indices 1 2 3 4 5 6 
#
# 1 106.9044 26.4084 29.2355 0.0000 0.0000 0.0000
# 2 26.4084 80.9991 23.5151 0.0000 0.0000 0.0000
# 3 29.2355 23.5151 105.1103 0.0000 0.0000 0.0000
# 4 0.0000 0.0000 0.0000 25.4900 0.0000 0.0000
# 5 0.0000 0.0000 0.0000 0.0000 31.1490 0.0000
# 6 0.0000 0.0000 0.0000 0.0000 0.0000 30.8140
#
#
#
# Elastic Compliance Matrix: (Units=1/GPa)
#
#
# Indices 1 2 3 4 5 6 
#
# 1 0.010688 -0.002804 -0.002346 0.000000 0.000000 0.000000
# 2 -0.002804 0.013939 -0.002339 0.000000 0.000000 0.000000
# 3 -0.002346 -0.002339 0.010689 0.000000 0.000000 0.000000
# 4 0.000000 0.000000 0.000000 0.039231 0.000000 0.000000
# 5 0.000000 0.000000 0.000000 0.000000 0.032104 0.000000
# 6 0.000000 0.000000 0.000000 0.000000 0.000000 0.032453
#
#
# Mechanical properties :
#
#
# Convention : Reuss Voigt Hill
#
# Bulk Modulus (GPa) = 49.16252 50.14798 49.65525
# Shear Modulus (GPa) = 31.08290 31.74757 31.41523
#
# Velocity S-wave (km/s) = 3.86632 3.90744 3.88694
# Velocity P-wave (km/s) = 6.60111 6.66894 6.63511
#
# Compressibility (1/GPa) = 0.02034070
#
# Stress axis : x y z
#
# Youngs Moduli (GPa) = 93.56098 71.74197 93.55067
#
# Poissons Ratio (x) = 0.20115 0.21943
# Poissons Ratio (y) = 0.26232 0.21877
# Poissons Ratio (z) = 0.21945 0.16777
#
# Static dielectric constant tensor:
#      x y z
#    x 3.692390 0.000000 0.000000 
#    y 0.000000 3.682890 0.000000 
#    z 0.000000 0.000000 3.809930 
# 
# 
# High freq. dielectric constant tensor:
#      x y z
#    x 1.811840 0.000000 0.000000 
#    y 0.000000 1.814970 0.000000 
#    z 0.000000 0.000000 1.821660 
# 
# From -- ./inp_files/25471.got.cif
#   From: 2010.03.12/outbox.cif.g09.slc.cpg/sg57_13_cif.got.tgz:25471.got - 2010.04.16 15:48:40.
