data_PCOD8233754
_publ_section_title
;
Structure prediction by ZEFSAII (Michael W. Deem and Ramdas Pophale) SiO2 
 PCOD8233754
Probable space group: P B C M
;
_chemical_formula_sum "Si O2"
_cell_formula_units_Z 64
_cell_length_a 22.830748
_cell_length_b 10.357932
_cell_length_c 13.969604
_cell_angle_alpha 90.000000
_cell_angle_beta 90.000000
_cell_angle_gamma 90.000000
_cell_volume 3303.522668
_symmetry_space_group_name_H-M "P B C M"
_symmetry_group_IT_number 57
_symmetry_cell_setting 'orthorhombic'
loop_
_space_group_symop_operation_xyz
x,y,z
-x,-y,1/2+z
x,1/2-y,-z
-x,1/2+y,1/2-z
-x,-y,-z
x,y,1/2-z
-x,1/2+y,z
x,1/2-y,1/2+z
loop_
_atom_site_type_symbol
_atom_site_label
_atom_site_fract_x
_atom_site_fract_y
_atom_site_fract_z
Si Si1 0.463822 0.154016 0.638533
Si Si2 0.353583 0.394655 0.012276
Si Si3 0.965620 0.456332 0.639695
Si Si4 0.173723 0.962988 0.358222
Si Si5 0.925779 0.614921 0.032987
Si Si6 0.844022 0.166015 0.145266
Si Si7 0.555128 0.557614 0.138353
Si Si8 0.259514 0.602525 0.493447
O O1 0.455651 0.131015 0.750000
O O2 0.403616 0.110286 0.591684
O O3 0.477062 0.304919 0.614777
O O4 0.515797 0.061615 0.600410
O O5 0.382093 0.445054 0.913339
O O6 0.326070 0.250000 0.000000
O O7 0.306904 0.501583 0.047350
O O8 0.968092 0.505363 0.750000
O O9 0.958417 0.570914 0.564301
O O10 0.909922 0.367963 0.619092
O O11 0.025213 0.378312 0.616500
O O12 0.176941 0.020898 0.250000
O O13 0.152025 0.818131 0.356463
O O14 0.238965 0.957415 0.404504
O O15 0.129566 0.038240 0.426800
O O16 0.899199 0.750000 0.000000
O O17 0.825979 0.114033 0.250000
O O18 0.797873 0.104446 0.072874
O O19 0.568220 0.543808 0.250000
O O20 0.284780 0.750000 0.500000
#
# Coordination Sequence:
#
# PCOD8233754 Si02
#       8
#     8   8   8   8   8   8   8   8
#     4   9  18  33  53  79 109 143 179 220 269 325
#     4  10  21  35  53  77 112 147 180 223 278 333
#     4  10  22  38  58  84 114 147 180 223 280 336
#     4  10  21  39  61  81 107 145 185 230 284 334
#     4  11  24  36  58  86 118 145 181 228 276 343
#     4   9  19  38  62  81 105 141 185 230 279 332
#     4   9  18  33  53  78 110 144 180 220 268 325
#     4  10  21  37  57  80 107 140 193 239 276 323
#
# _framework density 19.373259000000001
#
# number of rings (size 3 to 8) (size 9 to 14) (size 15 to 20)
#    0.000    2.250    1.250    0.750    3.500    3.500 
#    0.000    0.000    0.000    0.000    0.000    0.000 
#    0.000    0.000    0.000    0.000    0.000    0.000 
#
# Total GULP energy -793097.289684 kJ/mol
# GULP energy per Si atom -12392.145151 kJ/mol
# Density = 1.932917 g / cm^3
# Si number density = 19.373259 Si / 1000 Ang^3
#
#
#
# Elastic Constant Matrix: (Units=GPa)
#
#
# Indices 1 2 3 4 5 6 
#
# 1 69.6112 50.0029 17.0122 0.0000 0.0000 0.0000
# 2 50.0029 84.4108 25.7452 0.0000 0.0000 0.0000
# 3 17.0122 25.7452 74.7666 0.0000 0.0000 0.0000
# 4 0.0000 0.0000 0.0000 21.8702 0.0000 0.0000
# 5 0.0000 0.0000 0.0000 0.0000 16.7559 0.0000
# 6 0.0000 0.0000 0.0000 0.0000 0.0000 21.0384
#
#
#
# Elastic Compliance Matrix: (Units=1/GPa)
#
#
# Indices 1 2 3 4 5 6 
#
# 1 0.025035 -0.014629 -0.000659 0.000000 0.000000 0.000000
# 2 -0.014629 0.021786 -0.004173 0.000000 0.000000 0.000000
# 3 -0.000659 -0.004173 0.014962 0.000000 0.000000 0.000000
# 4 0.000000 0.000000 0.000000 0.045724 0.000000 0.000000
# 5 0.000000 0.000000 0.000000 0.000000 0.059680 0.000000
# 6 0.000000 0.000000 0.000000 0.000000 0.000000 0.047532
#
#
# Mechanical properties :
#
#
# Convention : Reuss Voigt Hill
#
# Bulk Modulus (GPa) = 43.74427 46.03435 44.88931
# Shear Modulus (GPa) = 19.13794 21.00145 20.06970
#
# Velocity S-wave (km/s) = 3.14642 3.29605 3.22211
# Velocity P-wave (km/s) = 5.98571 6.18859 6.08800
#
# Compressibility (1/GPa) = 0.02286014
#
# Stress axis : x y z
#
# Youngs Moduli (GPa) = 39.94425 45.90209 66.83674
#
# Poissons Ratio (x) = 0.67151 0.04405
# Poissons Ratio (y) = 0.58435 0.27891
# Poissons Ratio (z) = 0.02632 0.19155
#
# Static dielectric constant tensor:
#      x y z
#    x 3.343970 0.000000 0.000000 
#    y 0.000000 3.596570 0.000000 
#    z 0.000000 0.000000 3.946800 
# 
# 
# High freq. dielectric constant tensor:
#      x y z
#    x 1.734840 0.000000 0.000000 
#    y 0.000000 1.747340 0.000000 
#    z 0.000000 0.000000 1.769390 
# 
# From -- ./inp_files/19517.got.cif
#   From: 2010.03.12/outbox.cif.g09.slc.cpg/sg57_10_cif.got.tgz:19517.got - 2010.04.16 15:48:40.
