data_PCOD8233618
_publ_section_title
;
Structure prediction by ZEFSAII (Michael W. Deem and Ramdas Pophale) SiO2 
 PCOD8233618
Probable space group: P B C M
;
_chemical_formula_sum "Si O2"
_cell_formula_units_Z 56
_cell_length_a 15.584377
_cell_length_b 12.111144
_cell_length_c 14.908146
_cell_angle_alpha 90.000000
_cell_angle_beta 90.000000
_cell_angle_gamma 90.000000
_cell_volume 2813.832560
_symmetry_space_group_name_H-M "P B C M"
_symmetry_group_IT_number 57
_symmetry_cell_setting 'orthorhombic'
loop_
_space_group_symop_operation_xyz
x,y,z
-x,-y,1/2+z
x,1/2-y,-z
-x,1/2+y,1/2-z
-x,-y,-z
x,y,1/2-z
-x,1/2+y,z
x,1/2-y,1/2+z
loop_
_atom_site_type_symbol
_atom_site_label
_atom_site_fract_x
_atom_site_fract_y
_atom_site_fract_z
Si Si1 0.794089 0.207661 0.590480
Si Si2 0.418133 0.923830 0.489159
Si Si3 0.382197 0.763073 0.647074
Si Si4 0.830073 0.561111 0.652131
Si Si5 0.242737 0.023980 0.036278
Si Si6 0.057880 0.859721 0.850191
Si Si7 0.123948 0.292306 0.903772
O O1 0.747077 0.250000 0.500000
O O2 0.719985 0.236573 0.662093
O O3 0.884382 0.271217 0.596662
O O4 0.811896 0.077266 0.578823
O O5 0.396524 0.873693 0.587795
O O6 0.430521 0.833308 0.409828
O O7 0.500000 0.000000 0.500000
O O8 0.343178 0.004052 0.451424
O O9 0.418841 0.774422 0.750000
O O10 0.789769 0.529714 0.750000
O O11 0.765929 0.538809 0.571105
O O12 0.913417 0.485613 0.632905
O O13 0.857201 0.688806 0.659637
O O14 0.208899 0.131392 0.089318
O O15 0.074340 0.821337 0.750000
O O16 0.957244 0.860307 0.869698
O O17 0.095970 0.250000 0.000000
#
# Coordination Sequence:
#
# PCOD8233618 Si02
#       7
#     8   8   8   8   8   8   8
#     4  11  18  36  62  90 118 154 203 256 309 360
#     4  10  21  41  66  93 124 162 200 256 316 381
#     4  10  20  39  63  96 128 157 203 257 310 372
#     4  10  21  38  55  80 117 154 199 248 297 360
#     4  10  21  39  61  85 114 158 199 243 315 370
#     4  11  22  34  55  84 115 159 209 257 299 348
#     4  10  23  37  53  78 117 158 199 247 295 365
#
# _framework density 19.901681
#
# number of rings (size 3 to 8) (size 9 to 14) (size 15 to 20)
#    0.000    1.714    4.286    1.286    2.000    3.429 
#    7.714    6.429    0.000    0.000    0.000    0.000 
#    0.000    0.000    0.000    0.000    0.000    0.000 
#
# Total GULP energy -693794.440426 kJ/mol
# GULP energy per Si atom -12389.186436 kJ/mol
# Density = 1.985638 g / cm^3
# Si number density = 19.901681 Si / 1000 Ang^3
#
#
#
# Elastic Constant Matrix: (Units=GPa)
#
#
# Indices 1 2 3 4 5 6 
#
# 1 97.8303 58.9049 17.5589 0.0000 0.0000 0.0000
# 2 58.9049 132.9071 32.5075 0.0000 0.0000 0.0000
# 3 17.5589 32.5075 89.2895 0.0000 0.0000 0.0000
# 4 0.0000 0.0000 0.0000 15.9026 0.0000 0.0000
# 5 0.0000 0.0000 0.0000 0.0000 4.8136 0.0000
# 6 0.0000 0.0000 0.0000 0.0000 0.0000 34.3487
#
#
#
# Elastic Compliance Matrix: (Units=1/GPa)
#
#
# Indices 1 2 3 4 5 6 
#
# 1 0.013966 -0.006058 -0.000541 0.000000 0.000000 0.000000
# 2 -0.006058 0.010887 -0.002772 0.000000 0.000000 0.000000
# 3 -0.000541 -0.002772 0.012315 0.000000 0.000000 0.000000
# 4 0.000000 0.000000 0.000000 0.062883 0.000000 0.000000
# 5 0.000000 0.000000 0.000000 0.000000 0.207744 0.000000
# 6 0.000000 0.000000 0.000000 0.000000 0.000000 0.029113
#
#
# Mechanical properties :
#
#
# Convention : Reuss Voigt Hill
#
# Bulk Modulus (GPa) = 54.27010 59.77439 57.02224
# Shear Modulus (GPa) = 13.82006 25.08335 19.45171
#
# Velocity S-wave (km/s) = 2.63804 3.55401 3.12972
# Velocity P-wave (km/s) = 6.05040 6.85138 6.46331
#
# Compressibility (1/GPa) = 0.01842635
#
# Stress axis : x y z
#
# Youngs Moduli (GPa) = 71.60134 91.85396 81.20009
#
# Poissons Ratio (x) = 0.55641 0.04394
# Poissons Ratio (y) = 0.43373 0.22511
# Poissons Ratio (z) = 0.03875 0.25465
#
# Static dielectric constant tensor:
#      x y z
#    x 3.202340 0.000000 0.000000 
#    y 0.000000 3.806940 0.000000 
#    z 0.000000 0.000000 3.990760 
# 
# 
# High freq. dielectric constant tensor:
#      x y z
#    x 1.741540 0.000000 0.000000 
#    y 0.000000 1.781190 0.000000 
#    z 0.000000 0.000000 1.780740 
# 
# From -- ./inp_files/18533.got.cif
#   From: 2010.03.12/outbox.cif.g09.slc.cpg/sg57_10_cif.got.tgz:18533.got - 2010.04.16 15:48:40.
