data_PCOD8233461
_publ_section_title
;
Structure prediction by ZEFSAII (Michael W. Deem and Ramdas Pophale) SiO2 
 PCOD8233461
Probable space group: P B C M
;
_chemical_formula_sum "Si O2"
_cell_formula_units_Z 40
_cell_length_a 23.595347
_cell_length_b 9.227079
_cell_length_c 9.089055
_cell_angle_alpha 90.000000
_cell_angle_beta 90.000000
_cell_angle_gamma 90.000000
_cell_volume 1978.833887
_symmetry_space_group_name_H-M "P B C M"
_symmetry_group_IT_number 57
_symmetry_cell_setting 'orthorhombic'
loop_
_space_group_symop_operation_xyz
x,y,z
-x,-y,1/2+z
x,1/2-y,-z
-x,1/2+y,1/2-z
-x,-y,-z
x,y,1/2-z
-x,1/2+y,z
x,1/2-y,1/2+z
loop_
_atom_site_type_symbol
_atom_site_label
_atom_site_fract_x
_atom_site_fract_y
_atom_site_fract_z
Si Si1 0.734076 0.893757 0.911108
Si Si2 0.571148 0.486143 0.750000
Si Si3 0.835477 0.095281 0.571804
Si Si4 0.368663 0.912090 0.026416
Si Si5 0.538895 0.161711 0.750000
Si Si6 0.950767 0.093284 0.070457
O O1 0.751736 0.841311 0.750000
O O2 0.785738 0.986470 0.977275
O O3 0.679259 0.996055 0.893944
O O4 0.720447 0.750000 0.000000
O O5 0.615020 0.500265 0.617723
O O6 0.537432 0.335052 0.750000
O O7 0.526301 0.615469 0.750000
O O8 0.821088 0.250000 0.500000
O O9 0.842178 0.108957 0.750000
O O10 0.891581 0.031102 0.493047
O O11 0.428026 0.900258 0.110899
O O12 0.344366 0.750000 0.000000
O O13 0.952035 0.094856 0.250000
O O14 0.958696 0.250000 0.000000
O O15 0.000000 0.000000 0.000000
#
# Coordination Sequence:
#
# PCOD8233461 Si02
#       6
#     8   4   8   8   4   8
#     4  11  25  41  60  87 120 154 196 250 302 356
#     4  10  22  34  60  88 112 156 185 242 289 358
#     4  10  21  40  63  90 121 160 206 251 300 362
#     4  10  21  40  60  85 115 155 198 240 292 355
#     4  10  20  38  58  84 120 146 197 234 295 348
#     4  11  22  39  63  94 128 168 211 256 306 361
#
# _framework density 20.213925
#
# number of rings (size 3 to 8) (size 9 to 14) (size 15 to 20)
#    0.000    1.600    1.000    4.800    1.400    4.000 
#    0.000    2.000    0.000    0.000    0.000    0.000 
#    0.000    0.000    0.000    0.000    0.000    0.000 
#
# Total GULP energy -495787.096113 kJ/mol
# GULP energy per Si atom -12394.677403 kJ/mol
# Density = 2.016792 g / cm^3
# Si number density = 20.213925 Si / 1000 Ang^3
#
#
#
# Elastic Constant Matrix: (Units=GPa)
#
#
# Indices 1 2 3 4 5 6 
#
# 1 97.5549 43.7500 21.3245 0.0000 0.0000 0.0000
# 2 43.7500 71.5557 22.9780 0.0000 0.0000 0.0000
# 3 21.3245 22.9780 124.1701 0.0000 0.0000 0.0000
# 4 0.0000 0.0000 0.0000 30.7720 0.0000 0.0000
# 5 0.0000 0.0000 0.0000 0.0000 35.5167 0.0000
# 6 0.0000 0.0000 0.0000 0.0000 0.0000 40.6703
#
#
#
# Elastic Compliance Matrix: (Units=1/GPa)
#
#
# Indices 1 2 3 4 5 6 
#
# 1 0.014214 -0.008406 -0.000885 0.000000 0.000000 0.000000
# 2 -0.008406 0.019830 -0.002226 0.000000 0.000000 0.000000
# 3 -0.000885 -0.002226 0.008617 0.000000 0.000000 0.000000
# 4 0.000000 0.000000 0.000000 0.032497 0.000000 0.000000
# 5 0.000000 0.000000 0.000000 0.000000 0.028156 0.000000
# 6 0.000000 0.000000 0.000000 0.000000 0.000000 0.024588
#
#
# Mechanical properties :
#
#
# Convention : Reuss Voigt Hill
#
# Bulk Modulus (GPa) = 50.95315 52.15398 51.55356
# Shear Modulus (GPa) = 31.75017 35.07366 33.41192
#
# Velocity S-wave (km/s) = 3.96752 4.17000 4.07002
# Velocity P-wave (km/s) = 6.80073 7.00302 6.90261
#
# Compressibility (1/GPa) = 0.01962587
#
# Stress axis : x y z
#
# Youngs Moduli (GPa) = 70.35231 50.42956 116.04385
#
# Poissons Ratio (x) = 0.42393 0.10275
# Poissons Ratio (y) = 0.59141 0.25829
# Poissons Ratio (z) = 0.06229 0.11225
#
# Static dielectric constant tensor:
#      x y z
#    x 3.796490 0.000000 0.000000 
#    y 0.000000 3.573130 0.000000 
#    z 0.000000 0.000000 4.100790 
# 
# 
# High freq. dielectric constant tensor:
#      x y z
#    x 1.794560 0.000000 0.000000 
#    y 0.000000 1.779760 0.000000 
#    z 0.000000 0.000000 1.807010 
# 
# From -- ./inp_files/8954.got.cif
#   From: 2010.03.12/outbox.cif.g09.slc.cpg/sg57_5_cif.got.tgz:8954.got - 2010.04.16 15:48:40.
