data_PCOD8233828
_publ_section_title
;
Structure prediction by ZEFSAII (Michael W. Deem and Ramdas Pophale) SiO2 
 PCOD8233828
Probable space group: P B C M
;
_chemical_formula_sum "Si O2"
_cell_formula_units_Z 56
_cell_length_a 19.354880
_cell_length_b 15.952186
_cell_length_c 8.659615
_cell_angle_alpha 90.000000
_cell_angle_beta 90.000000
_cell_angle_gamma 90.000000
_cell_volume 2673.679043
_symmetry_space_group_name_H-M "P B C M"
_symmetry_group_IT_number 57
_symmetry_cell_setting 'orthorhombic'
loop_
_space_group_symop_operation_xyz
x,y,z
-x,-y,1/2+z
x,1/2-y,-z
-x,1/2+y,1/2-z
-x,-y,-z
x,y,1/2-z
-x,1/2+y,z
x,1/2-y,1/2+z
loop_
_atom_site_type_symbol
_atom_site_label
_atom_site_fract_x
_atom_site_fract_y
_atom_site_fract_z
Si Si1 0.213041 0.075953 0.427301
Si Si2 0.651559 0.337378 0.432048
Si Si3 0.075648 0.159075 0.432134
Si Si4 0.074985 0.840305 0.931280
Si Si5 0.648992 0.661305 0.427642
Si Si6 0.576068 0.499736 0.566708
Si Si7 0.781172 0.406196 0.569868
O O1 0.207746 0.045522 0.250000
O O2 0.138113 0.102140 0.494561
O O3 0.267948 0.151323 0.442318
O O4 0.241456 0.000554 0.531717
O O5 0.621656 0.250000 0.500000
O O6 0.640314 0.338590 0.250000
O O7 0.613982 0.416830 0.506223
O O8 0.732857 0.342610 0.474886
O O9 0.085323 0.250000 0.500000
O O10 0.082521 0.166500 0.250000
O O11 0.000125 0.122443 0.482903
O O12 0.075105 0.829595 0.750000
O O13 0.138857 0.897731 0.985021
O O14 0.087291 0.750000 0.000000
O O15 0.626745 0.750000 0.500000
O O16 0.625335 0.659778 0.250000
O O17 0.612787 0.584997 0.514646
O O18 0.500000 0.500000 0.500000
O O19 0.574557 0.496485 0.750000
O O20 0.771143 0.387154 0.750000
#
# Coordination Sequence:
#
# PCOD8233828 Si02
#       7
#     8   8   8   8   8   8   8
#     4  10  21  36  57  84 120 162 208 263 320 376
#     4  12  25  44  69  99 133 172 217 266 320 383
#     4   9  18  34  53  77 111 154 203 259 318 376
#     4   9  19  34  52  77 111 152 204 260 316 379
#     4  11  23  41  66  98 133 174 220 267 318 379
#     4  12  26  47  73 103 137 173 211 260 315 377
#     4  11  22  36  57  86 120 162 211 265 320 379
#
# _framework density 20.944921999999998
#
# number of rings (size 3 to 8) (size 9 to 14) (size 15 to 20)
#    0.000    1.429    1.429    4.286    0.000    4.571 
#    0.000    2.857    0.000    0.000    0.000    0.000 
#    0.000    0.000    0.000    0.000    0.000    0.000 
#
# Total GULP energy -694302.535846 kJ/mol
# GULP energy per Si atom -12398.259569 kJ/mol
# Density = 2.089725 g / cm^3
# Si number density = 20.944922 Si / 1000 Ang^3
#
#
#
# Elastic Constant Matrix: (Units=GPa)
#
#
# Indices 1 2 3 4 5 6 
#
# 1 120.1296 53.9257 48.4404 0.0000 0.0000 0.0000
# 2 53.9257 139.1631 54.0707 0.0000 0.0000 0.0000
# 3 48.4404 54.0707 117.2202 0.0000 0.0000 0.0000
# 4 0.0000 0.0000 0.0000 36.7536 0.0000 0.0000
# 5 0.0000 0.0000 0.0000 0.0000 23.4184 0.0000
# 6 0.0000 0.0000 0.0000 0.0000 0.0000 34.7440
#
#
#
# Elastic Compliance Matrix: (Units=1/GPa)
#
#
# Indices 1 2 3 4 5 6 
#
# 1 0.010943 -0.003026 -0.003127 0.000000 0.000000 0.000000
# 2 -0.003026 0.009592 -0.003174 0.000000 0.000000 0.000000
# 3 -0.003127 -0.003174 0.011287 0.000000 0.000000 0.000000
# 4 0.000000 0.000000 0.000000 0.027208 0.000000 0.000000
# 5 0.000000 0.000000 0.000000 0.000000 0.042702 0.000000
# 6 0.000000 0.000000 0.000000 0.000000 0.000000 0.028782
#
#
# Mechanical properties :
#
#
# Convention : Reuss Voigt Hill
#
# Bulk Modulus (GPa) = 75.93373 76.59849 76.26611
# Shear Modulus (GPa) = 32.56143 33.65492 33.10817
#
# Velocity S-wave (km/s) = 3.94715 4.01288 3.98015
# Velocity P-wave (km/s) = 7.55685 7.62376 7.59038
#
# Compressibility (1/GPa) = 0.01316938
#
# Stress axis : x y z
#
# Youngs Moduli (GPa) = 91.37992 104.25894 88.59709
#
# Poissons Ratio (x) = 0.31546 0.27700
# Poissons Ratio (y) = 0.27649 0.28120
# Poissons Ratio (z) = 0.28570 0.33091
#
# Static dielectric constant tensor:
#      x y z
#    x 4.084590 0.000000 0.000000 
#    y 0.000000 3.663500 0.000000 
#    z 0.000000 0.000000 3.704860 
# 
# 
# High freq. dielectric constant tensor:
#      x y z
#    x 1.833570 0.000000 0.000000 
#    y 0.000000 1.815490 0.000000 
#    z 0.000000 0.000000 1.820580 
# 
# From -- ./inp_files/8197.got.cif
#   From: 2010.03.12/outbox.cif.g09.slc.cpg/sg57_5_cif.got.tgz:8197.got - 2010.04.16 15:48:40.
