data_PCOD8233086
_publ_section_title
;
Structure prediction by ZEFSAII (Michael W. Deem and Ramdas Pophale) SiO2 
 PCOD8233086
Probable space group: P B C M
;
_chemical_formula_sum "Si O2"
_cell_formula_units_Z 56
_cell_length_a 21.449155
_cell_length_b 15.088413
_cell_length_c 8.789334
_cell_angle_alpha 90.000000
_cell_angle_beta 90.000000
_cell_angle_gamma 90.000000
_cell_volume 2844.524763
_symmetry_space_group_name_H-M "P B C M"
_symmetry_group_IT_number 57
_symmetry_cell_setting 'orthorhombic'
loop_
_space_group_symop_operation_xyz
x,y,z
-x,-y,1/2+z
x,1/2-y,-z
-x,1/2+y,1/2-z
-x,-y,-z
x,y,1/2-z
-x,1/2+y,z
x,1/2-y,1/2+z
loop_
_atom_site_type_symbol
_atom_site_label
_atom_site_fract_x
_atom_site_fract_y
_atom_site_fract_z
Si Si1 0.350920 0.508560 0.569693
Si Si2 0.412987 0.342370 0.429755
Si Si3 0.877253 0.152044 0.930034
Si Si4 0.780608 0.017486 0.069431
Si Si5 0.852300 0.845729 0.070313
Si Si6 0.012051 0.342690 0.425776
Si Si7 0.445454 0.841649 0.428931
O O1 0.351737 0.499372 0.750000
O O2 0.366928 0.415378 0.494747
O O3 0.283848 0.539785 0.512727
O O4 0.401290 0.580135 0.511789
O O5 0.390761 0.250000 0.500000
O O6 0.406255 0.338132 0.250000
O O7 0.483951 0.363294 0.480879
O O8 0.862736 0.156174 0.750000
O O9 0.946521 0.106835 0.958915
O O10 0.871910 0.250000 0.000000
O O11 0.829135 0.090851 0.017263
O O12 0.772542 0.022109 0.250000
O O13 0.803333 0.919839 0.015891
O O14 0.848777 0.834700 0.250000
O O15 0.921449 0.881727 0.016781
O O16 0.836061 0.750000 0.000000
O O17 0.000791 0.250000 0.500000
O O18 0.019648 0.325058 0.250000
O O19 0.421790 0.750000 0.500000
O O20 0.441226 0.830991 0.250000
#
# Coordination Sequence:
#
# PCOD8233086 Si02
#       7
#     8   8   8   8   8   8   8
#     4  11  23  39  57  81 114 151 190 231 274 324
#     4  10  20  37  61  89 116 144 180 224 276 330
#     4  10  20  36  58  82 109 142 181 228 281 335
#     4  11  24  39  54  78 112 151 192 230 273 328
#     4   9  19  36  57  80 108 141 180 228 280 332
#     4   8  15  30  53  80 106 134 173 223 279 334
#     4   9  20  37  60  88 115 143 179 225 276 329
#
# _framework density 19.686942999999999
#
# number of rings (size 3 to 8) (size 9 to 14) (size 15 to 20)
#    0.000    2.286    0.000    2.143    0.000    5.143 
#    0.000    2.857    0.000    0.000    0.000    0.000 
#    0.000    0.000    0.000    0.000    0.000    0.000 
#
# Total GULP energy -694036.049644 kJ/mol
# GULP energy per Si atom -12393.500887 kJ/mol
# Density = 1.964213 g / cm^3
# Si number density = 19.686943 Si / 1000 Ang^3
#
#
#
# Elastic Constant Matrix: (Units=GPa)
#
#
# Indices 1 2 3 4 5 6 
#
# 1 59.9363 13.0798 17.2072 0.0000 0.0000 0.0000
# 2 13.0798 68.4719 20.7785 0.0000 0.0000 0.0000
# 3 17.2072 20.7785 45.5144 0.0000 0.0000 0.0000
# 4 0.0000 0.0000 0.0000 33.1385 0.0000 0.0000
# 5 0.0000 0.0000 0.0000 0.0000 25.6850 0.0000
# 6 0.0000 0.0000 0.0000 0.0000 0.0000 23.5178
#
#
#
# Elastic Compliance Matrix: (Units=1/GPa)
#
#
# Indices 1 2 3 4 5 6 
#
# 1 0.018879 -0.001672 -0.006374 0.000000 0.000000 0.000000
# 2 -0.001672 0.017101 -0.007175 0.000000 0.000000 0.000000
# 3 -0.006374 -0.007175 0.027656 0.000000 0.000000 0.000000
# 4 0.000000 0.000000 0.000000 0.030176 0.000000 0.000000
# 5 0.000000 0.000000 0.000000 0.000000 0.038933 0.000000
# 6 0.000000 0.000000 0.000000 0.000000 0.000000 0.042521
#
#
# Mechanical properties :
#
#
# Convention : Reuss Voigt Hill
#
# Bulk Modulus (GPa) = 30.12552 30.67264 30.39908
# Shear Modulus (GPa) = 23.06539 24.65872 23.86205
#
# Velocity S-wave (km/s) = 3.42659 3.54297 3.48526
# Velocity P-wave (km/s) = 5.56694 5.68778 5.62769
#
# Compressibility (1/GPa) = 0.03319445
#
# Stress axis : x y z
#
# Youngs Moduli (GPa) = 52.96820 58.47520 36.15788
#
# Poissons Ratio (x) = 0.09778 0.23048
# Poissons Ratio (y) = 0.08857 0.25943
# Poissons Ratio (z) = 0.33763 0.41956
#
# Static dielectric constant tensor:
#      x y z
#    x 3.908380 0.000000 0.000000 
#    y 0.000000 3.512100 0.000000 
#    z 0.000000 0.000000 3.577580 
# 
# 
# High freq. dielectric constant tensor:
#      x y z
#    x 1.777780 0.000000 0.000000 
#    y 0.000000 1.757440 0.000000 
#    z 0.000000 0.000000 1.769490 
# 
# From -- ./inp_files/8103.got.cif
#   From: 2010.03.12/outbox.cif.g09.slc.cpg/sg57_5_cif.got.tgz:8103.got - 2010.04.16 15:48:40.
