data_PCOD8233362
_publ_section_title
;
Structure prediction by ZEFSAII (Michael W. Deem and Ramdas Pophale) SiO2 
 PCOD8233362
Probable space group: P B C M
;
_chemical_formula_sum "Si O2"
_cell_formula_units_Z 40
_cell_length_a 12.171851
_cell_length_b 7.465183
_cell_length_c 16.909036
_cell_angle_alpha 90.000000
_cell_angle_beta 90.000000
_cell_angle_gamma 90.000000
_cell_volume 1536.441165
_symmetry_space_group_name_H-M "P B C M"
_symmetry_group_IT_number 57
_symmetry_cell_setting 'orthorhombic'
loop_
_space_group_symop_operation_xyz
x,y,z
-x,-y,1/2+z
x,1/2-y,-z
-x,1/2+y,1/2-z
-x,-y,-z
x,y,1/2-z
-x,1/2+y,z
x,1/2-y,1/2+z
loop_
_atom_site_type_symbol
_atom_site_label
_atom_site_fract_x
_atom_site_fract_y
_atom_site_fract_z
Si Si1 0.320965 0.584911 0.440473
Si Si2 0.339413 0.141184 0.412076
Si Si3 0.879272 0.558240 0.339489
Si Si4 0.879858 0.140741 0.160030
Si Si5 0.527745 0.181646 0.842677
O O1 0.300901 0.750000 0.500000
O O2 0.349105 0.407248 0.494217
O O3 0.209365 0.540261 0.393583
O O4 0.419395 0.636426 0.380520
O O5 0.405835 0.322387 0.383974
O O6 0.211974 0.163030 0.389772
O O7 0.393653 0.983935 0.359584
O O8 0.875594 0.630973 0.250000
O O9 0.852682 0.349489 0.343275
O O10 0.999410 0.600358 0.375053
O O11 0.872261 0.068202 0.250000
O O12 0.516680 0.214047 0.750000
#
# Coordination Sequence:
#
# PCOD8233362 Si02
#       5
#     8   8   8   8   8
#     4  10  20  37  61  87 118 161 196 245 298 361
#     4  11  23  40  61  89 123 158 201 250 302 355
#     4  10  20  38  62  88 119 157 200 248 297 356
#     4  10  20  38  64  88 120 161 200 247 302 357
#     4  11  21  38  64  87 117 160 201 247 299 355
#
# _framework density 26.034189000000001
#
# number of rings (size 3 to 8) (size 9 to 14) (size 15 to 20)
#    0.000    1.600    4.000    3.000    0.000    0.800 
#    3.600    0.000    0.000    0.000    0.000    0.000 
#    0.000    0.000    0.000    0.000    0.000    0.000 
#
# Total GULP energy -496205.211081 kJ/mol
# GULP energy per Si atom -12405.130277 kJ/mol
# Density = 2.597493 g / cm^3
# Si number density = 26.034189 Si / 1000 Ang^3
#
#
#
# Elastic Constant Matrix: (Units=GPa)
#
#
# Indices 1 2 3 4 5 6 
#
# 1 170.1767 -9.7445 81.8136 0.0000 0.0000 0.0000
# 2 -9.7445 71.4050 10.1842 0.0000 0.0000 0.0000
# 3 81.8136 10.1842 178.0616 0.0000 0.0000 0.0000
# 4 0.0000 0.0000 0.0000 20.7076 0.0000 0.0000
# 5 0.0000 0.0000 0.0000 0.0000 54.0860 0.0000
# 6 0.0000 0.0000 0.0000 0.0000 0.0000 33.4162
#
#
#
# Elastic Compliance Matrix: (Units=1/GPa)
#
#
# Indices 1 2 3 4 5 6 
#
# 1 0.007713 0.001571 -0.003634 0.000000 0.000000 0.000000
# 2 0.001571 0.014440 -0.001548 0.000000 0.000000 0.000000
# 3 -0.003634 -0.001548 0.007374 0.000000 0.000000 0.000000
# 4 0.000000 0.000000 0.000000 0.048291 0.000000 0.000000
# 5 0.000000 0.000000 0.000000 0.000000 0.018489 0.000000
# 6 0.000000 0.000000 0.000000 0.000000 0.000000 0.029926
#
#
# Mechanical properties :
#
#
# Convention : Reuss Voigt Hill
#
# Bulk Modulus (GPa) = 44.83112 64.90554 54.86833
# Shear Modulus (GPa) = 35.48880 44.13464 39.81172
#
# Velocity S-wave (km/s) = 3.69611 4.12182 3.91475
# Velocity P-wave (km/s) = 5.95587 6.90199 6.44631
#
# Compressibility (1/GPa) = 0.02230593
#
# Stress axis : x y z
#
# Youngs Moduli (GPa) = 129.64835 69.25333 135.60851
#
# Poissons Ratio (x) = -0.10879 0.49277
# Poissons Ratio (y) = -0.20366 0.20987
# Poissons Ratio (z) = 0.47112 0.10718
#
# Static dielectric constant tensor:
#      x y z
#    x 4.800670 0.000000 0.000000 
#    y 0.000000 5.072200 0.000000 
#    z 0.000000 0.000000 4.691850 
# 
# 
# High freq. dielectric constant tensor:
#      x y z
#    x 2.053130 0.000000 0.000000 
#    y 0.000000 2.071960 0.000000 
#    z 0.000000 0.000000 2.045910 
# 
# From -- ./inp_files/21600.got.cif
#   From: 2010.03.12/outbox.cif.g09.slc.cpg/sg57_11_cif.got.tgz:21600.got - 2010.04.16 15:48:40.
