data_PCOD8233967
_publ_section_title
;
Structure prediction by ZEFSAII (Michael W. Deem and Ramdas Pophale) SiO2 
 PCOD8233967
Probable space group: P B C M
;
_chemical_formula_sum "Si O2"
_cell_formula_units_Z 60
_cell_length_a 6.556887
_cell_length_b 19.374608
_cell_length_c 22.345644
_cell_angle_alpha 90.000000
_cell_angle_beta 90.000000
_cell_angle_gamma 90.000000
_cell_volume 2838.726154
_symmetry_space_group_name_H-M "P B C M"
_symmetry_group_IT_number 57
_symmetry_cell_setting 'orthorhombic'
loop_
_space_group_symop_operation_xyz
x,y,z
-x,-y,1/2+z
x,1/2-y,-z
-x,1/2+y,1/2-z
-x,-y,-z
x,y,1/2-z
-x,1/2+y,z
x,1/2-y,1/2+z
loop_
_atom_site_type_symbol
_atom_site_label
_atom_site_fract_x
_atom_site_fract_y
_atom_site_fract_z
Si Si1 0.813360 0.081926 0.683408
Si Si2 0.779072 0.148968 0.318512
Si Si3 0.063748 0.082071 0.414054
Si Si4 0.118028 0.160730 0.975311
Si Si5 0.547010 0.956002 0.644903
Si Si6 0.469660 0.250000 0.000000
Si Si7 0.833538 0.542110 0.890716
Si Si8 0.226469 0.715363 0.603922
O O1 0.797456 0.113075 0.750000
O O2 0.740871 0.140611 0.635654
O O3 0.051919 0.063565 0.671154
O O4 0.679933 0.011299 0.682676
O O5 0.848632 0.156504 0.250000
O O6 0.563792 0.106798 0.319493
O O7 0.772865 0.225779 0.345895
O O8 0.951223 0.106770 0.353745
O O9 0.987819 0.125796 0.471347
O O10 0.307642 0.081284 0.403694
O O11 0.996661 0.003723 0.427259
O O12 0.216365 0.108795 0.928585
O O13 0.978013 0.214828 0.937881
O O14 0.312207 0.188293 0.011494
O O15 0.374327 0.001288 0.614449
O O16 0.591365 0.266110 0.059779
#
# Coordination Sequence:
#
# PCOD8233967 Si02
#       8
#     8   8   8   8   8   4   8   8
#     4  10  21  39  62  88 121 161 205 251 300 357
#     4  11  23  39  59  85 119 158 200 246 298 355
#     4  10  21  37  59  87 116 151 192 239 297 357
#     4  11  22  39  60  85 119 153 194 246 295 354
#     4  10  21  38  61  92 123 154 198 248 301 359
#     4  12  22  36  60  82 110 150 194 242 298 352
#     4   9  21  37  58  88 118 152 193 239 297 356
#     4  11  24  41  60  86 119 160 204 250 302 361
#
# _framework density 21.136241999999999
#
# number of rings (size 3 to 8) (size 9 to 14) (size 15 to 20)
#    0.000    1.600    0.000    4.800    0.000    7.467 
#    0.000    0.000    0.000    6.400    0.000    0.000 
#    0.000    0.000    0.000    0.000    0.000    0.000 
#
# Total GULP energy -743306.936357 kJ/mol
# GULP energy per Si atom -12388.448939 kJ/mol
# Density = 2.108814 g / cm^3
# Si number density = 21.136242 Si / 1000 Ang^3
#
#
#
# Elastic Constant Matrix: (Units=GPa)
#
#
# Indices 1 2 3 4 5 6 
#
# 1 104.4824 34.6295 43.2336 0.0000 0.0000 0.0000
# 2 34.6295 103.5953 35.9304 0.0000 0.0000 0.0000
# 3 43.2336 35.9304 114.3738 0.0000 0.0000 0.0000
# 4 0.0000 0.0000 0.0000 21.4353 0.0000 0.0000
# 5 0.0000 0.0000 0.0000 0.0000 19.1364 0.0000
# 6 0.0000 0.0000 0.0000 0.0000 0.0000 15.2126
#
#
#
# Elastic Compliance Matrix: (Units=1/GPa)
#
#
# Indices 1 2 3 4 5 6 
#
# 1 0.011999 -0.002736 -0.003676 0.000000 0.000000 0.000000
# 2 -0.002736 0.011457 -0.002565 0.000000 0.000000 0.000000
# 3 -0.003676 -0.002565 0.010939 0.000000 0.000000 0.000000
# 4 0.000000 0.000000 0.000000 0.046652 0.000000 0.000000
# 5 0.000000 0.000000 0.000000 0.000000 0.052256 0.000000
# 6 0.000000 0.000000 0.000000 0.000000 0.000000 0.065735
#
#
# Mechanical properties :
#
#
# Convention : Reuss Voigt Hill
#
# Bulk Modulus (GPa) = 60.82553 61.11540 60.97047
# Shear Modulus (GPa) = 22.47468 25.06741 23.77105
#
# Velocity S-wave (km/s) = 3.26440 3.44756 3.35723
# Velocity P-wave (km/s) = 6.56115 6.69517 6.62850
#
# Compressibility (1/GPa) = 0.01644046
#
# Stress axis : x y z
#
# Youngs Moduli (GPa) = 83.34075 87.28167 91.41894
#
# Poissons Ratio (x) = 0.23880 0.33607
# Poissons Ratio (y) = 0.22802 0.23449
# Poissons Ratio (z) = 0.30637 0.22388
#
# Static dielectric constant tensor:
#      x y z
#    x 3.836060 0.000000 0.000000 
#    y 0.000000 4.151910 0.000000 
#    z 0.000000 0.000000 3.689970 
# 
# 
# High freq. dielectric constant tensor:
#      x y z
#    x 1.824180 0.000000 0.000000 
#    y 0.000000 1.846050 0.000000 
#    z 0.000000 0.000000 1.818420 
# 
# From -- ./inp_files/26335.got.cif
#   From: 2010.03.12/outbox.cif.g09.slc.cpg/sg57_14_cif.got.tgz:26335.got - 2010.04.16 15:48:40.
