data_PCOD8233840
_publ_section_title
;
Structure prediction by ZEFSAII (Michael W. Deem and Ramdas Pophale) SiO2 
 PCOD8233840
Probable space group: P B C M
;
_chemical_formula_sum "Si O2"
_cell_formula_units_Z 40
_cell_length_a 11.255819
_cell_length_b 9.108057
_cell_length_c 17.423012
_cell_angle_alpha 90.000000
_cell_angle_beta 90.000000
_cell_angle_gamma 90.000000
_cell_volume 1786.183513
_symmetry_space_group_name_H-M "P B C M"
_symmetry_group_IT_number 57
_symmetry_cell_setting 'orthorhombic'
loop_
_space_group_symop_operation_xyz
x,y,z
-x,-y,1/2+z
x,1/2-y,-z
-x,1/2+y,1/2-z
-x,-y,-z
x,y,1/2-z
-x,1/2+y,z
x,1/2-y,1/2+z
loop_
_atom_site_type_symbol
_atom_site_label
_atom_site_fract_x
_atom_site_fract_y
_atom_site_fract_z
Si Si1 0.158907 0.502730 0.045345
Si Si2 0.005967 0.249219 0.396155
Si Si3 0.590925 0.390908 0.165674
Si Si4 0.164550 0.505049 0.630320
Si Si5 0.632416 0.068613 0.157494
O O1 0.072540 0.641191 0.052296
O O2 0.257470 0.499901 0.111914
O O3 0.085212 0.353160 0.050573
O O4 0.206335 0.508834 0.958837
O O5 0.918243 0.354329 0.346364
O O6 0.093742 0.143847 0.345925
O O7 0.543797 0.352419 0.250000
O O8 0.710717 0.487538 0.174021
O O9 0.617231 0.234931 0.125670
O O10 0.484251 0.482368 0.127555
O O11 0.654462 0.061451 0.250000
#
# Coordination Sequence:
#
# PCOD8233840 Si02
#       5
#     8   8   8   8   8
#     4  11  20  37  61  87 116 150 189 230 279 338
#     4  10  21  36  59  88 121 152 181 228 289 338
#     4  10  23  42  60  81 113 151 190 236 287 334
#     4  11  20  37  61  87 116 150 189 230 279 338
#     4  10  23  42  60  81 113 151 190 236 287 334
#
# _framework density 22.394116
#
# number of rings (size 3 to 8) (size 9 to 14) (size 15 to 20)
#    0.000    1.600    2.000    4.800    2.800    0.800 
#    0.000    6.000    0.000    0.000    0.000    0.000 
#    0.000    0.000    0.000    0.000    0.000    0.000 
#
# Total GULP energy -495669.066480 kJ/mol
# GULP energy per Si atom -12391.726662 kJ/mol
# Density = 2.234315 g / cm^3
# Si number density = 22.394116 Si / 1000 Ang^3
#
#
#
# Elastic Constant Matrix: (Units=GPa)
#
#
# Indices 1 2 3 4 5 6 
#
# 1 162.5593 64.7537 36.2156 0.0000 0.0000 0.0000
# 2 64.7537 129.3245 16.0497 0.0000 0.0000 0.0000
# 3 36.2156 16.0497 51.5456 0.0000 0.0000 0.0000
# 4 0.0000 0.0000 0.0000 9.8015 0.0000 0.0000
# 5 0.0000 0.0000 0.0000 0.0000 28.9341 0.0000
# 6 0.0000 0.0000 0.0000 0.0000 0.0000 132.6339
#
#
#
# Elastic Compliance Matrix: (Units=1/GPa)
#
#
# Indices 1 2 3 4 5 6 
#
# 1 0.008763 -0.003769 -0.004983 0.000000 0.000000 0.000000
# 2 -0.003769 0.009665 -0.000361 0.000000 0.000000 0.000000
# 3 -0.004983 -0.000361 0.023014 0.000000 0.000000 0.000000
# 4 0.000000 0.000000 0.000000 0.102025 0.000000 0.000000
# 5 0.000000 0.000000 0.000000 0.000000 0.034561 0.000000
# 6 0.000000 0.000000 0.000000 0.000000 0.000000 0.007540
#
#
# Mechanical properties :
#
#
# Convention : Reuss Voigt Hill
#
# Bulk Modulus (GPa) = 43.07642 64.16302 53.61972
# Shear Modulus (GPa) = 23.63690 49.36792 36.50241
#
# Velocity S-wave (km/s) = 3.25236 4.70031 4.04171
# Velocity P-wave (km/s) = 5.77765 7.62700 6.76581
#
# Compressibility (1/GPa) = 0.02321456
#
# Stress axis : x y z
#
# Youngs Moduli (GPa) = 114.11207 103.46999 43.45188
#
# Poissons Ratio (x) = 0.39002 0.21654
# Poissons Ratio (y) = 0.43013 0.01568
# Poissons Ratio (z) = 0.56866 0.03734
#
# Static dielectric constant tensor:
#      x y z
#    x 4.106780 0.000000 0.000000 
#    y 0.000000 4.469800 0.000000 
#    z 0.000000 0.000000 3.466340 
# 
# 
# High freq. dielectric constant tensor:
#      x y z
#    x 1.886430 0.000000 0.000000 
#    y 0.000000 1.900740 0.000000 
#    z 0.000000 0.000000 1.842010 
# 
# From -- ./inp_files/21598.got.cif
#   From: 2010.03.12/outbox.cif.g09.slc.cpg/sg57_11_cif.got.tgz:21598.got - 2010.04.16 15:48:40.
