data_PCOD8233415
_publ_section_title
;
Structure prediction by ZEFSAII (Michael W. Deem and Ramdas Pophale) SiO2 
 PCOD8233415
Probable space group: P B C M
;
_chemical_formula_sum "Si O2"
_cell_formula_units_Z 64
_cell_length_a 12.056356
_cell_length_b 31.266803
_cell_length_c 8.812667
_cell_angle_alpha 90.000000
_cell_angle_beta 90.000000
_cell_angle_gamma 90.000000
_cell_volume 3322.055629
_symmetry_space_group_name_H-M "P B C M"
_symmetry_group_IT_number 57
_symmetry_cell_setting 'orthorhombic'
loop_
_space_group_symop_operation_xyz
x,y,z
-x,-y,1/2+z
x,1/2-y,-z
-x,1/2+y,1/2-z
-x,-y,-z
x,y,1/2-z
-x,1/2+y,z
x,1/2-y,1/2+z
loop_
_atom_site_type_symbol
_atom_site_label
_atom_site_fract_x
_atom_site_fract_y
_atom_site_fract_z
Si Si1 0.386083 0.512444 0.422377
Si Si2 0.356312 0.887230 0.577553
Si Si3 0.999559 0.294635 0.570857
Si Si4 0.981964 0.546624 0.929026
Si Si5 0.252702 0.293598 0.929176
Si Si6 0.753880 0.554262 0.429440
Si Si7 0.128599 0.626734 0.572515
Si Si8 0.401583 0.130025 0.069665
O O1 0.500000 0.500000 0.500000
O O2 0.386693 0.495482 0.250000
O O3 0.368781 0.562396 0.427197
O O4 0.283581 0.492423 0.515006
O O5 0.333234 0.871932 0.750000
O O6 0.257705 0.871855 0.470260
O O7 0.471447 0.867543 0.512476
O O8 0.955983 0.250000 0.500000
O O9 0.987377 0.291068 0.750000
O O10 0.126593 0.302680 0.520348
O O11 0.929965 0.334652 0.513675
O O12 0.975409 0.540655 0.750000
O O13 0.077650 0.580575 0.974985
O O14 0.868839 0.566987 0.992049
O O15 0.000000 0.500000 0.000000
O O16 0.261822 0.290823 0.750000
O O17 0.332008 0.330347 0.995637
O O18 0.297381 0.250000 0.000000
O O19 0.771723 0.554526 0.250000
O O20 0.658947 0.586894 0.485131
O O21 0.113892 0.634536 0.750000
O O22 0.401745 0.129852 0.250000
#
# Coordination Sequence:
#
# PCOD8233415 Si02
#       8
#     8   8   8   8   8   8   8   8
#     4  11  21  35  55  81 113 152 196 239 287 340
#     4  10  21  38  57  78 110 154 198 235 281 344
#     4  10  20  37  63  92 118 150 189 235 292 355
#     4  11  24  40  57  82 116 155 197 245 299 355
#     4   9  18  34  58  85 113 141 175 219 275 336
#     4  11  21  36  58  83 111 144 188 239 290 345
#     4  11  24  40  58  84 118 154 197 249 299 351
#     4   9  18  35  56  80 109 145 184 223 274 336
#
# _framework density 19.265180000000001
#
# number of rings (size 3 to 8) (size 9 to 14) (size 15 to 20)
#    0.000    1.750    1.250    3.375    0.000    6.500 
#    0.000    2.500    0.000    1.500    0.000    0.000 
#    0.000    0.000    0.000    0.000    0.000    0.000 
#
# Total GULP energy -793695.649863 kJ/mol
# GULP energy per Si atom -12401.494529 kJ/mol
# Density = 1.922133 g / cm^3
# Si number density = 19.265180 Si / 1000 Ang^3
#
#
#
# Elastic Constant Matrix: (Units=GPa)
#
#
# Indices 1 2 3 4 5 6 
#
# 1 128.3964 54.1743 37.8158 0.0000 0.0000 0.0000
# 2 54.1743 112.2497 40.2655 0.0000 0.0000 0.0000
# 3 37.8158 40.2655 66.5413 0.0000 0.0000 0.0000
# 4 0.0000 0.0000 0.0000 31.0545 0.0000 0.0000
# 5 0.0000 0.0000 0.0000 0.0000 32.2170 0.0000
# 6 0.0000 0.0000 0.0000 0.0000 0.0000 34.0065
#
#
#
# Elastic Compliance Matrix: (Units=1/GPa)
#
#
# Indices 1 2 3 4 5 6 
#
# 1 0.010442 -0.003718 -0.003685 0.000000 0.000000 0.000000
# 2 -0.003718 0.012702 -0.005574 0.000000 0.000000 0.000000
# 3 -0.003685 -0.005574 0.020495 0.000000 0.000000 0.000000
# 4 0.000000 0.000000 0.000000 0.032202 0.000000 0.000000
# 5 0.000000 0.000000 0.000000 0.000000 0.031040 0.000000
# 6 0.000000 0.000000 0.000000 0.000000 0.000000 0.029406
#
#
# Mechanical properties :
#
#
# Convention : Reuss Voigt Hill
#
# Bulk Modulus (GPa) = 56.53746 63.52205 60.02976
# Shear Modulus (GPa) = 29.73805 31.11771 30.42788
#
# Velocity S-wave (km/s) = 3.93315 4.02335 3.97851
# Velocity P-wave (km/s) = 7.07368 7.39102 7.23409
#
# Compressibility (1/GPa) = 0.01768739
#
# Stress axis : x y z
#
# Youngs Moduli (GPa) = 95.76424 78.72531 48.79261
#
# Poissons Ratio (x) = 0.29270 0.17978
# Poissons Ratio (y) = 0.35605 0.27195
# Poissons Ratio (z) = 0.35285 0.43878
#
# Static dielectric constant tensor:
#      x y z
#    x 3.333600 0.000000 0.000000 
#    y 0.000000 3.548870 0.000000 
#    z 0.000000 0.000000 3.510350 
# 
# 
# High freq. dielectric constant tensor:
#      x y z
#    x 1.756050 0.000000 0.000000 
#    y 0.000000 1.746740 0.000000 
#    z 0.000000 0.000000 1.743540 
# 
# From -- ./inp_files/3734.got.cif
#   From: 2010.03.12/outbox.cif.g09.slc.cpg/sg57_2_cif.got.tgz:3734.got - 2010.04.16 15:48:40.
