data_PCOD8233300
_publ_section_title
;
Structure prediction by ZEFSAII (Michael W. Deem and Ramdas Pophale) SiO2 
 PCOD8233300
Probable space group: P B C M
;
_chemical_formula_sum "Si O2"
_cell_formula_units_Z 64
_cell_length_a 21.065952
_cell_length_b 18.584735
_cell_length_c 8.495729
_cell_angle_alpha 90.000000
_cell_angle_beta 90.000000
_cell_angle_gamma 90.000000
_cell_volume 3326.121533
_symmetry_space_group_name_H-M "P B C M"
_symmetry_group_IT_number 57
_symmetry_cell_setting 'orthorhombic'
loop_
_space_group_symop_operation_xyz
x,y,z
-x,-y,1/2+z
x,1/2-y,-z
-x,1/2+y,1/2-z
-x,-y,-z
x,y,1/2-z
-x,1/2+y,z
x,1/2-y,1/2+z
loop_
_atom_site_type_symbol
_atom_site_label
_atom_site_fract_x
_atom_site_fract_y
_atom_site_fract_z
Si Si1 0.434989 0.031089 0.063768
Si Si2 0.251582 0.672924 0.936859
Si Si3 0.692011 0.030795 0.065133
Si Si4 0.120252 0.329379 0.935556
Si Si5 0.891345 0.175027 0.564730
Si Si6 0.744832 0.609170 0.435447
Si Si7 0.005095 0.078992 0.936098
Si Si8 0.618367 0.672132 0.564413
O O1 0.430137 0.021922 0.250000
O O2 0.428258 0.114905 0.018318
O O3 0.500000 0.000000 0.000000
O O4 0.379896 0.985893 0.980756
O O5 0.257554 0.670750 0.750000
O O6 0.179601 0.658622 0.996511
O O7 0.275469 0.750000 0.000000
O O8 0.294819 0.611827 0.012415
O O9 0.701435 0.021821 0.250000
O O10 0.739651 0.975260 0.978366
O O11 0.117508 0.326578 0.750000
O O12 0.187596 0.360883 0.992976
O O13 0.109169 0.250000 0.000000
O O14 0.066093 0.381872 0.995668
O O15 0.917026 0.250000 0.500000
O O16 0.890564 0.179404 0.750000
O O17 0.940250 0.115624 0.503643
O O18 0.734779 0.619134 0.250000
O O19 0.691458 0.654754 0.525301
O O20 0.010173 0.079903 0.750000
O O21 0.000000 0.000000 0.000000
O O22 0.599469 0.750000 0.500000
O O23 0.608097 0.668912 0.750000
#
# Coordination Sequence:
#
# PCOD8233300 Si02
#       8
#     8   8   8   8   8   8   8   8
#     4  11  22  40  63  89 121 160 199 239 286 337
#     4  10  20  37  59  85 115 149 190 241 295 348
#     4  11  22  37  59  89 120 154 194 237 287 343
#     4  11  24  40  59  83 114 151 191 238 293 350
#     4   9  20  37  58  80 106 141 185 234 288 346
#     4  10  21  37  58  85 117 154 193 240 293 345
#     4  11  24  40  57  81 111 148 191 240 291 348
#     4  11  21  36  59  89 122 157 198 242 288 343
#
# _framework density 19.241631000000002
#
# number of rings (size 3 to 8) (size 9 to 14) (size 15 to 20)
#    0.000    1.500    0.000    7.125    1.750    5.500 
#    0.000    0.625    0.000    0.000    0.000    0.000 
#    0.000    0.000    0.000    0.000    0.000    0.000 
#
# Total GULP energy -793838.639467 kJ/mol
# GULP energy per Si atom -12403.728742 kJ/mol
# Density = 1.919784 g / cm^3
# Si number density = 19.241631 Si / 1000 Ang^3
#
#
#
# Elastic Constant Matrix: (Units=GPa)
#
#
# Indices 1 2 3 4 5 6 
#
# 1 97.6247 71.8066 18.6565 0.0000 0.0000 0.0000
# 2 71.8066 159.7080 19.1084 0.0000 0.0000 0.0000
# 3 18.6565 19.1084 62.2307 0.0000 0.0000 0.0000
# 4 0.0000 0.0000 0.0000 38.4850 0.0000 0.0000
# 5 0.0000 0.0000 0.0000 0.0000 29.3980 0.0000
# 6 0.0000 0.0000 0.0000 0.0000 0.0000 30.5962
#
#
#
# Elastic Compliance Matrix: (Units=1/GPa)
#
#
# Indices 1 2 3 4 5 6 
#
# 1 0.015711 -0.006748 -0.002638 0.000000 0.000000 0.000000
# 2 -0.006748 0.009399 -0.000863 0.000000 0.000000 0.000000
# 3 -0.002638 -0.000863 0.017125 0.000000 0.000000 0.000000
# 4 0.000000 0.000000 0.000000 0.025984 0.000000 0.000000
# 5 0.000000 0.000000 0.000000 0.000000 0.034016 0.000000
# 6 0.000000 0.000000 0.000000 0.000000 0.000000 0.032684
#
#
# Mechanical properties :
#
#
# Convention : Reuss Voigt Hill
#
# Bulk Modulus (GPa) = 46.00528 59.85625 52.93077
# Shear Modulus (GPa) = 30.73852 33.69532 32.21692
#
# Velocity S-wave (km/s) = 4.00121 4.18924 4.09630
# Velocity P-wave (km/s) = 6.73108 7.38748 7.06690
#
# Compressibility (1/GPa) = 0.02173663
#
# Stress axis : x y z
#
# Youngs Moduli (GPa) = 63.64965 106.39718 58.39396
#
# Poissons Ratio (x) = 0.71799 0.15404
# Poissons Ratio (y) = 0.42952 0.05039
# Poissons Ratio (z) = 0.16791 0.09181
#
# Static dielectric constant tensor:
#      x y z
#    x 3.580400 0.000000 0.000000 
#    y 0.000000 3.683610 0.000000 
#    z 0.000000 0.000000 3.638730 
# 
# 
# High freq. dielectric constant tensor:
#      x y z
#    x 1.742800 0.000000 0.000000 
#    y 0.000000 1.759860 0.000000 
#    z 0.000000 0.000000 1.764000 
# 
# From -- ./inp_files/8529.got.cif
#   From: 2010.03.12/outbox.cif.g09.slc.cpg/sg57_5_cif.got.tgz:8529.got - 2010.04.16 15:48:40.
