data_PCOD8233149
_publ_section_title
;
Structure prediction by ZEFSAII (Michael W. Deem and Ramdas Pophale) SiO2 
 PCOD8233149
Probable space group: P B C M
;
_chemical_formula_sum "Si O2"
_cell_formula_units_Z 52
_cell_length_a 9.933060
_cell_length_b 13.489774
_cell_length_c 20.710818
_cell_angle_alpha 90.000000
_cell_angle_beta 90.000000
_cell_angle_gamma 90.000000
_cell_volume 2775.140560
_symmetry_space_group_name_H-M "P B C M"
_symmetry_group_IT_number 57
_symmetry_cell_setting 'orthorhombic'
loop_
_space_group_symop_operation_xyz
x,y,z
-x,-y,1/2+z
x,1/2-y,-z
-x,1/2+y,1/2-z
-x,-y,-z
x,y,1/2-z
-x,1/2+y,z
x,1/2-y,1/2+z
loop_
_atom_site_type_symbol
_atom_site_label
_atom_site_fract_x
_atom_site_fract_y
_atom_site_fract_z
Si Si1 0.420515 0.683569 0.402313
Si Si2 0.167438 0.668630 0.322020
Si Si3 0.165241 0.250000 0.000000
Si Si4 0.335999 0.617616 0.540127
Si Si5 0.931096 0.978417 0.677230
Si Si6 0.941117 0.334680 0.412315
Si Si7 0.696416 0.900730 0.593090
O O1 0.314723 0.644299 0.349675
O O2 0.397215 0.624956 0.469202
O O3 0.408425 0.802626 0.412377
O O4 0.567876 0.654726 0.375613
O O5 0.183802 0.712541 0.250000
O O6 0.076194 0.571775 0.320682
O O7 0.090556 0.743229 0.367555
O O8 0.077024 0.313631 0.049613
O O9 0.256597 0.167949 0.034119
O O10 0.353129 0.507840 0.568026
O O11 0.177612 0.645640 0.535986
O O12 0.885205 0.006276 0.750000
O O13 0.813974 0.910088 0.646196
O O14 0.957327 0.072782 0.633917
#
# Coordination Sequence:
#
# PCOD8233149 Si02
#       7
#     8   8   4   8   8   8   8
#     4  10  20  37  56  82 114 155 195 231 292 352
#     4  10  20  37  58  80 109 153 198 237 283 347
#     4  12  22  34  58  94 120 150 194 248 304 354
#     4   9  20  36  57  80 119 155 187 236 294 358
#     4  10  22  39  59  84 114 153 196 243 294 344
#     4  10  20  36  59  87 116 150 194 243 295 353
#     4  11  23  36  58  88 118 152 190 248 295 349
#
# _framework density 18.737788999999999
#
# number of rings (size 3 to 8) (size 9 to 14) (size 15 to 20)
#    0.000    1.846    1.538    3.692    2.154    1.846 
#    0.000    0.000    0.000    0.000    0.000    0.000 
#    0.000    0.000    0.000    0.000    0.000    0.000 
#
# Total GULP energy -644770.061369 kJ/mol
# GULP energy per Si atom -12399.424257 kJ/mol
# Density = 1.869514 g / cm^3
# Si number density = 18.737789 Si / 1000 Ang^3
#
#
#
# Elastic Constant Matrix: (Units=GPa)
#
#
# Indices 1 2 3 4 5 6 
#
# 1 109.4725 43.7044 35.0757 0.0000 0.0000 0.0000
# 2 43.7044 92.4802 23.1482 0.0000 0.0000 0.0000
# 3 35.0757 23.1482 83.6104 0.0000 0.0000 0.0000
# 4 0.0000 0.0000 0.0000 27.5489 0.0000 0.0000
# 5 0.0000 0.0000 0.0000 0.0000 16.8983 0.0000
# 6 0.0000 0.0000 0.0000 0.0000 0.0000 -68.6068
#
#
#
# Elastic Compliance Matrix: (Units=1/GPa)
#
#
# Indices 1 2 3 4 5 6 
#
# 1 0.012295 -0.004856 -0.003814 0.000000 0.000000 0.000000
# 2 -0.004856 0.013536 -0.001710 0.000000 0.000000 0.000000
# 3 -0.003814 -0.001710 0.014034 0.000000 0.000000 0.000000
# 4 0.000000 0.000000 0.000000 0.036299 0.000000 0.000000
# 5 0.000000 0.000000 0.000000 0.000000 0.059178 0.000000
# 6 0.000000 0.000000 0.000000 0.000000 0.000000 -0.014576
#
#
# Mechanical properties :
#
#
# Convention : Reuss Voigt Hill
#
# Bulk Modulus (GPa) = 52.34236 54.37997 53.36116
# Shear Modulus (GPa) = 33.80795 7.41041 20.60918
#
# Velocity S-wave (km/s) = 4.25227 1.99082 3.32003
# Velocity P-wave (km/s) = 7.21830 5.86251 6.57544
#
# Compressibility (1/GPa) = 0.01910498
#
# Stress axis : x y z
#
# Youngs Moduli (GPa) = 81.33234 73.87660 71.25729
#
# Poissons Ratio (x) = 0.35874 0.27175
# Poissons Ratio (y) = 0.39494 0.12188
# Poissons Ratio (z) = 0.31017 0.12636
#
# Static dielectric constant tensor:
#      x y z
#    x 3.542190 0.000000 0.000000 
#    y 0.000000 3.505510 0.000000 
#    z 0.000000 0.000000 3.428560 
# 
# 
# High freq. dielectric constant tensor:
#      x y z
#    x 1.731500 0.000000 0.000000 
#    y 0.000000 1.731020 0.000000 
#    z 0.000000 0.000000 1.718570 
# 
# From -- ./inp_files/24355.got.cif
#   From: 2010.03.12/outbox.cif.g09.slc.cpg/sg57_13_cif.got.tgz:24355.got - 2010.04.16 15:48:40.
