data_PCOD8233628
_publ_section_title
;
Structure prediction by ZEFSAII (Michael W. Deem and Ramdas Pophale) SiO2 
 PCOD8233628
Probable space group: P B C M
;
_chemical_formula_sum "Si O2"
_cell_formula_units_Z 64
_cell_length_a 14.930291
_cell_length_b 8.792669
_cell_length_c 24.765538
_cell_angle_alpha 90.000000
_cell_angle_beta 90.000000
_cell_angle_gamma 90.000000
_cell_volume 3251.148178
_symmetry_space_group_name_H-M "P B C M"
_symmetry_group_IT_number 57
_symmetry_cell_setting 'orthorhombic'
loop_
_space_group_symop_operation_xyz
x,y,z
-x,-y,1/2+z
x,1/2-y,-z
-x,1/2+y,1/2-z
-x,-y,-z
x,y,1/2-z
-x,1/2+y,z
x,1/2-y,1/2+z
loop_
_atom_site_type_symbol
_atom_site_label
_atom_site_fract_x
_atom_site_fract_y
_atom_site_fract_z
Si Si1 0.478037 0.127133 0.459409
Si Si2 0.102656 0.266855 0.061583
Si Si3 0.301071 0.265407 0.596705
Si Si4 0.976077 0.458672 0.875380
Si Si5 0.560898 0.281599 0.189409
Si Si6 0.094764 0.817856 0.313141
Si Si7 0.727083 0.004938 0.812057
Si Si8 0.579708 0.984481 0.364429
O O1 0.515777 0.250000 0.500000
O O2 0.374408 0.154499 0.442043
O O3 0.538017 0.101094 0.407236
O O4 0.500000 0.000000 0.500000
O O5 0.209119 0.244853 0.064252
O O6 0.054916 0.133589 0.095201
O O7 0.077238 0.435692 0.082349
O O8 0.071122 0.250000 0.000000
O O9 0.284845 0.356262 0.652003
O O10 0.329993 0.093172 0.613464
O O11 0.015267 0.567828 0.828984
O O12 0.909449 0.339125 0.846750
O O13 0.525466 0.303993 0.250000
O O14 0.644959 0.385326 0.177003
O O15 0.482491 0.339157 0.149596
O O16 0.590535 0.103778 0.184554
O O17 0.087936 0.779900 0.250000
O O18 0.186457 0.899843 0.328943
O O19 0.732671 0.950387 0.750000
#
# Coordination Sequence:
#
# PCOD8233628 Si02
#       8
#     8   8   8   8   8   8   8   8
#     4  12  23  41  62  87 121 166 210 260 316 358
#     4  11  24  43  66  93 125 166 211 264 316 372
#     4  12  24  42  64  93 127 163 214 263 315 373
#     4  10  22  41  67  93 124 167 207 258 321 389
#     4  11  22  39  62  87 121 167 209 254 313 372
#     4  10  20  39  64  95 129 163 205 259 321 386
#     4  10  22  40  61  88 127 166 202 257 316 374
#     4  12  23  39  60  89 123 163 210 262 306 373
#
# _framework density 19.685352999999999
#
# number of rings (size 3 to 8) (size 9 to 14) (size 15 to 20)
#    0.000    1.000    5.000    1.500    1.750    2.000 
#    0.000    0.625    0.000    0.000    0.000    0.000 
#    0.000    0.000    0.000    0.000    0.000    0.000 
#
# Total GULP energy -793152.266640 kJ/mol
# GULP energy per Si atom -12393.004166 kJ/mol
# Density = 1.964055 g / cm^3
# Si number density = 19.685353 Si / 1000 Ang^3
#
#
#
# Elastic Constant Matrix: (Units=GPa)
#
#
# Indices 1 2 3 4 5 6 
#
# 1 72.9531 30.4268 36.8574 0.0000 0.0000 0.0000
# 2 30.4268 114.5546 53.3892 0.0000 0.0000 0.0000
# 3 36.8574 53.3892 88.8869 0.0000 0.0000 0.0000
# 4 0.0000 0.0000 0.0000 35.9862 0.0000 0.0000
# 5 0.0000 0.0000 0.0000 0.0000 25.6532 0.0000
# 6 0.0000 0.0000 0.0000 0.0000 0.0000 29.8361
#
#
#
# Elastic Compliance Matrix: (Units=1/GPa)
#
#
# Indices 1 2 3 4 5 6 
#
# 1 0.017594 -0.001768 -0.006234 0.000000 0.000000 0.000000
# 2 -0.001768 0.012301 -0.006655 0.000000 0.000000 0.000000
# 3 -0.006234 -0.006655 0.017833 0.000000 0.000000 0.000000
# 4 0.000000 0.000000 0.000000 0.027788 0.000000 0.000000
# 5 0.000000 0.000000 0.000000 0.000000 0.038981 0.000000
# 6 0.000000 0.000000 0.000000 0.000000 0.000000 0.033516
#
#
# Mechanical properties :
#
#
# Convention : Reuss Voigt Hill
#
# Bulk Modulus (GPa) = 54.30718 57.52682 55.91700
# Shear Modulus (GPa) = 27.25310 28.67652 27.96481
#
# Velocity S-wave (km/s) = 3.72484 3.82087 3.77316
# Velocity P-wave (km/s) = 6.79314 6.98226 6.88835
#
# Compressibility (1/GPa) = 0.01841377
#
# Stress axis : x y z
#
# Youngs Moduli (GPa) = 56.83708 81.29539 56.07739
#
# Poissons Ratio (x) = 0.14373 0.34956
# Poissons Ratio (y) = 0.10049 0.37321
# Poissons Ratio (z) = 0.35430 0.54105
#
# Static dielectric constant tensor:
#      x y z
#    x 3.372540 0.000000 0.000000 
#    y 0.000000 3.800020 0.000000 
#    z 0.000000 0.000000 3.679060 
# 
# 
# High freq. dielectric constant tensor:
#      x y z
#    x 1.756590 0.000000 0.000000 
#    y 0.000000 1.782830 0.000000 
#    z 0.000000 0.000000 1.779100 
# 
# From -- ./inp_files/27465.got.cif
#   From: 2010.03.12/outbox.cif.g09.slc.cpg/sg57_14_cif.got.tgz:27465.got - 2010.04.16 15:48:40.
