data_PCOD8233568
_publ_section_title
;
Structure prediction by ZEFSAII (Michael W. Deem and Ramdas Pophale) SiO2 
 PCOD8233568
Probable space group: P B C M
;
_chemical_formula_sum "Si O2"
_cell_formula_units_Z 64
_cell_length_a 18.034552
_cell_length_b 11.761377
_cell_length_c 14.113408
_cell_angle_alpha 90.000000
_cell_angle_beta 90.000000
_cell_angle_gamma 90.000000
_cell_volume 2993.611414
_symmetry_space_group_name_H-M "P B C M"
_symmetry_group_IT_number 57
_symmetry_cell_setting 'orthorhombic'
loop_
_space_group_symop_operation_xyz
x,y,z
-x,-y,1/2+z
x,1/2-y,-z
-x,1/2+y,1/2-z
-x,-y,-z
x,y,1/2-z
-x,1/2+y,z
x,1/2-y,1/2+z
loop_
_atom_site_type_symbol
_atom_site_label
_atom_site_fract_x
_atom_site_fract_y
_atom_site_fract_z
Si Si1 0.154449 0.421740 0.363070
Si Si2 0.894996 0.338861 0.920955
Si Si3 0.294096 0.123130 0.510134
Si Si4 0.220168 0.800536 0.352666
Si Si5 0.186604 0.043105 0.138225
Si Si6 0.381047 0.756610 0.137599
Si Si7 0.421841 0.560031 0.495614
Si Si8 0.057557 0.201562 0.140138
O O1 0.159349 0.445397 0.250000
O O2 0.120431 0.526525 0.424094
O O3 0.235360 0.390313 0.403277
O O4 0.097200 0.319938 0.383777
O O5 0.843076 0.294657 0.835531
O O6 0.981007 0.309876 0.915185
O O7 0.860760 0.250000 0.000000
O O8 0.327268 0.250000 0.500000
O O9 0.254878 0.106571 0.409247
O O10 0.359613 0.034187 0.524747
O O11 0.245903 0.845662 0.250000
O O12 0.294956 0.748550 0.397394
O O13 0.186614 0.914102 0.402102
O O14 0.194393 0.059809 0.250000
O O15 0.109147 0.098431 0.105346
O O16 0.394042 0.752528 0.250000
O O17 0.422307 0.649660 0.090853
O O18 0.410820 0.875794 0.095857
O O19 0.500000 0.500000 0.500000
O O20 0.038150 0.191305 0.250000
#
# Coordination Sequence:
#
# PCOD8233568 Si02
#       8
#     8   8   8   8   8   8   8   8
#     4  11  25  45  66  91 131 178 227 277 332 398
#     4  12  26  37  61  92 129 168 223 283 344 392
#     4  12  24  41  71  97 135 173 223 274 335 403
#     4  10  20  38  65  92 120 167 224 274 324 387
#     4  10  21  40  64  92 129 173 222 273 328 389
#     4  10  23  46  74 100 137 181 228 277 326 395
#     4  11  26  44  72 106 143 175 217 271 342 406
#     4  10  23  41  58  86 130 177 219 276 339 397
#
# _framework density 21.37886
#
# number of rings (size 3 to 8) (size 9 to 14) (size 15 to 20)
#    0.000    1.250    2.500    2.625    7.000    2.500 
#    0.000    0.000    0.000    0.000    0.000    0.000 
#    0.000    0.000    0.000    0.000    0.000    0.000 
#
# Total GULP energy -793120.456799 kJ/mol
# GULP energy per Si atom -12392.507137 kJ/mol
# Density = 2.133020 g / cm^3
# Si number density = 21.378860 Si / 1000 Ang^3
#
#
#
# Elastic Constant Matrix: (Units=GPa)
#
#
# Indices 1 2 3 4 5 6 
#
# 1 136.0641 65.6073 23.1509 0.0000 0.0000 0.0000
# 2 65.6073 149.5792 39.2684 0.0000 0.0000 0.0000
# 3 23.1509 39.2684 69.8938 0.0000 0.0000 0.0000
# 4 0.0000 0.0000 0.0000 27.1796 0.0000 0.0000
# 5 0.0000 0.0000 0.0000 0.0000 18.2927 0.0000
# 6 0.0000 0.0000 0.0000 0.0000 0.0000 40.8713
#
#
#
# Elastic Compliance Matrix: (Units=1/GPa)
#
#
# Indices 1 2 3 4 5 6 
#
# 1 0.009372 -0.003866 -0.000932 0.000000 0.000000 0.000000
# 2 -0.003866 0.009437 -0.004021 0.000000 0.000000 0.000000
# 3 -0.000932 -0.004021 0.016876 0.000000 0.000000 0.000000
# 4 0.000000 0.000000 0.000000 0.036792 0.000000 0.000000
# 5 0.000000 0.000000 0.000000 0.000000 0.054667 0.000000
# 6 0.000000 0.000000 0.000000 0.000000 0.000000 0.024467
#
#
# Mechanical properties :
#
#
# Convention : Reuss Voigt Hill
#
# Bulk Modulus (GPa) = 55.41631 67.95447 61.68539
# Shear Modulus (GPa) = 28.52822 32.43608 30.48215
#
# Velocity S-wave (km/s) = 3.65692 3.89936 3.78008
# Velocity P-wave (km/s) = 6.61877 7.21998 6.92590
#
# Compressibility (1/GPa) = 0.01804523
#
# Stress axis : x y z
#
# Youngs Moduli (GPa) = 106.69828 105.96805 59.25735
#
# Poissons Ratio (x) = 0.40967 0.05525
# Poissons Ratio (y) = 0.41250 0.23829
# Poissons Ratio (z) = 0.09948 0.42613
#
# Static dielectric constant tensor:
#      x y z
#    x 3.720490 0.000000 0.000000 
#    y 0.000000 4.130300 0.000000 
#    z 0.000000 0.000000 3.848950 
# 
# 
# High freq. dielectric constant tensor:
#      x y z
#    x 1.823290 0.000000 0.000000 
#    y 0.000000 1.857290 0.000000 
#    z 0.000000 0.000000 1.848040 
# 
# From -- ./inp_files/19100.got.cif
#   From: 2010.03.12/outbox.cif.g09.slc.cpg/sg57_10_cif.got.tgz:19100.got - 2010.04.16 15:48:40.
