data_PCOD8233745
_publ_section_title
;
Structure prediction by ZEFSAII (Michael W. Deem and Ramdas Pophale) SiO2 
 PCOD8233745
Probable space group: P B C M
;
_chemical_formula_sum "Si O2"
_cell_formula_units_Z 64
_cell_length_a 15.566305
_cell_length_b 24.777050
_cell_length_c 8.835457
_cell_angle_alpha 90.000000
_cell_angle_beta 90.000000
_cell_angle_gamma 90.000000
_cell_volume 3407.721940
_symmetry_space_group_name_H-M "P B C M"
_symmetry_group_IT_number 57
_symmetry_cell_setting 'orthorhombic'
loop_
_space_group_symop_operation_xyz
x,y,z
-x,-y,1/2+z
x,1/2-y,-z
-x,1/2+y,1/2-z
-x,-y,-z
x,y,1/2-z
-x,1/2+y,z
x,1/2-y,1/2+z
loop_
_atom_site_type_symbol
_atom_site_label
_atom_site_fract_x
_atom_site_fract_y
_atom_site_fract_z
Si Si1 0.301918 0.977144 0.577565
Si Si2 0.011840 0.446252 0.411618
Si Si3 0.824313 0.098225 0.584829
Si Si4 0.106915 0.696038 0.429197
Si Si5 0.072700 0.163468 0.932196
Si Si6 0.250508 0.305405 0.930756
Si Si7 0.484739 0.556777 0.075584
Si Si8 0.641619 0.597661 0.571052
O O1 0.271076 0.979413 0.750000
O O2 0.225578 0.953508 0.478277
O O3 0.382046 0.935174 0.560952
O O4 0.322751 0.038378 0.524637
O O5 0.049735 0.463728 0.250000
O O6 0.921735 0.417731 0.392129
O O7 0.000000 0.500000 0.500000
O O8 0.074924 0.400426 0.480305
O O9 0.786275 0.114150 0.750000
O O10 0.824901 0.148929 0.470909
O O11 0.147730 0.750000 0.500000
O O12 0.097031 0.699341 0.250000
O O13 0.013420 0.690109 0.504560
O O14 0.076496 0.169938 0.750000
O O15 0.153022 0.191339 0.011204
O O16 0.253571 0.303431 0.750000
O O17 0.289870 0.250000 0.000000
O O18 0.303924 0.356375 0.989638
O O19 0.513477 0.555631 0.250000
O O20 0.500000 0.500000 0.000000
O O21 0.542397 0.601271 0.987689
O O22 0.644146 0.606894 0.750000
#
# Coordination Sequence:
#
# PCOD8233745 Si02
#       8
#     8   8   8   8   8   8   8   8
#     4   9  19  34  55  83 115 147 180 222 272 327
#     4   9  20  34  49  71 104 143 180 222 268 321
#     4  10  21  35  51  78 109 141 181 223 269 322
#     4  11  21  36  57  78 103 139 181 227 275 324
#     4  10  21  38  55  77 106 141 185 232 277 324
#     4  12  25  40  58  81 110 147 190 236 282 333
#     4   9  17  32  54  82 112 143 179 217 262 319
#     4  10  21  37  57  83 113 146 184 227 278 333
#
# _framework density 18.780875000000002
#
# number of rings (size 3 to 8) (size 9 to 14) (size 15 to 20)
#    0.000    2.000    0.000    5.625    1.750    6.000 
#    0.000    0.000    0.000    0.750    0.000    0.000 
#    0.000    0.000    0.000    0.000    0.000    0.000 
#
# Total GULP energy -793103.276390 kJ/mol
# GULP energy per Si atom -12392.238694 kJ/mol
# Density = 1.873813 g / cm^3
# Si number density = 18.780875 Si / 1000 Ang^3
#
#
#
# Elastic Constant Matrix: (Units=GPa)
#
#
# Indices 1 2 3 4 5 6 
#
# 1 50.6113 29.1443 29.7550 0.0000 0.0000 0.0000
# 2 29.1443 117.2078 56.4613 0.0000 0.0000 0.0000
# 3 29.7550 56.4613 131.4493 0.0000 0.0000 0.0000
# 4 0.0000 0.0000 0.0000 31.7008 0.0000 0.0000
# 5 0.0000 0.0000 0.0000 0.0000 27.9475 0.0000
# 6 0.0000 0.0000 0.0000 0.0000 0.0000 21.3065
#
#
#
# Elastic Compliance Matrix: (Units=1/GPa)
#
#
# Indices 1 2 3 4 5 6 
#
# 1 0.024393 -0.004294 -0.003677 0.000000 0.000000 0.000000
# 2 -0.004294 0.011514 -0.003973 0.000000 0.000000 0.000000
# 3 -0.003677 -0.003973 0.010147 0.000000 0.000000 0.000000
# 4 0.000000 0.000000 0.000000 0.031545 0.000000 0.000000
# 5 0.000000 0.000000 0.000000 0.000000 0.035781 0.000000
# 6 0.000000 0.000000 0.000000 0.000000 0.000000 0.046934
#
#
# Mechanical properties :
#
#
# Convention : Reuss Voigt Hill
#
# Bulk Modulus (GPa) = 45.11851 58.88773 52.00312
# Shear Modulus (GPa) = 26.09726 28.45148 27.27437
#
# Velocity S-wave (km/s) = 3.73173 3.89642 3.81496
# Velocity P-wave (km/s) = 6.53020 7.18791 6.86693
#
# Compressibility (1/GPa) = 0.02216385
#
# Stress axis : x y z
#
# Youngs Moduli (GPa) = 40.99532 86.85313 98.55527
#
# Poissons Ratio (x) = 0.37295 0.36241
# Poissons Ratio (y) = 0.17604 0.39161
# Poissons Ratio (z) = 0.15075 0.34511
#
# Static dielectric constant tensor:
#      x y z
#    x 3.550230 0.000000 0.000000 
#    y 0.000000 3.402420 0.000000 
#    z 0.000000 0.000000 3.634330 
# 
# 
# High freq. dielectric constant tensor:
#      x y z
#    x 1.708090 0.000000 0.000000 
#    y 0.000000 1.722790 0.000000 
#    z 0.000000 0.000000 1.743640 
# 
# From -- ./inp_files/5734.got.cif
#   From: 2010.03.12/outbox.cif.g09.slc.cpg/sg57_3_cif.got.tgz:5734.got - 2010.04.16 15:48:40.
