data_PCOD8233594
_publ_section_title
;
Structure prediction by ZEFSAII (Michael W. Deem and Ramdas Pophale) SiO2 
 PCOD8233594
Probable space group: P B C M
;
_chemical_formula_sum "Si O2"
_cell_formula_units_Z 40
_cell_length_a 10.189583
_cell_length_b 7.669369
_cell_length_c 26.219278
_cell_angle_alpha 90.000000
_cell_angle_beta 90.000000
_cell_angle_gamma 90.000000
_cell_volume 2048.975537
_symmetry_space_group_name_H-M "P B C M"
_symmetry_group_IT_number 57
_symmetry_cell_setting 'orthorhombic'
loop_
_space_group_symop_operation_xyz
x,y,z
-x,-y,1/2+z
x,1/2-y,-z
-x,1/2+y,1/2-z
-x,-y,-z
x,y,1/2-z
-x,1/2+y,z
x,1/2-y,1/2+z
loop_
_atom_site_type_symbol
_atom_site_label
_atom_site_fract_x
_atom_site_fract_y
_atom_site_fract_z
Si Si1 0.361911 0.648686 0.859667
Si Si2 0.125553 0.687153 0.095150
Si Si3 0.770217 0.441643 0.807202
Si Si4 0.859007 0.829027 0.444374
Si Si5 0.648529 0.753584 0.636705
O O1 0.353540 0.449240 0.841095
O O2 0.252124 0.684324 0.903803
O O3 0.333638 0.780942 0.812390
O O4 0.505256 0.691276 0.881790
O O5 0.114172 0.590834 0.151075
O O6 0.150942 0.539117 0.052287
O O7 0.995119 0.792629 0.084458
O O8 0.827675 0.446784 0.750000
O O9 0.699710 0.625317 0.819051
O O10 0.858471 0.750000 0.500000
O O11 0.738333 0.749787 0.413392
#
# Coordination Sequence:
#
# PCOD8233594 Si02
#       5
#     8   8   8   8   8
#     4  10  20  39  59  86 125 158 195 246 312 344
#     4   9  21  38  58  87 124 154 199 258 291 357
#     4   9  21  38  60  87 118 156 199 238 299 362
#     4  11  21  38  63  90 118 163 207 247 309 364
#     4  11  20  39  61  87 125 157 193 261 293 354
#
# _framework density 19.521953
#
# number of rings (size 3 to 8) (size 9 to 14) (size 15 to 20)
#    1.200    0.800    2.000    1.800    0.000    1.600 
#    0.000    9.000    0.000    0.000    0.000    0.000 
#    0.000    0.000    0.000    0.000    0.000    0.000 
#
# Total GULP energy -495667.926819 kJ/mol
# GULP energy per Si atom -12391.698170 kJ/mol
# Density = 1.947752 g / cm^3
# Si number density = 19.521953 Si / 1000 Ang^3
#
#
#
# Elastic Constant Matrix: (Units=GPa)
#
#
# Indices 1 2 3 4 5 6 
#
# 1 53.0854 1.7420 35.2158 0.0000 0.0000 0.0000
# 2 1.7420 138.3134 9.7105 0.0000 0.0000 0.0000
# 3 35.2158 9.7105 71.0899 0.0000 0.0000 0.0000
# 4 0.0000 0.0000 0.0000 8.2816 0.0000 0.0000
# 5 0.0000 0.0000 0.0000 0.0000 13.1847 0.0000
# 6 0.0000 0.0000 0.0000 0.0000 0.0000 30.4324
#
#
#
# Elastic Compliance Matrix: (Units=1/GPa)
#
#
# Indices 1 2 3 4 5 6 
#
# 1 0.028112 0.000630 -0.014012 0.000000 0.000000 0.000000
# 2 0.000630 0.007314 -0.001311 0.000000 0.000000 0.000000
# 3 -0.014012 -0.001311 0.021187 0.000000 0.000000 0.000000
# 4 0.000000 0.000000 0.000000 0.120749 0.000000 0.000000
# 5 0.000000 0.000000 0.000000 0.000000 0.075845 0.000000
# 6 0.000000 0.000000 0.000000 0.000000 0.000000 0.032860
#
#
# Mechanical properties :
#
#
# Convention : Reuss Voigt Hill
#
# Bulk Modulus (GPa) = 36.72881 39.53615 38.13248
# Shear Modulus (GPa) = 15.40690 24.76777 20.08734
#
# Velocity S-wave (km/s) = 2.81233 3.56576 3.21122
# Velocity P-wave (km/s) = 5.42223 6.10320 5.77276
#
# Compressibility (1/GPa) = 0.02722658
#
# Stress axis : x y z
#
# Youngs Moduli (GPa) = 35.57180 136.72288 47.19900
#
# Poissons Ratio (x) = -0.08609 0.66135
# Poissons Ratio (y) = -0.02240 0.06188
# Poissons Ratio (z) = 0.49843 0.17924
#
# Static dielectric constant tensor:
#      x y z
#    x 3.505360 0.000000 0.000000 
#    y 0.000000 3.781750 0.000000 
#    z 0.000000 0.000000 3.097290 
# 
# 
# High freq. dielectric constant tensor:
#      x y z
#    x 1.755960 0.000000 0.000000 
#    y 0.000000 1.782690 0.000000 
#    z 0.000000 0.000000 1.719950 
# 
# From -- ./inp_files/29370.got.cif
#   From: 2010.03.12/outbox.cif.g09.slc.cpg/sg57_15_cif.got.tgz:29370.got - 2010.04.16 15:48:40.
