data_PCOD8233669
_publ_section_title
;
Structure prediction by ZEFSAII (Michael W. Deem and Ramdas Pophale) SiO2 
 PCOD8233669
Probable space group: P B C M
;
_chemical_formula_sum "Si O2"
_cell_formula_units_Z 64
_cell_length_a 11.221708
_cell_length_b 17.019749
_cell_length_c 17.778672
_cell_angle_alpha 90.000000
_cell_angle_beta 90.000000
_cell_angle_gamma 90.000000
_cell_volume 3395.560184
_symmetry_space_group_name_H-M "P B C M"
_symmetry_group_IT_number 57
_symmetry_cell_setting 'orthorhombic'
loop_
_space_group_symop_operation_xyz
x,y,z
-x,-y,1/2+z
x,1/2-y,-z
-x,1/2+y,1/2-z
-x,-y,-z
x,y,1/2-z
-x,1/2+y,z
x,1/2-y,1/2+z
loop_
_atom_site_type_symbol
_atom_site_label
_atom_site_fract_x
_atom_site_fract_y
_atom_site_fract_z
Si Si1 0.914722 0.055343 0.547000
Si Si2 0.911799 0.175149 0.335415
Si Si3 0.124254 0.433419 0.665848
Si Si4 0.328506 0.199870 0.573902
Si Si5 0.517762 0.909939 0.521398
Si Si6 0.938421 0.796203 0.078930
Si Si7 0.262740 0.665014 0.036130
Si Si8 0.640133 0.845518 0.836972
O O1 0.808949 0.094315 0.500964
O O2 0.995906 0.121870 0.581139
O O3 0.848376 0.005442 0.611176
O O4 0.000000 0.000000 0.500000
O O5 0.873401 0.184884 0.250000
O O6 0.786712 0.171614 0.379195
O O7 0.990375 0.097007 0.349471
O O8 0.998369 0.246283 0.356848
O O9 0.137161 0.466069 0.750000
O O10 0.218452 0.362302 0.653612
O O11 0.313424 0.250000 0.500000
O O12 0.407076 0.124705 0.549753
O O13 0.195810 0.178543 0.600588
O O14 0.387519 0.255005 0.638736
O O15 0.399748 0.857884 0.530468
O O16 0.577977 0.904992 0.603972
O O17 0.500000 0.000000 0.500000
O O18 0.951106 0.750000 0.000000
O O19 0.239483 0.750000 0.000000
O O20 0.598241 0.858934 0.750000
#
# Coordination Sequence:
#
# PCOD8233669 Si02
#       8
#     8   8   8   8   8   8   8   8
#     4  12  22  33  59  88 123 160 196 239 307 371
#     4  11  21  37  59  88 124 164 198 243 311 374
#     4  10  21  36  56  87 121 152 197 253 305 356
#     4   9  20  35  62  89 112 151 207 253 293 353
#     4  11  25  41  63  92 122 158 209 262 312 368
#     4  11  19  36  59  87 119 152 202 249 294 358
#     4  12  23  41  59  86 124 161 202 252 300 369
#     4  10  20  40  65  85 113 158 206 254 303 358
#
# _framework density 18.848141999999999
#
# number of rings (size 3 to 8) (size 9 to 14) (size 15 to 20)
#    0.000    1.250    5.000    1.875    5.250    1.000 
#    0.000    0.625    0.000    2.250    0.000    0.000 
#    0.000    0.000    0.000    0.000    0.000    0.000 
#
# Total GULP energy -793232.190216 kJ/mol
# GULP energy per Si atom -12394.252972 kJ/mol
# Density = 1.880524 g / cm^3
# Si number density = 18.848142 Si / 1000 Ang^3
#
#
#
# Elastic Constant Matrix: (Units=GPa)
#
#
# Indices 1 2 3 4 5 6 
#
# 1 82.5622 25.1952 33.2136 0.0000 0.0000 0.0000
# 2 25.1952 97.9103 55.8869 0.0000 0.0000 0.0000
# 3 33.2136 55.8869 116.6288 0.0000 0.0000 0.0000
# 4 0.0000 0.0000 0.0000 28.6839 0.0000 0.0000
# 5 0.0000 0.0000 0.0000 0.0000 1.0906 0.0000
# 6 0.0000 0.0000 0.0000 0.0000 0.0000 68.2244
#
#
#
# Elastic Compliance Matrix: (Units=1/GPa)
#
#
# Indices 1 2 3 4 5 6 
#
# 1 0.013910 -0.001815 -0.003092 0.000000 0.000000 0.000000
# 2 -0.001815 0.014295 -0.006333 0.000000 0.000000 0.000000
# 3 -0.003092 -0.006333 0.012490 0.000000 0.000000 0.000000
# 4 0.000000 0.000000 0.000000 0.034863 0.000000 0.000000
# 5 0.000000 0.000000 0.000000 0.000000 0.916892 0.000000
# 6 0.000000 0.000000 0.000000 0.000000 0.000000 0.014658
#
#
# Mechanical properties :
#
#
# Convention : Reuss Voigt Hill
#
# Bulk Modulus (GPa) = 54.89920 58.41031 56.65475
# Shear Modulus (GPa) = 4.82785 31.78681 18.30733
#
# Velocity S-wave (km/s) = 1.60219 4.11112 3.11996
# Velocity P-wave (km/s) = 5.71078 7.32068 6.56526
#
# Compressibility (1/GPa) = 0.01821520
#
# Stress axis : x y z
#
# Youngs Moduli (GPa) = 71.89294 69.95213 80.06697
#
# Poissons Ratio (x) = 0.12694 0.24754
# Poissons Ratio (y) = 0.13046 0.50710
# Poissons Ratio (z) = 0.22227 0.44304
#
# Static dielectric constant tensor:
#      x y z
#    x 3.690560 0.000000 0.000000 
#    y 0.000000 3.406200 0.000000 
#    z 0.000000 0.000000 3.634850 
# 
# 
# High freq. dielectric constant tensor:
#      x y z
#    x 1.732960 0.000000 0.000000 
#    y 0.000000 1.729950 0.000000 
#    z 0.000000 0.000000 1.723790 
# 
# From -- ./inp_files/22062.got.cif
#   From: 2010.03.12/outbox.cif.g09.slc.cpg/sg57_12_cif.got.tgz:22062.got - 2010.04.16 15:48:40.
