data_PCOD8233704
_publ_section_title
;
Structure prediction by ZEFSAII (Michael W. Deem and Ramdas Pophale) SiO2 
 PCOD8233704
Probable space group: P B C M
;
_chemical_formula_sum "Si O2"
_cell_formula_units_Z 64
_cell_length_a 16.642636
_cell_length_b 10.489194
_cell_length_c 17.101954
_cell_angle_alpha 90.000000
_cell_angle_beta 90.000000
_cell_angle_gamma 90.000000
_cell_volume 2985.451130
_symmetry_space_group_name_H-M "P B C M"
_symmetry_group_IT_number 57
_symmetry_cell_setting 'orthorhombic'
loop_
_space_group_symop_operation_xyz
x,y,z
-x,-y,1/2+z
x,1/2-y,-z
-x,1/2+y,1/2-z
-x,-y,-z
x,y,1/2-z
-x,1/2+y,z
x,1/2-y,1/2+z
loop_
_atom_site_type_symbol
_atom_site_label
_atom_site_fract_x
_atom_site_fract_y
_atom_site_fract_z
Si Si1 0.074643 0.692442 0.661667
Si Si2 0.315643 0.771634 0.912848
Si Si3 0.419496 0.325508 0.157684
Si Si4 0.799829 0.040651 0.903576
Si Si5 0.891395 0.858551 0.160286
Si Si6 0.160118 0.906845 0.576166
Si Si7 0.464001 0.892649 0.659326
Si Si8 0.741676 0.767266 0.910574
O O1 0.083058 0.747490 0.750000
O O2 0.125483 0.559444 0.657136
O O3 0.114836 0.773595 0.591412
O O4 0.982033 0.678022 0.639744
O O5 0.267543 0.646849 0.887251
O O6 0.255195 0.891450 0.910100
O O7 0.385099 0.806960 0.852948
O O8 0.350844 0.750000 0.000000
O O9 0.430537 0.331961 0.250000
O O10 0.465161 0.198563 0.123664
O O11 0.454119 0.462627 0.123167
O O12 0.325481 0.307753 0.138809
O O13 0.748949 0.914252 0.886987
O O14 0.844840 0.041759 0.987927
O O15 0.870523 0.830469 0.250000
O O16 0.830092 0.787506 0.103763
O O17 0.881138 0.006462 0.141405
O O18 0.480111 0.910123 0.750000
O O19 0.717401 0.750000 0.000000
#
# Coordination Sequence:
#
# PCOD8233704 Si02
#       8
#     8   8   8   8   8   8   8   8
#     4  10  23  39  61  94 126 166 213 266 326 387
#     4   9  20  37  63  90 122 159 206 257 313 374
#     4  10  24  44  67  96 132 168 212 264 321 386
#     4  10  23  41  62  91 129 166 211 271 324 383
#     4  11  24  40  62  88 123 167 214 267 321 384
#     4  10  20  42  62  87 124 165 214 261 317 386
#     4  10  22  42  68  97 129 168 212 259 318 389
#     4  12  25  42  63  94 127 167 215 265 327 385
#
# _framework density 21.437296
#
# number of rings (size 3 to 8) (size 9 to 14) (size 15 to 20)
#    0.000    1.750    1.250    2.625    5.250    6.500 
#    0.000    1.250    0.000    0.000    0.000    0.000 
#    0.000    0.000    0.000    0.000    0.000    0.000 
#
# Total GULP energy -792983.110044 kJ/mol
# GULP energy per Si atom -12390.361094 kJ/mol
# Density = 2.138850 g / cm^3
# Si number density = 21.437296 Si / 1000 Ang^3
#
#
#
# Elastic Constant Matrix: (Units=GPa)
#
#
# Indices 1 2 3 4 5 6 
#
# 1 107.4254 51.1571 18.4177 0.0000 0.0000 0.0000
# 2 51.1571 120.7981 18.0776 0.0000 0.0000 0.0000
# 3 18.4177 18.0776 28.3290 0.0000 0.0000 0.0000
# 4 0.0000 0.0000 0.0000 27.7216 0.0000 0.0000
# 5 0.0000 0.0000 0.0000 0.0000 28.4319 0.0000
# 6 0.0000 0.0000 0.0000 0.0000 0.0000 26.8636
#
#
#
# Elastic Compliance Matrix: (Units=1/GPa)
#
#
# Indices 1 2 3 4 5 6 
#
# 1 0.012309 -0.004439 -0.005170 0.000000 0.000000 0.000000
# 2 -0.004439 0.010753 -0.003976 0.000000 0.000000 0.000000
# 3 -0.005170 -0.003976 0.041198 0.000000 0.000000 0.000000
# 4 0.000000 0.000000 0.000000 0.036073 0.000000 0.000000
# 5 0.000000 0.000000 0.000000 0.000000 0.035172 0.000000
# 6 0.000000 0.000000 0.000000 0.000000 0.000000 0.037225
#
#
# Mechanical properties :
#
#
# Convention : Reuss Voigt Hill
#
# Bulk Modulus (GPa) = 26.96120 47.98414 37.47267
# Shear Modulus (GPa) = 23.55566 27.86342 25.70954
#
# Velocity S-wave (km/s) = 3.31844 3.60913 3.46683
# Velocity P-wave (km/s) = 5.22367 6.30871 5.79166
#
# Compressibility (1/GPa) = 0.03709034
#
# Stress axis : x y z
#
# Youngs Moduli (GPa) = 81.24074 92.99547 24.27315
#
# Poissons Ratio (x) = 0.41282 0.12549
# Poissons Ratio (y) = 0.36064 0.09651
# Poissons Ratio (z) = 0.42000 0.36974
#
# Static dielectric constant tensor:
#      x y z
#    x 3.827570 0.000000 0.000000 
#    y 0.000000 4.319940 0.000000 
#    z 0.000000 0.000000 3.609320 
# 
# 
# High freq. dielectric constant tensor:
#      x y z
#    x 1.841510 0.000000 0.000000 
#    y 0.000000 1.849110 0.000000 
#    z 0.000000 0.000000 1.823720 
# 
# From -- ./inp_files/22647.got.cif
#   From: 2010.03.12/outbox.cif.g09.slc.cpg/sg57_12_cif.got.tgz:22647.got - 2010.04.16 15:48:40.
