data_PCOD8233234
_publ_section_title
;
Structure prediction by ZEFSAII (Michael W. Deem and Ramdas Pophale) SiO2 
 PCOD8233234
Probable space group: P B C M
;
_chemical_formula_sum "Si O2"
_cell_formula_units_Z 32
_cell_length_a 10.508608
_cell_length_b 8.511311
_cell_length_c 16.383928
_cell_angle_alpha 90.000000
_cell_angle_beta 90.000000
_cell_angle_gamma 90.000000
_cell_volume 1465.411794
_symmetry_space_group_name_H-M "P B C M"
_symmetry_group_IT_number 57
_symmetry_cell_setting 'orthorhombic'
loop_
_space_group_symop_operation_xyz
x,y,z
-x,-y,1/2+z
x,1/2-y,-z
-x,1/2+y,1/2-z
-x,-y,-z
x,y,1/2-z
-x,1/2+y,z
x,1/2-y,1/2+z
loop_
_atom_site_type_symbol
_atom_site_label
_atom_site_fract_x
_atom_site_fract_y
_atom_site_fract_z
Si Si1 0.880550 0.808819 0.907496
Si Si2 0.121828 0.856719 0.157769
Si Si3 0.378544 0.179226 0.909873
Si Si4 0.361992 0.807954 0.908544
O O1 0.748800 0.746096 0.867112
O O2 0.997228 0.747904 0.854564
O O3 0.878081 0.998012 0.905234
O O4 0.894925 0.750000 0.000000
O O5 0.123210 0.921175 0.250000
O O6 0.243131 0.745480 0.145082
O O7 0.509449 0.236381 0.867483
O O8 0.372929 0.993605 0.909714
O O9 0.382409 0.250000 0.000000
O O10 0.340610 0.750000 0.000000
#
# Coordination Sequence:
#
# PCOD8233234 Si02
#       4
#     8   8   8   8
#     4  11  22  41  65  92 123 166 216 261 313 378
#     4  12  25  41  61  93 130 166 207 263 323 380
#     4  10  20  36  63  94 120 154 207 259 303 357
#     4  11  20  38  64  91 123 160 204 253 305 371
#
# _framework density 21.836863999999998
#
# number of rings (size 3 to 8) (size 9 to 14) (size 15 to 20)
#    0.000    1.000    0.000   11.250    0.000    0.000 
#    0.000    7.500    0.000    0.000    0.000    0.000 
#    0.000    0.000    0.000    0.000    0.000    0.000 
#
# Total GULP energy -396847.755558 kJ/mol
# GULP energy per Si atom -12401.492361 kJ/mol
# Density = 2.178716 g / cm^3
# Si number density = 21.836864 Si / 1000 Ang^3
#
#
#
# Elastic Constant Matrix: (Units=GPa)
#
#
# Indices 1 2 3 4 5 6 
#
# 1 214.6777 62.8804 31.6432 0.0000 0.0000 0.0000
# 2 62.8804 189.1814 20.9728 0.0000 0.0000 0.0000
# 3 31.6432 20.9728 64.0008 0.0000 0.0000 0.0000
# 4 0.0000 0.0000 0.0000 19.8083 0.0000 0.0000
# 5 0.0000 0.0000 0.0000 0.0000 -7.5659 0.0000
# 6 0.0000 0.0000 0.0000 0.0000 0.0000 40.7533
#
#
#
# Elastic Compliance Matrix: (Units=1/GPa)
#
#
# Indices 1 2 3 4 5 6 
#
# 1 0.005438 -0.001566 -0.002175 0.000000 0.000000 0.000000
# 2 -0.001566 0.005936 -0.001171 0.000000 0.000000 0.000000
# 3 -0.002175 -0.001171 0.017084 0.000000 0.000000 0.000000
# 4 0.000000 0.000000 0.000000 0.050484 0.000000 0.000000
# 5 0.000000 0.000000 0.000000 0.000000 -0.132172 0.000000
# 6 0.000000 0.000000 0.000000 0.000000 0.000000 0.024538
#
#
# Mechanical properties :
#
#
# Convention : Reuss Voigt Hill
#
# Bulk Modulus (GPa) = 53.66778 77.65031 65.65904
# Shear Modulus (GPa) = -395.06084 34.09004 -180.48540
#
# Velocity S-wave (km/s) = -13.46504 3.95539 -9.10116
# Velocity P-wave (km/s) = 14.73476 7.51642 8.96149
#
# Compressibility (1/GPa) = 0.01863316
#
# Stress axis : x y z
#
# Youngs Moduli (GPa) = 183.90778 168.45465 58.53444
#
# Poissons Ratio (x) = 0.26383 0.12732
# Poissons Ratio (y) = 0.28803 0.06854
# Poissons Ratio (z) = 0.40003 0.19725
#
# Static dielectric constant tensor:
#      x y z
#    x 5.012580 0.000000 0.000000 
#    y 0.000000 6.912170 0.000000 
#    z 0.000000 0.000000 5.657760 
# 
# 
# High freq. dielectric constant tensor:
#      x y z
#    x 1.893250 0.000000 0.000000 
#    y 0.000000 1.874480 0.000000 
#    z 0.000000 0.000000 1.812940 
# 
# From -- ./inp_files/17255.got.cif
#   From: 2010.03.12/outbox.cif.g09.slc.cpg/sg57_9_cif.got.tgz:17255.got - 2010.04.16 15:48:40.
