data_PCOD8233066
_publ_section_title
;
Structure prediction by ZEFSAII (Michael W. Deem and Ramdas Pophale) SiO2 
 PCOD8233066
Probable space group: P B C M
;
_chemical_formula_sum "Si O2"
_cell_formula_units_Z 48
_cell_length_a 8.847494
_cell_length_b 28.431744
_cell_length_c 10.019168
_cell_angle_alpha 90.000000
_cell_angle_beta 90.000000
_cell_angle_gamma 90.000000
_cell_volume 2520.318549
_symmetry_space_group_name_H-M "P B C M"
_symmetry_group_IT_number 57
_symmetry_cell_setting 'orthorhombic'
loop_
_space_group_symop_operation_xyz
x,y,z
-x,-y,1/2+z
x,1/2-y,-z
-x,1/2+y,1/2-z
-x,-y,-z
x,y,1/2-z
-x,1/2+y,z
x,1/2-y,1/2+z
loop_
_atom_site_type_symbol
_atom_site_label
_atom_site_fract_x
_atom_site_fract_y
_atom_site_fract_z
Si Si1 0.682102 0.709029 0.750000
Si Si2 0.799777 0.289428 0.750000
Si Si3 0.626967 0.050364 0.099003
Si Si4 0.349601 0.850584 0.529499
Si Si5 0.335210 0.691379 0.750000
Si Si6 0.704562 0.646861 0.497522
Si Si7 0.651979 0.949327 0.096665
Si Si8 0.151461 0.192172 0.250000
O O1 0.501594 0.714015 0.750000
O O2 0.737401 0.681722 0.619475
O O3 0.751014 0.760639 0.750000
O O4 0.721821 0.309845 0.881784
O O5 0.783471 0.233466 0.750000
O O6 0.975884 0.298206 0.750000
O O7 0.558470 0.051197 0.250000
O O8 0.720138 0.098707 0.074863
O O9 0.726406 0.001892 0.084530
O O10 0.502040 0.049495 0.985214
O O11 0.307187 0.841732 0.376653
O O12 0.530490 0.850708 0.549579
O O13 0.752243 0.593435 0.539023
O O14 0.812952 0.661304 0.378820
O O15 0.612620 0.937198 0.250000
#
# Coordination Sequence:
#
# PCOD8233066 Si02
#       8
#     4   4   8   8   4   8   8   4
#     4  10  20  38  57  82 108 142 181 234 281 332
#     4  12  24  40  53  78 108 152 191 232 271 328
#     4   9  17  29  52  87 118 146 170 221 278 328
#     4  10  20  36  59  84 111 145 181 225 280 329
#     4  10  22  36  59  82 110 140 187 232 277 334
#     4  10  20  36  57  85 112 144 180 229 279 328
#     4   9  17  30  52  86 119 143 176 221 274 330
#     4  12  26  36  55  78 112 148 193 230 275 330
#
# _framework density 19.045210999999998
#
# number of rings (size 3 to 8) (size 9 to 14) (size 15 to 20)
#    0.000    2.000    1.667    2.500    7.000    5.333 
#    0.000    0.000    0.000    1.000    0.000    0.000 
#    0.000    0.000    0.000    0.000    0.000    0.000 
#
# Total GULP energy -594854.427353 kJ/mol
# GULP energy per Si atom -12392.800570 kJ/mol
# Density = 1.900186 g / cm^3
# Si number density = 19.045211 Si / 1000 Ang^3
#
#
#
# Elastic Constant Matrix: (Units=GPa)
#
#
# Indices 1 2 3 4 5 6 
#
# 1 48.1444 26.4628 37.2054 0.0000 0.0000 0.0000
# 2 26.4628 139.3484 45.2219 0.0000 0.0000 0.0000
# 3 37.2054 45.2219 129.4131 0.0000 0.0000 0.0000
# 4 0.0000 0.0000 0.0000 35.3165 0.0000 0.0000
# 5 0.0000 0.0000 0.0000 0.0000 -13.8137 0.0000
# 6 0.0000 0.0000 0.0000 0.0000 0.0000 5.1861
#
#
#
# Elastic Compliance Matrix: (Units=1/GPa)
#
#
# Indices 1 2 3 4 5 6 
#
# 1 0.027792 -0.003028 -0.006932 0.000000 0.000000 0.000000
# 2 -0.003028 0.008424 -0.002073 0.000000 0.000000 0.000000
# 3 -0.006932 -0.002073 0.010444 0.000000 0.000000 0.000000
# 4 0.000000 0.000000 0.000000 0.028315 0.000000 0.000000
# 5 0.000000 0.000000 0.000000 0.000000 -0.072392 0.000000
# 6 0.000000 0.000000 0.000000 0.000000 0.000000 0.192823
#
#
# Mechanical properties :
#
#
# Convention : Reuss Voigt Hill
#
# Bulk Modulus (GPa) = 44.25899 59.40957 51.83428
# Shear Modulus (GPa) = 22.02586 19.20550 20.61568
#
# Velocity S-wave (km/s) = 3.40443 3.17900 3.29365
# Velocity P-wave (km/s) = 6.22438 6.68853 6.46062
#
# Compressibility (1/GPa) = 0.02259428
#
# Stress axis : x y z
#
# Youngs Moduli (GPa) = 35.98131 118.70697 95.74437
#
# Poissons Ratio (x) = 0.35948 0.66369
# Poissons Ratio (y) = 0.10896 0.19849
# Poissons Ratio (z) = 0.24942 0.24609
#
# Static dielectric constant tensor:
#      x y z
#    x 2.872950 0.000000 0.000000 
#    y 0.000000 4.326410 0.000000 
#    z 0.000000 0.000000 3.717810 
# 
# 
# High freq. dielectric constant tensor:
#      x y z
#    x 1.662120 0.000000 0.000000 
#    y 0.000000 1.771920 0.000000 
#    z 0.000000 0.000000 1.765740 
# 
# From -- ./inp_files/2199.got.cif
#   From: 2010.03.12/outbox.cif.g09.slc.cpg/sg57_2_cif.got.tgz:2199.got - 2010.04.16 15:48:40.
