data_PCOD8233351
_publ_section_title
;
Structure prediction by ZEFSAII (Michael W. Deem and Ramdas Pophale) SiO2 
 PCOD8233351
Probable space group: P B C M
;
_chemical_formula_sum "Si O2"
_cell_formula_units_Z 64
_cell_length_a 14.896317
_cell_length_b 23.476271
_cell_length_c 8.638979
_cell_angle_alpha 90.000000
_cell_angle_beta 90.000000
_cell_angle_gamma 90.000000
_cell_volume 3021.137128
_symmetry_space_group_name_H-M "P B C M"
_symmetry_group_IT_number 57
_symmetry_cell_setting 'orthorhombic'
loop_
_space_group_symop_operation_xyz
x,y,z
-x,-y,1/2+z
x,1/2-y,-z
-x,1/2+y,1/2-z
-x,-y,-z
x,y,1/2-z
-x,1/2+y,z
x,1/2-y,1/2+z
loop_
_atom_site_type_symbol
_atom_site_label
_atom_site_fract_x
_atom_site_fract_y
_atom_site_fract_z
Si Si1 0.850150 0.883005 0.428838
Si Si2 0.830800 0.376379 0.068472
Si Si3 0.648975 0.104933 0.067359
Si Si4 0.008673 0.811831 0.933166
Si Si5 0.700886 0.808084 0.931687
Si Si6 0.543451 0.867153 0.068529
Si Si7 0.903135 0.009399 0.070819
Si Si8 0.593625 0.987177 0.071294
O O1 0.841562 0.865188 0.250000
O O2 0.766831 0.859012 0.523799
O O3 0.942939 0.859055 0.495765
O O4 0.846426 0.951308 0.446337
O O5 0.845731 0.368414 0.250000
O O6 0.727876 0.362310 0.022636
O O7 0.891164 0.330277 0.979257
O O8 0.853565 0.440645 0.019948
O O9 0.660850 0.114428 0.250000
O O10 0.661416 0.037442 0.018314
O O11 0.551937 0.128694 0.016904
O O12 0.997047 0.810295 0.750000
O O13 0.985259 0.750000 0.000000
O O14 0.692624 0.803733 0.750000
O O15 0.742252 0.750000 0.000000
O O16 0.600808 0.814893 0.002851
O O17 0.524617 0.860278 0.250000
O O18 0.611782 0.920920 0.033598
O O19 0.912072 0.027141 0.250000
O O20 0.000000 0.000000 0.000000
O O21 0.580666 0.996345 0.250000
O O22 0.500000 0.000000 0.000000
#
# Coordination Sequence:
#
# PCOD8233351 Si02
#       8
#     8   8   8   8   8   8   8   8
#     4  11  24  43  67  96 130 168 211 262 320 385
#     4  12  25  41  62  94 134 174 218 265 318 381
#     4  10  20  37  60  90 125 167 211 255 312 375
#     4  12  25  44  69  94 125 165 212 263 318 378
#     4  12  26  44  65  92 125 167 216 269 324 386
#     4  10  20  38  61  89 122 161 206 259 315 371
#     4  11  23  40  65  95 133 173 214 263 323 387
#     4   8  16  30  52  80 114 151 192 239 292 354
#
# _framework density 21.184076999999998
#
# number of rings (size 3 to 8) (size 9 to 14) (size 15 to 20)
#    0.000    1.250    1.250    5.250    1.750    2.500 
#    0.000    0.625    0.000    0.000    0.000    0.000 
#    0.000    0.000    0.000    0.000    0.000    0.000 
#
# Total GULP energy -793380.917752 kJ/mol
# GULP energy per Si atom -12396.576840 kJ/mol
# Density = 2.113586 g / cm^3
# Si number density = 21.184077 Si / 1000 Ang^3
#
#
#
# Elastic Constant Matrix: (Units=GPa)
#
#
# Indices 1 2 3 4 5 6 
#
# 1 76.0012 6.0949 3.3586 0.0000 0.0000 0.0000
# 2 6.0949 58.1369 20.1045 0.0000 0.0000 0.0000
# 3 3.3586 20.1045 73.1415 0.0000 0.0000 0.0000
# 4 0.0000 0.0000 0.0000 31.7781 0.0000 0.0000
# 5 0.0000 0.0000 0.0000 0.0000 38.1396 0.0000
# 6 0.0000 0.0000 0.0000 0.0000 0.0000 32.5484
#
#
#
# Elastic Compliance Matrix: (Units=1/GPa)
#
#
# Indices 1 2 3 4 5 6 
#
# 1 0.013273 -0.001305 -0.000251 0.000000 0.000000 0.000000
# 2 -0.001305 0.019136 -0.005200 0.000000 0.000000 0.000000
# 3 -0.000251 -0.005200 0.015113 0.000000 0.000000 0.000000
# 4 0.000000 0.000000 0.000000 0.031468 0.000000 0.000000
# 5 0.000000 0.000000 0.000000 0.000000 0.026219 0.000000
# 6 0.000000 0.000000 0.000000 0.000000 0.000000 0.030723
#
#
# Mechanical properties :
#
#
# Convention : Reuss Voigt Hill
#
# Bulk Modulus (GPa) = 29.40232 29.59953 29.50092
# Shear Modulus (GPa) = 31.09812 32.34135 31.71973
#
# Velocity S-wave (km/s) = 3.83560 3.91152 3.87374
# Velocity P-wave (km/s) = 5.79011 5.86539 5.82787
#
# Compressibility (1/GPa) = 0.03401092
#
# Stress axis : x y z
#
# Youngs Moduli (GPa) = 75.33859 52.25813 66.16831
#
# Poissons Ratio (x) = 0.06819 0.01660
# Poissons Ratio (y) = 0.09830 0.34407
# Poissons Ratio (z) = 0.01890 0.27174
#
# Static dielectric constant tensor:
#      x y z
#    x 3.734390 0.000000 0.000000 
#    y 0.000000 3.970040 0.000000 
#    z 0.000000 0.000000 3.861320 
# 
# 
# High freq. dielectric constant tensor:
#      x y z
#    x 1.833490 0.000000 0.000000 
#    y 0.000000 1.826010 0.000000 
#    z 0.000000 0.000000 1.840770 
# 
# From -- ./inp_files/5644.got.cif
#   From: 2010.03.12/outbox.cif.g09.slc.cpg/sg57_3_cif.got.tgz:5644.got - 2010.04.16 15:48:40.
