data_PCOD8233635
_publ_section_title
;
Structure prediction by ZEFSAII (Michael W. Deem and Ramdas Pophale) SiO2 
 PCOD8233635
Probable space group: P B C M
;
_chemical_formula_sum "Si O2"
_cell_formula_units_Z 64
_cell_length_a 15.114253
_cell_length_b 8.542226
_cell_length_c 24.868653
_cell_angle_alpha 90.000000
_cell_angle_beta 90.000000
_cell_angle_gamma 90.000000
_cell_volume 3210.775996
_symmetry_space_group_name_H-M "P B C M"
_symmetry_group_IT_number 57
_symmetry_cell_setting 'orthorhombic'
loop_
_space_group_symop_operation_xyz
x,y,z
-x,-y,1/2+z
x,1/2-y,-z
-x,1/2+y,1/2-z
-x,-y,-z
x,y,1/2-z
-x,1/2+y,z
x,1/2-y,1/2+z
loop_
_atom_site_type_symbol
_atom_site_label
_atom_site_fract_x
_atom_site_fract_y
_atom_site_fract_z
Si Si1 0.933786 0.397204 0.034593
Si Si2 0.215363 0.889982 0.189713
Si Si3 0.062577 0.853196 0.688424
Si Si4 0.599504 0.803199 0.559429
Si Si5 0.482220 0.029499 0.876573
Si Si6 0.792865 0.893119 0.590005
Si Si7 0.066905 0.332783 0.372367
Si Si8 0.598939 0.254742 0.811264
O O1 0.846426 0.492515 0.050537
O O2 0.984582 0.341100 0.087292
O O3 0.900730 0.250000 0.000000
O O4 0.000000 0.500000 0.000000
O O5 0.212474 0.961604 0.250000
O O6 0.128022 0.790562 0.177741
O O7 0.296810 0.771699 0.184201
O O8 0.224473 0.031205 0.148123
O O9 0.062097 0.908153 0.750000
O O10 0.964425 0.792771 0.672757
O O11 0.091211 0.000278 0.652510
O O12 0.573297 0.750000 0.500000
O O13 0.582939 0.660593 0.600134
O O14 0.537932 0.949550 0.575548
O O15 0.701368 0.853821 0.561213
O O16 0.420945 0.905693 0.846672
O O17 0.549046 0.102292 0.833341
O O18 0.846545 0.731845 0.597813
O O19 0.569002 0.283192 0.750000
#
# Coordination Sequence:
#
# PCOD8233635 Si02
#       8
#     8   8   8   8   8   8   8   8
#     4  12  24  43  63  88 123 169 215 265 317 360
#     4  10  22  41  62  90 130 165 207 262 318 380
#     4  11  22  39  63  90 124 173 212 255 319 376
#     4  11  25  45  67  96 127 167 215 268 321 382
#     4  10  22  43  69  92 127 166 206 261 329 393
#     4  12  25  43  64  96 127 165 219 264 318 374
#     4  12  23  40  62  88 127 163 215 267 304 375
#     4  10  20  39  65  96 127 163 206 259 323 393
#
# _framework density 19.932876
#
# number of rings (size 3 to 8) (size 9 to 14) (size 15 to 20)
#    0.000    1.000    5.000    1.125    3.500    2.000 
#    2.250    1.250    0.000    0.000    0.000    0.000 
#    0.000    0.000    0.000    0.000    0.000    0.000 
#
# Total GULP energy -793964.218506 kJ/mol
# GULP energy per Si atom -12405.690914 kJ/mol
# Density = 1.988751 g / cm^3
# Si number density = 19.932876 Si / 1000 Ang^3
#
#
#
# Elastic Constant Matrix: (Units=GPa)
#
#
# Indices 1 2 3 4 5 6 
#
# 1 82.2182 18.2134 28.3111 0.0000 0.0000 0.0000
# 2 18.2134 74.1745 21.2783 0.0000 0.0000 0.0000
# 3 28.3111 21.2783 92.2913 0.0000 0.0000 0.0000
# 4 0.0000 0.0000 0.0000 38.4197 0.0000 0.0000
# 5 0.0000 0.0000 0.0000 0.0000 27.9514 0.0000
# 6 0.0000 0.0000 0.0000 0.0000 0.0000 27.5409
#
#
#
# Elastic Compliance Matrix: (Units=1/GPa)
#
#
# Indices 1 2 3 4 5 6 
#
# 1 0.013974 -0.002357 -0.003743 0.000000 0.000000 0.000000
# 2 -0.002357 0.014834 -0.002697 0.000000 0.000000 0.000000
# 3 -0.003743 -0.002697 0.012605 0.000000 0.000000 0.000000
# 4 0.000000 0.000000 0.000000 0.026028 0.000000 0.000000
# 5 0.000000 0.000000 0.000000 0.000000 0.035776 0.000000
# 6 0.000000 0.000000 0.000000 0.000000 0.000000 0.036310
#
#
# Mechanical properties :
#
#
# Convention : Reuss Voigt Hill
#
# Bulk Modulus (GPa) = 41.98433 42.69885 42.34159
# Shear Modulus (GPa) = 30.29160 30.84114 30.56637
#
# Velocity S-wave (km/s) = 3.90254 3.93778 3.92020
# Velocity P-wave (km/s) = 6.43545 6.49173 6.46365
#
# Compressibility (1/GPa) = 0.02381841
#
# Stress axis : x y z
#
# Youngs Moduli (GPa) = 71.56202 67.41152 79.33183
#
# Poissons Ratio (x) = 0.15892 0.29695
# Poissons Ratio (y) = 0.16871 0.21395
# Poissons Ratio (z) = 0.26786 0.18181
#
# Static dielectric constant tensor:
#      x y z
#    x 3.550370 0.000000 0.000000 
#    y 0.000000 3.633440 0.000000 
#    z 0.000000 0.000000 3.814390 
# 
# 
# High freq. dielectric constant tensor:
#      x y z
#    x 1.774330 0.000000 0.000000 
#    y 0.000000 1.782970 0.000000 
#    z 0.000000 0.000000 1.790530 
# 
# From -- ./inp_files/27516.got.cif
#   From: 2010.03.12/outbox.cif.g09.slc.cpg/sg57_14_cif.got.tgz:27516.got - 2010.04.16 15:48:40.
