data_PCOD8233359
_publ_section_title
;
Structure prediction by ZEFSAII (Michael W. Deem and Ramdas Pophale) SiO2 
 PCOD8233359
Probable space group: P B C M
;
_chemical_formula_sum "Si O2"
_cell_formula_units_Z 48
_cell_length_a 9.000546
_cell_length_b 30.671968
_cell_length_c 8.869816
_cell_angle_alpha 90.000000
_cell_angle_beta 90.000000
_cell_angle_gamma 90.000000
_cell_volume 2448.640955
_symmetry_space_group_name_H-M "P B C M"
_symmetry_group_IT_number 57
_symmetry_cell_setting 'orthorhombic'
loop_
_space_group_symop_operation_xyz
x,y,z
-x,-y,1/2+z
x,1/2-y,-z
-x,1/2+y,1/2-z
-x,-y,-z
x,y,1/2-z
-x,1/2+y,z
x,1/2-y,1/2+z
loop_
_atom_site_type_symbol
_atom_site_label
_atom_site_fract_x
_atom_site_fract_y
_atom_site_fract_z
Si Si1 0.598251 0.876667 0.076323
Si Si2 0.593961 0.462296 0.075728
Si Si3 0.087690 0.539448 0.427294
Si Si4 0.907819 0.625594 0.074047
Si Si5 0.929185 0.205149 0.927895
Si Si6 0.591594 0.205457 0.927574
O O1 0.647852 0.871618 0.250000
O O2 0.489149 0.916934 0.055811
O O3 0.512578 0.833801 0.017948
O O4 0.739731 0.884566 0.972191
O O5 0.620355 0.473901 0.250000
O O6 0.500000 0.500000 0.000000
O O7 0.749143 0.458095 0.993164
O O8 0.096103 0.531662 0.250000
O O9 0.000000 0.500000 0.500000
O O10 0.005492 0.583996 0.469627
O O11 0.916401 0.636019 0.250000
O O12 0.965549 0.666760 0.982397
O O13 0.941547 0.209150 0.750000
O O14 0.760175 0.195845 0.980915
O O15 0.987249 0.250000 0.000000
O O16 0.586070 0.210792 0.750000
O O17 0.531041 0.250000 0.000000
#
# Coordination Sequence:
#
# PCOD8233359 Si02
#       6
#     8   8   8   8   8   8
#     4  10  22  39  58  82 115 154 192 233 287 348
#     4  11  23  40  63  89 118 153 194 240 293 352
#     4  11  24  41  62  88 119 155 197 245 296 352
#     4  11  24  39  57  85 118 153 195 241 289 343
#     4  10  20  37  61  86 115 151 192 239 291 348
#     4   9  19  36  58  84 111 144 187 232 281 337
#
# _framework density 19.602709999999998
#
# number of rings (size 3 to 8) (size 9 to 14) (size 15 to 20)
#    0.000    1.667    0.000    4.000    0.000   10.000 
#    0.000    1.667    0.000    0.000    0.000    0.000 
#    0.000    0.000    0.000    0.000    0.000    0.000 
#
# Total GULP energy -595477.900064 kJ/mol
# GULP energy per Si atom -12405.789585 kJ/mol
# Density = 1.955809 g / cm^3
# Si number density = 19.602710 Si / 1000 Ang^3
#
#
#
# Elastic Constant Matrix: (Units=GPa)
#
#
# Indices 1 2 3 4 5 6 
#
# 1 119.3321 60.1104 45.7760 0.0000 0.0000 0.0000
# 2 60.1104 137.7544 61.6569 0.0000 0.0000 0.0000
# 3 45.7760 61.6569 75.5142 0.0000 0.0000 0.0000
# 4 0.0000 0.0000 0.0000 35.3666 0.0000 0.0000
# 5 0.0000 0.0000 0.0000 0.0000 36.3357 0.0000
# 6 0.0000 0.0000 0.0000 0.0000 0.0000 37.4823
#
#
#
# Elastic Compliance Matrix: (Units=1/GPa)
#
#
# Indices 1 2 3 4 5 6 
#
# 1 0.011673 -0.003036 -0.004597 0.000000 0.000000 0.000000
# 2 -0.003036 0.012230 -0.008145 0.000000 0.000000 0.000000
# 3 -0.004597 -0.008145 0.022680 0.000000 0.000000 0.000000
# 4 0.000000 0.000000 0.000000 0.028275 0.000000 0.000000
# 5 0.000000 0.000000 0.000000 0.000000 0.027521 0.000000
# 6 0.000000 0.000000 0.000000 0.000000 0.000000 0.026679
#
#
# Mechanical properties :
#
#
# Convention : Reuss Voigt Hill
#
# Bulk Modulus (GPa) = 66.55196 74.18747 70.36972
# Shear Modulus (GPa) = 30.18913 32.84075 31.51494
#
# Velocity S-wave (km/s) = 3.92860 4.09750 4.01394
# Velocity P-wave (km/s) = 7.38936 7.76619 7.58012
#
# Compressibility (1/GPa) = 0.01502585
#
# Stress axis : x y z
#
# Youngs Moduli (GPa) = 85.67023 81.76833 44.09226
#
# Poissons Ratio (x) = 0.24824 0.20270
# Poissons Ratio (y) = 0.26008 0.35914
# Poissons Ratio (z) = 0.39383 0.66601
#
# Static dielectric constant tensor:
#      x y z
#    x 3.629570 0.000000 0.000000 
#    y 0.000000 3.765790 0.000000 
#    z 0.000000 0.000000 3.591230 
# 
# 
# High freq. dielectric constant tensor:
#      x y z
#    x 1.771120 0.000000 0.000000 
#    y 0.000000 1.780710 0.000000 
#    z 0.000000 0.000000 1.770440 
# 
# From -- ./inp_files/2023.got.cif
#   From: 2010.03.12/outbox.cif.g09.slc.cpg/sg57_2_cif.got.tgz:2023.got - 2010.04.16 15:48:40.
