data_PCOD8233407
_publ_section_title
;
Structure prediction by ZEFSAII (Michael W. Deem and Ramdas Pophale) SiO2 
 PCOD8233407
Probable space group: P B C M
;
_chemical_formula_sum "Si O2"
_cell_formula_units_Z 56
_cell_length_a 12.217907
_cell_length_b 16.268721
_cell_length_c 13.559542
_cell_angle_alpha 90.000000
_cell_angle_beta 90.000000
_cell_angle_gamma 90.000000
_cell_volume 2695.226369
_symmetry_space_group_name_H-M "P B C M"
_symmetry_group_IT_number 57
_symmetry_cell_setting 'orthorhombic'
loop_
_space_group_symop_operation_xyz
x,y,z
-x,-y,1/2+z
x,1/2-y,-z
-x,1/2+y,1/2-z
-x,-y,-z
x,y,1/2-z
-x,1/2+y,z
x,1/2-y,1/2+z
loop_
_atom_site_type_symbol
_atom_site_label
_atom_site_fract_x
_atom_site_fract_y
_atom_site_fract_z
Si Si1 0.762651 0.700178 0.633963
Si Si2 0.543845 0.883588 0.133412
Si Si3 0.273097 0.381465 0.632795
Si Si4 0.485183 0.930816 0.865944
Si Si5 0.070944 0.439505 0.134563
Si Si6 0.155653 0.533069 0.957929
Si Si7 0.656269 0.340560 0.486663
O O1 0.745682 0.709744 0.750000
O O2 0.657275 0.652229 0.590591
O O3 0.766806 0.792848 0.589560
O O4 0.870702 0.647503 0.610324
O O5 0.540422 0.878378 0.250000
O O6 0.441022 0.832902 0.092938
O O7 0.532480 0.976711 0.095296
O O8 0.267588 0.384318 0.750000
O O9 0.396734 0.399424 0.597469
O O10 0.189676 0.448017 0.591962
O O11 0.472644 0.925611 0.750000
O O12 0.391194 0.873794 0.910566
O O13 0.082786 0.461937 0.250000
O O14 0.945829 0.429507 0.102342
O O15 0.125373 0.514093 0.072106
O O16 0.249654 0.600054 0.947409
O O17 0.706847 0.250000 0.500000
#
# Coordination Sequence:
#
# PCOD8233407 Si02
#       7
#     8   8   8   8   8   8   8
#     4   9  19  36  61  93 122 156 203 255 308 359
#     4  10  20  37  63  92 127 166 204 254 312 365
#     4  10  20  37  62  94 126 158 205 254 302 366
#     4  10  21  38  61  89 127 168 207 252 306 369
#     4  10  23  45  66  88 120 157 207 262 314 368
#     4  11  24  42  65  90 118 167 208 253 314 370
#     4  12  25  39  59  91 132 164 207 249 306 381
#
# _framework density 20.777477000000001
#
# number of rings (size 3 to 8) (size 9 to 14) (size 15 to 20)
#    0.000    1.714    1.429    2.571    2.000    4.571 
#    5.143    0.000    0.000    0.000    0.000    0.000 
#    0.000    0.000    0.000    0.000    0.000    0.000 
#
# Total GULP energy -694609.824471 kJ/mol
# GULP energy per Si atom -12403.746866 kJ/mol
# Density = 2.073019 g / cm^3
# Si number density = 20.777477 Si / 1000 Ang^3
#
#
#
# Elastic Constant Matrix: (Units=GPa)
#
#
# Indices 1 2 3 4 5 6 
#
# 1 147.0314 70.6877 35.3747 0.0000 0.0000 0.0000
# 2 70.6877 153.4170 44.2937 0.0000 0.0000 0.0000
# 3 35.3747 44.2937 38.2122 0.0000 0.0000 0.0000
# 4 0.0000 0.0000 0.0000 27.5934 0.0000 0.0000
# 5 0.0000 0.0000 0.0000 0.0000 26.0691 0.0000
# 6 0.0000 0.0000 0.0000 0.0000 0.0000 26.0567
#
#
#
# Elastic Compliance Matrix: (Units=1/GPa)
#
#
# Indices 1 2 3 4 5 6 
#
# 1 0.009465 -0.002752 -0.005572 0.000000 0.000000 0.000000
# 2 -0.002752 0.010597 -0.009736 0.000000 0.000000 0.000000
# 3 -0.005572 -0.009736 0.042613 0.000000 0.000000 0.000000
# 4 0.000000 0.000000 0.000000 0.036241 0.000000 0.000000
# 5 0.000000 0.000000 0.000000 0.000000 0.038360 0.000000
# 6 0.000000 0.000000 0.000000 0.000000 0.000000 0.038378
#
#
# Mechanical properties :
#
#
# Convention : Reuss Voigt Hill
#
# Bulk Modulus (GPa) = 37.65729 71.04144 54.34936
# Shear Modulus (GPa) = 22.66293 28.49746 25.58019
#
# Velocity S-wave (km/s) = 3.30623 3.70747 3.51258
# Velocity P-wave (km/s) = 5.72174 7.25210 6.53189
#
# Compressibility (1/GPa) = 0.02655528
#
# Stress axis : x y z
#
# Youngs Moduli (GPa) = 105.65164 94.36431 23.46715
#
# Poissons Ratio (x) = 0.25973 0.13075
# Poissons Ratio (y) = 0.29080 0.22847
# Poissons Ratio (z) = 0.58866 0.91870
#
# Static dielectric constant tensor:
#      x y z
#    x 3.762550 0.000000 0.000000 
#    y 0.000000 3.897730 0.000000 
#    z 0.000000 0.000000 3.812500 
# 
# 
# High freq. dielectric constant tensor:
#      x y z
#    x 1.803930 0.000000 0.000000 
#    y 0.000000 1.812710 0.000000 
#    z 0.000000 0.000000 1.832710 
# 
# From -- ./inp_files/17708.got.cif
#   From: 2010.03.12/outbox.cif.g09.slc.cpg/sg57_9_cif.got.tgz:17708.got - 2010.04.16 15:48:40.
