data_PCOD8233609
_publ_section_title
;
Structure prediction by ZEFSAII (Michael W. Deem and Ramdas Pophale) SiO2 
 PCOD8233609
Probable space group: P B C M
;
_chemical_formula_sum "Si O2"
_cell_formula_units_Z 48
_cell_length_a 11.366579
_cell_length_b 11.373880
_cell_length_c 18.467096
_cell_angle_alpha 90.000000
_cell_angle_beta 90.000000
_cell_angle_gamma 90.000000
_cell_volume 2387.465054
_symmetry_space_group_name_H-M "P B C M"
_symmetry_group_IT_number 57
_symmetry_cell_setting 'orthorhombic'
loop_
_space_group_symop_operation_xyz
x,y,z
-x,-y,1/2+z
x,1/2-y,-z
-x,1/2+y,1/2-z
-x,-y,-z
x,y,1/2-z
-x,1/2+y,z
x,1/2-y,1/2+z
loop_
_atom_site_type_symbol
_atom_site_label
_atom_site_fract_x
_atom_site_fract_y
_atom_site_fract_z
Si Si1 0.438190 0.228045 0.078161
Si Si2 0.900706 0.804611 0.396180
Si Si3 0.696849 0.910595 0.330259
Si Si4 0.337633 0.824691 0.834571
Si Si5 0.795848 0.594060 0.457287
Si Si6 0.162860 0.825743 0.427801
O O1 0.388742 0.348802 0.112035
O O2 0.531266 0.174613 0.133519
O O3 0.334777 0.135380 0.063166
O O4 0.499961 0.250000 0.000000
O O5 0.826910 0.850942 0.327611
O O6 0.887131 0.663117 0.404609
O O7 0.833617 0.871409 0.461911
O O8 0.036972 0.835128 0.388352
O O9 0.641474 0.898338 0.250000
O O10 0.714367 0.046950 0.350174
O O11 0.342261 0.793674 0.750000
O O12 0.256988 0.728100 0.873239
O O13 0.797651 0.455675 0.447922
O O14 0.149342 0.750000 0.500000
#
# Coordination Sequence:
#
# PCOD8233609 Si02
#       6
#     8   8   8   8   8   8
#     4  11  22  42  68  92 124 164 216 272 313 373
#     4  10  20  39  65  93 131 162 208 263 316 377
#     4  10  22  42  65  88 126 174 210 257 326 387
#     4  11  27  44  61  93 133 170 214 261 319 387
#     4  10  20  39  62  98 124 157 211 267 310 371
#     4  12  24  37  68  97 128 167 210 265 316 368
#
# _framework density 20.105007000000001
#
# number of rings (size 3 to 8) (size 9 to 14) (size 15 to 20)
#    0.000    1.333    5.000    2.500    4.667    1.333 
#    0.000    3.333    0.000    0.000    0.000    0.000 
#    0.000    0.000    0.000    0.000    0.000    0.000 
#
# Total GULP energy -595080.551723 kJ/mol
# GULP energy per Si atom -12397.511494 kJ/mol
# Density = 2.005925 g / cm^3
# Si number density = 20.105007 Si / 1000 Ang^3
#
#
#
# Elastic Constant Matrix: (Units=GPa)
#
#
# Indices 1 2 3 4 5 6 
#
# 1 97.0535 21.0167 26.6524 0.0000 0.0000 0.0000
# 2 21.0167 142.1858 40.1519 0.0000 0.0000 0.0000
# 3 26.6524 40.1519 79.7585 0.0000 0.0000 0.0000
# 4 0.0000 0.0000 0.0000 27.1777 0.0000 0.0000
# 5 0.0000 0.0000 0.0000 0.0000 25.2357 0.0000
# 6 0.0000 0.0000 0.0000 0.0000 0.0000 19.3263
#
#
#
# Elastic Compliance Matrix: (Units=1/GPa)
#
#
# Indices 1 2 3 4 5 6 
#
# 1 0.011406 -0.000711 -0.003454 0.000000 0.000000 0.000000
# 2 -0.000711 0.008243 -0.003912 0.000000 0.000000 0.000000
# 3 -0.003454 -0.003912 0.015661 0.000000 0.000000 0.000000
# 4 0.000000 0.000000 0.000000 0.036795 0.000000 0.000000
# 5 0.000000 0.000000 0.000000 0.000000 0.039626 0.000000
# 6 0.000000 0.000000 0.000000 0.000000 0.000000 0.051743
#
#
# Mechanical properties :
#
#
# Convention : Reuss Voigt Hill
#
# Bulk Modulus (GPa) = 52.19963 54.95998 53.57981
# Shear Modulus (GPa) = 26.87985 29.75973 28.31979
#
# Velocity S-wave (km/s) = 3.66043 3.85153 3.75720
# Velocity P-wave (km/s) = 6.62457 6.86840 6.74758
#
# Compressibility (1/GPa) = 0.01915722
#
# Stress axis : x y z
#
# Youngs Moduli (GPa) = 87.67372 121.31734 63.85125
#
# Poissons Ratio (x) = 0.08621 0.22052
# Poissons Ratio (y) = 0.06230 0.24979
# Poissons Ratio (z) = 0.30280 0.47461
#
# Static dielectric constant tensor:
#      x y z
#    x 3.706340 0.000000 0.000000 
#    y 0.000000 3.708770 0.000000 
#    z 0.000000 0.000000 3.660190 
# 
# 
# High freq. dielectric constant tensor:
#      x y z
#    x 1.785780 0.000000 0.000000 
#    y 0.000000 1.789500 0.000000 
#    z 0.000000 0.000000 1.777020 
# 
# From -- ./inp_files/21807.got.cif
#   From: 2010.03.12/outbox.cif.g09.slc.cpg/sg57_11_cif.got.tgz:21807.got - 2010.04.16 15:48:40.
