data_PCOD8233566
_publ_section_title
;
Structure prediction by ZEFSAII (Michael W. Deem and Ramdas Pophale) SiO2 
 PCOD8233566
Probable space group: P B C M
;
_chemical_formula_sum "Si O2"
_cell_formula_units_Z 56
_cell_length_a 11.362001
_cell_length_b 14.455791
_cell_length_c 16.192546
_cell_angle_alpha 90.000000
_cell_angle_beta 90.000000
_cell_angle_gamma 90.000000
_cell_volume 2659.572436
_symmetry_space_group_name_H-M "P B C M"
_symmetry_group_IT_number 57
_symmetry_cell_setting 'orthorhombic'
loop_
_space_group_symop_operation_xyz
x,y,z
-x,-y,1/2+z
x,1/2-y,-z
-x,1/2+y,1/2-z
-x,-y,-z
x,y,1/2-z
-x,1/2+y,z
x,1/2-y,1/2+z
loop_
_atom_site_type_symbol
_atom_site_label
_atom_site_fract_x
_atom_site_fract_y
_atom_site_fract_z
Si Si1 0.098464 0.127532 0.656958
Si Si2 0.063685 0.012649 0.414876
Si Si3 0.321676 0.971441 0.037581
Si Si4 0.272499 0.809791 0.577528
Si Si5 0.975285 0.312057 0.654515
Si Si6 0.448906 0.835567 0.348023
Si Si7 0.676590 0.657259 0.550116
O O1 0.146112 0.140495 0.750000
O O2 0.207305 0.119177 0.594974
O O3 0.015138 0.037954 0.654268
O O4 0.013436 0.210067 0.628134
O O5 0.194088 0.972946 0.419912
O O6 0.000000 0.000000 0.500000
O O7 0.065048 0.120750 0.393251
O O8 0.404432 0.929959 0.108997
O O9 0.325811 0.906120 0.956166
O O10 0.364792 0.074076 0.011073
O O11 0.228879 0.750000 0.500000
O O12 0.160711 0.831116 0.634008
O O13 0.369968 0.753501 0.629093
O O14 0.994275 0.329126 0.750000
O O15 0.450940 0.849521 0.250000
O O16 0.579318 0.817054 0.381960
O O17 0.705017 0.750000 0.500000
#
# Coordination Sequence:
#
# PCOD8233566 Si02
#       7
#     8   8   8   8   8   8   8
#     4  11  24  39  61  92 130 167 204 259 320 371
#     4  12  22  38  63  95 127 164 206 253 310 385
#     4  11  23  41  67  94 123 166 215 257 313 380
#     4  10  20  38  65  91 121 159 209 258 312 380
#     4  11  23  37  59  93 127 161 203 255 315 373
#     4  11  25  44  65  92 126 161 210 270 324 369
#     4  12  24  43  66  90 126 169 221 262 309 379
#
# _framework density 21.056016
#
# number of rings (size 3 to 8) (size 9 to 14) (size 15 to 20)
#    0.000    0.857    2.857    5.571    0.000    2.286 
#    0.000    5.000    0.000    0.000    0.000    0.000 
#    0.000    0.000    0.000    0.000    0.000    0.000 
#
# Total GULP energy -694580.502331 kJ/mol
# GULP energy per Si atom -12403.223256 kJ/mol
# Density = 2.100809 g / cm^3
# Si number density = 21.056016 Si / 1000 Ang^3
#
#
#
# Elastic Constant Matrix: (Units=GPa)
#
#
# Indices 1 2 3 4 5 6 
#
# 1 85.4358 7.9587 31.3904 0.0000 0.0000 0.0000
# 2 7.9587 111.2679 29.7357 0.0000 0.0000 0.0000
# 3 31.3904 29.7357 92.6963 0.0000 0.0000 0.0000
# 4 0.0000 0.0000 0.0000 30.8836 0.0000 0.0000
# 5 0.0000 0.0000 0.0000 0.0000 32.8312 0.0000
# 6 0.0000 0.0000 0.0000 0.0000 0.0000 29.7601
#
#
#
# Elastic Compliance Matrix: (Units=1/GPa)
#
#
# Indices 1 2 3 4 5 6 
#
# 1 0.013376 0.000278 -0.004619 0.000000 0.000000 0.000000
# 2 0.000278 0.009836 -0.003249 0.000000 0.000000 0.000000
# 3 -0.004619 -0.003249 0.013394 0.000000 0.000000 0.000000
# 4 0.000000 0.000000 0.000000 0.032380 0.000000 0.000000
# 5 0.000000 0.000000 0.000000 0.000000 0.030459 0.000000
# 6 0.000000 0.000000 0.000000 0.000000 0.000000 0.033602
#
#
# Mechanical properties :
#
#
# Convention : Reuss Voigt Hill
#
# Bulk Modulus (GPa) = 46.67357 47.50774 47.09065
# Shear Modulus (GPa) = 32.18159 33.38269 32.78214
#
# Velocity S-wave (km/s) = 3.91369 3.98606 3.95004
# Velocity P-wave (km/s) = 6.52971 6.61788 6.57395
#
# Compressibility (1/GPa) = 0.02142540
#
# Stress axis : x y z
#
# Youngs Moduli (GPa) = 74.76209 101.66953 74.65910
#
# Poissons Ratio (x) = -0.02822 0.34482
# Poissons Ratio (y) = -0.02075 0.24258
# Poissons Ratio (z) = 0.34529 0.33034
#
# Static dielectric constant tensor:
#      x y z
#    x 3.884790 0.000000 0.000000 
#    y 0.000000 4.217690 0.000000 
#    z 0.000000 0.000000 4.072360 
# 
# 
# High freq. dielectric constant tensor:
#      x y z
#    x 1.825590 0.000000 0.000000 
#    y 0.000000 1.836680 0.000000 
#    z 0.000000 0.000000 1.822110 
# 
# From -- ./inp_files/17741.got.cif
#   From: 2010.03.12/outbox.cif.g09.slc.cpg/sg57_9_cif.got.tgz:17741.got - 2010.04.16 15:48:40.
