data_PCOD8233102
_publ_section_title
;
Structure prediction by ZEFSAII (Michael W. Deem and Ramdas Pophale) SiO2 
 PCOD8233102
Probable space group: P B C M
;
_chemical_formula_sum "Si O2"
_cell_formula_units_Z 64
_cell_length_a 25.581340
_cell_length_b 14.575271
_cell_length_c 8.848614
_cell_angle_alpha 90.000000
_cell_angle_beta 90.000000
_cell_angle_gamma 90.000000
_cell_volume 3299.249646
_symmetry_space_group_name_H-M "P B C M"
_symmetry_group_IT_number 57
_symmetry_cell_setting 'orthorhombic'
loop_
_space_group_symop_operation_xyz
x,y,z
-x,-y,1/2+z
x,1/2-y,-z
-x,1/2+y,1/2-z
-x,-y,-z
x,y,1/2-z
-x,1/2+y,z
x,1/2-y,1/2+z
loop_
_atom_site_type_symbol
_atom_site_label
_atom_site_fract_x
_atom_site_fract_y
_atom_site_fract_z
Si Si1 0.636115 0.650442 0.427067
Si Si2 0.894234 0.658111 0.925549
Si Si3 0.820542 0.515801 0.422385
Si Si4 0.357786 0.852222 0.069091
Si Si5 0.884022 0.336129 0.419336
Si Si6 0.710939 0.505700 0.570918
Si Si7 0.007908 0.904275 0.424373
Si Si8 0.444548 0.994685 0.076578
O O1 0.628359 0.750000 0.500000
O O2 0.649522 0.660025 0.250000
O O3 0.682113 0.596089 0.509947
O O4 0.583512 0.591901 0.451734
O O5 0.879035 0.653539 0.750000
O O6 0.956667 0.657249 0.949861
O O7 0.871729 0.750000 0.000000
O O8 0.867733 0.575606 0.013951
O O9 0.806836 0.544423 0.250000
O O10 0.840618 0.413113 0.429439
O O11 0.770863 0.523127 0.530147
O O12 0.353263 0.846168 0.250000
O O13 0.409648 0.908706 0.017344
O O14 0.358754 0.750000 0.000000
O O15 0.308888 0.911413 0.007252
O O16 0.857868 0.250000 0.500000
O O17 0.896301 0.307390 0.250000
O O18 0.940076 0.359499 0.497523
O O19 0.703480 0.497396 0.750000
O O20 0.018800 0.924025 0.250000
O O21 0.000000 0.000000 0.500000
O O22 0.455222 0.977193 0.250000
O O23 0.500000 0.000000 0.000000
#
# Coordination Sequence:
#
# PCOD8233102 Si02
#       8
#     8   8   8   8   8   8   8   8
#     4  10  21  39  61  88 119 156 200 244 292 346
#     4  11  23  38  59  86 115 148 188 233 283 343
#     4  11  23  41  61  83 116 150 188 238 289 344
#     4  10  21  39  61  88 119 157 202 246 293 345
#     4  10  22  38  58  84 113 147 185 226 279 336
#     4  11  23  40  62  87 115 150 193 243 298 351
#     4  10  20  36  58  84 112 147 186 227 278 338
#     4   9  20  36  56  85 124 162 200 244 289 340
#
# _framework density 19.398351000000002
#
# number of rings (size 3 to 8) (size 9 to 14) (size 15 to 20)
#    0.000    1.750    1.250    3.750    0.000    6.500 
#    0.000    6.250    0.000    0.000    0.000    0.000 
#    0.000    0.000    0.000    0.000    0.000    0.000 
#
# Total GULP energy -793527.909700 kJ/mol
# GULP energy per Si atom -12398.873589 kJ/mol
# Density = 1.935420 g / cm^3
# Si number density = 19.398351 Si / 1000 Ang^3
#
#
#
# Elastic Constant Matrix: (Units=GPa)
#
#
# Indices 1 2 3 4 5 6 
#
# 1 82.3931 7.7495 36.5555 0.0000 0.0000 0.0000
# 2 7.7495 109.1947 52.8332 0.0000 0.0000 0.0000
# 3 36.5555 52.8332 102.1924 0.0000 0.0000 0.0000
# 4 0.0000 0.0000 0.0000 38.0687 0.0000 0.0000
# 5 0.0000 0.0000 0.0000 0.0000 32.9029 0.0000
# 6 0.0000 0.0000 0.0000 0.0000 0.0000 6.7312
#
#
#
# Elastic Compliance Matrix: (Units=1/GPa)
#
#
# Indices 1 2 3 4 5 6 
#
# 1 0.014750 0.002008 -0.006314 0.000000 0.000000 0.000000
# 2 0.002008 0.012486 -0.007174 0.000000 0.000000 0.000000
# 3 -0.006314 -0.007174 0.015753 0.000000 0.000000 0.000000
# 4 0.000000 0.000000 0.000000 0.026268 0.000000 0.000000
# 5 0.000000 0.000000 0.000000 0.000000 0.030392 0.000000
# 6 0.000000 0.000000 0.000000 0.000000 0.000000 0.148561
#
#
# Mechanical properties :
#
#
# Convention : Reuss Voigt Hill
#
# Bulk Modulus (GPa) = 49.92688 54.22852 52.07770
# Shear Modulus (GPa) = 17.99547 28.65002 23.32275
#
# Velocity S-wave (km/s) = 3.04909 3.84725 3.47119
# Velocity P-wave (km/s) = 6.17976 6.91021 6.55517
#
# Compressibility (1/GPa) = 0.02002929
#
# Stress axis : x y z
#
# Youngs Moduli (GPa) = 67.79853 80.08665 63.47948
#
# Poissons Ratio (x) = -0.16085 0.40084
# Poissons Ratio (y) = -0.13617 0.45540
# Poissons Ratio (z) = 0.42811 0.57454
#
# Static dielectric constant tensor:
#      x y z
#    x 3.613630 0.000000 0.000000 
#    y 0.000000 3.739870 0.000000 
#    z 0.000000 0.000000 3.601840 
# 
# 
# High freq. dielectric constant tensor:
#      x y z
#    x 1.753110 0.000000 0.000000 
#    y 0.000000 1.761730 0.000000 
#    z 0.000000 0.000000 1.762340 
# 
# From -- ./inp_files/9269.got.cif
#   From: 2010.03.12/outbox.cif.g09.slc.cpg/sg57_5_cif.got.tgz:9269.got - 2010.04.16 15:48:40.
