data_PCOD8233762
_publ_section_title
;
Structure prediction by ZEFSAII (Michael W. Deem and Ramdas Pophale) SiO2 
 PCOD8233762
Probable space group: P B C M
;
_chemical_formula_sum "Si O2"
_cell_formula_units_Z 48
_cell_length_a 11.820669
_cell_length_b 12.082775
_cell_length_c 15.850411
_cell_angle_alpha 90.000000
_cell_angle_beta 90.000000
_cell_angle_gamma 90.000000
_cell_volume 2263.858471
_symmetry_space_group_name_H-M "P B C M"
_symmetry_group_IT_number 57
_symmetry_cell_setting 'orthorhombic'
loop_
_space_group_symop_operation_xyz
x,y,z
-x,-y,1/2+z
x,1/2-y,-z
-x,1/2+y,1/2-z
-x,-y,-z
x,y,1/2-z
-x,1/2+y,z
x,1/2-y,1/2+z
loop_
_atom_site_type_symbol
_atom_site_label
_atom_site_fract_x
_atom_site_fract_y
_atom_site_fract_z
Si Si1 0.442815 0.992365 0.090771
Si Si2 0.300905 0.707327 0.650056
Si Si3 0.766051 0.624910 0.149465
Si Si4 0.327632 0.950739 0.655368
Si Si5 0.160694 0.366494 0.351031
Si Si6 0.915914 0.075249 0.848698
O O1 0.349602 0.087788 0.104172
O O2 0.543281 0.009222 0.157501
O O3 0.389705 0.871696 0.103449
O O4 0.500000 0.000000 0.000000
O O5 0.325268 0.699975 0.750000
O O6 0.316349 0.830337 0.611735
O O7 0.173302 0.671053 0.628704
O O8 0.746893 0.617494 0.250000
O O9 0.798615 0.746529 0.117066
O O10 0.867942 0.543422 0.121085
O O11 0.283019 0.936240 0.750000
O O12 0.246814 0.041689 0.611112
O O13 0.161895 0.365054 0.250000
O O14 0.037197 0.395049 0.389536
O O15 0.936294 0.069652 0.750000
#
# Coordination Sequence:
#
# PCOD8233762 Si02
#       6
#     8   8   8   8   8   8
#     4  11  23  38  56  79 109 152 194 235 280 340
#     4   9  19  36  58  83 114 148 183 232 289 337
#     4   9  18  34  56  83 115 149 187 234 290 340
#     4  10  21  35  55  83 112 144 186 232 283 340
#     4   9  18  30  53  87 115 143 182 231 283 340
#     4   8  15  29  52  83 114 140 175 227 285 336
#
# _framework density 21.202739999999999
#
# number of rings (size 3 to 8) (size 9 to 14) (size 15 to 20)
#    0.000    2.667    0.000    2.500    4.667    0.667 
#    0.000    0.000    0.000    4.000    8.667    0.000 
#    0.000    0.000    0.000    0.000    0.000    0.000 
#
# Total GULP energy -595039.711065 kJ/mol
# GULP energy per Si atom -12396.660647 kJ/mol
# Density = 2.115448 g / cm^3
# Si number density = 21.202740 Si / 1000 Ang^3
#
#
#
# Elastic Constant Matrix: (Units=GPa)
#
#
# Indices 1 2 3 4 5 6 
#
# 1 200.0428 116.3504 21.3306 0.0000 0.0000 0.0000
# 2 116.3504 178.8486 24.9430 0.0000 0.0000 0.0000
# 3 21.3306 24.9430 35.1613 0.0000 0.0000 0.0000
# 4 0.0000 0.0000 0.0000 10.1086 0.0000 0.0000
# 5 0.0000 0.0000 0.0000 0.0000 14.2386 0.0000
# 6 0.0000 0.0000 0.0000 0.0000 0.0000 27.5620
#
#
#
# Elastic Compliance Matrix: (Units=1/GPa)
#
#
# Indices 1 2 3 4 5 6 
#
# 1 0.008095 -0.005085 -0.001304 0.000000 0.000000 0.000000
# 2 -0.005085 0.009399 -0.003583 0.000000 0.000000 0.000000
# 3 -0.001304 -0.003583 0.031773 0.000000 0.000000 0.000000
# 4 0.000000 0.000000 0.000000 0.098926 0.000000 0.000000
# 5 0.000000 0.000000 0.000000 0.000000 0.070231 0.000000
# 6 0.000000 0.000000 0.000000 0.000000 0.000000 0.036282
#
#
# Mechanical properties :
#
#
# Convention : Reuss Voigt Hill
#
# Bulk Modulus (GPa) = 34.10149 82.14453 58.12301
# Shear Modulus (GPa) = 17.57940 27.14376 22.36158
#
# Velocity S-wave (km/s) = 2.88255 3.58187 3.25107
# Velocity P-wave (km/s) = 5.21510 7.47883 6.44710
#
# Compressibility (1/GPa) = 0.02932423
#
# Stress axis : x y z
#
# Youngs Moduli (GPa) = 123.52850 106.39700 31.47315
#
# Poissons Ratio (x) = 0.54098 0.04104
# Poissons Ratio (y) = 0.62809 0.11276
# Poissons Ratio (z) = 0.16110 0.38120
#
# Static dielectric constant tensor:
#      x y z
#    x 4.070470 0.000000 0.000000 
#    y 0.000000 4.102310 0.000000 
#    z 0.000000 0.000000 3.229580 
# 
# 
# High freq. dielectric constant tensor:
#      x y z
#    x 1.840560 0.000000 0.000000 
#    y 0.000000 1.841560 0.000000 
#    z 0.000000 0.000000 1.783040 
# 
# From -- ./inp_files/21824.got.cif
#   From: 2010.03.12/outbox.cif.g09.slc.cpg/sg57_11_cif.got.tgz:21824.got - 2010.04.16 15:48:40.
