data_PCOD8233543
_publ_section_title
;
Structure prediction by ZEFSAII (Michael W. Deem and Ramdas Pophale) SiO2 
 PCOD8233543
Probable space group: P B C M
;
_chemical_formula_sum "Si O2"
_cell_formula_units_Z 64
_cell_length_a 11.764740
_cell_length_b 30.677157
_cell_length_c 9.053965
_cell_angle_alpha 90.000000
_cell_angle_beta 90.000000
_cell_angle_gamma 90.000000
_cell_volume 3267.655426
_symmetry_space_group_name_H-M "P B C M"
_symmetry_group_IT_number 57
_symmetry_cell_setting 'orthorhombic'
loop_
_space_group_symop_operation_xyz
x,y,z
-x,-y,1/2+z
x,1/2-y,-z
-x,1/2+y,1/2-z
-x,-y,-z
x,y,1/2-z
-x,1/2+y,z
x,1/2-y,1/2+z
loop_
_atom_site_type_symbol
_atom_site_label
_atom_site_fract_x
_atom_site_fract_y
_atom_site_fract_z
Si Si1 0.883801 0.373530 0.074265
Si Si2 0.975443 0.955923 0.082044
Si Si3 0.492662 0.293677 0.577844
Si Si4 0.478208 0.045456 0.422042
Si Si5 0.734808 0.915464 0.081130
Si Si6 0.994559 0.706427 0.080219
Si Si7 0.250021 0.172140 0.081553
Si Si8 0.355422 0.624012 0.422215
O O1 0.892168 0.368443 0.250000
O O2 0.948602 0.416686 0.017013
O O3 0.754197 0.375982 0.024423
O O4 0.944629 0.333183 0.999053
O O5 0.010869 0.962974 0.250000
O O6 0.842740 0.946443 0.065313
O O7 0.000000 0.000000 0.000000
O O8 0.538331 0.250000 0.500000
O O9 0.504542 0.285600 0.750000
O O10 0.362036 0.301784 0.531527
O O11 0.566505 0.335330 0.528776
O O12 0.465990 0.036325 0.250000
O O13 0.362272 0.065962 0.478106
O O14 0.579519 0.079047 0.454847
O O15 0.500000 0.000000 0.500000
O O16 0.692679 0.913244 0.250000
O O17 0.770307 0.867759 0.028041
O O18 0.033924 0.707732 0.250000
O O19 0.858324 0.703370 0.067743
O O20 0.036007 0.750000 0.000000
O O21 0.265330 0.155065 0.250000
O O22 0.322069 0.627533 0.250000
#
# Coordination Sequence:
#
# PCOD8233543 Si02
#       8
#     8   8   8   8   8   8   8   8
#     4  11  24  43  63  89 124 160 207 258 305 364
#     4  10  24  42  62  91 124 161 204 253 306 363
#     4  10  21  39  61  89 122 156 198 245 300 358
#     4  11  24  43  65  92 126 162 205 254 305 365
#     4  11  22  39  64  94 126 160 202 252 308 363
#     4  11  23  39  64  93 124 163 206 252 310 369
#     4  10  20  38  62  91 125 162 200 247 307 364
#     4  10  23  43  63  85 122 164 203 251 304 362
#
# _framework density 19.585908
#
# number of rings (size 3 to 8) (size 9 to 14) (size 15 to 20)
#    0.000    1.500    2.500    1.875    1.750    5.000 
#    0.000    1.250    0.000    0.000    0.000    0.000 
#    0.000    0.000    0.000    0.000    0.000    0.000 
#
# Total GULP energy -793880.595661 kJ/mol
# GULP energy per Si atom -12404.384307 kJ/mol
# Density = 1.954133 g / cm^3
# Si number density = 19.585908 Si / 1000 Ang^3
#
#
#
# Elastic Constant Matrix: (Units=GPa)
#
#
# Indices 1 2 3 4 5 6 
#
# 1 95.4581 40.6055 52.1034 0.0000 0.0000 0.0000
# 2 40.6055 152.4614 71.3636 0.0000 0.0000 0.0000
# 3 52.1034 71.3636 98.1668 0.0000 0.0000 0.0000
# 4 0.0000 0.0000 0.0000 39.4512 0.0000 0.0000
# 5 0.0000 0.0000 0.0000 0.0000 34.2635 0.0000
# 6 0.0000 0.0000 0.0000 0.0000 0.0000 19.8532
#
#
#
# Elastic Compliance Matrix: (Units=1/GPa)
#
#
# Indices 1 2 3 4 5 6 
#
# 1 0.014765 -0.000400 -0.007545 0.000000 0.000000 0.000000
# 2 -0.000400 0.009953 -0.007023 0.000000 0.000000 0.000000
# 3 -0.007545 -0.007023 0.019297 0.000000 0.000000 0.000000
# 4 0.000000 0.000000 0.000000 0.025348 0.000000 0.000000
# 5 0.000000 0.000000 0.000000 0.000000 0.029186 0.000000
# 6 0.000000 0.000000 0.000000 0.000000 0.000000 0.050370
#
#
# Mechanical properties :
#
#
# Convention : Reuss Voigt Hill
#
# Bulk Modulus (GPa) = 71.03777 74.91459 72.97618
# Shear Modulus (GPa) = 27.24094 30.84784 29.04439
#
# Velocity S-wave (km/s) = 3.73345 3.97293 3.85505
# Velocity P-wave (km/s) = 7.41171 7.70570 7.56014
#
# Compressibility (1/GPa) = 0.01407702
#
# Stress axis : x y z
#
# Youngs Moduli (GPa) = 67.72947 100.47293 51.82179
#
# Poissons Ratio (x) = 0.04024 0.39102
# Poissons Ratio (y) = 0.02713 0.36394
# Poissons Ratio (z) = 0.51104 0.70561
#
# Static dielectric constant tensor:
#      x y z
#    x 3.695360 0.000000 0.000000 
#    y 0.000000 3.455790 0.000000 
#    z 0.000000 0.000000 3.628560 
# 
# 
# High freq. dielectric constant tensor:
#      x y z
#    x 1.768240 0.000000 0.000000 
#    y 0.000000 1.773200 0.000000 
#    z 0.000000 0.000000 1.767070 
# 
# From -- ./inp_files/3875.got.cif
#   From: 2010.03.12/outbox.cif.g09.slc.cpg/sg57_2_cif.got.tgz:3875.got - 2010.04.16 15:48:40.
