data_PCOD8233784
_publ_section_title
;
Structure prediction by ZEFSAII (Michael W. Deem and Ramdas Pophale) SiO2 
 PCOD8233784
Probable space group: P B C M
;
_chemical_formula_sum "Si O2"
_cell_formula_units_Z 48
_cell_length_a 16.480238
_cell_length_b 17.995684
_cell_length_c 9.236334
_cell_angle_alpha 90.000000
_cell_angle_beta 90.000000
_cell_angle_gamma 90.000000
_cell_volume 2739.248718
_symmetry_space_group_name_H-M "P B C M"
_symmetry_group_IT_number 57
_symmetry_cell_setting 'orthorhombic'
loop_
_space_group_symop_operation_xyz
x,y,z
-x,-y,1/2+z
x,1/2-y,-z
-x,1/2+y,1/2-z
-x,-y,-z
x,y,1/2-z
-x,1/2+y,z
x,1/2-y,1/2+z
loop_
_atom_site_type_symbol
_atom_site_label
_atom_site_fract_x
_atom_site_fract_y
_atom_site_fract_z
Si Si1 0.580769 0.523975 0.578956
Si Si2 0.743245 0.454180 0.921454
Si Si3 0.986446 0.577586 0.079803
Si Si4 0.855711 0.173453 0.418333
Si Si5 0.829903 0.898998 0.419684
Si Si6 0.336142 0.323696 0.081964
O O1 0.500000 0.500000 0.500000
O O2 0.567305 0.519237 0.750000
O O3 0.650866 0.466509 0.526329
O O4 0.607629 0.607124 0.533421
O O5 0.744889 0.459961 0.750000
O O6 0.779392 0.375838 0.974836
O O7 0.801045 0.520371 0.976041
O O8 0.975185 0.563093 0.250000
O O9 0.062024 0.630333 0.047788
O O10 0.908786 0.620918 0.014237
O O11 0.000000 0.500000 0.000000
O O12 0.854006 0.250000 0.500000
O O13 0.846656 0.190365 0.250000
O O14 0.852631 0.899594 0.250000
O O15 0.758303 0.840378 0.451639
O O16 0.348579 0.308806 0.250000
O O17 0.364841 0.250000 0.000000
#
# Coordination Sequence:
#
# PCOD8233784 Si02
#       6
#     8   8   8   8   8   8
#     4   9  18  34  57  81 104 136 173 212 260 313
#     4   8  15  33  55  71  96 134 168 202 255 310
#     4  11  21  33  52  76 103 138 179 219 260 306
#     4  10  21  36  52  72 101 137 175 214 258 304
#     4   9  17  33  54  74  99 134 174 213 255 307
#     4   9  19  34  54  78 108 143 173 211 266 318
#
# _framework density 17.523053999999998
#
# number of rings (size 3 to 8) (size 9 to 14) (size 15 to 20)
#    0.000    2.667    1.667    2.500    0.000    3.333 
#    0.000    7.500    0.000    4.000    0.000    0.000 
#    0.000    0.000    0.000    0.000    0.000    0.000 
#
# Total GULP energy -595018.839647 kJ/mol
# GULP energy per Si atom -12396.225826 kJ/mol
# Density = 1.748317 g / cm^3
# Si number density = 17.523054 Si / 1000 Ang^3
#
#
#
# Elastic Constant Matrix: (Units=GPa)
#
#
# Indices 1 2 3 4 5 6 
#
# 1 143.3077 70.3364 59.0239 0.0000 0.0000 0.0000
# 2 70.3364 132.5973 57.8080 0.0000 0.0000 0.0000
# 3 59.0239 57.8080 56.0047 0.0000 0.0000 0.0000
# 4 0.0000 0.0000 0.0000 31.5927 0.0000 0.0000
# 5 0.0000 0.0000 0.0000 0.0000 32.4224 0.0000
# 6 0.0000 0.0000 0.0000 0.0000 0.0000 17.7838
#
#
#
# Elastic Compliance Matrix: (Units=1/GPa)
#
#
# Indices 1 2 3 4 5 6 
#
# 1 0.012518 -0.001616 -0.011525 0.000000 0.000000 0.000000
# 2 -0.001616 0.013921 -0.012666 0.000000 0.000000 0.000000
# 3 -0.011525 -0.012666 0.043076 0.000000 0.000000 0.000000
# 4 0.000000 0.000000 0.000000 0.031653 0.000000 0.000000
# 5 0.000000 0.000000 0.000000 0.000000 0.030843 0.000000
# 6 0.000000 0.000000 0.000000 0.000000 0.000000 0.056231
#
#
# Mechanical properties :
#
#
# Convention : Reuss Voigt Hill
#
# Bulk Modulus (GPa) = 55.86324 78.47180 67.16752
# Shear Modulus (GPa) = 20.33996 26.00922 23.17459
#
# Velocity S-wave (km/s) = 3.41068 3.85682 3.64059
# Velocity P-wave (km/s) = 6.88908 8.04442 7.48906
#
# Compressibility (1/GPa) = 0.01790086
#
# Stress axis : x y z
#
# Youngs Moduli (GPa) = 79.88704 71.83563 23.21472
#
# Poissons Ratio (x) = 0.11605 0.26755
# Poissons Ratio (y) = 0.12906 0.29404
# Poissons Ratio (z) = 0.92070 0.90989
#
# Static dielectric constant tensor:
#      x y z
#    x 3.429220 0.000000 0.000000 
#    y 0.000000 3.399480 0.000000 
#    z 0.000000 0.000000 3.053510 
# 
# 
# High freq. dielectric constant tensor:
#      x y z
#    x 1.678320 0.000000 0.000000 
#    y 0.000000 1.670930 0.000000 
#    z 0.000000 0.000000 1.659080 
# 
# From -- ./inp_files/4684.got.cif
#   From: 2010.03.12/outbox.cif.g09.slc.cpg/sg57_3_cif.got.tgz:4684.got - 2010.04.16 15:48:40.
