data_PCOD8233281
_publ_section_title
;
Structure prediction by ZEFSAII (Michael W. Deem and Ramdas Pophale) SiO2 
 PCOD8233281
Probable space group: P B C M
;
_chemical_formula_sum "Si O2"
_cell_formula_units_Z 64
_cell_length_a 24.139060
_cell_length_b 14.993324
_cell_length_c 8.743899
_cell_angle_alpha 90.000000
_cell_angle_beta 90.000000
_cell_angle_gamma 90.000000
_cell_volume 3164.633439
_symmetry_space_group_name_H-M "P B C M"
_symmetry_group_IT_number 57
_symmetry_cell_setting 'orthorhombic'
loop_
_space_group_symop_operation_xyz
x,y,z
-x,-y,1/2+z
x,1/2-y,-z
-x,1/2+y,1/2-z
-x,-y,-z
x,y,1/2-z
-x,1/2+y,z
x,1/2-y,1/2+z
loop_
_atom_site_type_symbol
_atom_site_label
_atom_site_fract_x
_atom_site_fract_y
_atom_site_fract_z
Si Si1 0.897971 0.841379 0.430679
Si Si2 0.579031 0.993781 0.429405
Si Si3 0.882014 0.342419 0.425188
Si Si4 0.695494 0.514282 0.429723
Si Si5 0.487272 0.649360 0.569229
Si Si6 0.239428 0.654420 0.575002
Si Si7 0.791129 0.653513 0.070183
Si Si8 0.992268 0.406155 0.929323
O O1 0.874935 0.750000 0.500000
O O2 0.903633 0.847693 0.250000
O O3 0.845761 0.898610 0.493765
O O4 0.959033 0.847561 0.501234
O O5 0.574521 0.010331 0.250000
O O6 0.541240 0.908901 0.478373
O O7 0.640278 0.964945 0.477411
O O8 0.563701 0.088107 0.510248
O O9 0.867484 0.250000 0.500000
O O10 0.903128 0.336134 0.250000
O O11 0.822534 0.390202 0.438895
O O12 0.930326 0.381123 0.528733
O O13 0.682723 0.509687 0.250000
O O14 0.719134 0.419629 0.491219
O O15 0.738851 0.591960 0.466141
O O16 0.488329 0.750000 0.500000
O O17 0.482152 0.660917 0.750000
O O18 0.248562 0.750000 0.500000
O O19 0.252415 0.672319 0.750000
O O20 0.802909 0.662804 0.250000
O O21 0.776372 0.750000 0.000000
O O22 0.999285 0.406569 0.750000
O O23 0.000000 0.500000 0.000000
#
# Coordination Sequence:
#
# PCOD8233281 Si02
#       8
#     8   8   8   8   8   8   8   8
#     4  11  22  39  60  83 109 145 187 236 294 355
#     4  10  22  39  60  91 126 162 205 251 297 351
#     4  10  20  37  59  81 108 143 184 234 290 352
#     4  10  22  39  60  86 121 164 201 245 300 351
#     4  10  21  39  64  92 125 164 205 249 299 351
#     4   9  20  38  59  84 113 151 195 240 293 352
#     4  10  21  38  60  85 116 156 200 249 301 357
#     4  12  25  39  55  81 111 141 182 233 291 358
#
# _framework density 20.223513000000001
#
# number of rings (size 3 to 8) (size 9 to 14) (size 15 to 20)
#    0.000    1.750    0.000    4.875    1.750    4.500 
#    0.000    3.750    0.000    0.000    0.000    0.000 
#    0.000    0.000    0.000    0.000    0.000    0.000 
#
# Total GULP energy -792854.292947 kJ/mol
# GULP energy per Si atom -12388.348327 kJ/mol
# Density = 2.017748 g / cm^3
# Si number density = 20.223513 Si / 1000 Ang^3
#
#
#
# Elastic Constant Matrix: (Units=GPa)
#
#
# Indices 1 2 3 4 5 6 
#
# 1 83.1508 17.5335 31.3636 0.0000 0.0000 0.0000
# 2 17.5335 88.9231 30.6879 0.0000 0.0000 0.0000
# 3 31.3636 30.6879 122.4892 0.0000 0.0000 0.0000
# 4 0.0000 0.0000 0.0000 31.3059 0.0000 0.0000
# 5 0.0000 0.0000 0.0000 0.0000 -75.8526 0.0000
# 6 0.0000 0.0000 0.0000 0.0000 0.0000 42.1319
#
#
#
# Elastic Compliance Matrix: (Units=1/GPa)
#
#
# Indices 1 2 3 4 5 6 
#
# 1 0.013519 -0.001610 -0.003058 0.000000 0.000000 0.000000
# 2 -0.001610 0.012502 -0.002720 0.000000 0.000000 0.000000
# 3 -0.003058 -0.002720 0.009628 0.000000 0.000000 0.000000
# 4 0.000000 0.000000 0.000000 0.031943 0.000000 0.000000
# 5 0.000000 0.000000 0.000000 0.000000 -0.013183 0.000000
# 6 0.000000 0.000000 0.000000 0.000000 0.000000 0.023735
#
#
# Mechanical properties :
#
#
# Convention : Reuss Voigt Hill
#
# Bulk Modulus (GPa) = 47.90883 50.41481 49.16182
# Shear Modulus (GPa) = 50.06082 13.84890 31.95486
#
# Velocity S-wave (km/s) = 4.98071 2.61969 3.97934
# Velocity P-wave (km/s) = 7.53776 5.84237 6.74356
#
# Compressibility (1/GPa) = 0.02087298
#
# Stress axis : x y z
#
# Youngs Moduli (GPa) = 73.96760 79.98841 103.85873
#
# Poissons Ratio (x) = 0.12881 0.31762
# Poissons Ratio (y) = 0.11911 0.28248
# Poissons Ratio (z) = 0.22621 0.21755
#
# Static dielectric constant tensor:
#      x y z
#    x 3.653020 0.000000 0.000000 
#    y 0.000000 3.677640 0.000000 
#    z 0.000000 0.000000 3.698000 
# 
# 
# High freq. dielectric constant tensor:
#      x y z
#    x 1.802120 0.000000 0.000000 
#    y 0.000000 1.785850 0.000000 
#    z 0.000000 0.000000 1.796480 
# 
# From -- ./inp_files/9271.got.cif
#   From: 2010.03.12/outbox.cif.g09.slc.cpg/sg57_5_cif.got.tgz:9271.got - 2010.04.16 15:48:40.
