data_PCOD8233512
_publ_section_title
;
Structure prediction by ZEFSAII (Michael W. Deem and Ramdas Pophale) SiO2 
 PCOD8233512
Probable space group: P B C M
;
_chemical_formula_sum "Si O2"
_cell_formula_units_Z 40
_cell_length_a 25.252702
_cell_length_b 9.239198
_cell_length_c 8.549011
_cell_angle_alpha 90.000000
_cell_angle_beta 90.000000
_cell_angle_gamma 90.000000
_cell_volume 1994.610055
_symmetry_space_group_name_H-M "P B C M"
_symmetry_group_IT_number 57
_symmetry_cell_setting 'orthorhombic'
loop_
_space_group_symop_operation_xyz
x,y,z
-x,-y,1/2+z
x,1/2-y,-z
-x,1/2+y,1/2-z
-x,-y,-z
x,y,1/2-z
-x,1/2+y,z
x,1/2-y,1/2+z
loop_
_atom_site_type_symbol
_atom_site_label
_atom_site_fract_x
_atom_site_fract_y
_atom_site_fract_z
Si Si1 0.048850 0.589398 0.935407
Si Si2 0.145138 0.409822 0.435231
Si Si3 0.452023 0.091428 0.434845
Si Si4 0.236145 0.594231 0.564058
Si Si5 0.356032 0.901708 0.433882
O O1 0.046607 0.592927 0.750000
O O2 0.045313 0.750000 0.000000
O O3 0.103013 0.517740 0.990324
O O4 0.000000 0.500000 0.000000
O O5 0.135733 0.250000 0.500000
O O6 0.138997 0.407900 0.250000
O O7 0.202757 0.466681 0.484842
O O8 0.456631 0.250000 0.500000
O O9 0.455393 0.093247 0.250000
O O10 0.500000 0.000000 0.500000
O O11 0.396109 0.025059 0.493155
O O12 0.217177 0.750000 0.500000
O O13 0.228910 0.590565 0.750000
O O14 0.296434 0.563713 0.509784
O O15 0.376442 0.750000 0.500000
O O16 0.357127 0.888284 0.250000
#
# Coordination Sequence:
#
# PCOD8233512 Si02
#       5
#     8   8   8   8   8
#     4  12  25  44  67  94 125 161 201 246 296 352
#     4  12  25  42  62  89 122 160 201 247 297 351
#     4  11  23  39  58  84 115 152 193 240 292 350
#     4  10  20  38  61  88 119 156 197 242 292 349
#     4   9  20  37  59  85 116 151 193 239 291 348
#
# _framework density 20.054044999999999
#
# number of rings (size 3 to 8) (size 9 to 14) (size 15 to 20)
#    0.000    1.200    0.000    6.600    0.000    4.800 
#    0.000    2.000    0.000    0.000    0.000    0.000 
#    0.000    0.000    0.000    0.000    0.000    0.000 
#
# Total GULP energy -496193.294679 kJ/mol
# GULP energy per Si atom -12404.832367 kJ/mol
# Density = 2.000840 g / cm^3
# Si number density = 20.054045 Si / 1000 Ang^3
#
#
#
# Elastic Constant Matrix: (Units=GPa)
#
#
# Indices 1 2 3 4 5 6 
#
# 1 127.9128 84.2809 50.1245 0.0000 0.0000 0.0000
# 2 84.2809 176.9332 60.9532 0.0000 0.0000 0.0000
# 3 50.1245 60.9532 129.5810 0.0000 0.0000 0.0000
# 4 0.0000 0.0000 0.0000 41.1386 0.0000 0.0000
# 5 0.0000 0.0000 0.0000 0.0000 32.7723 0.0000
# 6 0.0000 0.0000 0.0000 0.0000 0.0000 47.2926
#
#
#
# Elastic Compliance Matrix: (Units=1/GPa)
#
#
# Indices 1 2 3 4 5 6 
#
# 1 0.011952 -0.004893 -0.002321 0.000000 0.000000 0.000000
# 2 -0.004893 0.008748 -0.002222 0.000000 0.000000 0.000000
# 3 -0.002321 -0.002222 0.009660 0.000000 0.000000 0.000000
# 4 0.000000 0.000000 0.000000 0.024308 0.000000 0.000000
# 5 0.000000 0.000000 0.000000 0.000000 0.030514 0.000000
# 6 0.000000 0.000000 0.000000 0.000000 0.000000 0.021145
#
#
# Mechanical properties :
#
#
# Convention : Reuss Voigt Hill
#
# Bulk Modulus (GPa) = 87.05886 91.68268 89.37077
# Shear Modulus (GPa) = 38.75070 40.17862 39.46466
#
# Velocity S-wave (km/s) = 4.40058 4.48092 4.44093
# Velocity P-wave (km/s) = 8.32625 8.51989 8.42363
#
# Compressibility (1/GPa) = 0.01148648
#
# Stress axis : x y z
#
# Youngs Moduli (GPa) = 83.66998 114.30727 103.51490
#
# Poissons Ratio (x) = 0.55935 0.24030
# Poissons Ratio (y) = 0.40943 0.23004
# Poissons Ratio (z) = 0.19423 0.25402
#
# Static dielectric constant tensor:
#      x y z
#    x 4.107430 0.000000 0.000000 
#    y 0.000000 3.826450 0.000000 
#    z 0.000000 0.000000 3.799980 
# 
# 
# High freq. dielectric constant tensor:
#      x y z
#    x 1.800490 0.000000 0.000000 
#    y 0.000000 1.790830 0.000000 
#    z 0.000000 0.000000 1.796730 
# 
# From -- ./inp_files/8862.got.cif
#   From: 2010.03.12/outbox.cif.g09.slc.cpg/sg57_5_cif.got.tgz:8862.got - 2010.04.16 15:48:40.
