data_PCOD8233208
_publ_section_title
;
Structure prediction by ZEFSAII (Michael W. Deem and Ramdas Pophale) SiO2 
 PCOD8233208
Probable space group: P B C M
;
_chemical_formula_sum "Si O2"
_cell_formula_units_Z 64
_cell_length_a 11.092364
_cell_length_b 15.665824
_cell_length_c 18.009508
_cell_angle_alpha 90.000000
_cell_angle_beta 90.000000
_cell_angle_gamma 90.000000
_cell_volume 3129.530614
_symmetry_space_group_name_H-M "P B C M"
_symmetry_group_IT_number 57
_symmetry_cell_setting 'orthorhombic'
loop_
_space_group_symop_operation_xyz
x,y,z
-x,-y,1/2+z
x,1/2-y,-z
-x,1/2+y,1/2-z
-x,-y,-z
x,y,1/2-z
-x,1/2+y,z
x,1/2-y,1/2+z
loop_
_atom_site_type_symbol
_atom_site_label
_atom_site_fract_x
_atom_site_fract_y
_atom_site_fract_z
Si Si1 0.922607 0.176523 0.442881
Si Si2 0.598616 0.843478 0.836425
Si Si3 0.171700 0.398758 0.920920
Si Si4 0.542275 0.324371 0.337911
Si Si5 0.422403 0.499307 0.336929
Si Si6 0.037633 0.544193 0.663097
Si Si7 0.806737 0.292682 0.163825
Si Si8 0.186959 0.000716 0.932530
O O1 0.886648 0.250000 0.500000
O O2 0.859073 0.203382 0.366005
O O3 0.868217 0.085773 0.467664
O O4 0.066095 0.169781 0.434234
O O5 0.632949 0.837602 0.750000
O O6 0.718938 0.848547 0.884261
O O7 0.532559 0.757903 0.863904
O O8 0.516061 0.925222 0.851943
O O9 0.126840 0.470516 0.863973
O O10 0.215499 0.437637 0.998962
O O11 0.550261 0.329024 0.250000
O O12 0.480345 0.411140 0.366607
O O13 0.676977 0.316938 0.371551
O O14 0.387668 0.494286 0.250000
O O15 0.304989 0.518747 0.385060
O O16 0.014290 0.531529 0.750000
O O17 0.097872 0.634223 0.644947
O O18 0.911073 0.544142 0.620867
O O19 0.788369 0.278081 0.250000
#
# Coordination Sequence:
#
# PCOD8233208 Si02
#       8
#     8   8   8   8   8   8   8   8
#     4  11  23  39  58  82 116 154 190 239 298 350
#     4  10  21  38  60  86 117 155 199 244 292 350
#     4  11  23  38  57  82 116 154 193 240 294 349
#     4   9  19  36  58  86 118 152 194 243 295 351
#     4  10  21  39  63  89 121 158 196 245 297 349
#     4  10  20  37  61  87 114 148 191 237 291 351
#     4  10  20  36  61  88 113 146 191 242 294 350
#     4  11  23  39  60  85 118 156 197 241 292 356
#
# _framework density 20.45035
#
# number of rings (size 3 to 8) (size 9 to 14) (size 15 to 20)
#    0.000    1.750    0.000    5.250    0.000    8.500 
#    0.000    3.750    0.000    0.750    0.000    0.000 
#    0.000    0.000    0.000    0.000    0.000    0.000 
#
# Total GULP energy -793845.992695 kJ/mol
# GULP energy per Si atom -12403.843636 kJ/mol
# Density = 2.040380 g / cm^3
# Si number density = 20.450350 Si / 1000 Ang^3
#
#
#
# Elastic Constant Matrix: (Units=GPa)
#
#
# Indices 1 2 3 4 5 6 
#
# 1 125.9672 42.1058 45.0290 0.0000 0.0000 0.0000
# 2 42.1058 103.6170 38.1047 0.0000 0.0000 0.0000
# 3 45.0290 38.1047 52.7641 0.0000 0.0000 0.0000
# 4 0.0000 0.0000 0.0000 27.9110 0.0000 0.0000
# 5 0.0000 0.0000 0.0000 0.0000 24.2140 0.0000
# 6 0.0000 0.0000 0.0000 0.0000 0.0000 19.7861
#
#
#
# Elastic Compliance Matrix: (Units=1/GPa)
#
#
# Indices 1 2 3 4 5 6 
#
# 1 0.011583 -0.001459 -0.008831 0.000000 0.000000 0.000000
# 2 -0.001459 0.013325 -0.008377 0.000000 0.000000 0.000000
# 3 -0.008831 -0.008377 0.032539 0.000000 0.000000 0.000000
# 4 0.000000 0.000000 0.000000 0.035828 0.000000 0.000000
# 5 0.000000 0.000000 0.000000 0.000000 0.041298 0.000000
# 6 0.000000 0.000000 0.000000 0.000000 0.000000 0.050541
#
#
# Mechanical properties :
#
#
# Convention : Reuss Voigt Hill
#
# Bulk Modulus (GPa) = 49.72439 59.20305 54.46372
# Shear Modulus (GPa) = 21.81944 24.85612 23.33778
#
# Velocity S-wave (km/s) = 3.26996 3.49009 3.38182
# Velocity P-wave (km/s) = 6.21485 6.72707 6.47603
#
# Compressibility (1/GPa) = 0.02011085
#
# Stress axis : x y z
#
# Youngs Moduli (GPa) = 86.33143 75.04891 30.73252
#
# Poissons Ratio (x) = 0.10952 0.27141
# Poissons Ratio (y) = 0.12598 0.25746
# Poissons Ratio (z) = 0.76242 0.62871
#
# Static dielectric constant tensor:
#      x y z
#    x 3.773060 0.000000 0.000000 
#    y 0.000000 3.815880 0.000000 
#    z 0.000000 0.000000 3.592680 
# 
# 
# High freq. dielectric constant tensor:
#      x y z
#    x 1.806510 0.000000 0.000000 
#    y 0.000000 1.806700 0.000000 
#    z 0.000000 0.000000 1.791040 
# 
# From -- ./inp_files/22068.got.cif
#   From: 2010.03.12/outbox.cif.g09.slc.cpg/sg57_12_cif.got.tgz:22068.got - 2010.04.16 15:48:40.
