data_PCOD8233854
_publ_section_title
;
Structure prediction by ZEFSAII (Michael W. Deem and Ramdas Pophale) SiO2 
 PCOD8233854
Probable space group: P B C M
;
_chemical_formula_sum "Si O2"
_cell_formula_units_Z 48
_cell_length_a 11.845017
_cell_length_b 26.061696
_cell_length_c 8.652077
_cell_angle_alpha 90.000000
_cell_angle_beta 90.000000
_cell_angle_gamma 90.000000
_cell_volume 2670.906831
_symmetry_space_group_name_H-M "P B C M"
_symmetry_group_IT_number 57
_symmetry_cell_setting 'orthorhombic'
loop_
_space_group_symop_operation_xyz
x,y,z
-x,-y,1/2+z
x,1/2-y,-z
-x,1/2+y,1/2-z
-x,-y,-z
x,y,1/2-z
-x,1/2+y,z
x,1/2-y,1/2+z
loop_
_atom_site_type_symbol
_atom_site_label
_atom_site_fract_x
_atom_site_fract_y
_atom_site_fract_z
Si Si1 0.211154 0.066314 0.068851
Si Si2 0.828302 0.194559 0.930345
Si Si3 0.675069 0.103419 0.927085
Si Si4 0.982537 0.618168 0.568866
Si Si5 0.855159 0.462113 0.929457
Si Si6 0.550302 0.948336 0.428389
O O1 0.207623 0.056395 0.250000
O O2 0.137610 0.116700 0.021774
O O3 0.340177 0.071887 0.017178
O O4 0.147837 0.020985 0.978736
O O5 0.836979 0.201691 0.750000
O O6 0.718812 0.160036 0.975143
O O7 0.943141 0.166798 0.989613
O O8 0.812589 0.250000 0.000000
O O9 0.712309 0.092045 0.750000
O O10 0.540540 0.097823 0.944979
O O11 0.731317 0.060966 0.037128
O O12 0.958435 0.621535 0.750000
O O13 0.052917 0.566937 0.531981
O O14 0.886339 0.456934 0.750000
O O15 0.580638 0.958879 0.250000
O O16 0.500000 0.000000 0.500000
#
# Coordination Sequence:
#
# PCOD8233854 Si02
#       6
#     8   8   8   8   8   8
#     4  12  23  34  49  73 108 145 182 219 261 312
#     4   9  19  36  59  83 105 132 167 218 275 324
#     4   9  19  35  53  76 108 142 178 219 263 312
#     4  10  21  37  53  74 105 138 176 218 268 320
#     4  11  20  31  50  75 105 141 179 217 261 311
#     4  11  21  34  53  76 107 147 187 221 261 311
#
# _framework density 17.971425
#
# number of rings (size 3 to 8) (size 9 to 14) (size 15 to 20)
#    0.000    1.667    1.667    5.500    0.000    4.000 
#    0.000    0.000    0.000    1.000    0.000    2.333 
#    0.000    0.000    0.000    0.000    0.000    0.000 
#
# Total GULP energy -595128.894255 kJ/mol
# GULP energy per Si atom -12398.518630 kJ/mol
# Density = 1.793052 g / cm^3
# Si number density = 17.971425 Si / 1000 Ang^3
#
#
#
# Elastic Constant Matrix: (Units=GPa)
#
#
# Indices 1 2 3 4 5 6 
#
# 1 105.0898 42.2615 23.7203 0.0000 0.0000 0.0000
# 2 42.2615 91.9182 23.1466 0.0000 0.0000 0.0000
# 3 23.7203 23.1466 66.6695 0.0000 0.0000 0.0000
# 4 0.0000 0.0000 0.0000 26.9407 0.0000 0.0000
# 5 0.0000 0.0000 0.0000 0.0000 30.3105 0.0000
# 6 0.0000 0.0000 0.0000 0.0000 0.0000 13.9441
#
#
#
# Elastic Compliance Matrix: (Units=1/GPa)
#
#
# Indices 1 2 3 4 5 6 
#
# 1 0.012070 -0.004896 -0.002595 0.000000 0.000000 0.000000
# 2 -0.004896 0.013908 -0.003086 0.000000 0.000000 0.000000
# 3 -0.002595 -0.003086 0.016994 0.000000 0.000000 0.000000
# 4 0.000000 0.000000 0.000000 0.037119 0.000000 0.000000
# 5 0.000000 0.000000 0.000000 0.000000 0.032992 0.000000
# 6 0.000000 0.000000 0.000000 0.000000 0.000000 0.071715
#
#
# Mechanical properties :
#
#
# Convention : Reuss Voigt Hill
#
# Bulk Modulus (GPa) = 45.83500 49.10380 47.46940
# Shear Modulus (GPa) = 23.44945 25.87565 24.66255
#
# Velocity S-wave (km/s) = 3.61615 3.79862 3.70850
# Velocity P-wave (km/s) = 6.55706 6.82802 6.69391
#
# Compressibility (1/GPa) = 0.02181739
#
# Stress axis : x y z
#
# Youngs Moduli (GPa) = 82.84786 71.90297 58.84401
#
# Poissons Ratio (x) = 0.35205 0.15268
# Poissons Ratio (y) = 0.40564 0.18162
# Poissons Ratio (z) = 0.21496 0.22193
#
# Static dielectric constant tensor:
#      x y z
#    x 3.573820 0.000000 0.000000 
#    y 0.000000 3.497280 0.000000 
#    z 0.000000 0.000000 3.427980 
# 
# 
# High freq. dielectric constant tensor:
#      x y z
#    x 1.703030 0.000000 0.000000 
#    y 0.000000 1.655990 0.000000 
#    z 0.000000 0.000000 1.704040 
# 
# From -- ./inp_files/3272.got.cif
#   From: 2010.03.12/outbox.cif.g09.slc.cpg/sg57_2_cif.got.tgz:3272.got - 2010.04.16 15:48:40.
