data_PCOD8233187
_publ_section_title
;
Structure prediction by ZEFSAII (Michael W. Deem and Ramdas Pophale) SiO2 
 PCOD8233187
Probable space group: P B C M
;
_chemical_formula_sum "Si O2"
_cell_formula_units_Z 48
_cell_length_a 18.653858
_cell_length_b 8.561356
_cell_length_c 14.368994
_cell_angle_alpha 90.000000
_cell_angle_beta 90.000000
_cell_angle_gamma 90.000000
_cell_volume 2294.761665
_symmetry_space_group_name_H-M "P B C M"
_symmetry_group_IT_number 57
_symmetry_cell_setting 'orthorhombic'
loop_
_space_group_symop_operation_xyz
x,y,z
-x,-y,1/2+z
x,1/2-y,-z
-x,1/2+y,1/2-z
-x,-y,-z
x,y,1/2-z
-x,1/2+y,z
x,1/2-y,1/2+z
loop_
_atom_site_type_symbol
_atom_site_label
_atom_site_fract_x
_atom_site_fract_y
_atom_site_fract_z
Si Si1 0.460665 0.479089 0.250000
Si Si2 0.619479 0.878182 0.431912
Si Si3 0.089657 0.331246 0.644207
Si Si4 0.248251 0.187468 0.360888
Si Si5 0.601572 0.315797 0.250000
Si Si6 0.317403 0.886998 0.062673
Si Si7 0.037521 0.625873 0.562193
O O1 0.428894 0.397516 0.158448
O O2 0.546731 0.461431 0.250000
O O3 0.445741 0.661038 0.250000
O O4 0.583329 0.750000 0.500000
O O5 0.698939 0.819044 0.401262
O O6 0.624088 0.036729 0.492282
O O7 0.084758 0.291287 0.750000
O O8 0.167041 0.270090 0.608753
O O9 0.084219 0.521962 0.633022
O O10 0.025803 0.231734 0.602393
O O11 0.257832 0.174501 0.250000
O O12 0.261651 0.018711 0.406794
O O13 0.648670 0.317279 0.343183
O O14 0.280924 0.750000 0.000000
O O15 0.084590 0.750000 0.500000
O O16 0.000000 0.500000 0.500000
#
# Coordination Sequence:
#
# PCOD8233187 Si02
#       7
#     4   8   8   8   4   8   8
#     4  12  26  44  66  94 128 164 203 259 307 379
#     4  10  23  40  66  90 126 165 208 257 308 368
#     4  10  20  36  60  90 119 164 205 251 306 364
#     4  10  21  39  66  89 123 163 211 261 312 368
#     4  12  28  42  68  94 130 162 205 257 315 377
#     4  11  23  43  62  92 127 164 206 265 308 370
#     4   9  19  34  55  80 125 158 198 253 297 358
#
# _framework density 20.917204999999999
#
# number of rings (size 3 to 8) (size 9 to 14) (size 15 to 20)
#    0.000    1.667    3.333    0.500    4.667    8.000 
#    0.000    1.667    0.000    8.000    0.000    0.000 
#    0.000    0.000    0.000    0.000    0.000    0.000 
#
# Total GULP energy -594636.645260 kJ/mol
# GULP energy per Si atom -12388.263443 kJ/mol
# Density = 2.086960 g / cm^3
# Si number density = 20.917205 Si / 1000 Ang^3
#
#
#
# Elastic Constant Matrix: (Units=GPa)
#
#
# Indices 1 2 3 4 5 6 
#
# 1 53.4842 4.4661 21.8531 0.0000 0.0000 0.0000
# 2 4.4661 78.0171 21.3030 0.0000 0.0000 0.0000
# 3 21.8531 21.3030 113.8399 0.0000 0.0000 0.0000
# 4 0.0000 0.0000 0.0000 37.7016 0.0000 0.0000
# 5 0.0000 0.0000 0.0000 0.0000 -9.9029 0.0000
# 6 0.0000 0.0000 0.0000 0.0000 0.0000 35.5258
#
#
#
# Elastic Compliance Matrix: (Units=1/GPa)
#
#
# Indices 1 2 3 4 5 6 
#
# 1 0.020289 -0.000103 -0.003875 0.000000 0.000000 0.000000
# 2 -0.000103 0.013508 -0.002508 0.000000 0.000000 0.000000
# 3 -0.003875 -0.002508 0.009998 0.000000 0.000000 0.000000
# 4 0.000000 0.000000 0.000000 0.026524 0.000000 0.000000
# 5 0.000000 0.000000 0.000000 0.000000 -0.100980 0.000000
# 6 0.000000 0.000000 0.000000 0.000000 0.000000 0.028149
#
#
# Mechanical properties :
#
#
# Convention : Reuss Voigt Hill
#
# Bulk Modulus (GPa) = 32.44464 37.84283 35.14373
# Shear Modulus (GPa) = 241.13837 25.84616 133.49226
#
# Velocity S-wave (km/s) = 10.74861 3.51898 7.99737
# Velocity P-wave (km/s) = 13.02260 5.88574 10.10520
#
# Compressibility (1/GPa) = 0.03082174
#
# Stress axis : x y z
#
# Youngs Moduli (GPa) = 49.28728 74.02776 100.02450
#
# Poissons Ratio (x) = 0.00764 0.38764
# Poissons Ratio (y) = 0.00509 0.25087
# Poissons Ratio (z) = 0.19101 0.18566
#
# Static dielectric constant tensor:
#      x y z
#    x 3.409100 0.000000 0.000000 
#    y 0.000000 -10.702980 0.000000 
#    z 0.000000 0.000000 4.354650 
# 
# 
# High freq. dielectric constant tensor:
#      x y z
#    x 1.786370 0.000000 0.000000 
#    y 0.000000 1.827980 0.000000 
#    z 0.000000 0.000000 1.847420 
# 
# From -- ./inp_files/19273.got.cif
#   From: 2010.03.12/outbox.cif.g09.slc.cpg/sg57_10_cif.got.tgz:19273.got - 2010.04.16 15:48:40.
