data_PCOD8233626
_publ_section_title
;
Structure prediction by ZEFSAII (Michael W. Deem and Ramdas Pophale) SiO2 
 PCOD8233626
Probable space group: P B C M
;
_chemical_formula_sum "Si O2"
_cell_formula_units_Z 64
_cell_length_a 11.347566
_cell_length_b 15.814956
_cell_length_c 17.310567
_cell_angle_alpha 90.000000
_cell_angle_beta 90.000000
_cell_angle_gamma 90.000000
_cell_volume 3106.576113
_symmetry_space_group_name_H-M "P B C M"
_symmetry_group_IT_number 57
_symmetry_cell_setting 'orthorhombic'
loop_
_space_group_symop_operation_xyz
x,y,z
-x,-y,1/2+z
x,1/2-y,-z
-x,1/2+y,1/2-z
-x,-y,-z
x,y,1/2-z
-x,1/2+y,z
x,1/2-y,1/2+z
loop_
_atom_site_type_symbol
_atom_site_label
_atom_site_fract_x
_atom_site_fract_y
_atom_site_fract_z
Si Si1 0.686722 0.266790 0.159692
Si Si2 0.269362 0.395563 0.568744
Si Si3 0.236840 0.134591 0.610765
Si Si4 0.420134 0.263756 0.838590
Si Si5 0.046715 0.019169 0.662529
Si Si6 0.146989 0.861531 0.907192
Si Si7 0.813345 0.077055 0.921902
Si Si8 0.921360 0.774658 0.583325
O O1 0.705032 0.280304 0.250000
O O2 0.551045 0.261358 0.135463
O O3 0.738486 0.175737 0.134228
O O4 0.749455 0.344759 0.117880
O O5 0.275363 0.383203 0.476912
O O6 0.374331 0.341336 0.608217
O O7 0.270468 0.494863 0.590704
O O8 0.145335 0.362142 0.604046
O O9 0.348507 0.176032 0.652774
O O10 0.182125 0.050151 0.647073
O O11 0.126871 0.197067 0.633041
O O12 0.416887 0.294608 0.750000
O O13 0.006140 0.033665 0.750000
O O14 0.946803 0.061637 0.608357
O O15 0.065647 0.920271 0.646515
O O16 0.062020 0.779803 0.917931
O O17 0.177325 0.906750 0.986995
O O18 0.870868 0.750000 0.500000
#
# Coordination Sequence:
#
# PCOD8233626 Si02
#       8
#     8   8   8   8   8   8   8   8
#     4  11  26  46  63  90 130 173 216 266 325 385
#     4  10  20  39  65  95 127 159 211 271 314 369
#     4  10  20  39  64  93 123 164 213 267 310 377
#     4  10  23  44  66  88 126 171 217 266 324 382
#     4  12  24  38  62  97 137 170 204 258 325 389
#     4  12  22  40  63  93 133 167 210 261 323 382
#     4  12  23  41  67  96 128 168 216 267 316 381
#     4   9  17  32  59  89 122 158 195 247 311 363
#
# _framework density 20.601457
#
# number of rings (size 3 to 8) (size 9 to 14) (size 15 to 20)
#    0.000    1.250    2.500    6.000    0.000    3.000 
#    2.250    2.500    0.000    0.000    0.000    0.000 
#    0.000    0.000    0.000    0.000    0.000    0.000 
#
# Total GULP energy -793014.077930 kJ/mol
# GULP energy per Si atom -12390.844968 kJ/mol
# Density = 2.055457 g / cm^3
# Si number density = 20.601457 Si / 1000 Ang^3
#
#
#
# Elastic Constant Matrix: (Units=GPa)
#
#
# Indices 1 2 3 4 5 6 
#
# 1 124.4002 52.0446 27.1103 0.0000 0.0000 0.0000
# 2 52.0446 84.4353 25.1525 0.0000 0.0000 0.0000
# 3 27.1103 25.1525 73.9856 0.0000 0.0000 0.0000
# 4 0.0000 0.0000 0.0000 29.7521 0.0000 0.0000
# 5 0.0000 0.0000 0.0000 0.0000 29.6925 0.0000
# 6 0.0000 0.0000 0.0000 0.0000 0.0000 29.5074
#
#
#
# Elastic Compliance Matrix: (Units=1/GPa)
#
#
# Indices 1 2 3 4 5 6 
#
# 1 0.011075 -0.006250 -0.001933 0.000000 0.000000 0.000000
# 2 -0.006250 0.016706 -0.003389 0.000000 0.000000 0.000000
# 3 -0.001933 -0.003389 0.015377 0.000000 0.000000 0.000000
# 4 0.000000 0.000000 0.000000 0.033611 0.000000 0.000000
# 5 0.000000 0.000000 0.000000 0.000000 0.033679 0.000000
# 6 0.000000 0.000000 0.000000 0.000000 0.000000 0.033890
#
#
# Mechanical properties :
#
#
# Convention : Reuss Voigt Hill
#
# Bulk Modulus (GPa) = 49.97044 54.60401 52.28723
# Shear Modulus (GPa) = 28.71048 29.69131 29.20089
#
# Velocity S-wave (km/s) = 3.73716 3.80046 3.76895
# Velocity P-wave (km/s) = 6.55212 6.76908 6.66149
#
# Compressibility (1/GPa) = 0.02001183
#
# Stress axis : x y z
#
# Youngs Moduli (GPa) = 90.29462 59.86002 65.03372
#
# Poissons Ratio (x) = 0.37415 0.12572
# Poissons Ratio (y) = 0.56439 0.22040
# Poissons Ratio (z) = 0.17456 0.20286
#
# Static dielectric constant tensor:
#      x y z
#    x 3.639770 0.000000 0.000000 
#    y 0.000000 3.892710 0.000000 
#    z 0.000000 0.000000 3.588930 
# 
# 
# High freq. dielectric constant tensor:
#      x y z
#    x 1.796370 0.000000 0.000000 
#    y 0.000000 1.816940 0.000000 
#    z 0.000000 0.000000 1.796630 
# 
# From -- ./inp_files/22041.got.cif
#   From: 2010.03.12/outbox.cif.g09.slc.cpg/sg57_12_cif.got.tgz:22041.got - 2010.04.16 15:48:40.
