data_PCOD8233515
_publ_section_title
;
Structure prediction by ZEFSAII (Michael W. Deem and Ramdas Pophale) SiO2 
 PCOD8233515
Probable space group: P B C M
;
_chemical_formula_sum "Si O2"
_cell_formula_units_Z 48
_cell_length_a 30.257226
_cell_length_b 9.484515
_cell_length_c 8.542566
_cell_angle_alpha 90.000000
_cell_angle_beta 90.000000
_cell_angle_gamma 90.000000
_cell_volume 2451.503850
_symmetry_space_group_name_H-M "P B C M"
_symmetry_group_IT_number 57
_symmetry_cell_setting 'orthorhombic'
loop_
_space_group_symop_operation_xyz
x,y,z
-x,-y,1/2+z
x,1/2-y,-z
-x,1/2+y,1/2-z
-x,-y,-z
x,y,1/2-z
-x,1/2+y,z
x,1/2-y,1/2+z
loop_
_atom_site_type_symbol
_atom_site_label
_atom_site_fract_x
_atom_site_fract_y
_atom_site_fract_z
Si Si1 0.713254 0.396484 0.066610
Si Si2 0.539484 0.593409 0.935195
Si Si3 0.038320 0.596183 0.935361
Si Si4 0.613297 0.099395 0.564030
Si Si5 0.791553 0.594130 0.435476
Si Si6 0.868177 0.403405 0.565103
O O1 0.712781 0.379798 0.250000
O O2 0.663602 0.426834 0.006817
O O3 0.745516 0.521634 0.013635
O O4 0.731806 0.250000 0.000000
O O5 0.536840 0.598046 0.750000
O O6 0.535288 0.750000 0.000000
O O7 0.500000 0.500000 0.000000
O O8 0.585630 0.526702 0.989248
O O9 0.037973 0.596936 0.750000
O O10 0.029008 0.750000 0.000000
O O11 0.085672 0.541032 0.994917
O O12 0.000000 0.500000 0.000000
O O13 0.596226 0.250000 0.500000
O O14 0.608069 0.096989 0.750000
O O15 0.789891 0.750000 0.500000
O O16 0.798493 0.591938 0.250000
O O17 0.831411 0.514488 0.517795
O O18 0.855427 0.250000 0.500000
O O19 0.872546 0.392727 0.750000
#
# Coordination Sequence:
#
# PCOD8233515 Si02
#       6
#     8   8   8   8   8   8
#     4   9  20  37  60  86 116 152 194 236 284 342
#     4  12  25  42  62  87 117 154 194 239 289 344
#     4  11  22  39  61  88 118 152 191 236 285 341
#     4  10  20  38  61  89 120 154 193 238 286 341
#     4  11  23  39  57  84 117 153 193 240 291 342
#     4  11  22  39  61  86 114 151 193 237 285 342
#
# _framework density 19.579820000000002
#
# number of rings (size 3 to 8) (size 9 to 14) (size 15 to 20)
#    0.000    1.333    0.000    7.500    0.000    4.667 
#    0.000    5.000    0.000    0.000    0.000    0.000 
#    0.000    0.000    0.000    0.000    0.000    0.000 
#
# Total GULP energy -595407.491688 kJ/mol
# GULP energy per Si atom -12404.322744 kJ/mol
# Density = 1.953526 g / cm^3
# Si number density = 19.579820 Si / 1000 Ang^3
#
#
#
# Elastic Constant Matrix: (Units=GPa)
#
#
# Indices 1 2 3 4 5 6 
#
# 1 134.2983 91.2309 58.4287 0.0000 0.0000 0.0000
# 2 91.2309 149.6399 61.4050 0.0000 0.0000 0.0000
# 3 58.4287 61.4050 151.8362 0.0000 0.0000 0.0000
# 4 0.0000 0.0000 0.0000 38.6870 0.0000 0.0000
# 5 0.0000 0.0000 0.0000 0.0000 28.8113 0.0000
# 6 0.0000 0.0000 0.0000 0.0000 0.0000 46.0967
#
#
#
# Elastic Compliance Matrix: (Units=1/GPa)
#
#
# Indices 1 2 3 4 5 6 
#
# 1 0.013298 -0.007203 -0.002204 0.000000 0.000000 0.000000
# 2 -0.007203 0.011914 -0.002046 0.000000 0.000000 0.000000
# 3 -0.002204 -0.002046 0.008262 0.000000 0.000000 0.000000
# 4 0.000000 0.000000 0.000000 0.025848 0.000000 0.000000
# 5 0.000000 0.000000 0.000000 0.000000 0.034709 0.000000
# 6 0.000000 0.000000 0.000000 0.000000 0.000000 0.021694
#
#
# Mechanical properties :
#
#
# Convention : Reuss Voigt Hill
#
# Bulk Modulus (GPa) = 94.63748 95.32263 94.98005
# Shear Modulus (GPa) = 35.17307 37.69965 36.43636
#
# Velocity S-wave (km/s) = 4.24299 4.39274 4.31851
# Velocity P-wave (km/s) = 8.51135 8.63238 8.57208
#
# Compressibility (1/GPa) = 0.01056664
#
# Stress axis : x y z
#
# Youngs Moduli (GPa) = 75.19786 83.93575 121.03765
#
# Poissons Ratio (x) = 0.60459 0.26681
# Poissons Ratio (y) = 0.54165 0.24769
# Poissons Ratio (z) = 0.16576 0.17176
#
# Static dielectric constant tensor:
#      x y z
#    x 3.967170 0.000000 0.000000 
#    y 0.000000 3.598790 0.000000 
#    z 0.000000 0.000000 3.684520 
# 
# 
# High freq. dielectric constant tensor:
#      x y z
#    x 1.778390 0.000000 0.000000 
#    y 0.000000 1.763860 0.000000 
#    z 0.000000 0.000000 1.780760 
# 
# From -- ./inp_files/10062.got.cif
#   From: 2010.03.12/outbox.cif.g09.slc.cpg/sg57_6_cif.got.tgz:10062.got - 2010.04.16 15:48:40.
