data_PCOD8233993
_publ_section_title
;
Structure prediction by ZEFSAII (Michael W. Deem and Ramdas Pophale) SiO2 
 PCOD8233993
Probable space group: P B C M
;
_chemical_formula_sum "Si O2"
_cell_formula_units_Z 36
_cell_length_a 9.283847
_cell_length_b 20.279336
_cell_length_c 9.778548
_cell_angle_alpha 90.000000
_cell_angle_beta 90.000000
_cell_angle_gamma 90.000000
_cell_volume 1841.009703
_symmetry_space_group_name_H-M "P B C M"
_symmetry_group_IT_number 57
_symmetry_cell_setting 'orthorhombic'
loop_
_space_group_symop_operation_xyz
x,y,z
-x,-y,1/2+z
x,1/2-y,-z
-x,1/2+y,1/2-z
-x,-y,-z
x,y,1/2-z
-x,1/2+y,z
x,1/2-y,1/2+z
loop_
_atom_site_type_symbol
_atom_site_label
_atom_site_fract_x
_atom_site_fract_y
_atom_site_fract_z
Si Si1 0.554360 0.175850 0.478304
Si Si2 0.123348 0.959744 0.250000
Si Si3 0.406589 0.345984 0.250000
Si Si4 0.059149 0.394217 0.750000
Si Si5 0.192485 0.582469 0.047894
Si Si6 0.206456 0.469803 0.250000
Si Si7 0.671043 0.697208 0.250000
O O1 0.609827 0.250000 0.500000
O O2 0.509757 0.144726 0.621435
O O3 0.685913 0.135553 0.413651
O O4 0.414140 0.172766 0.382699
O O5 0.187380 0.925592 0.384872
O O6 0.955647 0.945553 0.250000
O O7 0.153019 0.038494 0.250000
O O8 0.295651 0.404394 0.250000
O O9 0.320106 0.276721 0.250000
O O10 0.167451 0.332278 0.750000
O O11 0.958665 0.393004 0.614083
O O12 0.237727 0.512896 0.114638
#
# Coordination Sequence:
#
# PCOD8233993 Si02
#       7
#     8   4   4   4   8   4   4
#     4  10  22  42  61  85 122 159 196 248 299 349
#     4  10  21  37  61  87 125 155 185 254 307 340
#     4  10  23  39  61  87 125 154 196 252 298 350
#     4  10  21  39  62  86 119 156 197 240 298 357
#     4  10  21  40  62  89 119 159 197 246 296 354
#     4  10  21  38  59  88 128 153 198 247 298 352
#     4  10  22  41  63  84 121 162 196 243 309 349
#
# _framework density 19.554485
#
# number of rings (size 3 to 8) (size 9 to 14) (size 15 to 20)
#    0.000    2.222    0.000    4.667    6.222    0.889 
#    8.000    0.000    0.000    0.000    0.000    0.000 
#    0.000    0.000    0.000    0.000    0.000    0.000 
#
# Total GULP energy -446386.856698 kJ/mol
# GULP energy per Si atom -12399.634908 kJ/mol
# Density = 1.950998 g / cm^3
# Si number density = 19.554485 Si / 1000 Ang^3
#
#
#
# Elastic Constant Matrix: (Units=GPa)
#
#
# Indices 1 2 3 4 5 6 
#
# 1 94.1059 78.0778 33.9187 0.0000 0.0000 0.0000
# 2 78.0778 102.4819 33.1467 0.0000 0.0000 0.0000
# 3 33.9187 33.1467 145.0970 0.0000 0.0000 0.0000
# 4 0.0000 0.0000 0.0000 92.1862 0.0000 0.0000
# 5 0.0000 0.0000 0.0000 0.0000 13.3608 0.0000
# 6 0.0000 0.0000 0.0000 0.0000 0.0000 35.7132
#
#
#
# Elastic Compliance Matrix: (Units=1/GPa)
#
#
# Indices 1 2 3 4 5 6 
#
# 1 0.029358 -0.021755 -0.001893 0.000000 0.000000 0.000000
# 2 -0.021755 0.026657 -0.001004 0.000000 0.000000 0.000000
# 3 -0.001893 -0.001004 0.007564 0.000000 0.000000 0.000000
# 4 0.000000 0.000000 0.000000 0.010848 0.000000 0.000000
# 5 0.000000 0.000000 0.000000 0.000000 0.074846 0.000000
# 6 0.000000 0.000000 0.000000 0.000000 0.000000 0.028001
#
#
# Mechanical properties :
#
#
# Convention : Reuss Voigt Hill
#
# Bulk Modulus (GPa) = 70.05328 70.21901 70.13614
# Shear Modulus (GPa) = 21.61359 41.35478 31.48419
#
# Velocity S-wave (km/s) = 3.32821 4.60374 4.01693
# Velocity P-wave (km/s) = 7.11841 8.01540 7.58018
#
# Compressibility (1/GPa) = 0.01427485
#
# Stress axis : x y z
#
# Youngs Moduli (GPa) = 34.06204 37.51373 132.20723
#
# Poissons Ratio (x) = 0.81610 0.25029
# Poissons Ratio (y) = 0.74101 0.13275
# Poissons Ratio (z) = 0.06448 0.03767
#
# Static dielectric constant tensor:
#      x y z
#    x 3.317300 0.000000 0.000000 
#    y 0.000000 3.478150 0.000000 
#    z 0.000000 0.000000 3.761830 
# 
# 
# High freq. dielectric constant tensor:
#      x y z
#    x 1.749710 0.000000 0.000000 
#    y 0.000000 1.756110 0.000000 
#    z 0.000000 0.000000 1.780120 
# 
# From -- ./inp_files/1388.got.cif
#   From: 2010.03.12/outbox.cif.g09.slc.cpg/sg57_1_cif.got.tgz:1388.got - 2010.04.16 15:48:40.
