data_PCOD8233751
_publ_section_title
;
Structure prediction by ZEFSAII (Michael W. Deem and Ramdas Pophale) SiO2 
 PCOD8233751
Probable space group: P B C M
;
_chemical_formula_sum "Si O2"
_cell_formula_units_Z 48
_cell_length_a 15.078334
_cell_length_b 13.442885
_cell_length_c 13.368589
_cell_angle_alpha 90.000000
_cell_angle_beta 90.000000
_cell_angle_gamma 90.000000
_cell_volume 2709.763660
_symmetry_space_group_name_H-M "P B C M"
_symmetry_group_IT_number 57
_symmetry_cell_setting 'orthorhombic'
loop_
_space_group_symop_operation_xyz
x,y,z
-x,-y,1/2+z
x,1/2-y,-z
-x,1/2+y,1/2-z
-x,-y,-z
x,y,1/2-z
-x,1/2+y,z
x,1/2-y,1/2+z
loop_
_atom_site_type_symbol
_atom_site_label
_atom_site_fract_x
_atom_site_fract_y
_atom_site_fract_z
Si Si1 0.580739 0.634767 0.025359
Si Si2 0.578379 0.466471 0.632936
Si Si3 0.068020 0.639970 0.472682
Si Si4 0.271252 0.637522 0.478730
Si Si5 0.067138 0.480111 0.862382
Si Si6 0.267430 0.030603 0.366032
O O1 0.502273 0.603408 0.099516
O O2 0.673444 0.615095 0.081834
O O3 0.572617 0.750000 0.000000
O O4 0.574408 0.572496 0.922773
O O5 0.572610 0.488323 0.750000
O O6 0.669460 0.409279 0.608589
O O7 0.039455 0.750000 0.500000
O O8 0.170369 0.633409 0.439470
O O9 0.047845 0.574965 0.569948
O O10 0.005419 0.605033 0.382250
O O11 0.301421 0.750000 0.500000
O O12 0.284346 0.576088 0.581552
O O13 0.057590 0.518588 0.750000
O O14 0.165516 0.436145 0.880873
O O15 0.293120 0.018694 0.250000
#
# Coordination Sequence:
#
# PCOD8233751 Si02
#       6
#     8   8   8   8   8   8
#     4  10  21  37  55  75 101 133 168 203 243 292
#     4  10  21  35  52  77 105 131 164 205 246 290
#     4   9  18  32  51  72  99 133 166 204 250 297
#     4   9  18  33  51  75 103 131 164 203 249 298
#     4   9  18  32  49  72 101 131 166 207 248 292
#     4   9  18  33  52  73  99 132 168 205 246 293
#
# _framework density 17.713723000000002
#
# number of rings (size 3 to 8) (size 9 to 14) (size 15 to 20)
#    0.000    2.667    0.000    1.000    0.000    4.000 
#    0.000    3.333    0.000    0.000    0.000    0.000 
#    0.000    0.000    0.000    0.000    0.000    0.000 
#
# Total GULP energy -595258.397867 kJ/mol
# GULP energy per Si atom -12401.216622 kJ/mol
# Density = 1.767341 g / cm^3
# Si number density = 17.713723 Si / 1000 Ang^3
#
#
#
# Elastic Constant Matrix: (Units=GPa)
#
#
# Indices 1 2 3 4 5 6 
#
# 1 92.1413 52.1901 51.1600 0.0000 0.0000 0.0000
# 2 52.1901 120.9706 41.5923 0.0000 0.0000 0.0000
# 3 51.1600 41.5923 119.4408 0.0000 0.0000 0.0000
# 4 0.0000 0.0000 0.0000 13.3515 0.0000 0.0000
# 5 0.0000 0.0000 0.0000 0.0000 26.2381 0.0000
# 6 0.0000 0.0000 0.0000 0.0000 0.0000 27.8758
#
#
#
# Elastic Compliance Matrix: (Units=1/GPa)
#
#
# Indices 1 2 3 4 5 6 
#
# 1 0.016911 -0.005459 -0.005343 0.000000 0.000000 0.000000
# 2 -0.005459 0.011153 -0.001545 0.000000 0.000000 0.000000
# 3 -0.005343 -0.001545 0.011199 0.000000 0.000000 0.000000
# 4 0.000000 0.000000 0.000000 0.074898 0.000000 0.000000
# 5 0.000000 0.000000 0.000000 0.000000 0.038113 0.000000
# 6 0.000000 0.000000 0.000000 0.000000 0.000000 0.035873
#
#
# Mechanical properties :
#
#
# Convention : Reuss Voigt Hill
#
# Bulk Modulus (GPa) = 68.63931 69.15971 68.89951
# Shear Modulus (GPa) = 22.96757 26.00042 24.48399
#
# Velocity S-wave (km/s) = 3.60474 3.83536 3.72183
# Velocity P-wave (km/s) = 7.49392 7.66427 7.57958
#
# Compressibility (1/GPa) = 0.01456891
#
# Stress axis : x y z
#
# Youngs Moduli (GPa) = 59.13147 89.66138 89.29417
#
# Poissons Ratio (x) = 0.48948 0.47707
# Poissons Ratio (y) = 0.32281 0.13800
# Poissons Ratio (z) = 0.31592 0.13857
#
# Static dielectric constant tensor:
#      x y z
#    x 3.539210 0.000000 0.000000 
#    y 0.000000 3.164050 0.000000 
#    z 0.000000 0.000000 3.222790 
# 
# 
# High freq. dielectric constant tensor:
#      x y z
#    x 1.700450 0.000000 0.000000 
#    y 0.000000 1.675120 0.000000 
#    z 0.000000 0.000000 1.679140 
# 
# From -- ./inp_files/14109.got.cif
#   From: 2010.03.12/outbox.cif.g09.slc.cpg/sg57_8_cif.got.tgz:14109.got - 2010.04.16 15:48:40.
