data_PCOD8233482
_publ_section_title
;
Structure prediction by ZEFSAII (Michael W. Deem and Ramdas Pophale) SiO2 
 PCOD8233482
Probable space group: P B C M
;
_chemical_formula_sum "Si O2"
_cell_formula_units_Z 48
_cell_length_a 14.786251
_cell_length_b 18.708259
_cell_length_c 9.161782
_cell_angle_alpha 90.000000
_cell_angle_beta 90.000000
_cell_angle_gamma 90.000000
_cell_volume 2534.378068
_symmetry_space_group_name_H-M "P B C M"
_symmetry_group_IT_number 57
_symmetry_cell_setting 'orthorhombic'
loop_
_space_group_symop_operation_xyz
x,y,z
-x,-y,1/2+z
x,1/2-y,-z
-x,1/2+y,1/2-z
-x,-y,-z
x,y,1/2-z
-x,1/2+y,z
x,1/2-y,1/2+z
loop_
_atom_site_type_symbol
_atom_site_label
_atom_site_fract_x
_atom_site_fract_y
_atom_site_fract_z
Si Si1 0.719108 0.322651 0.420408
Si Si2 0.141272 0.580699 0.423426
Si Si3 0.379797 0.444672 0.579470
Si Si4 0.029107 0.175578 0.418447
Si Si5 0.544262 0.096620 0.916901
Si Si6 0.175216 0.060906 0.079153
O O1 0.746658 0.250000 0.500000
O O2 0.745323 0.318184 0.250000
O O3 0.771962 0.387015 0.495932
O O4 0.612179 0.337114 0.440419
O O5 0.156205 0.579229 0.250000
O O6 0.128242 0.500801 0.483778
O O7 0.054022 0.626369 0.469177
O O8 0.388366 0.433457 0.750000
O O9 0.403935 0.525126 0.530426
O O10 0.451846 0.390627 0.506076
O O11 0.278400 0.426939 0.527315
O O12 0.028244 0.250000 0.500000
O O13 0.019273 0.194011 0.250000
O O14 0.122170 0.134167 0.451549
O O15 0.515836 0.088620 0.750000
O O16 0.170450 0.039250 0.250000
#
# Coordination Sequence:
#
# PCOD8233482 Si02
#       6
#     8   8   8   8   8   8
#     4  11  22  37  55  80 115 153 189 231 285 339
#     4  11  22  36  57  87 113 145 189 233 282 336
#     4   9  17  32  55  80 106 140 179 222 275 323
#     4  10  23  40  58  81 113 150 188 229 281 337
#     4   9  18  33  52  77 108 143 180 222 274 326
#     4  10  20  38  60  84 113 147 186 234 283 332
#
# _framework density 18.939558000000002
#
# number of rings (size 3 to 8) (size 9 to 14) (size 15 to 20)
#    0.000    2.000    1.667    2.000    0.000    5.333 
#    0.000    0.833    0.000    4.000    0.000    0.000 
#    0.000    0.000    0.000    0.000    0.000    0.000 
#
# Total GULP energy -595286.430634 kJ/mol
# GULP energy per Si atom -12401.800638 kJ/mol
# Density = 1.889645 g / cm^3
# Si number density = 18.939558 Si / 1000 Ang^3
#
#
#
# Elastic Constant Matrix: (Units=GPa)
#
#
# Indices 1 2 3 4 5 6 
#
# 1 132.3962 41.0603 49.6378 0.0000 0.0000 0.0000
# 2 41.0603 61.1597 40.0458 0.0000 0.0000 0.0000
# 3 49.6378 40.0458 72.5394 0.0000 0.0000 0.0000
# 4 0.0000 0.0000 0.0000 31.8937 0.0000 0.0000
# 5 0.0000 0.0000 0.0000 0.0000 29.1377 0.0000
# 6 0.0000 0.0000 0.0000 0.0000 0.0000 22.8711
#
#
#
# Elastic Compliance Matrix: (Units=1/GPa)
#
#
# Indices 1 2 3 4 5 6 
#
# 1 0.010678 -0.003734 -0.005245 0.000000 0.000000 0.000000
# 2 -0.003734 0.026913 -0.012302 0.000000 0.000000 0.000000
# 3 -0.005245 -0.012302 0.024166 0.000000 0.000000 0.000000
# 4 0.000000 0.000000 0.000000 0.031354 0.000000 0.000000
# 5 0.000000 0.000000 0.000000 0.000000 0.034320 0.000000
# 6 0.000000 0.000000 0.000000 0.000000 0.000000 0.043723
#
#
# Mechanical properties :
#
#
# Convention : Reuss Voigt Hill
#
# Bulk Modulus (GPa) = 52.10003 58.62035 55.36019
# Shear Modulus (GPa) = 22.71547 25.80394 24.25971
#
# Velocity S-wave (km/s) = 3.46694 3.69512 3.58285
# Velocity P-wave (km/s) = 6.60262 7.01596 6.81243
#
# Compressibility (1/GPa) = 0.01919385
#
# Stress axis : x y z
#
# Youngs Moduli (GPa) = 93.65331 37.15716 41.38021
#
# Poissons Ratio (x) = 0.13875 0.21704
# Poissons Ratio (y) = 0.34972 0.50906
# Poissons Ratio (z) = 0.49122 0.45711
#
# Static dielectric constant tensor:
#      x y z
#    x 3.646450 0.000000 0.000000 
#    y 0.000000 3.256490 0.000000 
#    z 0.000000 0.000000 3.424820 
# 
# 
# High freq. dielectric constant tensor:
#      x y z
#    x 1.746240 0.000000 0.000000 
#    y 0.000000 1.715960 0.000000 
#    z 0.000000 0.000000 1.734660 
# 
# From -- ./inp_files/4530.got.cif
#   From: 2010.03.12/outbox.cif.g09.slc.cpg/sg57_3_cif.got.tgz:4530.got - 2010.04.16 15:48:40.
