data_PCOD8233225
_publ_section_title
;
Structure prediction by ZEFSAII (Michael W. Deem and Ramdas Pophale) SiO2 
 PCOD8233225
Probable space group: P B C M
;
_chemical_formula_sum "Si O2"
_cell_formula_units_Z 64
_cell_length_a 23.681075
_cell_length_b 15.117802
_cell_length_c 8.847745
_cell_angle_alpha 90.000000
_cell_angle_beta 90.000000
_cell_angle_gamma 90.000000
_cell_volume 3167.544053
_symmetry_space_group_name_H-M "P B C M"
_symmetry_group_IT_number 57
_symmetry_cell_setting 'orthorhombic'
loop_
_space_group_symop_operation_xyz
x,y,z
-x,-y,1/2+z
x,1/2-y,-z
-x,1/2+y,1/2-z
-x,-y,-z
x,y,1/2-z
-x,1/2+y,z
x,1/2-y,1/2+z
loop_
_atom_site_type_symbol
_atom_site_label
_atom_site_fract_x
_atom_site_fract_y
_atom_site_fract_z
Si Si1 0.620584 0.608188 0.071889
Si Si2 0.497927 0.660315 0.074518
Si Si3 0.730209 0.834941 0.073121
Si Si4 0.921121 0.490138 0.073730
Si Si5 0.209089 0.005179 0.423644
Si Si6 0.284342 0.663551 0.926061
Si Si7 0.383001 0.572629 0.426474
Si Si8 0.999290 0.349198 0.928753
O O1 0.625347 0.621391 0.250000
O O2 0.558103 0.629582 0.007310
O O3 0.666223 0.668508 0.989534
O O4 0.636067 0.508480 0.029659
O O5 0.505004 0.677696 0.250000
O O6 0.449111 0.589583 0.041228
O O7 0.477516 0.750000 0.000000
O O8 0.728630 0.824433 0.250000
O O9 0.761572 0.750000 0.000000
O O10 0.763518 0.922393 0.030564
O O11 0.931523 0.472472 0.250000
O O12 0.855789 0.495318 0.031367
O O13 0.948495 0.585261 0.027162
O O14 0.944835 0.404049 0.986074
O O15 0.216396 0.034908 0.250000
O O16 0.239910 0.913560 0.455821
O O17 0.297450 0.676513 0.750000
O O18 0.255989 0.750000 0.000000
O O19 0.343255 0.651426 0.016606
O O20 0.372514 0.553168 0.250000
O O21 0.995059 0.335281 0.750000
O O22 0.005027 0.250000 0.000000
#
# Coordination Sequence:
#
# PCOD8233225 Si02
#       8
#     8   8   8   8   8   8   8   8
#     4  11  22  39  60  84 114 150 194 244 304 366
#     4  10  23  38  55  81 112 146 189 242 298 364
#     4  12  25  41  63  89 120 159 203 252 305 366
#     4   9  20  39  62  90 125 165 207 254 303 353
#     4  10  22  42  64  89 124 162 205 255 305 357
#     4  11  23  39  61  86 118 158 201 251 305 364
#     4  11  22  38  59  85 114 148 194 244 303 368
#     4  10  20  36  61  92 128 167 207 251 301 354
#
# _framework density 20.204927999999999
#
# number of rings (size 3 to 8) (size 9 to 14) (size 15 to 20)
#    0.000    1.500    1.250    3.750    0.000    6.500 
#    0.000    2.500    0.000    0.000    0.000    0.000 
#    0.000    0.000    0.000    0.000    0.000    0.000 
#
# Total GULP energy -793591.566908 kJ/mol
# GULP energy per Si atom -12399.868233 kJ/mol
# Density = 2.015894 g / cm^3
# Si number density = 20.204928 Si / 1000 Ang^3
#
#
#
# Elastic Constant Matrix: (Units=GPa)
#
#
# Indices 1 2 3 4 5 6 
#
# 1 122.8242 40.7258 50.0290 0.0000 0.0000 0.0000
# 2 40.7258 133.2603 56.8405 0.0000 0.0000 0.0000
# 3 50.0290 56.8405 102.9290 0.0000 0.0000 0.0000
# 4 0.0000 0.0000 0.0000 36.7020 0.0000 0.0000
# 5 0.0000 0.0000 0.0000 0.0000 18.5040 0.0000
# 6 0.0000 0.0000 0.0000 0.0000 0.0000 -0.9873
#
#
#
# Elastic Compliance Matrix: (Units=1/GPa)
#
#
# Indices 1 2 3 4 5 6 
#
# 1 0.010328 -0.001328 -0.004287 0.000000 0.000000 0.000000
# 2 -0.001328 0.009987 -0.004870 0.000000 0.000000 0.000000
# 3 -0.004287 -0.004870 0.014488 0.000000 0.000000 0.000000
# 4 0.000000 0.000000 0.000000 0.027246 0.000000 0.000000
# 5 0.000000 0.000000 0.000000 0.000000 0.054042 0.000000
# 6 0.000000 0.000000 0.000000 0.000000 0.000000 -1.012868
#
#
# Mechanical properties :
#
#
# Convention : Reuss Voigt Hill
#
# Bulk Modulus (GPa) = 72.28210 72.68936 72.48573
# Shear Modulus (GPa) = -5.73924 24.93827 9.59952
#
# Velocity S-wave (km/s) = -1.68721 3.51702 2.18206
# Velocity P-wave (km/s) = 5.66185 7.24892 6.50397
#
# Compressibility (1/GPa) = 0.01383468
#
# Stress axis : x y z
#
# Youngs Moduli (GPa) = 96.82325 100.12962 69.02179
#
# Poissons Ratio (x) = 0.13297 0.29587
# Poissons Ratio (y) = 0.12858 0.33612
# Poissons Ratio (z) = 0.41505 0.48760
#
# Static dielectric constant tensor:
#      x y z
#    x 3.747100 0.000000 0.000000 
#    y 0.000000 3.767600 0.000000 
#    z 0.000000 0.000000 3.602900 
# 
# 
# High freq. dielectric constant tensor:
#      x y z
#    x 1.785370 0.000000 0.000000 
#    y 0.000000 1.800750 0.000000 
#    z 0.000000 0.000000 1.791240 
# 
# From -- ./inp_files/9283.got.cif
#   From: 2010.03.12/outbox.cif.g09.slc.cpg/sg57_5_cif.got.tgz:9283.got - 2010.04.16 15:48:40.
