data_PCOD8233214
_publ_section_title
;
Structure prediction by ZEFSAII (Michael W. Deem and Ramdas Pophale) SiO2 
 PCOD8233214
Probable space group: P B C M
;
_chemical_formula_sum "Si O2"
_cell_formula_units_Z 64
_cell_length_a 9.598789
_cell_length_b 21.486787
_cell_length_c 14.577014
_cell_angle_alpha 90.000000
_cell_angle_beta 90.000000
_cell_angle_gamma 90.000000
_cell_volume 3006.467370
_symmetry_space_group_name_H-M "P B C M"
_symmetry_group_IT_number 57
_symmetry_cell_setting 'orthorhombic'
loop_
_space_group_symop_operation_xyz
x,y,z
-x,-y,1/2+z
x,1/2-y,-z
-x,1/2+y,1/2-z
-x,-y,-z
x,y,1/2-z
-x,1/2+y,z
x,1/2-y,1/2+z
loop_
_atom_site_type_symbol
_atom_site_label
_atom_site_fract_x
_atom_site_fract_y
_atom_site_fract_z
Si Si1 0.644024 0.567707 0.851564
Si Si2 0.204011 0.945522 0.854216
Si Si3 0.559619 0.358032 0.851382
Si Si4 0.008303 0.636398 0.043581
Si Si5 0.662786 0.482409 0.354293
Si Si6 0.771901 0.262179 0.600309
Si Si7 0.699978 0.890396 0.957392
Si Si8 0.132986 0.869657 0.351987
O O1 0.645272 0.599705 0.750000
O O2 0.771781 0.518929 0.857597
O O3 0.499189 0.532280 0.866540
O O4 0.671001 0.615798 0.933447
O O5 0.180766 0.922063 0.750000
O O6 0.340209 0.910641 0.895795
O O7 0.068844 0.927468 0.913405
O O8 0.512676 0.378976 0.750000
O O9 0.648217 0.294958 0.844508
O O10 0.420375 0.350229 0.910052
O O11 0.088734 0.695151 0.088279
O O12 0.846005 0.641896 0.067825
O O13 0.018980 0.631967 0.932697
O O14 0.693985 0.503870 0.250000
O O15 0.701211 0.537766 0.424080
O O16 0.751048 0.420826 0.378380
O O17 0.710627 0.250000 0.500000
O O18 0.800149 0.198771 0.653909
O O19 0.069539 0.883912 0.250000
#
# Coordination Sequence:
#
# PCOD8233214 Si02
#       8
#     8   8   8   8   8   8   8   8
#     4  10  21  35  54  85 124 164 200 241 297 361
#     4   9  18  35  57  81 117 161 202 241 285 349
#     4  10  20  36  61  90 117 151 201 253 299 349
#     4  10  23  38  56  91 122 156 203 246 299 358
#     4  10  21  36  59  93 125 154 196 248 306 361
#     4   9  20  40  66  86 112 155 209 254 290 352
#     4  12  23  35  60  91 130 160 190 249 313 361
#     4  10  21  39  65  86 116 160 205 247 290 355
#
# _framework density 21.287441999999999
#
# number of rings (size 3 to 8) (size 9 to 14) (size 15 to 20)
#    0.000    2.000    1.250    1.875    5.250    4.000 
#    0.000    4.375    0.000    0.000    0.000    0.000 
#    0.000    0.000    0.000    0.000    0.000    0.000 
#
# Total GULP energy -793383.050144 kJ/mol
# GULP energy per Si atom -12396.610158 kJ/mol
# Density = 2.123899 g / cm^3
# Si number density = 21.287442 Si / 1000 Ang^3
#
#
#
# Elastic Constant Matrix: (Units=GPa)
#
#
# Indices 1 2 3 4 5 6 
#
# 1 123.4761 27.1337 44.8553 0.0000 0.0000 0.0000
# 2 27.1337 59.3534 12.9519 0.0000 0.0000 0.0000
# 3 44.8553 12.9519 100.8672 0.0000 0.0000 0.0000
# 4 0.0000 0.0000 0.0000 19.6404 0.0000 0.0000
# 5 0.0000 0.0000 0.0000 0.0000 19.6931 0.0000
# 6 0.0000 0.0000 0.0000 0.0000 0.0000 14.8585
#
#
#
# Elastic Compliance Matrix: (Units=1/GPa)
#
#
# Indices 1 2 3 4 5 6 
#
# 1 0.010459 -0.003875 -0.004154 0.000000 0.000000 0.000000
# 2 -0.003875 0.018770 -0.000687 0.000000 0.000000 0.000000
# 3 -0.004154 -0.000687 0.011849 0.000000 0.000000 0.000000
# 4 0.000000 0.000000 0.000000 0.050915 0.000000 0.000000
# 5 0.000000 0.000000 0.000000 0.000000 0.050779 0.000000
# 6 0.000000 0.000000 0.000000 0.000000 0.000000 0.067302
#
#
# Mechanical properties :
#
#
# Convention : Reuss Voigt Hill
#
# Bulk Modulus (GPa) = 42.28861 50.39760 46.34310
# Shear Modulus (GPa) = 21.24155 24.08878 22.66517
#
# Velocity S-wave (km/s) = 3.16229 3.36757 3.26654
# Velocity P-wave (km/s) = 5.76560 6.23273 6.00371
#
# Compressibility (1/GPa) = 0.02364703
#
# Stress axis : x y z
#
# Youngs Moduli (GPa) = 95.61013 53.27752 84.39316
#
# Poissons Ratio (x) = 0.20645 0.35053
# Poissons Ratio (y) = 0.37050 0.05797
# Poissons Ratio (z) = 0.39712 0.03660
#
# Static dielectric constant tensor:
#      x y z
#    x 3.588090 0.000000 0.000000 
#    y 0.000000 3.609080 0.000000 
#    z 0.000000 0.000000 4.040430 
# 
# 
# High freq. dielectric constant tensor:
#      x y z
#    x 1.816140 0.000000 0.000000 
#    y 0.000000 1.805210 0.000000 
#    z 0.000000 0.000000 1.850850 
# 
# From -- ./inp_files/16925.got.cif
#   From: 2010.03.12/outbox.cif.g09.slc.cpg/sg57_9_cif.got.tgz:16925.got - 2010.04.16 15:48:40.
