data_PCOD8233615
_publ_section_title
;
Structure prediction by ZEFSAII (Michael W. Deem and Ramdas Pophale) SiO2 
 PCOD8233615
Probable space group: P B C M
;
_chemical_formula_sum "Si O2"
_cell_formula_units_Z 48
_cell_length_a 15.092866
_cell_length_b 9.473350
_cell_length_c 16.991218
_cell_angle_alpha 90.000000
_cell_angle_beta 90.000000
_cell_angle_gamma 90.000000
_cell_volume 2429.404386
_symmetry_space_group_name_H-M "P B C M"
_symmetry_group_IT_number 57
_symmetry_cell_setting 'orthorhombic'
loop_
_space_group_symop_operation_xyz
x,y,z
-x,-y,1/2+z
x,1/2-y,-z
-x,1/2+y,1/2-z
-x,-y,-z
x,y,1/2-z
-x,1/2+y,z
x,1/2-y,1/2+z
loop_
_atom_site_type_symbol
_atom_site_label
_atom_site_fract_x
_atom_site_fract_y
_atom_site_fract_z
Si Si1 0.410664 0.369599 0.937601
Si Si2 0.247861 0.215169 0.341934
Si Si3 0.389922 0.617459 0.448739
Si Si4 0.080259 0.461580 0.842797
Si Si5 0.924017 0.223728 0.092170
Si Si6 0.233602 0.533785 0.343720
O O1 0.345396 0.336501 0.865941
O O2 0.512458 0.379693 0.909070
O O3 0.379369 0.993615 0.017830
O O4 0.401184 0.250000 0.000000
O O5 0.250025 0.228005 0.250000
O O6 0.222599 0.371721 0.373934
O O7 0.175961 0.099104 0.368719
O O8 0.363022 0.750000 0.500000
O O9 0.326238 0.593614 0.375136
O O10 0.062853 0.443565 0.750000
O O11 0.072914 0.626092 0.863851
O O12 0.011072 0.366571 0.890079
O O13 0.842721 0.130431 0.121279
O O14 0.915482 0.250000 0.000000
O O15 0.232726 0.545382 0.250000
#
# Coordination Sequence:
#
# PCOD8233615 Si02
#       6
#     8   8   8   8   8   8
#     4  10  20  39  63  87 122 163 206 258 314 366
#     4  10  23  40  63  90 122 166 211 255 310 372
#     4  10  22  38  61  92 122 163 208 257 314 371
#     4  11  24  44  66  92 127 166 207 255 316 376
#     4  12  26  43  66  97 127 163 210 263 309 377
#     4  11  23  41  62  89 126 168 208 257 318 374
#
# _framework density 19.757930000000002
#
# number of rings (size 3 to 8) (size 9 to 14) (size 15 to 20)
#    0.000    1.333    1.667    3.500    4.667    2.667 
#    0.000    0.000    0.000    0.000    0.000    0.000 
#    0.000    0.000    0.000    0.000    0.000    0.000 
#
# Total GULP energy -595062.358784 kJ/mol
# GULP energy per Si atom -12397.132475 kJ/mol
# Density = 1.971296 g / cm^3
# Si number density = 19.757930 Si / 1000 Ang^3
#
#
#
# Elastic Constant Matrix: (Units=GPa)
#
#
# Indices 1 2 3 4 5 6 
#
# 1 128.4350 53.0048 41.6025 0.0000 0.0000 0.0000
# 2 53.0048 151.1652 28.6848 0.0000 0.0000 0.0000
# 3 41.6025 28.6848 69.3212 0.0000 0.0000 0.0000
# 4 0.0000 0.0000 0.0000 35.0875 0.0000 0.0000
# 5 0.0000 0.0000 0.0000 0.0000 34.0888 0.0000
# 6 0.0000 0.0000 0.0000 0.0000 0.0000 38.8260
#
#
#
# Elastic Compliance Matrix: (Units=1/GPa)
#
#
# Indices 1 2 3 4 5 6 
#
# 1 0.010608 -0.002725 -0.005238 0.000000 0.000000 0.000000
# 2 -0.002725 0.007879 -0.001625 0.000000 0.000000 0.000000
# 3 -0.005238 -0.001625 0.018242 0.000000 0.000000 0.000000
# 4 0.000000 0.000000 0.000000 0.028500 0.000000 0.000000
# 5 0.000000 0.000000 0.000000 0.000000 0.029335 0.000000
# 6 0.000000 0.000000 0.000000 0.000000 0.000000 0.025756
#
#
# Mechanical properties :
#
#
# Convention : Reuss Voigt Hill
#
# Bulk Modulus (GPa) = 56.97514 66.16730 61.57122
# Shear Modulus (GPa) = 34.40038 36.64241 35.52140
#
# Velocity S-wave (km/s) = 4.17717 4.31114 4.24468
# Velocity P-wave (km/s) = 7.22248 7.63825 7.43327
#
# Compressibility (1/GPa) = 0.01755151
#
# Stress axis : x y z
#
# Youngs Moduli (GPa) = 94.27200 126.91572 54.81968
#
# Poissons Ratio (x) = 0.34590 0.28716
# Poissons Ratio (y) = 0.25693 0.08907
# Poissons Ratio (z) = 0.49382 0.20621
#
# Static dielectric constant tensor:
#      x y z
#    x 3.626390 0.000000 0.000000 
#    y 0.000000 4.002560 0.000000 
#    z 0.000000 0.000000 3.459120 
# 
# 
# High freq. dielectric constant tensor:
#      x y z
#    x 1.782170 0.000000 0.000000 
#    y 0.000000 1.796430 0.000000 
#    z 0.000000 0.000000 1.762680 
# 
# From -- ./inp_files/22487.got.cif
#   From: 2010.03.12/outbox.cif.g09.slc.cpg/sg57_12_cif.got.tgz:22487.got - 2010.04.16 15:48:40.
