data_PCOD8233562
_publ_section_title
;
Structure prediction by ZEFSAII (Michael W. Deem and Ramdas Pophale) SiO2 
 PCOD8233562
Probable space group: P B C M
;
_chemical_formula_sum "Si O2"
_cell_formula_units_Z 40
_cell_length_a 8.987493
_cell_length_b 8.739432
_cell_length_c 22.334361
_cell_angle_alpha 90.000000
_cell_angle_beta 90.000000
_cell_angle_gamma 90.000000
_cell_volume 1754.265426
_symmetry_space_group_name_H-M "P B C M"
_symmetry_group_IT_number 57
_symmetry_cell_setting 'orthorhombic'
loop_
_space_group_symop_operation_xyz
x,y,z
-x,-y,1/2+z
x,1/2-y,-z
-x,1/2+y,1/2-z
-x,-y,-z
x,y,1/2-z
-x,1/2+y,z
x,1/2-y,1/2+z
loop_
_atom_site_type_symbol
_atom_site_label
_atom_site_fract_x
_atom_site_fract_y
_atom_site_fract_z
Si Si1 0.904070 0.218459 0.619331
Si Si2 0.222801 0.420000 0.750000
Si Si3 0.021780 0.801876 0.250000
Si Si4 0.413407 0.181669 0.558678
Si Si5 0.654956 0.984222 0.876343
Si Si6 0.118650 0.474722 0.052081
O O1 0.904142 0.264196 0.689338
O O2 0.851348 0.367026 0.584971
O O3 0.795682 0.079925 0.601218
O O4 0.064396 0.156887 0.598248
O O5 0.065591 0.517254 0.750000
O O6 0.330368 0.461083 0.694979
O O7 0.155279 0.245345 0.750000
O O8 0.500532 0.250000 0.500000
O O9 0.343945 0.316694 0.597041
O O10 0.509373 0.077792 0.603395
O O11 0.279601 0.081445 0.529245
O O12 0.000000 0.500000 0.000000
#
# Coordination Sequence:
#
# PCOD8233562 Si02
#       6
#     8   4   4   8   8   8
#     4  11  22  40  64  96 128 168 220 272 329 393
#     4  10  22  42  68 100 134 172 222 274 332 394
#     4  10  20  38  64  92 128 168 210 268 322 384
#     4  12  25  44  65  93 133 178 219 271 333 398
#     4  11  25  43  66  96 133 175 220 272 333 399
#     4  12  24  40  65  96 130 170 220 276 330 393
#
# _framework density 22.801566999999999
#
# number of rings (size 3 to 8) (size 9 to 14) (size 15 to 20)
#    0.000    0.800    0.000    9.600    0.000    2.400 
#    0.000    4.000    0.000    0.000    0.000    0.000 
#    0.000    0.000    0.000    0.000    0.000    0.000 
#
# Total GULP energy -495749.802789 kJ/mol
# GULP energy per Si atom -12393.745070 kJ/mol
# Density = 2.274967 g / cm^3
# Si number density = 22.801567 Si / 1000 Ang^3
#
#
#
# Elastic Constant Matrix: (Units=GPa)
#
#
# Indices 1 2 3 4 5 6 
#
# 1 102.8695 28.4507 45.3280 0.0000 0.0000 0.0000
# 2 28.4507 96.6550 45.0843 0.0000 0.0000 0.0000
# 3 45.3280 45.0843 141.9704 0.0000 0.0000 0.0000
# 4 0.0000 0.0000 0.0000 34.2389 0.0000 0.0000
# 5 0.0000 0.0000 0.0000 0.0000 31.4715 0.0000
# 6 0.0000 0.0000 0.0000 0.0000 0.0000 42.6808
#
#
#
# Elastic Compliance Matrix: (Units=1/GPa)
#
#
# Indices 1 2 3 4 5 6 
#
# 1 0.011628 -0.001985 -0.003082 0.000000 0.000000 0.000000
# 2 -0.001985 0.012484 -0.003331 0.000000 0.000000 0.000000
# 3 -0.003082 -0.003331 0.009085 0.000000 0.000000 0.000000
# 4 0.000000 0.000000 0.000000 0.029207 0.000000 0.000000
# 5 0.000000 0.000000 0.000000 0.000000 0.031775 0.000000
# 6 0.000000 0.000000 0.000000 0.000000 0.000000 0.023430
#
#
# Mechanical properties :
#
#
# Convention : Reuss Voigt Hill
#
# Bulk Modulus (GPa) = 60.96915 64.35786 62.66351
# Shear Modulus (GPa) = 35.74699 36.52037 36.13368
#
# Velocity S-wave (km/s) = 3.96377 4.00642 3.98515
# Velocity P-wave (km/s) = 6.90983 7.04899 6.97976
#
# Compressibility (1/GPa) = 0.01640174
#
# Stress axis : x y z
#
# Youngs Moduli (GPa) = 85.99773 80.10289 110.06572
#
# Poissons Ratio (x) = 0.15901 0.33925
# Poissons Ratio (y) = 0.17071 0.36659
# Poissons Ratio (z) = 0.26507 0.26679
#
# Static dielectric constant tensor:
#      x y z
#    x 3.956980 0.000000 0.000000 
#    y 0.000000 4.289000 0.000000 
#    z 0.000000 0.000000 4.357970 
# 
# 
# High freq. dielectric constant tensor:
#      x y z
#    x 1.877480 0.000000 0.000000 
#    y 0.000000 1.915690 0.000000 
#    z 0.000000 0.000000 1.916200 
# 
# From -- ./inp_files/26552.got.cif
#   From: 2010.03.12/outbox.cif.g09.slc.cpg/sg57_14_cif.got.tgz:26552.got - 2010.04.16 15:48:40.
