data_PCOD8233317
_publ_section_title
;
Structure prediction by ZEFSAII (Michael W. Deem and Ramdas Pophale) SiO2 
 PCOD8233317
Probable space group: P B C M
;
_chemical_formula_sum "Si O2"
_cell_formula_units_Z 48
_cell_length_a 9.436020
_cell_length_b 30.425329
_cell_length_c 8.344635
_cell_angle_alpha 90.000000
_cell_angle_beta 90.000000
_cell_angle_gamma 90.000000
_cell_volume 2395.694749
_symmetry_space_group_name_H-M "P B C M"
_symmetry_group_IT_number 57
_symmetry_cell_setting 'orthorhombic'
loop_
_space_group_symop_operation_xyz
x,y,z
-x,-y,1/2+z
x,1/2-y,-z
-x,1/2+y,1/2-z
-x,-y,-z
x,y,1/2-z
-x,1/2+y,z
x,1/2-y,1/2+z
loop_
_atom_site_type_symbol
_atom_site_label
_atom_site_fract_x
_atom_site_fract_y
_atom_site_fract_z
Si Si1 0.654543 0.044119 0.064140
Si Si2 0.663836 0.201933 0.438685
Si Si3 0.333507 0.048286 0.065112
Si Si4 0.163245 0.877615 0.062584
Si Si5 0.647491 0.797387 0.058901
Si Si6 0.153778 0.374530 0.063925
O O1 0.653339 0.031428 0.250000
O O2 0.495215 0.056009 0.007846
O O3 0.754755 0.085096 0.034088
O O4 0.711443 0.002063 0.966653
O O5 0.704949 0.250000 0.500000
O O6 0.688708 0.197855 0.250000
O O7 0.765252 0.169042 0.532587
O O8 0.501900 0.190744 0.479031
O O9 0.312898 0.059935 0.250000
O O10 0.232710 0.079765 0.964378
O O11 0.166657 0.889206 0.250000
O O12 0.004056 0.876141 0.991115
O O13 0.629569 0.797720 0.250000
O O14 0.757936 0.833524 0.992773
O O15 0.701967 0.750000 0.000000
O O16 0.138185 0.365798 0.250000
#
# Coordination Sequence:
#
# PCOD8233317 Si02
#       6
#     8   8   8   8   8   8
#     4  10  21  38  60  86 113 145 187 232 279 332
#     4  11  22  38  60  86 113 146 188 232 279 330
#     4  10  21  37  60  86 111 144 187 234 281 330
#     4  11  23  39  57  82 116 152 188 228 278 333
#     4  10  20  37  60  85 112 145 186 232 279 327
#     4  10  23  39  56  81 115 152 187 227 278 335
#
# _framework density 20.035941000000001
#
# number of rings (size 3 to 8) (size 9 to 14) (size 15 to 20)
#    0.000    1.667    0.000    5.500    0.000    8.667 
#    0.000    1.667    0.000    0.000    0.000    0.000 
#    0.000    0.000    0.000    0.000    0.000    0.000 
#
# Total GULP energy -595427.567739 kJ/mol
# GULP energy per Si atom -12404.740995 kJ/mol
# Density = 1.999034 g / cm^3
# Si number density = 20.035941 Si / 1000 Ang^3
#
#
#
# Elastic Constant Matrix: (Units=GPa)
#
#
# Indices 1 2 3 4 5 6 
#
# 1 121.9566 82.2783 2.4822 0.0000 0.0000 0.0000
# 2 82.2783 126.4149 -0.7398 0.0000 0.0000 0.0000
# 3 2.4822 -0.7398 39.9106 0.0000 0.0000 0.0000
# 4 0.0000 0.0000 0.0000 36.9641 0.0000 0.0000
# 5 0.0000 0.0000 0.0000 0.0000 24.8859 0.0000
# 6 0.0000 0.0000 0.0000 0.0000 0.0000 0.4254
#
#
#
# Elastic Compliance Matrix: (Units=1/GPa)
#
#
# Indices 1 2 3 4 5 6 
#
# 1 0.014666 -0.009552 -0.001089 0.000000 0.000000 0.000000
# 2 -0.009552 0.014132 0.000856 0.000000 0.000000 0.000000
# 3 -0.001089 0.000856 0.025140 0.000000 0.000000 0.000000
# 4 0.000000 0.000000 0.000000 0.027053 0.000000 0.000000
# 5 0.000000 0.000000 0.000000 0.000000 0.040183 0.000000
# 6 0.000000 0.000000 0.000000 0.000000 0.000000 2.350513
#
#
# Mechanical properties :
#
#
# Convention : Reuss Voigt Hill
#
# Bulk Modulus (GPa) = 29.09688 50.70261 39.89975
# Shear Modulus (GPa) = 1.99783 26.07251 14.03517
#
# Velocity S-wave (km/s) = 0.99964 3.61125 2.64957
# Velocity P-wave (km/s) = 3.98576 6.53827 5.41457
#
# Compressibility (1/GPa) = 0.03436794
#
# Stress axis : x y z
#
# Youngs Moduli (GPa) = 68.18496 70.75945 39.77785
#
# Poissons Ratio (x) = 0.67588 0.04333
# Poissons Ratio (y) = 0.65129 -0.03405
# Poissons Ratio (z) = 0.07427 -0.06057
#
# Static dielectric constant tensor:
#      x y z
#    x 3.776590 0.000000 0.000000 
#    y 0.000000 3.692420 0.000000 
#    z 0.000000 0.000000 3.567780 
# 
# 
# High freq. dielectric constant tensor:
#      x y z
#    x 1.777900 0.000000 0.000000 
#    y 0.000000 1.793040 0.000000 
#    z 0.000000 0.000000 1.784500 
# 
# From -- ./inp_files/1975.got.cif
#   From: 2010.03.12/outbox.cif.g09.slc.cpg/sg57_1_cif.got.tgz:1975.got - 2010.04.16 15:48:40.
