data_PCOD8233114
_publ_section_title
;
Structure prediction by ZEFSAII (Michael W. Deem and Ramdas Pophale) SiO2 
 PCOD8233114
Probable space group: P B C M
;
_chemical_formula_sum "Si O2"
_cell_formula_units_Z 64
_cell_length_a 20.815246
_cell_length_b 18.639555
_cell_length_c 8.864449
_cell_angle_alpha 90.000000
_cell_angle_beta 90.000000
_cell_angle_gamma 90.000000
_cell_volume 3439.290289
_symmetry_space_group_name_H-M "P B C M"
_symmetry_group_IT_number 57
_symmetry_cell_setting 'orthorhombic'
loop_
_space_group_symop_operation_xyz
x,y,z
-x,-y,1/2+z
x,1/2-y,-z
-x,1/2+y,1/2-z
-x,-y,-z
x,y,1/2-z
-x,1/2+y,z
x,1/2-y,1/2+z
loop_
_atom_site_type_symbol
_atom_site_label
_atom_site_fract_x
_atom_site_fract_y
_atom_site_fract_z
Si Si1 0.818118 0.031513 0.074736
Si Si2 0.504351 0.576739 0.072337
Si Si3 0.392432 0.678167 0.427219
Si Si4 0.247845 0.677132 0.072317
Si Si5 0.115916 0.325739 0.072493
Si Si6 0.061723 0.463824 0.571423
Si Si7 0.623108 0.827791 0.572183
Si Si8 0.746642 0.889647 0.422022
O O1 0.839875 0.030080 0.250000
O O2 0.794364 0.109449 0.022104
O O3 0.760884 0.973936 0.051938
O O4 0.877619 0.013043 0.969164
O O5 0.509408 0.568161 0.250000
O O6 0.438465 0.614351 0.021537
O O7 0.565421 0.621817 0.012155
O O8 0.500000 0.500000 0.000000
O O9 0.420412 0.750000 0.500000
O O10 0.393774 0.688579 0.250000
O O11 0.320325 0.663031 0.485800
O O12 0.246370 0.686408 0.250000
O O13 0.219620 0.750000 0.000000
O O14 0.102390 0.324516 0.250000
O O15 0.189935 0.344227 0.038008
O O16 0.098217 0.250000 0.000000
O O17 0.069807 0.384611 0.997409
O O18 0.054181 0.458100 0.750000
O O19 0.000000 0.500000 0.500000
O O20 0.616719 0.750000 0.500000
O O21 0.619436 0.817971 0.750000
O O22 0.690332 0.864879 0.531430
O O23 0.725414 0.875314 0.250000
#
# Coordination Sequence:
#
# PCOD8233114 Si02
#       8
#     8   8   8   8   8   8   8   8
#     4   9  19  36  57  82 111 145 185 225 274 330
#     4  10  23  38  53  75 103 137 180 226 273 327
#     4   9  18  34  55  76 100 135 177 221 272 328
#     4   9  18  33  55  81 108 139 178 226 277 330
#     4  10  20  36  58  86 117 149 189 230 275 329
#     4  11  22  38  60  85 115 152 190 230 275 323
#     4  11  23  37  53  78 108 141 180 224 273 328
#     4   9  19  34  56  82 109 146 183 223 274 328
#
# _framework density 18.60849
#
# number of rings (size 3 to 8) (size 9 to 14) (size 15 to 20)
#    0.000    2.250    0.000    3.375    1.750    5.500 
#    0.000    0.625    0.000    1.500    0.000    0.000 
#    0.000    0.000    0.000    0.000    0.000    0.000 
#
# Total GULP energy -793704.854742 kJ/mol
# GULP energy per Si atom -12401.638355 kJ/mol
# Density = 1.856614 g / cm^3
# Si number density = 18.608490 Si / 1000 Ang^3
#
#
#
# Elastic Constant Matrix: (Units=GPa)
#
#
# Indices 1 2 3 4 5 6 
#
# 1 87.6491 71.9992 43.2984 0.0000 0.0000 0.0000
# 2 71.9992 179.5499 55.5158 0.0000 0.0000 0.0000
# 3 43.2984 55.5158 74.4755 0.0000 0.0000 0.0000
# 4 0.0000 0.0000 0.0000 36.3325 0.0000 0.0000
# 5 0.0000 0.0000 0.0000 0.0000 28.9122 0.0000
# 6 0.0000 0.0000 0.0000 0.0000 0.0000 76.7890
#
#
#
# Elastic Compliance Matrix: (Units=1/GPa)
#
#
# Indices 1 2 3 4 5 6 
#
# 1 0.019586 -0.005631 -0.007190 0.000000 0.000000 0.000000
# 2 -0.005631 0.008857 -0.003328 0.000000 0.000000 0.000000
# 3 -0.007190 -0.003328 0.020088 0.000000 0.000000 0.000000
# 4 0.000000 0.000000 0.000000 0.027524 0.000000 0.000000
# 5 0.000000 0.000000 0.000000 0.000000 0.034588 0.000000
# 6 0.000000 0.000000 0.000000 0.000000 0.000000 0.013023
#
#
# Mechanical properties :
#
#
# Convention : Reuss Voigt Hill
#
# Bulk Modulus (GPa) = 61.60142 75.92238 68.76190
# Shear Modulus (GPa) = 30.98404 39.79747 35.39076
#
# Velocity S-wave (km/s) = 4.08493 4.62960 4.36576
# Velocity P-wave (km/s) = 7.44477 8.33463 7.90223
#
# Compressibility (1/GPa) = 0.01623339
#
# Stress axis : x y z
#
# Youngs Moduli (GPa) = 51.05571 112.91024 49.78122
#
# Poissons Ratio (x) = 0.63582 0.35790
# Poissons Ratio (y) = 0.28750 0.16568
# Poissons Ratio (z) = 0.36707 0.37577
#
# Static dielectric constant tensor:
#      x y z
#    x 3.506310 0.000000 0.000000 
#    y 0.000000 3.512370 0.000000 
#    z 0.000000 0.000000 3.340180 
# 
# 
# High freq. dielectric constant tensor:
#      x y z
#    x 1.714300 0.000000 0.000000 
#    y 0.000000 1.733270 0.000000 
#    z 0.000000 0.000000 1.719980 
# 
# From -- ./inp_files/8599.got.cif
#   From: 2010.03.12/outbox.cif.g09.slc.cpg/sg57_5_cif.got.tgz:8599.got - 2010.04.16 15:48:40.
