data_PCOD8233500
_publ_section_title
;
Structure prediction by ZEFSAII (Michael W. Deem and Ramdas Pophale) SiO2 
 PCOD8233500
Probable space group: P B C M
;
_chemical_formula_sum "Si O2"
_cell_formula_units_Z 64
_cell_length_a 11.953159
_cell_length_b 30.876022
_cell_length_c 8.963768
_cell_angle_alpha 90.000000
_cell_angle_beta 90.000000
_cell_angle_gamma 90.000000
_cell_volume 3308.222003
_symmetry_space_group_name_H-M "P B C M"
_symmetry_group_IT_number 57
_symmetry_cell_setting 'orthorhombic'
loop_
_space_group_symop_operation_xyz
x,y,z
-x,-y,1/2+z
x,1/2-y,-z
-x,1/2+y,1/2-z
-x,-y,-z
x,y,1/2-z
-x,1/2+y,z
x,1/2-y,1/2+z
loop_
_atom_site_type_symbol
_atom_site_label
_atom_site_fract_x
_atom_site_fract_y
_atom_site_fract_z
Si Si1 0.018191 0.793505 0.073020
Si Si2 0.015423 0.954771 0.421979
Si Si3 0.519150 0.045131 0.922074
Si Si4 0.511841 0.294215 0.924658
Si Si5 0.125396 0.374806 0.427089
Si Si6 0.239526 0.822145 0.922859
Si Si7 0.619010 0.627341 0.927376
Si Si8 0.249068 0.588755 0.579926
O O1 0.014219 0.789481 0.250000
O O2 0.943259 0.833333 0.013498
O O3 0.968280 0.750000 0.000000
O O4 0.146146 0.799155 0.022667
O O5 0.987014 0.961386 0.250000
O O6 0.141758 0.940392 0.448132
O O7 0.932104 0.918445 0.490609
O O8 0.000000 0.000000 0.500000
O O9 0.494834 0.037703 0.750000
O O10 0.435576 0.082294 0.982422
O O11 0.645509 0.058904 0.953918
O O12 0.500000 0.000000 0.000000
O O13 0.485749 0.292742 0.750000
O O14 0.643126 0.299325 0.957375
O O15 0.469432 0.250000 0.000000
O O16 0.444696 0.333523 0.995945
O O17 0.117707 0.375399 0.250000
O O18 0.252799 0.372260 0.481804
O O19 0.206366 0.818079 0.750000
O O20 0.249263 0.872213 0.964816
O O21 0.607574 0.632667 0.750000
O O22 0.251382 0.606825 0.750000
#
# Coordination Sequence:
#
# PCOD8233500 Si02
#       8
#     8   8   8   8   8   8   8   8
#     4  11  22  39  61  86 119 154 191 239 290 348
#     4  10  21  38  59  85 117 153 194 238 289 345
#     4  10  22  37  59  87 117 155 196 239 292 346
#     4  11  24  40  60  88 119 153 192 241 294 349
#     4   9  20  39  61  84 116 155 193 237 291 346
#     4  11  22  37  60  91 120 151 195 242 295 349
#     4  10  21  40  63  86 115 155 199 241 290 348
#     4  10  20  38  61  85 116 158 197 239 297 349
#
# _framework density 19.345738999999998
#
# number of rings (size 3 to 8) (size 9 to 14) (size 15 to 20)
#    0.000    1.750    2.500    1.500    1.750    4.500 
#    0.000    3.125    0.000    0.000    0.000    0.000 
#    0.000    0.000    0.000    0.000    0.000    0.000 
#
# Total GULP energy -793793.169802 kJ/mol
# GULP energy per Si atom -12403.018278 kJ/mol
# Density = 1.930171 g / cm^3
# Si number density = 19.345739 Si / 1000 Ang^3
#
#
#
# Elastic Constant Matrix: (Units=GPa)
#
#
# Indices 1 2 3 4 5 6 
#
# 1 119.7815 63.3921 46.8130 0.0000 0.0000 0.0000
# 2 63.3921 183.2493 58.9499 0.0000 0.0000 0.0000
# 3 46.8130 58.9499 56.8244 0.0000 0.0000 0.0000
# 4 0.0000 0.0000 0.0000 39.6694 0.0000 0.0000
# 5 0.0000 0.0000 0.0000 0.0000 0.6037 0.0000
# 6 0.0000 0.0000 0.0000 0.0000 0.0000 23.5571
#
#
#
# Elastic Compliance Matrix: (Units=1/GPa)
#
#
# Indices 1 2 3 4 5 6 
#
# 1 0.012592 -0.001529 -0.008787 0.000000 0.000000 0.000000
# 2 -0.001529 0.008376 -0.007430 0.000000 0.000000 0.000000
# 3 -0.008787 -0.007430 0.032545 0.000000 0.000000 0.000000
# 4 0.000000 0.000000 0.000000 0.025208 0.000000 0.000000
# 5 0.000000 0.000000 0.000000 0.000000 1.656584 0.000000
# 6 0.000000 0.000000 0.000000 0.000000 0.000000 0.042450
#
#
# Mechanical properties :
#
#
# Convention : Reuss Voigt Hill
#
# Bulk Modulus (GPa) = 55.49143 77.57392 66.53268
# Shear Modulus (GPa) = 2.74838 25.47938 14.11388
#
# Velocity S-wave (km/s) = 1.19321 3.63306 2.70397
# Velocity P-wave (km/s) = 5.53576 7.60162 6.64941
#
# Compressibility (1/GPa) = 0.01802080
#
# Stress axis : x y z
#
# Youngs Moduli (GPa) = 79.41522 119.38720 30.72715
#
# Poissons Ratio (x) = 0.18258 0.27000
# Poissons Ratio (y) = 0.12145 0.22829
# Poissons Ratio (z) = 0.69783 0.88699
#
# Static dielectric constant tensor:
#      x y z
#    x 3.836410 0.000000 0.000000 
#    y 0.000000 3.791740 0.000000 
#    z 0.000000 0.000000 3.408600 
# 
# 
# High freq. dielectric constant tensor:
#      x y z
#    x 1.760710 0.000000 0.000000 
#    y 0.000000 1.767130 0.000000 
#    z 0.000000 0.000000 1.736730 
# 
# From -- ./inp_files/3818.got.cif
#   From: 2010.03.12/outbox.cif.g09.slc.cpg/sg57_2_cif.got.tgz:3818.got - 2010.04.16 15:48:40.
