data_PCOD8233583
_publ_section_title
;
Structure prediction by ZEFSAII (Michael W. Deem and Ramdas Pophale) SiO2 
 PCOD8233583
Probable space group: P B C M
;
_chemical_formula_sum "Si O2"
_cell_formula_units_Z 32
_cell_length_a 9.421787
_cell_length_b 8.358180
_cell_length_c 16.140015
_cell_angle_alpha 90.000000
_cell_angle_beta 90.000000
_cell_angle_gamma 90.000000
_cell_volume 1271.009907
_symmetry_space_group_name_H-M "P B C M"
_symmetry_group_IT_number 57
_symmetry_cell_setting 'orthorhombic'
loop_
_space_group_symop_operation_xyz
x,y,z
-x,-y,1/2+z
x,1/2-y,-z
-x,1/2+y,1/2-z
-x,-y,-z
x,y,1/2-z
-x,1/2+y,z
x,1/2-y,1/2+z
loop_
_atom_site_type_symbol
_atom_site_label
_atom_site_fract_x
_atom_site_fract_y
_atom_site_fract_z
Si Si1 0.562064 0.781836 0.096508
Si Si2 0.960953 0.210525 0.842241
Si Si3 0.191777 0.012598 0.921031
Si Si4 0.710750 0.032265 0.892083
O O1 0.656756 0.937883 0.119687
O O2 0.625582 0.623560 0.140262
O O3 0.397852 0.817021 0.115531
O O4 0.580616 0.750000 0.000000
O O5 0.020966 0.242653 0.750000
O O6 0.876745 0.362402 0.876352
O O7 0.845611 0.066386 0.834256
O O8 0.087262 0.164910 0.905543
O O9 0.219044 0.521093 0.982960
#
# Coordination Sequence:
#
# PCOD8233583 Si02
#       4
#     8   8   8   8
#     4  10  20  38  66  97 124 156 209 268 318 372
#     4  12  25  42  61  91 130 171 214 262 316 382
#     4  11  23  41  65  91 125 168 213 263 318 376
#     4  11  22  41  68  97 127 165 211 265 322 382
#
# _framework density 25.176831
#
# number of rings (size 3 to 8) (size 9 to 14) (size 15 to 20)
#    0.000    1.000    0.000    9.750    0.000    4.000 
#    0.000    7.500    0.000    0.000    0.000    0.000 
#    0.000    0.000    0.000    0.000    0.000    0.000 
#
# Total GULP energy -396578.771541 kJ/mol
# GULP energy per Si atom -12393.086611 kJ/mol
# Density = 2.511953 g / cm^3
# Si number density = 25.176831 Si / 1000 Ang^3
#
#
#
# Elastic Constant Matrix: (Units=GPa)
#
#
# Indices 1 2 3 4 5 6 
#
# 1 132.1559 2.7727 31.0436 0.0000 0.0000 0.0000
# 2 2.7727 55.9745 27.5117 0.0000 0.0000 0.0000
# 3 31.0436 27.5117 62.0601 0.0000 0.0000 0.0000
# 4 0.0000 0.0000 0.0000 -1.7222 0.0000 0.0000
# 5 0.0000 0.0000 0.0000 0.0000 11.2399 0.0000
# 6 0.0000 0.0000 0.0000 0.0000 0.0000 62.3021
#
#
#
# Elastic Compliance Matrix: (Units=1/GPa)
#
#
# Indices 1 2 3 4 5 6 
#
# 1 0.008782 0.002204 -0.005370 0.000000 0.000000 0.000000
# 2 0.002204 0.023396 -0.011474 0.000000 0.000000 0.000000
# 3 -0.005370 -0.011474 0.023886 0.000000 0.000000 0.000000
# 4 0.000000 0.000000 0.000000 -0.580665 0.000000 0.000000
# 5 0.000000 0.000000 0.000000 0.000000 0.088969 0.000000
# 6 0.000000 0.000000 0.000000 0.000000 0.000000 0.016051
#
#
# Mechanical properties :
#
#
# Convention : Reuss Voigt Hill
#
# Bulk Modulus (GPa) = 37.33552 41.42739 39.38145
# Shear Modulus (GPa) = -13.11050 26.95479 6.92215
#
# Velocity S-wave (km/s) = -2.28444 3.27558 1.65993
# Velocity P-wave (km/s) = 2.81128 5.54943 4.39883
#
# Compressibility (1/GPa) = 0.02678415
#
# Stress axis : x y z
#
# Youngs Moduli (GPa) = 113.86892 42.74294 41.86511
#
# Poissons Ratio (x) = -0.09422 0.22482
# Poissons Ratio (y) = -0.25102 0.48037
# Poissons Ratio (z) = 0.61150 0.49044
#
# Static dielectric constant tensor:
#      x y z
#    x 5.087720 0.000000 0.000000 
#    y 0.000000 5.052900 0.000000 
#    z 0.000000 0.000000 4.100500 
# 
# 
# High freq. dielectric constant tensor:
#      x y z
#    x 2.031560 0.000000 0.000000 
#    y 0.000000 2.021540 0.000000 
#    z 0.000000 0.000000 1.946640 
# 
# From -- ./inp_files/26472.got.cif
#   From: 2010.03.12/outbox.cif.g09.slc.cpg/sg57_14_cif.got.tgz:26472.got - 2010.04.16 15:48:40.
