data_PCOD8233316
_publ_section_title
;
Structure prediction by ZEFSAII (Michael W. Deem and Ramdas Pophale) SiO2 
 PCOD8233316
Probable space group: P B C M
;
_chemical_formula_sum "Si O2"
_cell_formula_units_Z 40
_cell_length_a 9.070989
_cell_length_b 25.708939
_cell_length_c 8.939309
_cell_angle_alpha 90.000000
_cell_angle_beta 90.000000
_cell_angle_gamma 90.000000
_cell_volume 2084.696051
_symmetry_space_group_name_H-M "P B C M"
_symmetry_group_IT_number 57
_symmetry_cell_setting 'orthorhombic'
loop_
_space_group_symop_operation_xyz
x,y,z
-x,-y,1/2+z
x,1/2-y,-z
-x,1/2+y,1/2-z
-x,-y,-z
x,y,1/2-z
-x,1/2+y,z
x,1/2-y,1/2+z
loop_
_atom_site_type_symbol
_atom_site_label
_atom_site_fract_x
_atom_site_fract_y
_atom_site_fract_z
Si Si1 0.849514 0.402541 0.426520
Si Si2 0.663997 0.197258 0.925005
Si Si3 0.161915 0.398034 0.573201
Si Si4 0.342713 0.498936 0.925093
Si Si5 0.327780 0.196390 0.926908
O O1 0.884883 0.403173 0.250000
O O2 0.766503 0.350060 0.475856
O O3 0.748047 0.450577 0.474751
O O4 0.996172 0.407466 0.521969
O O5 0.671901 0.206151 0.750000
O O6 0.496457 0.184863 0.974301
O O7 0.722899 0.250000 0.000000
O O8 0.167848 0.389179 0.750000
O O9 0.255658 0.447888 0.522687
O O10 0.224804 0.348352 0.489400
O O11 0.368710 0.499146 0.750000
O O12 0.500000 0.500000 0.000000
O O13 0.308354 0.199933 0.750000
O O14 0.273745 0.250000 0.000000
#
# Coordination Sequence:
#
# PCOD8233316 Si02
#       5
#     8   8   8   8   8
#     4  10  21  38  57  80 112 150 187 228 280 336
#     4   9  19  35  57  82 108 141 184 228 274 327
#     4  11  23  37  55  84 116 147 185 231 281 336
#     4  10  22  39  60  84 111 144 188 236 283 336
#     4  10  20  37  60  84 112 148 187 231 278 329
#
# _framework density 19.187449000000001
#
# number of rings (size 3 to 8) (size 9 to 14) (size 15 to 20)
#    0.000    2.000    0.000    3.000    0.000    6.400 
#    0.000    2.000    0.000    0.000    0.000    0.000 
#    0.000    0.000    0.000    0.000    0.000    0.000 
#
# Total GULP energy -496185.193546 kJ/mol
# GULP energy per Si atom -12404.629839 kJ/mol
# Density = 1.914378 g / cm^3
# Si number density = 19.187449 Si / 1000 Ang^3
#
#
#
# Elastic Constant Matrix: (Units=GPa)
#
#
# Indices 1 2 3 4 5 6 
#
# 1 138.1825 89.7231 48.4168 0.0000 0.0000 0.0000
# 2 89.7231 172.6965 54.3571 0.0000 0.0000 0.0000
# 3 48.4168 54.3571 56.7324 0.0000 0.0000 0.0000
# 4 0.0000 0.0000 0.0000 31.7526 0.0000 0.0000
# 5 0.0000 0.0000 0.0000 0.0000 29.9128 0.0000
# 6 0.0000 0.0000 0.0000 0.0000 0.0000 3.8068
#
#
#
# Elastic Compliance Matrix: (Units=1/GPa)
#
#
# Indices 1 2 3 4 5 6 
#
# 1 0.012301 -0.004419 -0.006264 0.000000 0.000000 0.000000
# 2 -0.004419 0.009879 -0.005693 0.000000 0.000000 0.000000
# 3 -0.006264 -0.005693 0.028427 0.000000 0.000000 0.000000
# 4 0.000000 0.000000 0.000000 0.031494 0.000000 0.000000
# 5 0.000000 0.000000 0.000000 0.000000 0.033431 0.000000
# 6 0.000000 0.000000 0.000000 0.000000 0.000000 0.262690
#
#
# Mechanical properties :
#
#
# Convention : Reuss Voigt Hill
#
# Bulk Modulus (GPa) = 56.00998 83.62282 69.81640
# Shear Modulus (GPa) = 11.99257 24.76872 18.38064
#
# Velocity S-wave (km/s) = 2.50276 3.59678 3.09844
# Velocity P-wave (km/s) = 6.13238 7.80550 7.01897
#
# Compressibility (1/GPa) = 0.01785396
#
# Stress axis : x y z
#
# Youngs Moduli (GPa) = 81.29403 101.22910 35.17768
#
# Poissons Ratio (x) = 0.44737 0.22034
# Poissons Ratio (y) = 0.35927 0.20028
# Poissons Ratio (z) = 0.50919 0.57633
#
# Static dielectric constant tensor:
#      x y z
#    x 3.143370 0.000000 0.000000 
#    y 0.000000 3.715920 0.000000 
#    z 0.000000 0.000000 3.452650 
# 
# 
# High freq. dielectric constant tensor:
#      x y z
#    x 1.751000 0.000000 0.000000 
#    y 0.000000 1.764550 0.000000 
#    z 0.000000 0.000000 1.744560 
# 
# From -- ./inp_files/1483.got.cif
#   From: 2010.03.12/outbox.cif.g09.slc.cpg/sg57_1_cif.got.tgz:1483.got - 2010.04.16 15:48:40.
