data_PCOD8233168
_publ_section_title
;
Structure prediction by ZEFSAII (Michael W. Deem and Ramdas Pophale) SiO2 
 PCOD8233168
Probable space group: P B C M
;
_chemical_formula_sum "Si O2"
_cell_formula_units_Z 40
_cell_length_a 12.443039
_cell_length_b 18.231048
_cell_length_c 8.944426
_cell_angle_alpha 90.000000
_cell_angle_beta 90.000000
_cell_angle_gamma 90.000000
_cell_volume 2029.039830
_symmetry_space_group_name_H-M "P B C M"
_symmetry_group_IT_number 57
_symmetry_cell_setting 'orthorhombic'
loop_
_space_group_symop_operation_xyz
x,y,z
-x,-y,1/2+z
x,1/2-y,-z
-x,1/2+y,1/2-z
-x,-y,-z
x,y,1/2-z
-x,1/2+y,z
x,1/2-y,1/2+z
loop_
_atom_site_type_symbol
_atom_site_label
_atom_site_fract_x
_atom_site_fract_y
_atom_site_fract_z
Si Si1 0.117358 0.584489 0.923885
Si Si2 0.873359 0.935476 0.078172
Si Si3 0.291887 0.824713 0.922792
Si Si4 0.318668 0.172070 0.925069
Si Si5 0.497248 0.921373 0.924258
O O1 0.142483 0.591615 0.750000
O O2 0.991611 0.594380 0.961272
O O3 0.157710 0.505059 0.978046
O O4 0.179352 0.648872 0.008710
O O5 0.867242 0.961205 0.250000
O O6 0.790612 0.871314 0.042801
O O7 0.274202 0.807871 0.750000
O O8 0.379956 0.887421 0.949238
O O9 0.331020 0.750000 0.000000
O O10 0.341529 0.181112 0.750000
O O11 0.304260 0.250000 0.000000
O O12 0.417697 0.130959 0.998313
O O13 0.524828 0.929210 0.750000
O O14 0.500000 0.000000 0.000000
#
# Coordination Sequence:
#
# PCOD8233168 Si02
#       5
#     8   8   8   8   8
#     4  10  20  36  60  87 115 150 192 236 282 335
#     4   9  20  38  58  84 117 152 191 235 282 334
#     4  11  24  40  58  83 116 151 188 234 285 337
#     4  11  23  39  59  84 117 152 189 235 286 340
#     4  11  24  41  62  87 115 149 190 235 284 339
#
# _framework density 19.713757999999999
#
# number of rings (size 3 to 8) (size 9 to 14) (size 15 to 20)
#    0.000    1.600    0.000    4.200    0.000   12.800 
#    0.000    2.000    0.000    0.000    0.000    0.000 
#    0.000    0.000    0.000    0.000    0.000    0.000 
#
# Total GULP energy -496258.711928 kJ/mol
# GULP energy per Si atom -12406.467798 kJ/mol
# Density = 1.966889 g / cm^3
# Si number density = 19.713758 Si / 1000 Ang^3
#
#
#
# Elastic Constant Matrix: (Units=GPa)
#
#
# Indices 1 2 3 4 5 6 
#
# 1 81.2922 27.8345 49.1367 0.0000 0.0000 0.0000
# 2 27.8345 79.8641 51.2907 0.0000 0.0000 0.0000
# 3 49.1367 51.2907 123.0061 0.0000 0.0000 0.0000
# 4 0.0000 0.0000 0.0000 43.5391 0.0000 0.0000
# 5 0.0000 0.0000 0.0000 0.0000 32.0136 0.0000
# 6 0.0000 0.0000 0.0000 0.0000 0.0000 25.9181
#
#
#
# Elastic Compliance Matrix: (Units=1/GPa)
#
#
# Indices 1 2 3 4 5 6 
#
# 1 0.016463 -0.002068 -0.005714 0.000000 0.000000 0.000000
# 2 -0.002068 0.017361 -0.006413 0.000000 0.000000 0.000000
# 3 -0.005714 -0.006413 0.013086 0.000000 0.000000 0.000000
# 4 0.000000 0.000000 0.000000 0.022968 0.000000 0.000000
# 5 0.000000 0.000000 0.000000 0.000000 0.031237 0.000000
# 6 0.000000 0.000000 0.000000 0.000000 0.000000 0.038583
#
#
# Mechanical properties :
#
#
# Convention : Reuss Voigt Hill
#
# Bulk Modulus (GPa) = 53.99568 60.07625 57.03597
# Shear Modulus (GPa) = 28.69255 30.68752 29.69003
#
# Velocity S-wave (km/s) = 3.81919 3.94973 3.88500
# Velocity P-wave (km/s) = 6.84818 7.16526 7.00851
#
# Compressibility (1/GPa) = 0.01852000
#
# Stress axis : x y z
#
# Youngs Moduli (GPa) = 60.74106 57.60199 76.41577
#
# Poissons Ratio (x) = 0.11912 0.43666
# Poissons Ratio (y) = 0.12561 0.49004
# Poissons Ratio (z) = 0.34709 0.36939
#
# Static dielectric constant tensor:
#      x y z
#    x 3.923340 0.000000 0.000000 
#    y 0.000000 3.451280 0.000000 
#    z 0.000000 0.000000 3.791290 
# 
# 
# High freq. dielectric constant tensor:
#      x y z
#    x 1.779460 0.000000 0.000000 
#    y 0.000000 1.772980 0.000000 
#    z 0.000000 0.000000 1.782940 
# 
# From -- ./inp_files/2655.got.cif
#   From: 2010.03.12/outbox.cif.g09.slc.cpg/sg57_2_cif.got.tgz:2655.got - 2010.04.16 15:48:40.
