data_PCOD8233272
_publ_section_title
;
Structure prediction by ZEFSAII (Michael W. Deem and Ramdas Pophale) SiO2 
 PCOD8233272
Probable space group: P B C M
;
_chemical_formula_sum "Si O2"
_cell_formula_units_Z 48
_cell_length_a 30.812573
_cell_length_b 9.365963
_cell_length_c 8.525569
_cell_angle_alpha 90.000000
_cell_angle_beta 90.000000
_cell_angle_gamma 90.000000
_cell_volume 2460.389001
_symmetry_space_group_name_H-M "P B C M"
_symmetry_group_IT_number 57
_symmetry_cell_setting 'orthorhombic'
loop_
_space_group_symop_operation_xyz
x,y,z
-x,-y,1/2+z
x,1/2-y,-z
-x,1/2+y,1/2-z
-x,-y,-z
x,y,1/2-z
-x,1/2+y,z
x,1/2-y,1/2+z
loop_
_atom_site_type_symbol
_atom_site_label
_atom_site_fract_x
_atom_site_fract_y
_atom_site_fract_z
Si Si1 0.038325 0.094601 0.064065
Si Si2 0.538667 0.093149 0.064408
Si Si3 0.629800 0.407062 0.063769
Si Si4 0.289397 0.408169 0.565009
Si Si5 0.130552 0.093672 0.564367
Si Si6 0.792618 0.408368 0.063661
O O1 0.039190 0.093816 0.250000
O O2 0.028892 0.250000 0.000000
O O3 0.084447 0.039380 0.000512
O O4 0.000000 0.000000 0.000000
O O5 0.538335 0.093812 0.250000
O O6 0.531527 0.250000 0.000000
O O7 0.584623 0.032242 0.003914
O O8 0.500000 0.000000 0.000000
O O9 0.626977 0.398913 0.250000
O O10 0.667135 0.513979 0.004492
O O11 0.640228 0.250000 0.000000
O O12 0.286629 0.250000 0.500000
O O13 0.289635 0.399538 0.750000
O O14 0.248278 0.498638 0.506179
O O15 0.143055 0.250000 0.500000
O O16 0.128617 0.103569 0.750000
O O17 0.164834 0.976755 0.510891
O O18 0.796917 0.405970 0.250000
O O19 0.786249 0.250000 0.000000
#
# Coordination Sequence:
#
# PCOD8233272 Si02
#       6
#     8   8   8   8   8   8
#     4  11  22  39  61  88 119 155 195 240 289 344
#     4  11  22  38  59  85 115 152 192 237 287 342
#     4  10  20  37  58  84 114 149 190 236 285 341
#     4  10  23  39  59  85 116 150 190 234 284 341
#     4  11  22  39  61  87 117 154 194 239 289 343
#     4  11  23  40  60  87 117 152 193 238 288 343
#
# _framework density 19.50911
#
# number of rings (size 3 to 8) (size 9 to 14) (size 15 to 20)
#    0.000    1.333    0.000    8.500    0.000    5.333 
#    0.000    5.000    0.000    0.000    0.000    0.000 
#    0.000    0.000    0.000    0.000    0.000    0.000 
#
# Total GULP energy -595379.103966 kJ/mol
# GULP energy per Si atom -12403.731333 kJ/mol
# Density = 1.946471 g / cm^3
# Si number density = 19.509110 Si / 1000 Ang^3
#
#
#
# Elastic Constant Matrix: (Units=GPa)
#
#
# Indices 1 2 3 4 5 6 
#
# 1 192.9050 112.3493 69.3038 0.0000 0.0000 0.0000
# 2 112.3493 131.7931 54.2206 0.0000 0.0000 0.0000
# 3 69.3038 54.2206 150.8395 0.0000 0.0000 0.0000
# 4 0.0000 0.0000 0.0000 37.7409 0.0000 0.0000
# 5 0.0000 0.0000 0.0000 0.0000 31.9901 0.0000
# 6 0.0000 0.0000 0.0000 0.0000 0.0000 49.4085
#
#
#
# Elastic Compliance Matrix: (Units=1/GPa)
#
#
# Indices 1 2 3 4 5 6 
#
# 1 0.010754 -0.008373 -0.001931 0.000000 0.000000 0.000000
# 2 -0.008373 0.015424 -0.001697 0.000000 0.000000 0.000000
# 3 -0.001931 -0.001697 0.008127 0.000000 0.000000 0.000000
# 4 0.000000 0.000000 0.000000 0.026496 0.000000 0.000000
# 5 0.000000 0.000000 0.000000 0.000000 0.031260 0.000000
# 6 0.000000 0.000000 0.000000 0.000000 0.000000 0.020239
#
#
# Mechanical properties :
#
#
# Convention : Reuss Voigt Hill
#
# Bulk Modulus (GPa) = 97.07019 105.25390 101.16204
# Shear Modulus (GPa) = 35.78135 39.80551 37.79343
#
# Velocity S-wave (km/s) = 4.28727 4.52193 4.40616
# Velocity P-wave (km/s) = 8.62391 9.01843 8.82338
#
# Compressibility (1/GPa) = 0.01030182
#
# Stress axis : x y z
#
# Youngs Moduli (GPa) = 92.98572 64.83530 123.04733
#
# Poissons Ratio (x) = 0.54288 0.23764
# Poissons Ratio (y) = 0.77858 0.20882
# Poissons Ratio (z) = 0.17958 0.11003
#
# Static dielectric constant tensor:
#      x y z
#    x 4.014340 0.000000 0.000000 
#    y 0.000000 3.676330 0.000000 
#    z 0.000000 0.000000 3.687030 
# 
# 
# High freq. dielectric constant tensor:
#      x y z
#    x 1.779900 0.000000 0.000000 
#    y 0.000000 1.759850 0.000000 
#    z 0.000000 0.000000 1.777690 
# 
# From -- ./inp_files/10051.got.cif
#   From: 2010.03.12/outbox.cif.g09.slc.cpg/sg57_6_cif.got.tgz:10051.got - 2010.04.16 15:48:40.
