data_PCOD8233534
_publ_section_title
;
Structure prediction by ZEFSAII (Michael W. Deem and Ramdas Pophale) SiO2 
 PCOD8233534
Probable space group: P B C M
;
_chemical_formula_sum "Si O2"
_cell_formula_units_Z 40
_cell_length_a 7.395241
_cell_length_b 17.829145
_cell_length_c 14.573286
_cell_angle_alpha 90.000000
_cell_angle_beta 90.000000
_cell_angle_gamma 90.000000
_cell_volume 1921.499769
_symmetry_space_group_name_H-M "P B C M"
_symmetry_group_IT_number 57
_symmetry_cell_setting 'orthorhombic'
loop_
_space_group_symop_operation_xyz
x,y,z
-x,-y,1/2+z
x,1/2-y,-z
-x,1/2+y,1/2-z
-x,-y,-z
x,y,1/2-z
-x,1/2+y,z
x,1/2-y,1/2+z
loop_
_atom_site_type_symbol
_atom_site_label
_atom_site_fract_x
_atom_site_fract_y
_atom_site_fract_z
Si Si1 0.030942 0.203680 0.853368
Si Si2 0.308408 0.103887 0.544060
Si Si3 0.860773 0.457131 0.935536
Si Si4 0.679871 0.172847 0.548218
Si Si5 0.843656 0.871601 0.852168
O O1 0.078041 0.180386 0.750000
O O2 0.817057 0.190647 0.869063
O O3 0.083843 0.288760 0.873722
O O4 0.137658 0.151463 0.923163
O O5 0.492737 0.137638 0.584915
O O6 0.300933 0.105411 0.431558
O O7 0.292908 0.019444 0.586141
O O8 0.982040 0.427328 0.851003
O O9 0.767875 0.385027 0.978489
O O10 0.000000 0.500000 0.000000
O O11 0.627176 0.250000 0.500000
O O12 0.754674 0.875978 0.750000
#
# Coordination Sequence:
#
# PCOD8233534 Si02
#       5
#     8   8   8   8   8
#     4  11  22  39  63  90 125 164 212 258 304 370
#     4  11  23  40  63  94 126 163 205 263 315 367
#     4  10  20  38  62  89 123 162 202 255 310 367
#     4  12  21  39  67  89 123 165 209 254 317 372
#     4  10  20  39  64  90 124 168 208 251 310 372
#
# _framework density 20.817073000000001
#
# number of rings (size 3 to 8) (size 9 to 14) (size 15 to 20)
#    0.000    1.200    6.000    2.400    0.000    1.600 
#    0.000    2.000    0.000    2.400    0.000    0.000 
#    0.000    0.000    0.000    0.000    0.000    0.000 
#
# Total GULP energy -495737.405354 kJ/mol
# GULP energy per Si atom -12393.435134 kJ/mol
# Density = 2.076969 g / cm^3
# Si number density = 20.817073 Si / 1000 Ang^3
#
#
#
# Elastic Constant Matrix: (Units=GPa)
#
#
# Indices 1 2 3 4 5 6 
#
# 1 66.3563 -0.9997 -3.1073 0.0000 0.0000 0.0000
# 2 -0.9997 95.5540 7.5666 0.0000 0.0000 0.0000
# 3 -3.1073 7.5666 62.6971 0.0000 0.0000 0.0000
# 4 0.0000 0.0000 0.0000 18.7476 0.0000 0.0000
# 5 0.0000 0.0000 0.0000 0.0000 18.1651 0.0000
# 6 0.0000 0.0000 0.0000 0.0000 0.0000 -10.4326
#
#
#
# Elastic Compliance Matrix: (Units=1/GPa)
#
#
# Indices 1 2 3 4 5 6 
#
# 1 0.015106 0.000100 0.000737 0.000000 0.000000 0.000000
# 2 0.000100 0.010567 -0.001270 0.000000 0.000000 0.000000
# 3 0.000737 -0.001270 0.016140 0.000000 0.000000 0.000000
# 4 0.000000 0.000000 0.000000 0.053340 0.000000 0.000000
# 5 0.000000 0.000000 0.000000 0.000000 0.055051 0.000000
# 6 0.000000 0.000000 0.000000 0.000000 0.000000 -0.095853
#
#
# Mechanical properties :
#
#
# Convention : Reuss Voigt Hill
#
# Bulk Modulus (GPa) = 24.42323 25.72519 25.07421
# Shear Modulus (GPa) = 72.60447 20.03921 46.32184
#
# Velocity S-wave (km/s) = 5.91211 3.10600 4.72230
# Velocity P-wave (km/s) = 7.63950 5.02469 6.46566
#
# Compressibility (1/GPa) = 0.04094462
#
# Stress axis : x y z
#
# Youngs Moduli (GPa) = 66.19823 94.63494 61.95968
#
# Poissons Ratio (x) = -0.00944 -0.04564
# Poissons Ratio (y) = -0.00660 0.07871
# Poissons Ratio (z) = -0.04876 0.12022
#
# Static dielectric constant tensor:
#      x y z
#    x 3.837990 0.000000 0.000000 
#    y 0.000000 4.843320 0.000000 
#    z 0.000000 0.000000 3.455640 
# 
# 
# High freq. dielectric constant tensor:
#      x y z
#    x 1.806140 0.000000 0.000000 
#    y 0.000000 1.841640 0.000000 
#    z 0.000000 0.000000 1.781600 
# 
# From -- ./inp_files/16111.got.cif
#   From: 2010.03.12/outbox.cif.g09.slc.cpg/sg57_9_cif.got.tgz:16111.got - 2010.04.16 15:48:40.
