data_PCOD8233623
_publ_section_title
;
Structure prediction by ZEFSAII (Michael W. Deem and Ramdas Pophale) SiO2 
 PCOD8233623
Probable space group: P B C M
;
_chemical_formula_sum "Si O2"
_cell_formula_units_Z 60
_cell_length_a 8.598174
_cell_length_b 23.656345
_cell_length_c 14.882486
_cell_angle_alpha 90.000000
_cell_angle_beta 90.000000
_cell_angle_gamma 90.000000
_cell_volume 3027.118049
_symmetry_space_group_name_H-M "P B C M"
_symmetry_group_IT_number 57
_symmetry_cell_setting 'orthorhombic'
loop_
_space_group_symop_operation_xyz
x,y,z
-x,-y,1/2+z
x,1/2-y,-z
-x,1/2+y,1/2-z
-x,-y,-z
x,y,1/2-z
-x,1/2+y,z
x,1/2-y,1/2+z
loop_
_atom_site_type_symbol
_atom_site_label
_atom_site_fract_x
_atom_site_fract_y
_atom_site_fract_z
Si Si1 0.514471 0.250000 0.500000
Si Si2 0.039479 0.340928 0.644253
Si Si3 0.761350 0.348411 0.508056
Si Si4 0.869731 0.972266 0.348083
Si Si5 0.328971 0.978125 0.999151
Si Si6 0.838045 0.542822 0.151550
Si Si7 0.747410 0.736461 0.854133
Si Si8 0.003066 0.854255 0.353975
O O1 0.620795 0.304532 0.518738
O O2 0.408081 0.262313 0.413169
O O3 0.000002 0.342707 0.750000
O O4 0.877162 0.341617 0.591773
O O5 0.152841 0.392887 0.615943
O O6 0.136215 0.286124 0.616882
O O7 0.686789 0.410865 0.508150
O O8 0.853821 0.334279 0.415935
O O9 0.797212 0.958614 0.250000
O O10 0.967273 0.918429 0.382312
O O11 0.735195 0.988224 0.414632
O O12 0.982645 0.025442 0.342195
O O13 0.500000 0.000000 0.000000
O O14 0.250210 0.999211 0.089663
O O15 0.758572 0.540226 0.250000
O O16 0.697327 0.741801 0.750000
O O17 0.844051 0.679517 0.872331
O O18 0.055515 0.847967 0.250000
#
# Coordination Sequence:
#
# PCOD8233623 Si02
#       8
#     4   8   8   8   8   8   8   8
#     4  12  28  40  58  90 128 164 190 238 308 366
#     4  10  21  40  68  90 111 153 209 256 291 340
#     4  12  24  40  60  89 123 160 199 244 294 352
#     4  10  20  39  64  90 117 152 200 250 293 343
#     4  12  26  37  57  90 130 164 190 235 302 369
#     4  10  20  39  64  90 117 152 200 250 293 343
#     4  10  23  43  65  89 115 154 202 250 302 352
#     4  10  21  40  68  90 111 153 209 256 291 340
#
# _framework density 19.820833
#
# number of rings (size 3 to 8) (size 9 to 14) (size 15 to 20)
#    0.000    1.333    2.667    2.800    3.733    1.600 
#    0.000    0.000    0.000    0.000    0.000    0.000 
#    0.000    0.000    0.000    0.000    0.000    0.000 
#
# Total GULP energy -743989.871608 kJ/mol
# GULP energy per Si atom -12399.831193 kJ/mol
# Density = 1.977572 g / cm^3
# Si number density = 19.820833 Si / 1000 Ang^3
#
#
#
# Elastic Constant Matrix: (Units=GPa)
#
#
# Indices 1 2 3 4 5 6 
#
# 1 103.9474 33.1626 51.9664 0.0000 0.0000 0.0000
# 2 33.1626 91.0076 32.8711 0.0000 0.0000 0.0000
# 3 51.9664 32.8711 91.1169 0.0000 0.0000 0.0000
# 4 0.0000 0.0000 0.0000 30.8125 0.0000 0.0000
# 5 0.0000 0.0000 0.0000 0.0000 155.0782 0.0000
# 6 0.0000 0.0000 0.0000 0.0000 0.0000 32.0610
#
#
#
# Elastic Compliance Matrix: (Units=1/GPa)
#
#
# Indices 1 2 3 4 5 6 
#
# 1 0.013950 -0.002541 -0.007040 0.000000 0.000000 0.000000
# 2 -0.002541 0.013097 -0.003276 0.000000 0.000000 0.000000
# 3 -0.007040 -0.003276 0.016172 0.000000 0.000000 0.000000
# 4 0.000000 0.000000 0.000000 0.032454 0.000000 0.000000
# 5 0.000000 0.000000 0.000000 0.000000 0.006448 0.000000
# 6 0.000000 0.000000 0.000000 0.000000 0.000000 0.031190
#
#
# Mechanical properties :
#
#
# Convention : Reuss Voigt Hill
#
# Bulk Modulus (GPa) = 57.12146 58.00803 57.56474
# Shear Modulus (GPa) = 34.51616 54.79513 44.65564
#
# Velocity S-wave (km/s) = 4.17755 5.26358 4.75169
# Velocity P-wave (km/s) = 7.22154 8.14064 7.69483
#
# Compressibility (1/GPa) = 0.01750656
#
# Stress axis : x y z
#
# Youngs Moduli (GPa) = 71.68411 76.35267 61.83702
#
# Poissons Ratio (x) = 0.19399 0.43530
# Poissons Ratio (y) = 0.18213 0.20257
# Poissons Ratio (z) = 0.50462 0.25012
#
# Static dielectric constant tensor:
#      x y z
#    x 3.343320 0.000000 0.000000 
#    y 0.000000 3.882570 0.000000 
#    z 0.000000 0.000000 3.905800 
# 
# 
# High freq. dielectric constant tensor:
#      x y z
#    x 1.750950 0.000000 0.000000 
#    y 0.000000 1.793540 0.000000 
#    z 0.000000 0.000000 1.787320 
# 
# From -- ./inp_files/16891.got.cif
#   From: 2010.03.12/outbox.cif.g09.slc.cpg/sg57_9_cif.got.tgz:16891.got - 2010.04.16 15:48:40.
