data_PCOD8233692
_publ_section_title
;
Structure prediction by ZEFSAII (Michael W. Deem and Ramdas Pophale) SiO2 
 PCOD8233692
Probable space group: P B C M
;
_chemical_formula_sum "Si O2"
_cell_formula_units_Z 40
_cell_length_a 22.664872
_cell_length_b 8.717337
_cell_length_c 9.865840
_cell_angle_alpha 90.000000
_cell_angle_beta 90.000000
_cell_angle_gamma 90.000000
_cell_volume 1949.266299
_symmetry_space_group_name_H-M "P B C M"
_symmetry_group_IT_number 57
_symmetry_cell_setting 'orthorhombic'
loop_
_space_group_symop_operation_xyz
x,y,z
-x,-y,1/2+z
x,1/2-y,-z
-x,1/2+y,1/2-z
-x,-y,-z
x,y,1/2-z
-x,1/2+y,z
x,1/2-y,1/2+z
loop_
_atom_site_type_symbol
_atom_site_label
_atom_site_fract_x
_atom_site_fract_y
_atom_site_fract_z
Si Si1 0.664363 0.424531 0.987700
Si Si2 0.064837 0.567970 0.996919
Si Si3 0.751060 0.099366 0.250000
Si Si4 0.865170 0.928524 0.750000
Si Si5 0.736699 0.451440 0.250000
Si Si6 0.547016 0.595930 0.585236
Si Si7 0.128297 0.432370 0.250000
O O1 0.716568 0.442099 0.883519
O O2 0.610568 0.521395 0.931224
O O3 0.641828 0.250000 0.000000
O O4 0.692446 0.485760 0.126451
O O5 0.097229 0.505597 0.124758
O O6 0.060901 0.750000 0.000000
O O7 0.104966 0.511662 0.875078
O O8 0.000000 0.500000 0.000000
O O9 0.764766 0.280867 0.250000
O O10 0.805069 0.985450 0.250000
O O11 0.879684 0.749508 0.750000
O O12 0.793866 0.939970 0.750000
O O13 0.548769 0.750000 0.500000
O O14 0.500000 0.500000 0.500000
O O15 0.532572 0.612732 0.750000
#
# Coordination Sequence:
#
# PCOD8233692 Si02
#       7
#     8   8   4   4   4   8   4
#     4  10  22  41  68  97 133 174 223 269 334 403
#     4  12  25  44  67  94 130 174 223 279 343 416
#     4  10  20  41  62  95 130 176 221 266 331 402
#     4  12  25  43  64 101 134 172 229 278 348 404
#     4  10  22  37  66  97 132 176 219 274 327 412
#     4  12  27  46  71 101 139 182 232 288 349 415
#     4  12  25  41  68  95 134 174 219 284 338 408
#
# _framework density 20.52054
#
# number of rings (size 3 to 8) (size 9 to 14) (size 15 to 20)
#    0.000    0.800    1.000    6.600    2.800    3.200 
#    0.000    0.000    0.000    0.000    0.000    0.000 
#    0.000    0.000    0.000    0.000    0.000    0.000 
#
# Total GULP energy -495780.572173 kJ/mol
# GULP energy per Si atom -12394.514304 kJ/mol
# Density = 2.047383 g / cm^3
# Si number density = 20.520540 Si / 1000 Ang^3
#
#
#
# Elastic Constant Matrix: (Units=GPa)
#
#
# Indices 1 2 3 4 5 6 
#
# 1 103.1193 59.8070 51.8291 0.0000 0.0000 0.0000
# 2 59.8070 158.1587 59.9287 0.0000 0.0000 0.0000
# 3 51.8291 59.9287 192.2097 0.0000 0.0000 0.0000
# 4 0.0000 0.0000 0.0000 36.6057 0.0000 0.0000
# 5 0.0000 0.0000 0.0000 0.0000 102.0124 0.0000
# 6 0.0000 0.0000 0.0000 0.0000 0.0000 40.9869
#
#
#
# Elastic Compliance Matrix: (Units=1/GPa)
#
#
# Indices 1 2 3 4 5 6 
#
# 1 0.013248 -0.004146 -0.002280 0.000000 0.000000 0.000000
# 2 -0.004146 0.008467 -0.001522 0.000000 0.000000 0.000000
# 3 -0.002280 -0.001522 0.006292 0.000000 0.000000 0.000000
# 4 0.000000 0.000000 0.000000 0.027318 0.000000 0.000000
# 5 0.000000 0.000000 0.000000 0.000000 0.009803 0.000000
# 6 0.000000 0.000000 0.000000 0.000000 0.000000 0.024398
#
#
# Mechanical properties :
#
#
# Convention : Reuss Voigt Hill
#
# Bulk Modulus (GPa) = 82.56347 88.51303 85.53825
# Shear Modulus (GPa) = 45.67958 54.71584 50.19771
#
# Velocity S-wave (km/s) = 4.72321 5.16932 4.95129
# Velocity P-wave (km/s) = 8.37060 8.88012 8.62912
#
# Compressibility (1/GPa) = 0.01211189
#
# Stress axis : x y z
#
# Youngs Moduli (GPa) = 75.48454 118.10267 158.93410
#
# Poissons Ratio (x) = 0.48963 0.36231
# Poissons Ratio (y) = 0.31294 0.24191
# Poissons Ratio (z) = 0.17208 0.17976
#
# Static dielectric constant tensor:
#      x y z
#    x 3.824050 0.000000 0.000000 
#    y 0.000000 4.307130 0.000000 
#    z 0.000000 0.000000 4.139130 
# 
# 
# High freq. dielectric constant tensor:
#      x y z
#    x 1.819870 0.000000 0.000000 
#    y 0.000000 1.809740 0.000000 
#    z 0.000000 0.000000 1.830690 
# 
# From -- ./inp_files/9035.got.cif
#   From: 2010.03.12/outbox.cif.g09.slc.cpg/sg57_5_cif.got.tgz:9035.got - 2010.04.16 15:48:40.
