data_PCOD8233897
_publ_section_title
;
Structure prediction by ZEFSAII (Michael W. Deem and Ramdas Pophale) SiO2 
 PCOD8233897
Probable space group: P B C M
;
_chemical_formula_sum "Si O2"
_cell_formula_units_Z 56
_cell_length_a 14.747751
_cell_length_b 22.353556
_cell_length_c 8.925616
_cell_angle_alpha 90.000000
_cell_angle_beta 90.000000
_cell_angle_gamma 90.000000
_cell_volume 2942.460323
_symmetry_space_group_name_H-M "P B C M"
_symmetry_group_IT_number 57
_symmetry_cell_setting 'orthorhombic'
loop_
_space_group_symop_operation_xyz
x,y,z
-x,-y,1/2+z
x,1/2-y,-z
-x,1/2+y,1/2-z
-x,-y,-z
x,y,1/2-z
-x,1/2+y,z
x,1/2-y,1/2+z
loop_
_atom_site_type_symbol
_atom_site_label
_atom_site_fract_x
_atom_site_fract_y
_atom_site_fract_z
Si Si1 0.802575 0.583259 0.424084
Si Si2 0.086484 0.311450 0.424393
Si Si3 0.602050 0.945543 0.922548
Si Si4 0.303964 0.689228 0.576127
Si Si5 0.906329 0.018477 0.426528
Si Si6 0.423127 0.579662 0.926892
Si Si7 0.889609 0.140961 0.921509
O O1 0.829918 0.580500 0.250000
O O2 0.855179 0.636756 0.501488
O O3 0.694966 0.590871 0.445390
O O4 0.827478 0.521327 0.503122
O O5 0.116616 0.250000 0.500000
O O6 0.109876 0.309171 0.250000
O O7 0.980006 0.321375 0.452887
O O8 0.572551 0.946526 0.750000
O O9 0.612485 0.014330 0.979869
O O10 0.525095 0.910418 0.013909
O O11 0.338649 0.750000 0.500000
O O12 0.325402 0.695310 0.750000
O O13 0.357630 0.631791 0.508726
O O14 0.196751 0.682361 0.546060
O O15 0.911741 0.008042 0.250000
O O16 0.884791 0.086736 0.462894
O O17 0.000000 0.000000 0.500000
O O18 0.423459 0.583880 0.750000
O O19 0.888311 0.116914 0.750000
#
# Coordination Sequence:
#
# PCOD8233897 Si02
#       7
#     8   8   8   8   8   8   8
#     4  11  22  38  59  83 115 150 188 234 282 336
#     4  11  23  38  57  79 109 150 194 235 278 331
#     4   9  19  36  60  86 111 143 182 230 289 342
#     4  10  21  37  57  83 116 154 192 233 284 339
#     4  12  23  35  55  84 116 150 188 232 284 335
#     4   9  18  35  58  84 114 146 181 227 284 341
#     4  10  21  38  58  81 114 152 190 234 284 338
#
# _framework density 19.031693000000001
#
# number of rings (size 3 to 8) (size 9 to 14) (size 15 to 20)
#    0.000    1.714    1.429    3.429    0.000    5.143 
#    0.000    3.571    0.000    1.714    0.000    0.000 
#    0.000    0.000    0.000    0.000    0.000    0.000 
#
# Total GULP energy -694540.664249 kJ/mol
# GULP energy per Si atom -12402.511862 kJ/mol
# Density = 1.898838 g / cm^3
# Si number density = 19.031693 Si / 1000 Ang^3
#
#
#
# Elastic Constant Matrix: (Units=GPa)
#
#
# Indices 1 2 3 4 5 6 
#
# 1 99.0534 32.7396 35.5740 0.0000 0.0000 0.0000
# 2 32.7396 82.1709 38.5358 0.0000 0.0000 0.0000
# 3 35.5740 38.5358 87.2114 0.0000 0.0000 0.0000
# 4 0.0000 0.0000 0.0000 35.0482 0.0000 0.0000
# 5 0.0000 0.0000 0.0000 0.0000 30.3152 0.0000
# 6 0.0000 0.0000 0.0000 0.0000 0.0000 26.6071
#
#
#
# Elastic Compliance Matrix: (Units=1/GPa)
#
#
# Indices 1 2 3 4 5 6 
#
# 1 0.012485 -0.003262 -0.003651 0.000000 0.000000 0.000000
# 2 -0.003262 0.016203 -0.005829 0.000000 0.000000 0.000000
# 3 -0.003651 -0.005829 0.015531 0.000000 0.000000 0.000000
# 4 0.000000 0.000000 0.000000 0.028532 0.000000 0.000000
# 5 0.000000 0.000000 0.000000 0.000000 0.032987 0.000000
# 6 0.000000 0.000000 0.000000 0.000000 0.000000 0.037584
#
#
# Mechanical properties :
#
#
# Convention : Reuss Voigt Hill
#
# Bulk Modulus (GPa) = 53.37660 53.57051 53.47355
# Shear Modulus (GPa) = 28.56290 29.16652 28.86471
#
# Velocity S-wave (km/s) = 3.87823 3.91899 3.89866
# Velocity P-wave (km/s) = 6.93983 6.97762 6.95875
#
# Compressibility (1/GPa) = 0.01873480
#
# Stress axis : x y z
#
# Youngs Moduli (GPa) = 80.09543 61.71655 64.38558
#
# Poissons Ratio (x) = 0.20133 0.23509
# Poissons Ratio (y) = 0.26128 0.37530
# Poissons Ratio (z) = 0.29245 0.35975
#
# Static dielectric constant tensor:
#      x y z
#    x 3.489270 0.000000 0.000000 
#    y 0.000000 3.369440 0.000000 
#    z 0.000000 0.000000 3.415720 
# 
# 
# High freq. dielectric constant tensor:
#      x y z
#    x 1.739930 0.000000 0.000000 
#    y 0.000000 1.733970 0.000000 
#    z 0.000000 0.000000 1.739780 
# 
# From -- ./inp_files/5201.got.cif
#   From: 2010.03.12/outbox.cif.g09.slc.cpg/sg57_3_cif.got.tgz:5201.got - 2010.04.16 15:48:40.
