data_PCOD8233887
_publ_section_title
;
Structure prediction by ZEFSAII (Michael W. Deem and Ramdas Pophale) SiO2 
 PCOD8233887
Probable space group: P B C M
;
_chemical_formula_sum "Si O2"
_cell_formula_units_Z 48
_cell_length_a 29.539411
_cell_length_b 10.121098
_cell_length_c 8.615297
_cell_angle_alpha 90.000000
_cell_angle_beta 90.000000
_cell_angle_gamma 90.000000
_cell_volume 2575.726316
_symmetry_space_group_name_H-M "P B C M"
_symmetry_group_IT_number 57
_symmetry_cell_setting 'orthorhombic'
loop_
_space_group_symop_operation_xyz
x,y,z
-x,-y,1/2+z
x,1/2-y,-z
-x,1/2+y,1/2-z
-x,-y,-z
x,y,1/2-z
-x,1/2+y,z
x,1/2-y,1/2+z
loop_
_atom_site_type_symbol
_atom_site_label
_atom_site_fract_x
_atom_site_fract_y
_atom_site_fract_z
Si Si1 0.033580 0.391960 0.565822
Si Si2 0.868975 0.610691 0.933542
Si Si3 0.531043 0.888008 0.431309
Si Si4 0.796508 0.109678 0.067112
Si Si5 0.364779 0.109945 0.567207
Si Si6 0.699881 0.108606 0.933272
O O1 0.018904 0.250000 0.500000
O O2 0.031147 0.388731 0.750000
O O3 0.083894 0.429354 0.511849
O O4 0.000000 0.500000 0.500000
O O5 0.875952 0.622561 0.750000
O O6 0.833031 0.499593 0.979803
O O7 0.851258 0.750000 0.000000
O O8 0.514289 0.750000 0.500000
O O9 0.524041 0.882596 0.250000
O O10 0.583015 0.915412 0.476034
O O11 0.500000 0.000000 0.500000
O O12 0.790886 0.123020 0.250000
O O13 0.812713 0.250000 0.000000
O O14 0.748775 0.065191 0.996269
O O15 0.348510 0.250000 0.500000
O O16 0.355980 0.107094 0.750000
O O17 0.336928 0.996659 0.484021
O O18 0.702076 0.118379 0.750000
O O19 0.685240 0.250000 0.000000
#
# Coordination Sequence:
#
# PCOD8233887 Si02
#       6
#     8   8   8   8   8   8
#     4  11  22  38  59  83 113 147 185 229 276 327
#     4  10  21  37  57  82 111 144 183 226 273 325
#     4  10  21  37  58  82 111 145 182 226 273 325
#     4  10  21  37  57  81 111 144 182 227 273 326
#     4  10  21  38  58  82 111 144 183 226 274 326
#     4  11  22  37  58  82 111 146 184 228 275 325
#
# _framework density 18.635518999999999
#
# number of rings (size 3 to 8) (size 9 to 14) (size 15 to 20)
#    0.000    1.667    0.000    7.000    0.000    6.667 
#    0.000    3.333    0.000    0.000    0.000    0.000 
#    0.000    0.000    0.000    0.000    0.000    0.000 
#
# Total GULP energy -595409.551956 kJ/mol
# GULP energy per Si atom -12404.365666 kJ/mol
# Density = 1.859310 g / cm^3
# Si number density = 18.635519 Si / 1000 Ang^3
#
#
#
# Elastic Constant Matrix: (Units=GPa)
#
#
# Indices 1 2 3 4 5 6 
#
# 1 110.5480 110.1388 64.2823 0.0000 0.0000 0.0000
# 2 110.1388 168.7903 76.4855 0.0000 0.0000 0.0000
# 3 64.2823 76.4855 130.1263 0.0000 0.0000 0.0000
# 4 0.0000 0.0000 0.0000 39.0440 0.0000 0.0000
# 5 0.0000 0.0000 0.0000 0.0000 33.7808 0.0000
# 6 0.0000 0.0000 0.0000 0.0000 0.0000 46.6385
#
#
#
# Elastic Compliance Matrix: (Units=1/GPa)
#
#
# Indices 1 2 3 4 5 6 
#
# 1 0.027385 -0.016001 -0.004123 0.000000 0.000000 0.000000
# 2 -0.016001 0.017425 -0.002337 0.000000 0.000000 0.000000
# 3 -0.004123 -0.002337 0.011096 0.000000 0.000000 0.000000
# 4 0.000000 0.000000 0.000000 0.025612 0.000000 0.000000
# 5 0.000000 0.000000 0.000000 0.000000 0.029603 0.000000
# 6 0.000000 0.000000 0.000000 0.000000 0.000000 0.021442
#
#
# Mechanical properties :
#
#
# Convention : Reuss Voigt Hill
#
# Bulk Modulus (GPa) = 91.05598 101.25309 96.15453
# Shear Modulus (GPa) = 27.60215 34.46317 31.03266
#
# Velocity S-wave (km/s) = 3.85276 4.30505 4.08517
# Velocity P-wave (km/s) = 8.29212 8.89733 8.60005
#
# Compressibility (1/GPa) = 0.01098225
#
# Stress axis : x y z
#
# Youngs Moduli (GPa) = 36.51612 57.39032 90.12616
#
# Poissons Ratio (x) = 0.91830 0.37161
# Poissons Ratio (y) = 0.58429 0.21065
# Poissons Ratio (z) = 0.15057 0.13414
#
# Static dielectric constant tensor:
#      x y z
#    x 3.412320 0.000000 0.000000 
#    y 0.000000 3.642180 0.000000 
#    z 0.000000 0.000000 3.620210 
# 
# 
# High freq. dielectric constant tensor:
#      x y z
#    x 1.723920 0.000000 0.000000 
#    y 0.000000 1.733020 0.000000 
#    z 0.000000 0.000000 1.747030 
# 
# From -- ./inp_files/9991.got.cif
#   From: 2010.03.12/outbox.cif.g09.slc.cpg/sg57_5_cif.got.tgz:9991.got - 2010.04.16 15:48:40.
