data_PCOD8233085
_publ_section_title
;
Structure prediction by ZEFSAII (Michael W. Deem and Ramdas Pophale) SiO2 
 PCOD8233085
Probable space group: P B C M
;
_chemical_formula_sum "Si O2"
_cell_formula_units_Z 56
_cell_length_a 21.390415
_cell_length_b 14.966482
_cell_length_c 8.787446
_cell_angle_alpha 90.000000
_cell_angle_beta 90.000000
_cell_angle_gamma 90.000000
_cell_volume 2813.206469
_symmetry_space_group_name_H-M "P B C M"
_symmetry_group_IT_number 57
_symmetry_cell_setting 'orthorhombic'
loop_
_space_group_symop_operation_xyz
x,y,z
-x,-y,1/2+z
x,1/2-y,-z
-x,1/2+y,1/2-z
-x,-y,-z
x,y,1/2-z
-x,1/2+y,z
x,1/2-y,1/2+z
loop_
_atom_site_type_symbol
_atom_site_label
_atom_site_fract_x
_atom_site_fract_y
_atom_site_fract_z
Si Si1 0.281118 0.986709 0.069022
Si Si2 0.615769 0.347674 0.429356
Si Si3 0.909766 0.843758 0.930338
Si Si4 0.849121 0.487686 0.569224
Si Si5 0.948159 0.342293 0.571420
Si Si6 0.344868 0.151645 0.930713
Si Si7 0.519190 0.655244 0.926818
O O1 0.278722 0.991079 0.250000
O O2 0.332492 0.916148 0.008644
O O3 0.215449 0.953384 0.002249
O O4 0.295075 0.085099 0.004252
O O5 0.626017 0.250000 0.500000
O O6 0.622512 0.335856 0.250000
O O7 0.547010 0.391889 0.470837
O O8 0.901409 0.842513 0.750000
O O9 0.981147 0.865047 0.979401
O O10 0.888562 0.750000 0.000000
O O11 0.864132 0.915490 0.003630
O O12 0.843965 0.491533 0.750000
O O13 0.903297 0.420736 0.513285
O O14 0.924768 0.250000 0.500000
O O15 0.944054 0.330637 0.750000
O O16 0.334676 0.156199 0.750000
O O17 0.414360 0.111799 0.975572
O O18 0.335112 0.250000 0.000000
O O19 0.522042 0.671889 0.750000
O O20 0.514521 0.750000 0.000000
#
# Coordination Sequence:
#
# PCOD8233085 Si02
#       7
#     8   8   8   8   8   8   8
#     4  11  24  39  54  78 111 149 190 227 269 324
#     4   9  19  36  57  80 109 143 181 227 276 327
#     4  10  20  37  61  89 116 144 179 222 273 325
#     4  11  23  39  57  81 113 149 188 228 269 318
#     4   9  20  37  60  88 116 145 180 223 271 323
#     4  10  20  36  58  82 109 141 179 227 279 331
#     4   8  15  30  53  80 106 135 174 221 276 330
#
# _framework density 19.906110000000002
#
# number of rings (size 3 to 8) (size 9 to 14) (size 15 to 20)
#    0.000    2.286    0.000    2.143    0.000    5.143 
#    0.000    5.714    0.000    0.000    0.000    0.000 
#    0.000    0.000    0.000    0.000    0.000    0.000 
#
# Total GULP energy -694096.579374 kJ/mol
# GULP energy per Si atom -12394.581775 kJ/mol
# Density = 1.986080 g / cm^3
# Si number density = 19.906110 Si / 1000 Ang^3
#
#
#
# Elastic Constant Matrix: (Units=GPa)
#
#
# Indices 1 2 3 4 5 6 
#
# 1 70.8504 16.3679 18.6288 0.0000 0.0000 0.0000
# 2 16.3679 64.4424 17.2527 0.0000 0.0000 0.0000
# 3 18.6288 17.2527 51.0623 0.0000 0.0000 0.0000
# 4 0.0000 0.0000 0.0000 30.3207 0.0000 0.0000
# 5 0.0000 0.0000 0.0000 0.0000 33.0615 0.0000
# 6 0.0000 0.0000 0.0000 0.0000 0.0000 26.5911
#
#
#
# Elastic Compliance Matrix: (Units=1/GPa)
#
#
# Indices 1 2 3 4 5 6 
#
# 1 0.016045 -0.002758 -0.004922 0.000000 0.000000 0.000000
# 2 -0.002758 0.017535 -0.004919 0.000000 0.000000 0.000000
# 3 -0.004922 -0.004919 0.023041 0.000000 0.000000 0.000000
# 4 0.000000 0.000000 0.000000 0.032981 0.000000 0.000000
# 5 0.000000 0.000000 0.000000 0.000000 0.030247 0.000000
# 6 0.000000 0.000000 0.000000 0.000000 0.000000 0.037607
#
#
# Mechanical properties :
#
#
# Convention : Reuss Voigt Hill
#
# Bulk Modulus (GPa) = 31.82145 32.31710 32.06927
# Shear Modulus (GPa) = 25.88963 26.93505 26.41234
#
# Velocity S-wave (km/s) = 3.61028 3.68245 3.64654
# Velocity P-wave (km/s) = 5.77921 5.86094 5.82022
#
# Compressibility (1/GPa) = 0.03142534
#
# Stress axis : x y z
#
# Youngs Moduli (GPa) = 62.32286 57.02886 43.40008
#
# Poissons Ratio (x) = 0.15727 0.21362
# Poissons Ratio (y) = 0.17187 0.21347
# Poissons Ratio (z) = 0.30675 0.28050
#
# Static dielectric constant tensor:
#      x y z
#    x 4.084750 0.000000 0.000000 
#    y 0.000000 3.480250 0.000000 
#    z 0.000000 0.000000 3.520360 
# 
# 
# High freq. dielectric constant tensor:
#      x y z
#    x 1.789060 0.000000 0.000000 
#    y 0.000000 1.763860 0.000000 
#    z 0.000000 0.000000 1.778270 
# 
# From -- ./inp_files/8152.got.cif
#   From: 2010.03.12/outbox.cif.g09.slc.cpg/sg57_5_cif.got.tgz:8152.got - 2010.04.16 15:48:40.
