data_PCOD8233111
_publ_section_title
;
Structure prediction by ZEFSAII (Michael W. Deem and Ramdas Pophale) SiO2 
 PCOD8233111
Probable space group: P B C M
;
_chemical_formula_sum "Si O2"
_cell_formula_units_Z 48
_cell_length_a 30.827638
_cell_length_b 9.111097
_cell_length_c 8.634789
_cell_angle_alpha 90.000000
_cell_angle_beta 90.000000
_cell_angle_gamma 90.000000
_cell_volume 2425.284273
_symmetry_space_group_name_H-M "P B C M"
_symmetry_group_IT_number 57
_symmetry_cell_setting 'orthorhombic'
loop_
_space_group_symop_operation_xyz
x,y,z
-x,-y,1/2+z
x,1/2-y,-z
-x,1/2+y,1/2-z
-x,-y,-z
x,y,1/2-z
-x,1/2+y,z
x,1/2-y,1/2+z
loop_
_atom_site_type_symbol
_atom_site_label
_atom_site_fract_x
_atom_site_fract_y
_atom_site_fract_z
Si Si1 0.960546 0.410159 0.567795
Si Si2 0.786441 0.589914 0.066190
Si Si3 0.295316 0.590837 0.568408
Si Si4 0.877063 0.591779 0.932728
Si Si5 0.620146 0.587723 0.433429
Si Si6 0.540327 0.087696 0.066156
O O1 0.961774 0.250000 0.500000
O O2 0.965838 0.404078 0.750000
O O3 0.915216 0.482720 0.518318
O O4 0.000000 0.500000 0.500000
O O5 0.787332 0.600515 0.250000
O O6 0.749584 0.478380 0.006188
O O7 0.776248 0.750000 0.000000
O O8 0.832477 0.530353 0.004834
O O9 0.303645 0.750000 0.500000
O O10 0.293252 0.609677 0.750000
O O11 0.333822 0.481792 0.520368
O O12 0.871555 0.605428 0.750000
O O13 0.888844 0.750000 0.000000
O O14 0.617875 0.750000 0.500000
O O15 0.612437 0.590416 0.250000
O O16 0.584131 0.489797 0.514323
O O17 0.537515 0.093057 0.250000
O O18 0.539352 0.250000 0.000000
O O19 0.500000 0.000000 0.000000
#
# Coordination Sequence:
#
# PCOD8233111 Si02
#       6
#     8   8   8   8   8   8
#     4  11  24  40  60  85 115 150 191 236 288 344
#     4  10  20  36  58  85 114 150 192 236 284 341
#     4  10  23  39  58  85 118 154 195 240 291 345
#     4  10  21  37  58  85 114 149 189 234 285 341
#     4  11  23  41  63  90 121 157 199 245 296 351
#     4  12  25  43  65  92 124 160 200 245 295 350
#
# _framework density 19.791495000000001
#
# number of rings (size 3 to 8) (size 9 to 14) (size 15 to 20)
#    0.000    1.333    0.000    6.500    0.000    8.667 
#    0.000    3.333    0.000    0.000    0.000    0.000 
#    0.000    0.000    0.000    0.000    0.000    0.000 
#
# Total GULP energy -595412.763770 kJ/mol
# GULP energy per Si atom -12404.432579 kJ/mol
# Density = 1.974645 g / cm^3
# Si number density = 19.791495 Si / 1000 Ang^3
#
#
#
# Elastic Constant Matrix: (Units=GPa)
#
#
# Indices 1 2 3 4 5 6 
#
# 1 163.3522 95.9231 75.3778 0.0000 0.0000 0.0000
# 2 95.9231 166.6098 61.5833 0.0000 0.0000 0.0000
# 3 75.3778 61.5833 108.9800 0.0000 0.0000 0.0000
# 4 0.0000 0.0000 0.0000 38.6928 0.0000 0.0000
# 5 0.0000 0.0000 0.0000 0.0000 33.7558 0.0000
# 6 0.0000 0.0000 0.0000 0.0000 0.0000 79.8718
#
#
#
# Elastic Compliance Matrix: (Units=1/GPa)
#
#
# Indices 1 2 3 4 5 6 
#
# 1 0.011156 -0.004513 -0.005166 0.000000 0.000000 0.000000
# 2 -0.004513 0.009413 -0.002197 0.000000 0.000000 0.000000
# 3 -0.005166 -0.002197 0.013990 0.000000 0.000000 0.000000
# 4 0.000000 0.000000 0.000000 0.025845 0.000000 0.000000
# 5 0.000000 0.000000 0.000000 0.000000 0.029625 0.000000
# 6 0.000000 0.000000 0.000000 0.000000 0.000000 0.012520
#
#
# Mechanical properties :
#
#
# Convention : Reuss Voigt Hill
#
# Bulk Modulus (GPa) = 92.53698 100.52336 96.53017
# Shear Modulus (GPa) = 38.49039 44.20131 41.34585
#
# Velocity S-wave (km/s) = 4.41477 4.73096 4.57559
# Velocity P-wave (km/s) = 8.53489 8.98577 8.76323
#
# Compressibility (1/GPa) = 0.01080649
#
# Stress axis : x y z
#
# Youngs Moduli (GPa) = 89.64041 106.23915 71.47729
#
# Poissons Ratio (x) = 0.47950 0.36922
# Poissons Ratio (y) = 0.40458 0.15705
# Poissons Ratio (z) = 0.46304 0.23343
#
# Static dielectric constant tensor:
#      x y z
#    x 4.187660 0.000000 0.000000 
#    y 0.000000 3.670920 0.000000 
#    z 0.000000 0.000000 3.745740 
# 
# 
# High freq. dielectric constant tensor:
#      x y z
#    x 1.793440 0.000000 0.000000 
#    y 0.000000 1.780370 0.000000 
#    z 0.000000 0.000000 1.785360 
# 
# From -- ./inp_files/9968.got.cif
#   From: 2010.03.12/outbox.cif.g09.slc.cpg/sg57_5_cif.got.tgz:9968.got - 2010.04.16 15:48:40.
