data_PCOD8233404
_publ_section_title
;
Structure prediction by ZEFSAII (Michael W. Deem and Ramdas Pophale) SiO2 
 PCOD8233404
Probable space group: P B C M
;
_chemical_formula_sum "Si O2"
_cell_formula_units_Z 64
_cell_length_a 22.423552
_cell_length_b 9.194124
_cell_length_c 15.046869
_cell_angle_alpha 90.000000
_cell_angle_beta 90.000000
_cell_angle_gamma 90.000000
_cell_volume 3102.136508
_symmetry_space_group_name_H-M "P B C M"
_symmetry_group_IT_number 57
_symmetry_cell_setting 'orthorhombic'
loop_
_space_group_symop_operation_xyz
x,y,z
-x,-y,1/2+z
x,1/2-y,-z
-x,1/2+y,1/2-z
-x,-y,-z
x,y,1/2-z
-x,1/2+y,z
x,1/2-y,1/2+z
loop_
_atom_site_type_symbol
_atom_site_label
_atom_site_fract_x
_atom_site_fract_y
_atom_site_fract_z
Si Si1 0.279958 0.088706 0.149327
Si Si2 0.201300 0.131838 0.851678
Si Si3 0.740655 0.406086 0.522837
Si Si4 0.366193 0.954295 0.647731
Si Si5 0.934125 0.643694 0.850961
Si Si6 0.599970 0.768143 0.849006
Si Si7 0.481560 0.868450 0.939352
Si Si8 0.024905 0.869461 0.558995
O O1 0.262226 0.037525 0.250000
O O2 0.246161 0.237960 0.126239
O O3 0.351491 0.104812 0.144490
O O4 0.264769 0.973501 0.074854
O O5 0.209951 0.079455 0.750000
O O6 0.134262 0.186833 0.868494
O O7 0.214384 0.997409 0.916411
O O8 0.768638 0.250000 0.500000
O O9 0.678812 0.381298 0.577506
O O10 0.346100 0.926540 0.750000
O O11 0.434895 0.903425 0.638371
O O12 0.365180 0.123492 0.620890
O O13 0.953256 0.665476 0.750000
O O14 0.939898 0.467129 0.869227
O O15 0.972936 0.762657 0.903970
O O16 0.575967 0.746086 0.750000
O O17 0.542561 0.799155 0.906045
O O18 0.448442 0.750000 0.000000
O O19 0.500000 0.000000 0.000000
O O20 0.063408 0.750000 0.500000
O O21 0.000000 0.000000 0.500000
#
# Coordination Sequence:
#
# PCOD8233404 Si02
#       8
#     8   8   8   8   8   8   8   8
#     4  10  22  41  66  91 116 157 209 256 301 369
#     4  10  22  41  66  93 121 165 219 260 300 365
#     4  12  25  40  63  92 124 160 196 255 328 378
#     4  11  23  41  62  87 121 158 201 253 308 370
#     4  10  20  37  62  92 126 166 213 257 304 362
#     4  10  21  39  61  84 113 152 199 249 301 364
#     4  12  23  37  57  85 116 151 198 247 300 368
#     4   9  19  34  55  86 128 168 207 255 305 358
#
# _framework density 20.630942999999998
#
# number of rings (size 3 to 8) (size 9 to 14) (size 15 to 20)
#    0.000    1.500    2.500    2.625    0.000    4.500 
#    0.000    2.500    0.000    6.000    0.000    0.000 
#    0.000    0.000    0.000    0.000    0.000    0.000 
#
# Total GULP energy -792876.204122 kJ/mol
# GULP energy per Si atom -12388.690689 kJ/mol
# Density = 2.058399 g / cm^3
# Si number density = 20.630943 Si / 1000 Ang^3
#
#
#
# Elastic Constant Matrix: (Units=GPa)
#
#
# Indices 1 2 3 4 5 6 
#
# 1 68.7612 19.5854 33.7557 0.0000 0.0000 0.0000
# 2 19.5854 113.4972 57.9903 0.0000 0.0000 0.0000
# 3 33.7557 57.9903 111.0399 0.0000 0.0000 0.0000
# 4 0.0000 0.0000 0.0000 30.0170 0.0000 0.0000
# 5 0.0000 0.0000 0.0000 0.0000 25.9898 0.0000
# 6 0.0000 0.0000 0.0000 0.0000 0.0000 9.1774
#
#
#
# Elastic Compliance Matrix: (Units=1/GPa)
#
#
# Indices 1 2 3 4 5 6 
#
# 1 0.017108 -0.000402 -0.004991 0.000000 0.000000 0.000000
# 2 -0.000402 0.012027 -0.006159 0.000000 0.000000 0.000000
# 3 -0.004991 -0.006159 0.013739 0.000000 0.000000 0.000000
# 4 0.000000 0.000000 0.000000 0.033315 0.000000 0.000000
# 5 0.000000 0.000000 0.000000 0.000000 0.038477 0.000000
# 6 0.000000 0.000000 0.000000 0.000000 0.000000 0.108964
#
#
# Mechanical properties :
#
#
# Convention : Reuss Voigt Hill
#
# Bulk Modulus (GPa) = 50.58001 57.32904 53.95452
# Shear Modulus (GPa) = 19.73772 25.16795 22.45283
#
# Velocity S-wave (km/s) = 3.09642 3.49651 3.30253
# Velocity P-wave (km/s) = 6.11176 6.64447 6.38367
#
# Compressibility (1/GPa) = 0.01977066
#
# Stress axis : x y z
#
# Youngs Moduli (GPa) = 58.45360 83.14641 72.78395
#
# Poissons Ratio (x) = 0.03345 0.36323
# Poissons Ratio (y) = 0.02351 0.44826
# Poissons Ratio (z) = 0.29172 0.51208
#
# Static dielectric constant tensor:
#      x y z
#    x 3.586810 0.000000 0.000000 
#    y 0.000000 3.257000 0.000000 
#    z 0.000000 0.000000 4.111800 
# 
# 
# High freq. dielectric constant tensor:
#      x y z
#    x 1.790090 0.000000 0.000000 
#    y 0.000000 1.803160 0.000000 
#    z 0.000000 0.000000 1.825190 
# 
# From -- ./inp_files/19493.got.cif
#   From: 2010.03.12/outbox.cif.g09.slc.cpg/sg57_10_cif.got.tgz:19493.got - 2010.04.16 15:48:40.
