data_PCOD8233006
_publ_section_title
;
Structure prediction by ZEFSAII (Michael W. Deem and Ramdas Pophale) SiO2 
 PCOD8233006
Probable space group: P B C M
;
_chemical_formula_sum "Si O2"
_cell_formula_units_Z 56
_cell_length_a 17.969061
_cell_length_b 19.109670
_cell_length_c 8.866244
_cell_angle_alpha 90.000000
_cell_angle_beta 90.000000
_cell_angle_gamma 90.000000
_cell_volume 3044.515920
_symmetry_space_group_name_H-M "P B C M"
_symmetry_group_IT_number 57
_symmetry_cell_setting 'orthorhombic'
loop_
_space_group_symop_operation_xyz
x,y,z
-x,-y,1/2+z
x,1/2-y,-z
-x,1/2+y,1/2-z
-x,-y,-z
x,y,1/2-z
-x,1/2+y,z
x,1/2-y,1/2+z
loop_
_atom_site_type_symbol
_atom_site_label
_atom_site_fract_x
_atom_site_fract_y
_atom_site_fract_z
Si Si1 0.471826 0.823603 0.075866
Si Si2 0.804579 0.432644 0.929540
Si Si3 0.962348 0.433128 0.426288
Si Si4 0.089548 0.175583 0.924740
Si Si5 0.228362 0.412109 0.429362
Si Si6 0.310421 0.826743 0.428517
Si Si7 0.632351 0.826034 0.428027
O O1 0.473962 0.807084 0.250000
O O2 0.393009 0.860956 0.037156
O O3 0.550684 0.860277 0.030645
O O4 0.470892 0.750000 0.000000
O O5 0.807362 0.428876 0.750000
O O6 0.778392 0.508658 0.988543
O O7 0.885285 0.415297 0.993990
O O8 0.748394 0.375739 0.991985
O O9 0.950447 0.447815 0.250000
O O10 0.000000 0.500000 0.500000
O O11 0.014205 0.366463 0.454507
O O12 0.104087 0.187873 0.750000
O O13 0.159268 0.132729 0.993727
O O14 0.081897 0.250000 0.000000
O O15 0.226005 0.412906 0.250000
O O16 0.305097 0.378747 0.491246
O O17 0.303909 0.750000 0.500000
O O18 0.294946 0.822217 0.250000
O O19 0.643177 0.750000 0.500000
O O20 0.642056 0.816874 0.250000
#
# Coordination Sequence:
#
# PCOD8233006 Si02
#       7
#     8   8   8   8   8   8   8
#     4   8  15  28  49  75 104 138 177 222 270 321
#     4  11  22  38  58  80 109 145 184 224 274 330
#     4  11  22  39  60  81 109 144 186 228 274 330
#     4  10  21  37  56  82 111 140 177 222 267 320
#     4   9  18  34  53  76 110 146 179 217 267 324
#     4  10  20  36  56  81 109 139 181 230 278 326
#     4   9  16  29  51  77 106 142 181 222 269 319
#
# _framework density 18.393727999999999
#
# number of rings (size 3 to 8) (size 9 to 14) (size 15 to 20)
#    0.000    2.286    1.429    1.714    0.000    2.286 
#    0.000    3.571    0.000    0.000    0.000    0.000 
#    0.000    0.000    0.000    0.000    0.000    0.000 
#
# Total GULP energy -693955.826443 kJ/mol
# GULP energy per Si atom -12392.068329 kJ/mol
# Density = 1.835186 g / cm^3
# Si number density = 18.393728 Si / 1000 Ang^3
#
#
#
# Elastic Constant Matrix: (Units=GPa)
#
#
# Indices 1 2 3 4 5 6 
#
# 1 190.5718 76.7888 57.3780 0.0000 0.0000 0.0000
# 2 76.7888 115.7324 43.1563 0.0000 0.0000 0.0000
# 3 57.3780 43.1563 59.8262 0.0000 0.0000 0.0000
# 4 0.0000 0.0000 0.0000 27.3424 0.0000 0.0000
# 5 0.0000 0.0000 0.0000 0.0000 24.1129 0.0000
# 6 0.0000 0.0000 0.0000 0.0000 0.0000 -28.8008
#
#
#
# Elastic Compliance Matrix: (Units=1/GPa)
#
#
# Indices 1 2 3 4 5 6 
#
# 1 0.008283 -0.003466 -0.005444 0.000000 0.000000 0.000000
# 2 -0.003466 0.013270 -0.006249 0.000000 0.000000 0.000000
# 3 -0.005444 -0.006249 0.026444 0.000000 0.000000 0.000000
# 4 0.000000 0.000000 0.000000 0.036573 0.000000 0.000000
# 5 0.000000 0.000000 0.000000 0.000000 0.041472 0.000000
# 6 0.000000 0.000000 0.000000 0.000000 0.000000 -0.034721
#
#
# Mechanical properties :
#
#
# Convention : Reuss Voigt Hill
#
# Bulk Modulus (GPa) = 56.56040 80.08629 68.32334
# Shear Modulus (GPa) = 39.20624 17.11807 28.16216
#
# Velocity S-wave (km/s) = 4.62183 3.05396 3.91714
# Velocity P-wave (km/s) = 7.70054 7.48800 7.59501
#
# Compressibility (1/GPa) = 0.01768021
#
# Stress axis : x y z
#
# Youngs Moduli (GPa) = 120.73053 75.35633 37.81598
#
# Poissons Ratio (x) = 0.26116 0.20587
# Poissons Ratio (y) = 0.41842 0.23630
# Poissons Ratio (z) = 0.65725 0.47088
#
# Static dielectric constant tensor:
#      x y z
#    x 4.012830 0.000000 0.000000 
#    y 0.000000 3.032680 0.000000 
#    z 0.000000 0.000000 3.467190 
# 
# 
# High freq. dielectric constant tensor:
#      x y z
#    x 1.740140 0.000000 0.000000 
#    y 0.000000 1.691650 0.000000 
#    z 0.000000 0.000000 1.705400 
# 
# From -- ./inp_files/7080.got.cif
#   From: 2010.03.12/outbox.cif.g09.slc.cpg/sg57_4_cif.got.tgz:7080.got - 2010.04.16 15:48:40.
