data_PCOD8233977
_publ_section_title
;
Structure prediction by ZEFSAII (Michael W. Deem and Ramdas Pophale) SiO2 
 PCOD8233977
Probable space group: P B C M
;
_chemical_formula_sum "Si O2"
_cell_formula_units_Z 48
_cell_length_a 15.235867
_cell_length_b 8.951346
_cell_length_c 17.155347
_cell_angle_alpha 90.000000
_cell_angle_beta 90.000000
_cell_angle_gamma 90.000000
_cell_volume 2339.672251
_symmetry_space_group_name_H-M "P B C M"
_symmetry_group_IT_number 57
_symmetry_cell_setting 'orthorhombic'
loop_
_space_group_symop_operation_xyz
x,y,z
-x,-y,1/2+z
x,1/2-y,-z
-x,1/2+y,1/2-z
-x,-y,-z
x,y,1/2-z
-x,1/2+y,z
x,1/2-y,1/2+z
loop_
_atom_site_type_symbol
_atom_site_label
_atom_site_fract_x
_atom_site_fract_y
_atom_site_fract_z
Si Si1 0.424532 0.826459 0.340851
Si Si2 0.727505 0.173827 0.421170
Si Si3 0.075019 0.708846 0.412548
Si Si4 0.240576 0.175486 0.581977
Si Si5 0.067687 0.398219 0.339619
Si Si6 0.596219 0.838765 0.657003
O O1 0.438838 0.841776 0.250000
O O2 0.341364 0.719056 0.354899
O O3 0.512161 0.751255 0.375989
O O4 0.410178 0.991964 0.375686
O O5 0.692771 0.250000 0.500000
O O6 0.822189 0.243632 0.399220
O O7 0.731851 0.996136 0.429660
O O8 0.045524 0.750000 0.500000
O O9 0.057032 0.535582 0.398259
O O10 0.018818 0.798923 0.349548
O O11 0.217179 0.250000 0.500000
O O12 0.155161 0.192049 0.636707
O O13 0.317590 0.264684 0.622915
O O14 0.075436 0.449941 0.250000
O O15 0.601380 0.835162 0.750000
#
# Coordination Sequence:
#
# PCOD8233977 Si02
#       6
#     8   8   8   8   8   8
#     4  10  21  37  60  86 117 153 192 240 295 352
#     4  10  22  39  59  84 115 151 196 243 291 350
#     4  10  22  40  61  86 119 160 199 244 297 355
#     4  11  23  39  60  85 118 157 197 245 299 356
#     4  11  23  39  61  90 121 156 199 249 298 353
#     4  10  21  38  59  87 118 153 195 241 295 356
#
# _framework density 20.515692999999999
#
# number of rings (size 3 to 8) (size 9 to 14) (size 15 to 20)
#    0.000    1.667    0.000    4.000    0.000   10.000 
#    0.000    5.000    0.000    0.000    0.000    0.000 
#    0.000    0.000    0.000    0.000    0.000    0.000 
#
# Total GULP energy -595356.805276 kJ/mol
# GULP energy per Si atom -12403.266777 kJ/mol
# Density = 2.046900 g / cm^3
# Si number density = 20.515693 Si / 1000 Ang^3
#
#
#
# Elastic Constant Matrix: (Units=GPa)
#
#
# Indices 1 2 3 4 5 6 
#
# 1 121.6357 58.4288 42.8054 0.0000 0.0000 0.0000
# 2 58.4288 124.0011 41.3983 0.0000 0.0000 0.0000
# 3 42.8054 41.3983 70.7371 0.0000 0.0000 0.0000
# 4 0.0000 0.0000 0.0000 34.9321 0.0000 0.0000
# 5 0.0000 0.0000 0.0000 0.0000 30.6725 0.0000
# 6 0.0000 0.0000 0.0000 0.0000 0.0000 38.4014
#
#
#
# Elastic Compliance Matrix: (Units=1/GPa)
#
#
# Indices 1 2 3 4 5 6 
#
# 1 0.011825 -0.003956 -0.004841 0.000000 0.000000 0.000000
# 2 -0.003956 0.011346 -0.004246 0.000000 0.000000 0.000000
# 3 -0.004841 -0.004246 0.019551 0.000000 0.000000 0.000000
# 4 0.000000 0.000000 0.000000 0.028627 0.000000 0.000000
# 5 0.000000 0.000000 0.000000 0.000000 0.032602 0.000000
# 6 0.000000 0.000000 0.000000 0.000000 0.000000 0.026041
#
#
# Mechanical properties :
#
#
# Convention : Reuss Voigt Hill
#
# Bulk Modulus (GPa) = 60.10818 66.84877 63.47847
# Shear Modulus (GPa) = 30.93607 32.38395 31.66001
#
# Velocity S-wave (km/s) = 3.88741 3.97734 3.93263
# Velocity P-wave (km/s) = 7.03644 7.33125 7.18536
#
# Compressibility (1/GPa) = 0.01663667
#
# Stress axis : x y z
#
# Youngs Moduli (GPa) = 84.56689 88.13609 51.14769
#
# Poissons Ratio (x) = 0.34865 0.24758
# Poissons Ratio (y) = 0.33453 0.21719
# Poissons Ratio (z) = 0.40935 0.37426
#
# Static dielectric constant tensor:
#      x y z
#    x 3.853580 0.000000 0.000000 
#    y 0.000000 3.884630 0.000000 
#    z 0.000000 0.000000 3.557600 
# 
# 
# High freq. dielectric constant tensor:
#      x y z
#    x 1.815780 0.000000 0.000000 
#    y 0.000000 1.810980 0.000000 
#    z 0.000000 0.000000 1.791170 
# 
# From -- ./inp_files/22465.got.cif
#   From: 2010.03.12/outbox.cif.g09.slc.cpg/sg57_12_cif.got.tgz:22465.got - 2010.04.16 15:48:40.
