data_PCOD8233294
_publ_section_title
;
Structure prediction by ZEFSAII (Michael W. Deem and Ramdas Pophale) SiO2 
 PCOD8233294
Probable space group: P B C M
;
_chemical_formula_sum "Si O2"
_cell_formula_units_Z 64
_cell_length_a 18.391615
_cell_length_b 9.676549
_cell_length_c 19.309478
_cell_angle_alpha 90.000000
_cell_angle_beta 90.000000
_cell_angle_gamma 90.000000
_cell_volume 3436.456895
_symmetry_space_group_name_H-M "P B C M"
_symmetry_group_IT_number 57
_symmetry_cell_setting 'orthorhombic'
loop_
_space_group_symop_operation_xyz
x,y,z
-x,-y,1/2+z
x,1/2-y,-z
-x,1/2+y,1/2-z
-x,-y,-z
x,y,1/2-z
-x,1/2+y,z
x,1/2-y,1/2+z
loop_
_atom_site_type_symbol
_atom_site_label
_atom_site_fract_x
_atom_site_fract_y
_atom_site_fract_z
Si Si1 0.930045 0.899380 0.331100
Si Si2 0.311964 0.224052 0.921891
Si Si3 0.794866 0.531383 0.082736
Si Si4 0.442656 0.347817 0.169260
Si Si5 0.420870 0.663345 0.330876
Si Si6 0.199105 0.499308 0.073828
Si Si7 0.712954 0.244098 0.921771
Si Si8 0.933816 0.581100 0.169277
O O1 0.913633 0.918794 0.250000
O O2 0.859800 0.947574 0.372334
O O3 0.947907 0.740896 0.349451
O O4 0.997047 0.993208 0.355753
O O5 0.248952 0.330004 0.900253
O O6 0.380075 0.234261 0.871219
O O7 0.276925 0.073174 0.913775
O O8 0.339409 0.250000 0.000000
O O9 0.738505 0.408775 0.097534
O O10 0.863332 0.520123 0.132548
O O11 0.826205 0.532042 0.004560
O O12 0.425632 0.330105 0.250000
O O13 0.517744 0.274203 0.148986
O O14 0.446667 0.509053 0.147773
O O15 0.402994 0.668313 0.250000
O O16 0.348602 0.706778 0.369967
O O17 0.214836 0.661072 0.084654
O O18 0.681948 0.250000 0.000000
O O19 0.920654 0.560138 0.250000
#
# Coordination Sequence:
#
# PCOD8233294 Si02
#       8
#     8   8   8   8   8   8   8   8
#     4  10  22  38  58  82 113 148 186 231 277 331
#     4  10  20  37  59  84 111 145 188 231 278 333
#     4  10  22  37  58  84 114 145 182 235 277 328
#     4  10  22  39  59  83 114 149 189 232 278 334
#     4  10  22  40  59  83 114 149 189 232 278 333
#     4  10  20  39  59  81 112 145 187 229 278 332
#     4  10  22  39  58  85 116 146 186 234 281 331
#     4  10  22  39  56  82 114 147 187 229 277 332
#
# _framework density 18.623833000000001
#
# number of rings (size 3 to 8) (size 9 to 14) (size 15 to 20)
#    0.000    2.000    2.500    0.000    3.500    3.000 
#    0.000    1.250    0.000    0.000    0.000    0.000 
#    0.000    0.000    0.000    0.000    0.000    0.000 
#
# Total GULP energy -793795.994497 kJ/mol
# GULP energy per Si atom -12403.062414 kJ/mol
# Density = 1.858144 g / cm^3
# Si number density = 18.623833 Si / 1000 Ang^3
#
#
#
# Elastic Constant Matrix: (Units=GPa)
#
#
# Indices 1 2 3 4 5 6 
#
# 1 98.3248 36.4837 56.7161 0.0000 0.0000 0.0000
# 2 36.4837 77.1972 32.0725 0.0000 0.0000 0.0000
# 3 56.7161 32.0725 59.5737 0.0000 0.0000 0.0000
# 4 0.0000 0.0000 0.0000 24.3059 0.0000 0.0000
# 5 0.0000 0.0000 0.0000 0.0000 91.8028 0.0000
# 6 0.0000 0.0000 0.0000 0.0000 0.0000 21.1278
#
#
#
# Elastic Compliance Matrix: (Units=1/GPa)
#
#
# Indices 1 2 3 4 5 6 
#
# 1 0.022863 -0.002270 -0.020544 0.000000 0.000000 0.000000
# 2 -0.002270 0.016911 -0.006944 0.000000 0.000000 0.000000
# 3 -0.020544 -0.006944 0.040083 0.000000 0.000000 0.000000
# 4 0.000000 0.000000 0.000000 0.041142 0.000000 0.000000
# 5 0.000000 0.000000 0.000000 0.000000 0.010893 0.000000
# 6 0.000000 0.000000 0.000000 0.000000 0.000000 0.047331
#
#
# Mechanical properties :
#
#
# Convention : Reuss Voigt Hill
#
# Bulk Modulus (GPa) = 49.15958 53.96002 51.55980
# Shear Modulus (GPa) = 20.36496 34.76888 27.56692
#
# Velocity S-wave (km/s) = 3.31038 4.32545 3.85151
# Velocity P-wave (km/s) = 6.40819 7.34729 6.89375
#
# Compressibility (1/GPa) = 0.02034192
#
# Stress axis : x y z
#
# Youngs Moduli (GPa) = 43.73863 59.13193 24.94820
#
# Poissons Ratio (x) = 0.13422 0.51255
# Poissons Ratio (y) = 0.09928 0.17323
# Poissons Ratio (z) = 0.89858 0.41059
#
# Static dielectric constant tensor:
#      x y z
#    x 3.205090 0.000000 0.000000 
#    y 0.000000 3.688600 0.000000 
#    z 0.000000 0.000000 3.378250 
# 
# 
# High freq. dielectric constant tensor:
#      x y z
#    x 1.715620 0.000000 0.000000 
#    y 0.000000 1.741210 0.000000 
#    z 0.000000 0.000000 1.719340 
# 
# From -- ./inp_files/25623.got.cif
#   From: 2010.03.12/outbox.cif.g09.slc.cpg/sg57_13_cif.got.tgz:25623.got - 2010.04.16 15:48:40.
