data_PCOD8233518
_publ_section_title
;
Structure prediction by ZEFSAII (Michael W. Deem and Ramdas Pophale) SiO2 
 PCOD8233518
Probable space group: P B C M
;
_chemical_formula_sum "Si O2"
_cell_formula_units_Z 40
_cell_length_a 9.415449
_cell_length_b 14.754154
_cell_length_c 13.504387
_cell_angle_alpha 90.000000
_cell_angle_beta 90.000000
_cell_angle_gamma 90.000000
_cell_volume 1875.988720
_symmetry_space_group_name_H-M "P B C M"
_symmetry_group_IT_number 57
_symmetry_cell_setting 'orthorhombic'
loop_
_space_group_symop_operation_xyz
x,y,z
-x,-y,1/2+z
x,1/2-y,-z
-x,1/2+y,1/2-z
-x,-y,-z
x,y,1/2-z
-x,1/2+y,z
x,1/2-y,1/2+z
loop_
_atom_site_type_symbol
_atom_site_label
_atom_site_fract_x
_atom_site_fract_y
_atom_site_fract_z
Si Si1 0.341717 0.971134 0.476623
Si Si2 0.889357 0.685379 0.858752
Si Si3 0.857020 0.881424 0.567394
Si Si4 0.164458 0.895270 0.632938
Si Si5 0.779983 0.192209 0.638224
O O1 0.270409 0.967875 0.585481
O O2 0.323366 0.872634 0.425305
O O3 0.500000 0.000000 0.500000
O O4 0.262942 0.044432 0.404613
O O5 0.835636 0.651620 0.750000
O O6 0.851403 0.792179 0.864544
O O7 0.056026 0.663207 0.867852
O O8 0.818087 0.637543 0.952027
O O9 0.013961 0.920803 0.583478
O O10 0.155382 0.906295 0.750000
O O11 0.221349 0.796050 0.600008
O O12 0.722767 0.188285 0.750000
#
# Coordination Sequence:
#
# PCOD8233518 Si02
#       5
#     8   8   8   8   8
#     4  12  25  39  58  90 133 168 200 250 317 384
#     4   9  18  36  64  91 116 150 202 261 307 355
#     4  10  20  38  61  92 119 152 207 261 309 355
#     4  10  21  41  66  90 117 159 215 266 308 366
#     4   9  19  38  64  87 114 159 205 250 310 368
#
# _framework density 21.322089999999999
#
# number of rings (size 3 to 8) (size 9 to 14) (size 15 to 20)
#    0.000    2.000    2.000    3.000    0.000    3.200 
#    7.200    0.000    0.000    0.000    0.000    0.000 
#    0.000    0.000    0.000    0.000    0.000    0.000 
#
# Total GULP energy -495598.609629 kJ/mol
# GULP energy per Si atom -12389.965241 kJ/mol
# Density = 2.127356 g / cm^3
# Si number density = 21.322090 Si / 1000 Ang^3
#
#
#
# Elastic Constant Matrix: (Units=GPa)
#
#
# Indices 1 2 3 4 5 6 
#
# 1 113.0750 65.0490 27.2188 0.0000 0.0000 0.0000
# 2 65.0490 79.6824 12.3299 0.0000 0.0000 0.0000
# 3 27.2188 12.3299 77.6551 0.0000 0.0000 0.0000
# 4 0.0000 0.0000 0.0000 23.0395 0.0000 0.0000
# 5 0.0000 0.0000 0.0000 0.0000 7.5105 0.0000
# 6 0.0000 0.0000 0.0000 0.0000 0.0000 23.5466
#
#
#
# Elastic Compliance Matrix: (Units=1/GPa)
#
#
# Indices 1 2 3 4 5 6 
#
# 1 0.017829 -0.013930 -0.004038 0.000000 0.000000 0.000000
# 2 -0.013930 0.023750 0.001112 0.000000 0.000000 0.000000
# 3 -0.004038 0.001112 0.014116 0.000000 0.000000 0.000000
# 4 0.000000 0.000000 0.000000 0.043404 0.000000 0.000000
# 5 0.000000 0.000000 0.000000 0.000000 0.133147 0.000000
# 6 0.000000 0.000000 0.000000 0.000000 0.000000 0.042469
#
#
# Mechanical properties :
#
#
# Convention : Reuss Voigt Hill
#
# Bulk Modulus (GPa) = 45.48937 53.28977 49.38957
# Shear Modulus (GPa) = 15.83511 21.87365 18.85438
#
# Velocity S-wave (km/s) = 2.72814 3.20639 2.97689
# Velocity P-wave (km/s) = 5.59503 6.22535 5.91859
#
# Compressibility (1/GPa) = 0.02198316
#
# Stress axis : x y z
#
# Youngs Moduli (GPa) = 56.08770 42.10576 70.84101
#
# Poissons Ratio (x) = 0.58654 0.28602
# Poissons Ratio (y) = 0.78131 -0.07876
# Poissons Ratio (z) = 0.22645 -0.04681
#
# Static dielectric constant tensor:
#      x y z
#    x 3.303650 0.000000 0.000000 
#    y 0.000000 3.972940 0.000000 
#    z 0.000000 0.000000 3.978410 
# 
# 
# High freq. dielectric constant tensor:
#      x y z
#    x 1.773850 0.000000 0.000000 
#    y 0.000000 1.846260 0.000000 
#    z 0.000000 0.000000 1.848300 
# 
# From -- ./inp_files/15888.got.cif
#   From: 2010.03.12/outbox.cif.g09.slc.cpg/sg57_8_cif.got.tgz:15888.got - 2010.04.16 15:48:40.
