data_PCOD8233358
_publ_section_title
;
Structure prediction by ZEFSAII (Michael W. Deem and Ramdas Pophale) SiO2 
 PCOD8233358
Probable space group: P B C M
;
_chemical_formula_sum "Si O2"
_cell_formula_units_Z 48
_cell_length_a 9.269177
_cell_length_b 30.549474
_cell_length_c 8.796668
_cell_angle_alpha 90.000000
_cell_angle_beta 90.000000
_cell_angle_gamma 90.000000
_cell_volume 2490.939122
_symmetry_space_group_name_H-M "P B C M"
_symmetry_group_IT_number 57
_symmetry_cell_setting 'orthorhombic'
loop_
_space_group_symop_operation_xyz
x,y,z
-x,-y,1/2+z
x,1/2-y,-z
-x,1/2+y,1/2-z
-x,-y,-z
x,y,1/2-z
-x,1/2+y,z
x,1/2-y,1/2+z
loop_
_atom_site_type_symbol
_atom_site_label
_atom_site_fract_x
_atom_site_fract_y
_atom_site_fract_z
Si Si1 0.834788 0.541450 0.424494
Si Si2 0.838514 0.204881 0.070573
Si Si3 0.667703 0.373981 0.427700
Si Si4 0.640415 0.624283 0.428150
Si Si5 0.165952 0.205170 0.070979
Si Si6 0.165414 0.951357 0.574816
O O1 0.819744 0.526414 0.250000
O O2 0.728679 0.580637 0.464949
O O3 0.793882 0.500954 0.531647
O O4 0.997109 0.557735 0.455975
O O5 0.828483 0.208438 0.250000
O O6 0.002454 0.196182 0.015521
O O7 0.779772 0.250000 0.000000
O O8 0.739220 0.165646 0.017092
O O9 0.683331 0.365482 0.250000
O O10 0.501603 0.376970 0.472065
O O11 0.743787 0.419205 0.470195
O O12 0.602761 0.627624 0.250000
O O13 0.734683 0.665414 0.483743
O O14 0.170338 0.210047 0.250000
O O15 0.226534 0.250000 0.000000
O O16 0.206264 0.943158 0.750000
#
# Coordination Sequence:
#
# PCOD8233358 Si02
#       6
#     8   8   8   8   8   8
#     4   9  19  37  61  86 110 141 185 233 281 334
#     4  10  20  38  62  87 113 144 184 230 280 331
#     4  12  25  38  54  81 115 152 191 229 273 328
#     4  10  21  38  57  79 112 151 186 227 279 331
#     4   9  19  36  60  86 111 142 182 227 275 328
#     4  10  20  37  61  86 112 144 182 229 282 333
#
# _framework density 19.269841
#
# number of rings (size 3 to 8) (size 9 to 14) (size 15 to 20)
#    0.000    2.000    0.000    3.500    0.000    6.667 
#    0.000    3.333    0.000    0.000    0.000    0.000 
#    0.000    0.000    0.000    0.000    0.000    0.000 
#
# Total GULP energy -595429.227488 kJ/mol
# GULP energy per Si atom -12404.775573 kJ/mol
# Density = 1.922598 g / cm^3
# Si number density = 19.269841 Si / 1000 Ang^3
#
#
#
# Elastic Constant Matrix: (Units=GPa)
#
#
# Indices 1 2 3 4 5 6 
#
# 1 96.2339 60.3308 32.4496 0.0000 0.0000 0.0000
# 2 60.3308 110.0909 32.8350 0.0000 0.0000 0.0000
# 3 32.4496 32.8350 63.1230 0.0000 0.0000 0.0000
# 4 0.0000 0.0000 0.0000 37.1227 0.0000 0.0000
# 5 0.0000 0.0000 0.0000 0.0000 26.3201 0.0000
# 6 0.0000 0.0000 0.0000 0.0000 0.0000 -20.4232
#
#
#
# Elastic Compliance Matrix: (Units=1/GPa)
#
#
# Indices 1 2 3 4 5 6 
#
# 1 0.016877 -0.007884 -0.004575 0.000000 0.000000 0.000000
# 2 -0.007884 0.014435 -0.003456 0.000000 0.000000 0.000000
# 3 -0.004575 -0.003456 0.019991 0.000000 0.000000 0.000000
# 4 0.000000 0.000000 0.000000 0.026938 0.000000 0.000000
# 5 0.000000 0.000000 0.000000 0.000000 0.037994 0.000000
# 6 0.000000 0.000000 0.000000 0.000000 0.000000 -0.048964
#
#
# Mechanical properties :
#
#
# Convention : Reuss Voigt Hill
#
# Bulk Modulus (GPa) = 51.35081 57.85319 54.60200
# Shear Modulus (GPa) = 47.35302 18.19274 32.77288
#
# Velocity S-wave (km/s) = 4.96256 3.07596 4.12847
# Velocity P-wave (km/s) = 7.71635 6.53477 7.15001
#
# Compressibility (1/GPa) = 0.01947389
#
# Stress axis : x y z
#
# Youngs Moduli (GPa) = 59.25369 69.27799 50.02188
#
# Poissons Ratio (x) = 0.54620 0.22883
# Poissons Ratio (y) = 0.46716 0.17285
# Poissons Ratio (z) = 0.27106 0.23939
#
# Static dielectric constant tensor:
#      x y z
#    x 3.545310 0.000000 0.000000 
#    y 0.000000 3.653080 0.000000 
#    z 0.000000 0.000000 3.495920 
# 
# 
# High freq. dielectric constant tensor:
#      x y z
#    x 1.746760 0.000000 0.000000 
#    y 0.000000 1.762730 0.000000 
#    z 0.000000 0.000000 1.748920 
# 
# From -- ./inp_files/1973.got.cif
#   From: 2010.03.12/outbox.cif.g09.slc.cpg/sg57_1_cif.got.tgz:1973.got - 2010.04.16 15:48:40.
