data_PCOD8233842
_publ_section_title
;
Structure prediction by ZEFSAII (Michael W. Deem and Ramdas Pophale) SiO2 
 PCOD8233842
Probable space group: P B C M
;
_chemical_formula_sum "Si O2"
_cell_formula_units_Z 64
_cell_length_a 23.187498
_cell_length_b 9.216469
_cell_length_c 14.585134
_cell_angle_alpha 90.000000
_cell_angle_beta 90.000000
_cell_angle_gamma 90.000000
_cell_volume 3116.943139
_symmetry_space_group_name_H-M "P B C M"
_symmetry_group_IT_number 57
_symmetry_cell_setting 'orthorhombic'
loop_
_space_group_symop_operation_xyz
x,y,z
-x,-y,1/2+z
x,1/2-y,-z
-x,1/2+y,1/2-z
-x,-y,-z
x,y,1/2-z
-x,1/2+y,z
x,1/2-y,1/2+z
loop_
_atom_site_type_symbol
_atom_site_label
_atom_site_fract_x
_atom_site_fract_y
_atom_site_fract_z
Si Si1 0.429850 0.082600 0.859523
Si Si2 0.044045 0.646283 0.917484
Si Si3 0.079530 0.102352 0.967213
Si Si4 0.537594 0.264060 0.642229
Si Si5 0.869127 0.355863 0.849593
Si Si6 0.683135 0.592253 0.978853
Si Si7 0.740877 0.136828 0.355149
Si Si8 0.348218 0.892268 0.142343
O O1 0.418031 0.085859 0.750000
O O2 0.476229 0.203068 0.891051
O O3 0.371961 0.114600 0.913895
O O4 0.454934 0.927812 0.891924
O O5 0.084992 0.720981 0.841704
O O6 0.974943 0.651417 0.902498
O O7 0.062709 0.750000 0.000000
O O8 0.058150 0.478609 0.939800
O O9 0.119970 0.992679 0.914697
O O10 0.111616 0.250000 0.000000
O O11 0.540482 0.259642 0.750000
O O12 0.589709 0.163371 0.607122
O O13 0.869013 0.427663 0.750000
O O14 0.805026 0.298790 0.873669
O O15 0.729597 0.496346 0.923969
O O16 0.710207 0.750000 0.000000
O O17 0.668017 0.526460 0.078328
O O18 0.733507 0.083790 0.250000
O O19 0.696429 0.263653 0.376544
O O20 0.348044 0.939213 0.250000
#
# Coordination Sequence:
#
# PCOD8233842 Si02
#       8
#     8   8   8   8   8   8   8   8
#     4  10  21  39  61  88 123 160 195 239 299 360
#     4   8  16  32  53  79 114 157 198 231 275 335
#     4   9  17  32  54  82 121 160 191 232 288 348
#     4   9  19  36  60  87 118 156 193 237 294 348
#     4  10  21  36  59  89 115 152 201 246 294 346
#     4  12  26  39  59  93 119 155 193 246 313 366
#     4  10  22  44  66  82 113 157 206 256 297 353
#     4  10  22  42  63  85 115 156 204 250 294 353
#
# _framework density 20.532937
#
# number of rings (size 3 to 8) (size 9 to 14) (size 15 to 20)
#    0.000    2.250    1.250    1.500    1.750    5.500 
#    0.000    0.625    0.000    3.000    0.000    0.000 
#    0.000    0.000    0.000    0.000    0.000    0.000 
#
# Total GULP energy -793016.531541 kJ/mol
# GULP energy per Si atom -12390.883305 kJ/mol
# Density = 2.048620 g / cm^3
# Si number density = 20.532937 Si / 1000 Ang^3
#
#
#
# Elastic Constant Matrix: (Units=GPa)
#
#
# Indices 1 2 3 4 5 6 
#
# 1 88.3518 11.1008 21.3057 0.0000 0.0000 0.0000
# 2 11.1008 89.7837 26.0158 0.0000 0.0000 0.0000
# 3 21.3057 26.0158 67.7338 0.0000 0.0000 0.0000
# 4 0.0000 0.0000 0.0000 25.6516 0.0000 0.0000
# 5 0.0000 0.0000 0.0000 0.0000 2.8223 0.0000
# 6 0.0000 0.0000 0.0000 0.0000 0.0000 25.3538
#
#
#
# Elastic Compliance Matrix: (Units=1/GPa)
#
#
# Indices 1 2 3 4 5 6 
#
# 1 0.012263 -0.000448 -0.003685 0.000000 0.000000 0.000000
# 2 -0.000448 0.012549 -0.004679 0.000000 0.000000 0.000000
# 3 -0.003685 -0.004679 0.017720 0.000000 0.000000 0.000000
# 4 0.000000 0.000000 0.000000 0.038984 0.000000 0.000000
# 5 0.000000 0.000000 0.000000 0.000000 0.354326 0.000000
# 6 0.000000 0.000000 0.000000 0.000000 0.000000 0.039442
#
#
# Mechanical properties :
#
#
# Convention : Reuss Voigt Hill
#
# Bulk Modulus (GPa) = 40.14877 40.30156 40.22516
# Shear Modulus (GPa) = 9.97582 23.26200 16.61891
#
# Velocity S-wave (km/s) = 2.20658 3.36953 2.84804
# Velocity P-wave (km/s) = 5.10762 5.89989 5.51799
#
# Compressibility (1/GPa) = 0.02490736
#
# Stress axis : x y z
#
# Youngs Moduli (GPa) = 81.54341 79.68709 56.43346
#
# Poissons Ratio (x) = 0.03573 0.20797
# Poissons Ratio (y) = 0.03656 0.26405
# Poissons Ratio (z) = 0.30051 0.37285
#
# Static dielectric constant tensor:
#      x y z
#    x 3.763260 0.000000 0.000000 
#    y 0.000000 3.925960 0.000000 
#    z 0.000000 0.000000 3.712330 
# 
# 
# High freq. dielectric constant tensor:
#      x y z
#    x 1.794930 0.000000 0.000000 
#    y 0.000000 1.798900 0.000000 
#    z 0.000000 0.000000 1.791250 
# 
# From -- ./inp_files/19536.got.cif
#   From: 2010.03.12/outbox.cif.g09.slc.cpg/sg57_10_cif.got.tgz:19536.got - 2010.04.16 15:48:40.
