data_PCOD8233654
_publ_section_title
;
Structure prediction by ZEFSAII (Michael W. Deem and Ramdas Pophale) SiO2 
 PCOD8233654
Probable space group: P B C M
;
_chemical_formula_sum "Si O2"
_cell_formula_units_Z 44
_cell_length_a 17.622725
_cell_length_b 9.468345
_cell_length_c 14.208670
_cell_angle_alpha 90.000000
_cell_angle_beta 90.000000
_cell_angle_gamma 90.000000
_cell_volume 2370.830829
_symmetry_space_group_name_H-M "P B C M"
_symmetry_group_IT_number 57
_symmetry_cell_setting 'orthorhombic'
loop_
_space_group_symop_operation_xyz
x,y,z
-x,-y,1/2+z
x,1/2-y,-z
-x,1/2+y,1/2-z
-x,-y,-z
x,y,1/2-z
-x,1/2+y,z
x,1/2-y,1/2+z
loop_
_atom_site_type_symbol
_atom_site_label
_atom_site_fract_x
_atom_site_fract_y
_atom_site_fract_z
Si Si1 0.202014 0.162869 0.594867
Si Si2 0.929932 0.143216 0.250000
Si Si3 0.605655 0.018182 0.750000
Si Si4 0.082099 0.316121 0.250000
Si Si5 0.676688 0.782805 0.250000
Si Si6 0.354399 0.756410 0.610799
Si Si7 0.569969 0.036463 0.250000
Si Si8 0.813345 0.337005 0.909364
O O1 0.208358 0.250000 0.500000
O O2 0.130861 0.215900 0.656531
O O3 0.277631 0.179201 0.655993
O O4 0.193254 0.000964 0.565145
O O5 0.881638 0.192070 0.161058
O O6 0.010805 0.215271 0.250000
O O7 0.944888 0.977008 0.250000
O O8 0.622652 0.107335 0.843867
O O9 0.658836 0.882044 0.750000
O O10 0.519782 0.967673 0.750000
O O11 0.600760 0.876737 0.250000
O O12 0.370955 0.750000 0.500000
O O13 0.402977 0.881977 0.656457
O O14 0.266066 0.783214 0.633393
O O15 0.836372 0.250000 0.000000
#
# Coordination Sequence:
#
# PCOD8233654 Si02
#       8
#     8   4   4   4   4   8   4   8
#     4  10  22  40  60  87 121 153 197 247 291 345
#     4  10  20  40  58  87 121 155 192 240 296 346
#     4  11  25  37  61  92 116 157 200 242 300 364
#     4   9  22  39  59  85 122 157 190 239 297 343
#     4  11  22  37  61  88 117 157 196 242 304 345
#     4  10  22  41  62  87 119 156 204 245 288 351
#     4  11  21  43  61  84 126 156 192 251 301 350
#     4  10  21  38  64  86 113 160 201 238 290 349
#
# _framework density 18.558893999999999
#
# number of rings (size 3 to 8) (size 9 to 14) (size 15 to 20)
#    0.000    1.818    1.818    2.727    5.091    2.909 
#    3.273    5.455    0.000    0.000    0.000    0.000 
#    0.000    0.000    0.000    0.000    0.000    0.000 
#
# Total GULP energy -545721.816825 kJ/mol
# GULP energy per Si atom -12402.768564 kJ/mol
# Density = 1.851665 g / cm^3
# Si number density = 18.558894 Si / 1000 Ang^3
#
#
#
# Elastic Constant Matrix: (Units=GPa)
#
#
# Indices 1 2 3 4 5 6 
#
# 1 71.1803 15.0492 22.5316 0.0000 0.0000 0.0000
# 2 15.0492 92.2541 48.0150 0.0000 0.0000 0.0000
# 3 22.5316 48.0150 128.7550 0.0000 0.0000 0.0000
# 4 0.0000 0.0000 0.0000 -63.3279 0.0000 0.0000
# 5 0.0000 0.0000 0.0000 0.0000 29.5922 0.0000
# 6 0.0000 0.0000 0.0000 0.0000 0.0000 37.9171
#
#
#
# Elastic Compliance Matrix: (Units=1/GPa)
#
#
# Indices 1 2 3 4 5 6 
#
# 1 0.015005 -0.001341 -0.002126 0.000000 0.000000 0.000000
# 2 -0.001341 0.013570 -0.004826 0.000000 0.000000 0.000000
# 3 -0.002126 -0.004826 0.009938 0.000000 0.000000 0.000000
# 4 0.000000 0.000000 0.000000 -0.015791 0.000000 0.000000
# 5 0.000000 0.000000 0.000000 0.000000 0.033793 0.000000
# 6 0.000000 0.000000 0.000000 0.000000 0.000000 0.026373
#
#
# Mechanical properties :
#
#
# Convention : Reuss Voigt Hill
#
# Bulk Modulus (GPa) = 45.60385 51.48675 48.54530
# Shear Modulus (GPa) = 46.82355 14.60919 30.71637
#
# Velocity S-wave (km/s) = 5.02837 2.80872 4.07268
# Velocity P-wave (km/s) = 7.63796 6.19040 6.95196
#
# Compressibility (1/GPa) = 0.02192797
#
# Stress axis : x y z
#
# Youngs Moduli (GPa) = 66.64313 73.69143 100.62108
#
# Poissons Ratio (x) = 0.09885 0.21388
# Poissons Ratio (y) = 0.08940 0.48557
# Poissons Ratio (z) = 0.14166 0.35562
#
# Static dielectric constant tensor:
#      x y z
#    x 3.374640 0.000000 0.000000 
#    y 0.000000 3.452590 0.000000 
#    z 0.000000 0.000000 3.365060 
# 
# 
# High freq. dielectric constant tensor:
#      x y z
#    x 1.722770 0.000000 0.000000 
#    y 0.000000 1.730030 0.000000 
#    z 0.000000 0.000000 1.725680 
# 
# From -- ./inp_files/18914.got.cif
#   From: 2010.03.12/outbox.cif.g09.slc.cpg/sg57_10_cif.got.tgz:18914.got - 2010.04.16 15:48:40.
