data_PCOD8233253
_publ_section_title
;
Structure prediction by ZEFSAII (Michael W. Deem and Ramdas Pophale) SiO2 
 PCOD8233253
Probable space group: P B C M
;
_chemical_formula_sum "Si O2"
_cell_formula_units_Z 40
_cell_length_a 5.233662
_cell_length_b 27.076700
_cell_length_c 14.069616
_cell_angle_alpha 90.000000
_cell_angle_beta 90.000000
_cell_angle_gamma 90.000000
_cell_volume 1993.809446
_symmetry_space_group_name_H-M "P B C M"
_symmetry_group_IT_number 57
_symmetry_cell_setting 'orthorhombic'
loop_
_space_group_symop_operation_xyz
x,y,z
-x,-y,1/2+z
x,1/2-y,-z
-x,1/2+y,1/2-z
-x,-y,-z
x,y,1/2-z
-x,1/2+y,z
x,1/2-y,1/2+z
loop_
_atom_site_type_symbol
_atom_site_label
_atom_site_fract_x
_atom_site_fract_y
_atom_site_fract_z
Si Si1 0.005120 0.234406 0.139091
Si Si2 0.987310 0.058283 0.501778
Si Si3 0.815160 0.627252 0.140114
Si Si4 0.495036 0.787738 0.363256
Si Si5 0.521122 0.610749 0.534583
O O1 0.006991 0.244685 0.250000
O O2 0.019351 0.176152 0.118600
O O3 0.249528 0.262543 0.094426
O O4 0.746901 0.257267 0.094937
O O5 0.014753 0.080371 0.394169
O O6 0.222049 0.080446 0.564587
O O7 0.718995 0.074574 0.546232
O O8 0.000000 0.000000 0.500000
O O9 0.735035 0.622597 0.250000
O O10 0.557371 0.629204 0.075368
O O11 0.493787 0.785588 0.250000
O O12 0.478571 0.844083 0.395079
#
# Coordination Sequence:
#
# PCOD8233253 Si02
#       5
#     8   8   8   8   8
#     4   9  19  34  56  83 121 158 191 232 284 348
#     4  10  22  41  61  82 118 150 195 260 303 344
#     4   9  22  39  60  89 119 156 197 246 298 353
#     4  10  20  37  57  85 124 158 190 234 286 348
#     4  10  22  38  61  88 114 156 195 246 288 363
#
# _framework density 20.062099
#
# number of rings (size 3 to 8) (size 9 to 14) (size 15 to 20)
#    1.200    1.200    0.000    1.800    2.800    1.600 
#    0.000    2.000    0.000    0.000    0.000    0.000 
#    0.000    0.000    0.000    0.000    0.000    0.000 
#
# Total GULP energy -495698.259260 kJ/mol
# GULP energy per Si atom -12392.456481 kJ/mol
# Density = 2.001644 g / cm^3
# Si number density = 20.062099 Si / 1000 Ang^3
#
#
#
# Elastic Constant Matrix: (Units=GPa)
#
#
# Indices 1 2 3 4 5 6 
#
# 1 168.7621 72.7749 18.2145 0.0000 0.0000 0.0000
# 2 72.7749 165.8870 24.9846 0.0000 0.0000 0.0000
# 3 18.2145 24.9846 37.6273 0.0000 0.0000 0.0000
# 4 0.0000 0.0000 0.0000 27.7831 0.0000 0.0000
# 5 0.0000 0.0000 0.0000 0.0000 3.6528 0.0000
# 6 0.0000 0.0000 0.0000 0.0000 0.0000 46.6109
#
#
#
# Elastic Compliance Matrix: (Units=1/GPa)
#
#
# Indices 1 2 3 4 5 6 
#
# 1 0.007392 -0.003004 -0.001583 0.000000 0.000000 0.000000
# 2 -0.003004 0.007919 -0.003804 0.000000 0.000000 0.000000
# 3 -0.001583 -0.003804 0.029869 0.000000 0.000000 0.000000
# 4 0.000000 0.000000 0.000000 0.035993 0.000000 0.000000
# 5 0.000000 0.000000 0.000000 0.000000 0.273760 0.000000
# 6 0.000000 0.000000 0.000000 0.000000 0.000000 0.021454
#
#
# Mechanical properties :
#
#
# Convention : Reuss Voigt Hill
#
# Bulk Modulus (GPa) = 35.21570 67.13606 51.17588
# Shear Modulus (GPa) = 12.41817 32.69619 22.55718
#
# Velocity S-wave (km/s) = 2.49064 4.04139 3.35680
# Velocity P-wave (km/s) = 5.08552 7.43733 6.37089
#
# Compressibility (1/GPa) = 0.02839643
#
# Stress axis : x y z
#
# Youngs Moduli (GPa) = 135.28183 126.27606 33.47979
#
# Poissons Ratio (x) = 0.37938 0.05301
# Poissons Ratio (y) = 0.40644 0.12736
# Poissons Ratio (z) = 0.21420 0.48035
#
# Static dielectric constant tensor:
#      x y z
#    x 3.957850 0.000000 0.000000 
#    y 0.000000 3.442900 0.000000 
#    z 0.000000 0.000000 3.298970 
# 
# 
# High freq. dielectric constant tensor:
#      x y z
#    x 1.794430 0.000000 0.000000 
#    y 0.000000 1.777960 0.000000 
#    z 0.000000 0.000000 1.756850 
# 
# From -- ./inp_files/20113.got.cif
#   From: 2010.03.12/outbox.cif.g09.slc.cpg/sg57_11_cif.got.tgz:20113.got - 2010.04.16 15:48:40.
