data_PCOD8233077
_publ_section_title
;
Structure prediction by ZEFSAII (Michael W. Deem and Ramdas Pophale) SiO2 
 PCOD8233077
Probable space group: P B C M
;
_chemical_formula_sum "Si O2"
_cell_formula_units_Z 56
_cell_length_a 11.791602
_cell_length_b 11.306622
_cell_length_c 23.643295
_cell_angle_alpha 90.000000
_cell_angle_beta 90.000000
_cell_angle_gamma 90.000000
_cell_volume 3152.199431
_symmetry_space_group_name_H-M "P B C M"
_symmetry_group_IT_number 57
_symmetry_cell_setting 'orthorhombic'
loop_
_space_group_symop_operation_xyz
x,y,z
-x,-y,1/2+z
x,1/2-y,-z
-x,1/2+y,1/2-z
-x,-y,-z
x,y,1/2-z
-x,1/2+y,z
x,1/2-y,1/2+z
loop_
_atom_site_type_symbol
_atom_site_label
_atom_site_fract_x
_atom_site_fract_y
_atom_site_fract_z
Si Si1 0.077260 0.351618 0.124489
Si Si2 0.261410 0.226966 0.436172
Si Si3 0.218451 0.927314 0.632322
Si Si4 0.107692 0.619397 0.250000
Si Si5 0.653678 0.476754 0.047357
Si Si6 0.975753 0.863802 0.250000
Si Si7 0.147304 0.708384 0.561029
Si Si8 0.592081 0.947271 0.077140
O O1 0.148507 0.242092 0.100794
O O2 0.133861 0.474564 0.105563
O O3 0.089075 0.337575 0.192122
O O4 0.950692 0.348524 0.099868
O O5 0.223588 0.250000 0.500000
O O6 0.363045 0.313941 0.419080
O O7 0.304813 0.096863 0.424410
O O8 0.189222 0.899095 0.696691
O O9 0.204368 0.814296 0.593936
O O10 0.347997 0.975239 0.626644
O O11 0.008774 0.512103 0.250000
O O12 0.071895 0.759111 0.250000
O O13 0.753338 0.384061 0.052087
O O14 0.543332 0.438538 0.083561
O O15 0.623389 0.490779 0.981896
O O16 0.098987 0.750000 0.500000
#
# Coordination Sequence:
#
# PCOD8233077 Si02
#       8
#     8   8   8   4   8   4   8   8
#     4  10  22  37  55  78 115 149 181 228 278 344
#     4   9  19  35  52  78 111 149 177 220 285 330
#     4  10  21  38  57  80 112 149 187 228 286 332
#     4  10  20  38  60  82 108 154 192 236 280 338
#     4  10  21  32  57  81 111 146 184 226 272 332
#     4  10  20  36  58  80 106 152 194 228 276 328
#     4  12  23  32  54  86 117 145 185 225 282 335
#     4   9  19  37  54  79 112 145 186 228 271 334
#
# _framework density 17.765374000000001
#
# number of rings (size 3 to 8) (size 9 to 14) (size 15 to 20)
#    0.000    2.000    2.857    0.429    4.000    1.143 
#    0.000    0.000    0.000    2.571    0.000    0.000 
#    0.000    0.000    0.000    0.000    0.000    0.000 
#
# Total GULP energy -693857.518905 kJ/mol
# GULP energy per Si atom -12390.312838 kJ/mol
# Density = 1.772494 g / cm^3
# Si number density = 17.765374 Si / 1000 Ang^3
#
#
#
# Elastic Constant Matrix: (Units=GPa)
#
#
# Indices 1 2 3 4 5 6 
#
# 1 97.8966 33.5294 21.4672 0.0000 0.0000 0.0000
# 2 33.5294 90.9491 27.8373 0.0000 0.0000 0.0000
# 3 21.4672 27.8373 67.9622 0.0000 0.0000 0.0000
# 4 0.0000 0.0000 0.0000 20.7057 0.0000 0.0000
# 5 0.0000 0.0000 0.0000 0.0000 20.8791 0.0000
# 6 0.0000 0.0000 0.0000 0.0000 0.0000 19.7612
#
#
#
# Elastic Compliance Matrix: (Units=1/GPa)
#
#
# Indices 1 2 3 4 5 6 
#
# 1 0.011987 -0.003728 -0.002260 0.000000 0.000000 0.000000
# 2 -0.003728 0.013730 -0.004447 0.000000 0.000000 0.000000
# 3 -0.002260 -0.004447 0.017249 0.000000 0.000000 0.000000
# 4 0.000000 0.000000 0.000000 0.048296 0.000000 0.000000
# 5 0.000000 0.000000 0.000000 0.000000 0.047895 0.000000
# 6 0.000000 0.000000 0.000000 0.000000 0.000000 0.050604
#
#
# Mechanical properties :
#
#
# Convention : Reuss Voigt Hill
#
# Bulk Modulus (GPa) = 45.25049 46.94175 46.09612
# Shear Modulus (GPa) = 22.93634 23.86749 23.40192
#
# Velocity S-wave (km/s) = 3.59704 3.66933 3.63337
# Velocity P-wave (km/s) = 6.54050 6.66577 6.60343
#
# Compressibility (1/GPa) = 0.02209921
#
# Stress axis : x y z
#
# Youngs Moduli (GPa) = 83.42357 72.83146 57.97417
#
# Poissons Ratio (x) = 0.27148 0.13099
# Poissons Ratio (y) = 0.31097 0.25778
# Poissons Ratio (z) = 0.18850 0.32385
#
# Static dielectric constant tensor:
#      x y z
#    x 3.284040 0.000000 0.000000 
#    y 0.000000 3.605500 0.000000 
#    z 0.000000 0.000000 3.362710 
# 
# 
# High freq. dielectric constant tensor:
#      x y z
#    x 1.673000 0.000000 0.000000 
#    y 0.000000 1.702890 0.000000 
#    z 0.000000 0.000000 1.673790 
# 
# From -- ./inp_files/25075.got.cif
#   From: 2010.03.12/outbox.cif.g09.slc.cpg/sg57_13_cif.got.tgz:25075.got - 2010.04.16 15:48:40.
