data_PCOD8233519
_publ_section_title
;
Structure prediction by ZEFSAII (Michael W. Deem and Ramdas Pophale) SiO2 
 PCOD8233519
Probable space group: P B C M
;
_chemical_formula_sum "Si O2"
_cell_formula_units_Z 64
_cell_length_a 12.057870
_cell_length_b 15.128737
_cell_length_c 17.182620
_cell_angle_alpha 90.000000
_cell_angle_beta 90.000000
_cell_angle_gamma 90.000000
_cell_volume 3134.459451
_symmetry_space_group_name_H-M "P B C M"
_symmetry_group_IT_number 57
_symmetry_cell_setting 'orthorhombic'
loop_
_space_group_symop_operation_xyz
x,y,z
-x,-y,1/2+z
x,1/2-y,-z
-x,1/2+y,1/2-z
-x,-y,-z
x,y,1/2-z
-x,1/2+y,z
x,1/2-y,1/2+z
loop_
_atom_site_type_symbol
_atom_site_label
_atom_site_fract_x
_atom_site_fract_y
_atom_site_fract_z
Si Si1 0.260569 0.974386 0.580612
Si Si2 0.866251 0.369505 0.340138
Si Si3 0.498741 0.788571 0.339781
Si Si4 0.267343 0.029437 0.098429
Si Si5 0.713295 0.274746 0.914095
Si Si6 0.502093 0.976186 0.410102
Si Si7 0.262184 0.283775 0.659183
Si Si8 0.118270 0.118472 0.658130
O O1 0.262343 0.005284 0.491736
O O2 0.231608 0.871329 0.587307
O O3 0.379717 0.990859 0.622980
O O4 0.165685 0.027777 0.624305
O O5 0.860314 0.343888 0.250000
O O6 0.810268 0.464371 0.352629
O O7 0.806108 0.294137 0.388693
O O8 0.992291 0.372388 0.370203
O O9 0.496940 0.820040 0.250000
O O10 0.393172 0.726897 0.357377
O O11 0.491692 0.871795 0.396989
O O12 0.609429 0.734790 0.358564
O O13 0.394627 0.021371 0.129913
O O14 0.225472 0.129030 0.112306
O O15 0.671635 0.250000 0.000000
O O16 0.500000 0.000000 0.500000
O O17 0.240515 0.300061 0.750000
O O18 0.188825 0.202251 0.627783
O O19 0.126812 0.111581 0.750000
#
# Coordination Sequence:
#
# PCOD8233519 Si02
#       8
#     8   8   8   8   8   8   8   8
#     4  11  23  41  65  95 128 170 207 262 330 386
#     4  11  24  44  68  92 125 172 222 270 317 374
#     4  11  22  39  67  96 128 171 214 263 321 393
#     4  11  22  40  63  99 127 165 212 261 325 388
#     4  12  23  43  64  94 134 168 208 268 326 388
#     4  10  20  38  61  94 133 164 202 256 324 386
#     4  10  22  41  63  92 129 166 211 266 321 382
#     4  10  24  45  64  91 129 171 221 271 317 377
#
# _framework density 20.418195000000001
#
# number of rings (size 3 to 8) (size 9 to 14) (size 15 to 20)
#    0.000    1.250    3.750    2.250    0.000    4.500 
#    2.250    2.500    0.000    0.000    0.000    0.000 
#    0.000    0.000    0.000    0.000    0.000    0.000 
#
# Total GULP energy -793789.545876 kJ/mol
# GULP energy per Si atom -12402.961654 kJ/mol
# Density = 2.037172 g / cm^3
# Si number density = 20.418195 Si / 1000 Ang^3
#
#
#
# Elastic Constant Matrix: (Units=GPa)
#
#
# Indices 1 2 3 4 5 6 
#
# 1 147.4691 49.1610 35.0799 0.0000 0.0000 0.0000
# 2 49.1610 162.3055 43.1203 0.0000 0.0000 0.0000
# 3 35.0799 43.1203 55.9937 0.0000 0.0000 0.0000
# 4 0.0000 0.0000 0.0000 33.6924 0.0000 0.0000
# 5 0.0000 0.0000 0.0000 0.0000 23.9679 0.0000
# 6 0.0000 0.0000 0.0000 0.0000 0.0000 14.2577
#
#
#
# Elastic Compliance Matrix: (Units=1/GPa)
#
#
# Indices 1 2 3 4 5 6 
#
# 1 0.008217 -0.001410 -0.004063 0.000000 0.000000 0.000000
# 2 -0.001410 0.007988 -0.005268 0.000000 0.000000 0.000000
# 3 -0.004063 -0.005268 0.024461 0.000000 0.000000 0.000000
# 4 0.000000 0.000000 0.000000 0.029680 0.000000 0.000000
# 5 0.000000 0.000000 0.000000 0.000000 0.041722 0.000000
# 6 0.000000 0.000000 0.000000 0.000000 0.000000 0.070138
#
#
# Mechanical properties :
#
#
# Convention : Reuss Voigt Hill
#
# Bulk Modulus (GPa) = 52.12231 68.94341 60.53286
# Shear Modulus (GPa) = 23.80008 30.27739 27.03873
#
# Velocity S-wave (km/s) = 3.41784 3.85497 3.64297
# Velocity P-wave (km/s) = 6.41547 7.32485 6.88519
#
# Compressibility (1/GPa) = 0.01918564
#
# Stress axis : x y z
#
# Youngs Moduli (GPa) = 121.69261 125.19053 40.88074
#
# Poissons Ratio (x) = 0.17648 0.16608
# Poissons Ratio (y) = 0.17154 0.21537
# Poissons Ratio (z) = 0.49439 0.65953
#
# Static dielectric constant tensor:
#      x y z
#    x 4.040800 0.000000 0.000000 
#    y 0.000000 3.720830 0.000000 
#    z 0.000000 0.000000 3.568340 
# 
# 
# High freq. dielectric constant tensor:
#      x y z
#    x 1.801380 0.000000 0.000000 
#    y 0.000000 1.806040 0.000000 
#    z 0.000000 0.000000 1.787000 
# 
# From -- ./inp_files/21990.got.cif
#   From: 2010.03.12/outbox.cif.g09.slc.cpg/sg57_11_cif.got.tgz:21990.got - 2010.04.16 15:48:40.
