data_PCOD8233000
_publ_section_title
;
Structure prediction by ZEFSAII (Michael W. Deem and Ramdas Pophale) SiO2 
 PCOD8233000
Probable space group: P B C M
;
_chemical_formula_sum "Si O2"
_cell_formula_units_Z 64
_cell_length_a 14.179178
_cell_length_b 25.587155
_cell_length_c 9.374037
_cell_angle_alpha 90.000000
_cell_angle_beta 90.000000
_cell_angle_gamma 90.000000
_cell_volume 3400.945856
_symmetry_space_group_name_H-M "P B C M"
_symmetry_group_IT_number 57
_symmetry_cell_setting 'orthorhombic'
loop_
_space_group_symop_operation_xyz
x,y,z
-x,-y,1/2+z
x,1/2-y,-z
-x,1/2+y,1/2-z
-x,-y,-z
x,y,1/2-z
-x,1/2+y,z
x,1/2-y,1/2+z
loop_
_atom_site_type_symbol
_atom_site_label
_atom_site_fract_x
_atom_site_fract_y
_atom_site_fract_z
Si Si1 0.404016 0.096356 0.419195
Si Si2 0.087073 0.630582 0.085996
Si Si3 0.916940 0.027296 0.914411
Si Si4 0.265876 0.802352 0.914449
Si Si5 0.700899 0.801523 0.582208
Si Si6 0.084243 0.299208 0.587204
Si Si7 0.291167 0.996343 0.085730
Si Si8 0.618390 0.096902 0.081894
O O1 0.397928 0.097451 0.250000
O O2 0.359269 0.149968 0.477713
O O3 0.511198 0.092234 0.472719
O O4 0.345208 0.046841 0.477214
O O5 0.099107 0.611526 0.250000
O O6 0.161403 0.676277 0.051850
O O7 0.981706 0.651173 0.057482
O O8 0.105421 0.583705 0.978757
O O9 0.947726 0.032896 0.750000
O O10 0.821057 0.993521 0.927350
O O11 0.000000 0.000000 0.000000
O O12 0.276120 0.787650 0.750000
O O13 0.342680 0.845952 0.958159
O O14 0.286957 0.750000 0.000000
O O15 0.666243 0.750000 0.500000
O O16 0.685772 0.792491 0.750000
O O17 0.809471 0.814339 0.544657
O O18 0.046415 0.250000 0.500000
O O19 0.078100 0.281701 0.750000
O O20 0.319465 0.986350 0.250000
O O21 0.318951 0.946028 0.995517
O O22 0.626888 0.086896 0.250000
#
# Coordination Sequence:
#
# PCOD8233000 Si02
#       8
#     8   8   8   8   8   8   8   8
#     4   9  19  35  58  83 108 145 187 225 276 338
#     4  10  20  36  56  79 110 145 185 228 277 336
#     4  11  24  38  57  84 114 147 183 227 278 334
#     4  10  21  35  54  81 113 150 189 231 281 337
#     4   9  18  34  54  77 108 143 180 223 272 325
#     4   9  18  31  52  76 103 141 179 221 268 322
#     4  10  21  38  60  84 109 144 188 229 274 336
#     4  10  20  37  58  82 113 146 182 232 286 329
#
# _framework density 18.818293000000001
#
# number of rings (size 3 to 8) (size 9 to 14) (size 15 to 20)
#    0.000    2.250    1.250    1.125    1.750    2.500 
#    0.000    1.250    0.000    0.000    0.000    0.000 
#    0.000    0.000    0.000    0.000    0.000    0.000 
#
# Total GULP energy -793720.440964 kJ/mol
# GULP energy per Si atom -12401.881890 kJ/mol
# Density = 1.877546 g / cm^3
# Si number density = 18.818293 Si / 1000 Ang^3
#
#
#
# Elastic Constant Matrix: (Units=GPa)
#
#
# Indices 1 2 3 4 5 6 
#
# 1 110.0270 56.6168 41.0700 0.0000 0.0000 0.0000
# 2 56.6168 130.7065 55.3152 0.0000 0.0000 0.0000
# 3 41.0700 55.3152 64.3433 0.0000 0.0000 0.0000
# 4 0.0000 0.0000 0.0000 35.2979 0.0000 0.0000
# 5 0.0000 0.0000 0.0000 0.0000 19.2528 0.0000
# 6 0.0000 0.0000 0.0000 0.0000 0.0000 29.6202
#
#
#
# Elastic Compliance Matrix: (Units=1/GPa)
#
#
# Indices 1 2 3 4 5 6 
#
# 1 0.012763 -0.003271 -0.005335 0.000000 0.000000 0.000000
# 2 -0.003271 0.012864 -0.008972 0.000000 0.000000 0.000000
# 3 -0.005335 -0.008972 0.026659 0.000000 0.000000 0.000000
# 4 0.000000 0.000000 0.000000 0.028330 0.000000 0.000000
# 5 0.000000 0.000000 0.000000 0.000000 0.051941 0.000000
# 6 0.000000 0.000000 0.000000 0.000000 0.000000 0.033761
#
#
# Mechanical properties :
#
#
# Convention : Reuss Voigt Hill
#
# Bulk Modulus (GPa) = 58.36790 67.89786 63.13288
# Shear Modulus (GPa) = 24.13320 26.97248 25.55284
#
# Velocity S-wave (km/s) = 3.58499 3.79002 3.68893
# Velocity P-wave (km/s) = 6.94407 7.43716 7.19484
#
# Compressibility (1/GPa) = 0.01713270
#
# Stress axis : x y z
#
# Youngs Moduli (GPa) = 78.35125 77.73472 37.51008
#
# Poissons Ratio (x) = 0.25425 0.20011
# Poissons Ratio (y) = 0.25627 0.33652
# Poissons Ratio (z) = 0.41798 0.69740
#
# Static dielectric constant tensor:
#      x y z
#    x 3.678170 0.000000 0.000000 
#    y 0.000000 3.430300 0.000000 
#    z 0.000000 0.000000 3.259700 
# 
# 
# High freq. dielectric constant tensor:
#      x y z
#    x 1.742500 0.000000 0.000000 
#    y 0.000000 1.730440 0.000000 
#    z 0.000000 0.000000 1.712910 
# 
# From -- ./inp_files/5697.got.cif
#   From: 2010.03.12/outbox.cif.g09.slc.cpg/sg57_3_cif.got.tgz:5697.got - 2010.04.16 15:48:40.
