data_PCOD8233849
_publ_section_title
;
Structure prediction by ZEFSAII (Michael W. Deem and Ramdas Pophale) SiO2 
 PCOD8233849
Probable space group: P B C M
;
_chemical_formula_sum "Si O2"
_cell_formula_units_Z 56
_cell_length_a 9.003265
_cell_length_b 14.885005
_cell_length_c 20.304620
_cell_angle_alpha 90.000000
_cell_angle_beta 90.000000
_cell_angle_gamma 90.000000
_cell_volume 2721.096127
_symmetry_space_group_name_H-M "P B C M"
_symmetry_group_IT_number 57
_symmetry_cell_setting 'orthorhombic'
loop_
_space_group_symop_operation_xyz
x,y,z
-x,-y,1/2+z
x,1/2-y,-z
-x,1/2+y,1/2-z
-x,-y,-z
x,y,1/2-z
-x,1/2+y,z
x,1/2-y,1/2+z
loop_
_atom_site_type_symbol
_atom_site_label
_atom_site_fract_x
_atom_site_fract_y
_atom_site_fract_z
Si Si1 0.988970 0.173385 0.913382
Si Si2 0.822694 0.979365 0.384269
Si Si3 0.371106 0.067859 0.415153
Si Si4 0.540943 0.601071 0.547956
Si Si5 0.953746 0.874819 0.562485
Si Si6 0.321202 0.733500 0.577262
Si Si7 0.621880 0.111297 0.176122
O O1 0.812560 0.165965 0.902175
O O2 0.071535 0.104536 0.862446
O O3 0.031756 0.277682 0.902534
O O4 0.045357 0.137755 0.984252
O O5 0.698746 0.937357 0.431939
O O6 0.731877 0.024519 0.323966
O O7 0.913865 0.057405 0.420699
O O8 0.442990 0.133452 0.471395
O O9 0.196171 0.081731 0.408478
O O10 0.454818 0.084066 0.345837
O O11 0.406576 0.969627 0.444299
O O12 0.482370 0.687375 0.588728
O O13 0.287764 0.750000 0.500000
O O14 0.310223 0.819178 0.624108
O O15 0.615022 0.150389 0.250000
#
# Coordination Sequence:
#
# PCOD8233849 Si02
#       7
#     8   8   8   8   8   8   8
#     4  11  22  32  62  98 131 167 209 271 332 397
#     4  11  22  41  61  94 132 170 211 267 331 394
#     4  10  21  36  61  91 129 164 210 267 329 393
#     4  10  22  33  62  98 122 165 210 270 326 386
#     4  11  21  35  59 101 136 161 208 273 338 388
#     4  12  21  39  63 100 135 172 224 282 335 399
#     4  11  25  45  65  88 131 180 221 276 341 403
#
# _framework density 20.579943
#
# number of rings (size 3 to 8) (size 9 to 14) (size 15 to 20)
#    0.000    1.143    5.714    1.286    6.000    0.000 
#    0.000    4.286    0.000    0.000    0.000    0.000 
#    0.000    0.000    0.000    0.000    0.000    0.000 
#
# Total GULP energy -693778.549682 kJ/mol
# GULP energy per Si atom -12388.902673 kJ/mol
# Density = 2.053310 g / cm^3
# Si number density = 20.579943 Si / 1000 Ang^3
#
#
#
# Elastic Constant Matrix: (Units=GPa)
#
#
# Indices 1 2 3 4 5 6 
#
# 1 148.6790 58.9576 32.4288 0.0000 0.0000 0.0000
# 2 58.9576 100.0642 23.2246 0.0000 0.0000 0.0000
# 3 32.4288 23.2246 86.6156 0.0000 0.0000 0.0000
# 4 0.0000 0.0000 0.0000 15.1016 0.0000 0.0000
# 5 0.0000 0.0000 0.0000 0.0000 9.8697 0.0000
# 6 0.0000 0.0000 0.0000 0.0000 0.0000 40.9953
#
#
#
# Elastic Compliance Matrix: (Units=1/GPa)
#
#
# Indices 1 2 3 4 5 6 
#
# 1 0.009123 -0.004886 -0.002105 0.000000 0.000000 0.000000
# 2 -0.004886 0.013274 -0.001730 0.000000 0.000000 0.000000
# 3 -0.002105 -0.001730 0.012797 0.000000 0.000000 0.000000
# 4 0.000000 0.000000 0.000000 0.066218 0.000000 0.000000
# 5 0.000000 0.000000 0.000000 0.000000 0.101320 0.000000
# 6 0.000000 0.000000 0.000000 0.000000 0.000000 0.024393
#
#
# Mechanical properties :
#
#
# Convention : Reuss Voigt Hill
#
# Bulk Modulus (GPa) = 56.33453 62.73121 59.53287
# Shear Modulus (GPa) = 19.96124 27.90985 23.93555
#
# Velocity S-wave (km/s) = 3.11776 3.68661 3.41405
# Velocity P-wave (km/s) = 6.35559 6.97634 6.67319
#
# Compressibility (1/GPa) = 0.01775110
#
# Stress axis : x y z
#
# Youngs Moduli (GPa) = 109.61541 75.33431 78.14147
#
# Poissons Ratio (x) = 0.36812 0.16451
# Poissons Ratio (y) = 0.53563 0.13517
# Poissons Ratio (z) = 0.23078 0.13031
#
# Static dielectric constant tensor:
#      x y z
#    x 3.948290 0.000000 0.000000 
#    y 0.000000 4.017640 0.000000 
#    z 0.000000 0.000000 3.116720 
# 
# 
# High freq. dielectric constant tensor:
#      x y z
#    x 1.828420 0.000000 0.000000 
#    y 0.000000 1.817780 0.000000 
#    z 0.000000 0.000000 1.726600 
# 
# From -- ./inp_files/24433.got.cif
#   From: 2010.03.12/outbox.cif.g09.slc.cpg/sg57_13_cif.got.tgz:24433.got - 2010.04.16 15:48:40.
