data_PCOD8233496
_publ_section_title
;
Structure prediction by ZEFSAII (Michael W. Deem and Ramdas Pophale) SiO2 
 PCOD8233496
Probable space group: P B C M
;
_chemical_formula_sum "Si O2"
_cell_formula_units_Z 64
_cell_length_a 19.585944
_cell_length_b 8.688623
_cell_length_c 18.316559
_cell_angle_alpha 90.000000
_cell_angle_beta 90.000000
_cell_angle_gamma 90.000000
_cell_volume 3117.018294
_symmetry_space_group_name_H-M "P B C M"
_symmetry_group_IT_number 57
_symmetry_cell_setting 'orthorhombic'
loop_
_space_group_symop_operation_xyz
x,y,z
-x,-y,1/2+z
x,1/2-y,-z
-x,1/2+y,1/2-z
-x,-y,-z
x,y,1/2-z
-x,1/2+y,z
x,1/2-y,1/2+z
loop_
_atom_site_type_symbol
_atom_site_label
_atom_site_fract_x
_atom_site_fract_y
_atom_site_fract_z
Si Si1 0.441710 0.490980 0.836483
Si Si2 0.709403 0.045172 0.165469
Si Si3 0.959285 0.726125 0.833097
Si Si4 0.092488 0.934796 0.166585
Si Si5 0.331245 0.671658 0.924827
Si Si6 0.418010 0.146568 0.835593
Si Si7 0.204046 0.035023 0.062657
Si Si8 0.827199 0.623904 0.903999
O O1 0.426917 0.507594 0.750000
O O2 0.395558 0.610548 0.880237
O O3 0.428592 0.318764 0.866939
O O4 0.519436 0.534659 0.855207
O O5 0.696040 0.077899 0.250000
O O6 0.708632 0.205529 0.123784
O O7 0.650610 0.931868 0.133007
O O8 0.783444 0.969908 0.154887
O O9 0.949127 0.671929 0.750000
O O10 0.906049 0.628605 0.880972
O O11 0.037378 0.693935 0.856930
O O12 0.946681 0.905168 0.843375
O O13 0.118063 0.912791 0.250000
O O14 0.157304 0.925026 0.113236
O O15 0.280165 0.530874 0.940807
O O16 0.356090 0.750000 0.000000
O O17 0.410984 0.166628 0.750000
O O18 0.205958 0.206227 0.095217
O O19 0.173842 0.039015 0.981488
#
# Coordination Sequence:
#
# PCOD8233496 Si02
#       8
#     8   8   8   8   8   8   8   8
#     4  10  20  38  63  88 117 155 196 242 293 346
#     4  11  22  38  61  88 116 154 198 242 293 349
#     4   9  18  34  55  84 116 146 189 242 289 346
#     4   9  19  35  56  82 113 148 189 238 290 347
#     4  12  24  40  56  84 122 156 193 249 293 349
#     4   9  19  37  63  93 120 149 195 245 288 345
#     4  10  22  39  58  80 116 157 195 240 297 347
#     4  10  20  38  61  83 113 155 198 242 293 352
#
# _framework density 20.532444000000002
#
# number of rings (size 3 to 8) (size 9 to 14) (size 15 to 20)
#    0.000    2.000    1.250    2.250    0.000    5.000 
#    0.000    3.750    0.000    0.000    0.000    0.000 
#    0.000    0.000    0.000    0.000    0.000    0.000 
#
# Total GULP energy -793732.662991 kJ/mol
# GULP energy per Si atom -12402.072859 kJ/mol
# Density = 2.048571 g / cm^3
# Si number density = 20.532444 Si / 1000 Ang^3
#
#
#
# Elastic Constant Matrix: (Units=GPa)
#
#
# Indices 1 2 3 4 5 6 
#
# 1 51.2558 1.8847 12.9176 0.0000 0.0000 0.0000
# 2 1.8847 55.2142 14.7647 0.0000 0.0000 0.0000
# 3 12.9176 14.7647 65.9947 0.0000 0.0000 0.0000
# 4 0.0000 0.0000 0.0000 25.6226 0.0000 0.0000
# 5 0.0000 0.0000 0.0000 0.0000 23.6356 0.0000
# 6 0.0000 0.0000 0.0000 0.0000 0.0000 37.6254
#
#
#
# Elastic Compliance Matrix: (Units=1/GPa)
#
#
# Indices 1 2 3 4 5 6 
#
# 1 0.020531 0.000398 -0.004108 0.000000 0.000000 0.000000
# 2 0.000398 0.019271 -0.004389 0.000000 0.000000 0.000000
# 3 -0.004108 -0.004389 0.016939 0.000000 0.000000 0.000000
# 4 0.000000 0.000000 0.000000 0.039028 0.000000 0.000000
# 5 0.000000 0.000000 0.000000 0.000000 0.042309 0.000000
# 6 0.000000 0.000000 0.000000 0.000000 0.000000 0.026578
#
#
# Mechanical properties :
#
#
# Convention : Reuss Voigt Hill
#
# Bulk Modulus (GPa) = 24.66567 25.73319 25.19943
# Shear Modulus (GPa) = 25.72438 26.90325 26.31382
#
# Velocity S-wave (km/s) = 3.54342 3.62371 3.58379
# Velocity P-wave (km/s) = 5.36472 5.48347 5.42442
#
# Compressibility (1/GPa) = 0.04054218
#
# Stress axis : x y z
#
# Youngs Moduli (GPa) = 48.70792 51.89023 59.03633
#
# Poissons Ratio (x) = -0.02063 0.24249
# Poissons Ratio (y) = -0.01937 0.25913
# Poissons Ratio (z) = 0.20007 0.22776
#
# Static dielectric constant tensor:
#      x y z
#    x 3.740800 0.000000 0.000000 
#    y 0.000000 3.810320 0.000000 
#    z 0.000000 0.000000 3.612150 
# 
# 
# High freq. dielectric constant tensor:
#      x y z
#    x 1.802530 0.000000 0.000000 
#    y 0.000000 1.807250 0.000000 
#    z 0.000000 0.000000 1.788550 
# 
# From -- ./inp_files/25606.got.cif
#   From: 2010.03.12/outbox.cif.g09.slc.cpg/sg57_13_cif.got.tgz:25606.got - 2010.04.16 15:48:40.
