data_PCOD8233289
_publ_section_title
;
Structure prediction by ZEFSAII (Michael W. Deem and Ramdas Pophale) SiO2 
 PCOD8233289
Probable space group: P B C M
;
_chemical_formula_sum "Si O2"
_cell_formula_units_Z 48
_cell_length_a 27.897956
_cell_length_b 8.772381
_cell_length_c 9.908313
_cell_angle_alpha 90.000000
_cell_angle_beta 90.000000
_cell_angle_gamma 90.000000
_cell_volume 2424.876295
_symmetry_space_group_name_H-M "P B C M"
_symmetry_group_IT_number 57
_symmetry_cell_setting 'orthorhombic'
loop_
_space_group_symop_operation_xyz
x,y,z
-x,-y,1/2+z
x,1/2-y,-z
-x,1/2+y,1/2-z
-x,-y,-z
x,y,1/2-z
-x,1/2+y,z
x,1/2-y,1/2+z
loop_
_atom_site_type_symbol
_atom_site_label
_atom_site_fract_x
_atom_site_fract_y
_atom_site_fract_z
Si Si1 0.963679 0.401308 0.089330
Si Si2 0.288669 0.906108 0.250000
Si Si3 0.778954 0.427434 0.492802
Si Si4 0.281227 0.554029 0.250000
Si Si5 0.609860 0.940564 0.750000
Si Si6 0.614339 0.919335 0.250000
Si Si7 0.128555 0.108361 0.404935
Si Si8 0.552252 0.569257 0.997907
O O1 0.979549 0.373572 0.250000
O O2 0.913439 0.486177 0.092078
O O3 0.957297 0.250000 0.000000
O O4 0.000000 0.500000 0.000000
O O5 0.259312 0.958535 0.378252
O O6 0.298129 0.727373 0.250000
O O7 0.338272 0.990061 0.250000
O O8 0.794295 0.250000 0.500000
O O9 0.752747 0.486555 0.625639
O O10 0.825046 0.529241 0.467162
O O11 0.329816 0.459187 0.250000
O O12 0.613768 0.760734 0.750000
O O13 0.580213 0.999660 0.623669
O O14 0.585031 0.987142 0.124966
O O15 0.114381 0.250000 0.500000
O O16 0.137359 0.162030 0.250000
O O17 0.547100 0.750000 0.000000
O O18 0.500000 0.500000 0.000000
#
# Coordination Sequence:
#
# PCOD8233289 Si02
#       8
#     8   4   8   4   4   4   8   8
#     4  11  24  44  69 100 135 177 221 273 330 387
#     4  10  20  37  59  82 116 149 196 242 295 358
#     4  10  21  40  60  86 119 158 201 251 309 361
#     4  10  22  35  59  88 112 151 198 246 293 366
#     4  10  21  35  55  78 108 149 179 230 293 346
#     4  10  21  37  53  80 112 141 187 232 291 356
#     4  11  25  42  63  93 129 167 214 263 315 376
#     4  10  21  36  54  78 107 142 183 230 285 348
#
# _framework density 19.794824999999999
#
# number of rings (size 3 to 8) (size 9 to 14) (size 15 to 20)
#    0.000    1.667    0.833    3.000    1.167    5.333 
#    0.000    0.000    0.000    0.000    0.000    0.000 
#    0.000    0.000    0.000    0.000    0.000    0.000 
#
# Total GULP energy -595009.323696 kJ/mol
# GULP energy per Si atom -12396.027577 kJ/mol
# Density = 1.974977 g / cm^3
# Si number density = 19.794825 Si / 1000 Ang^3
#
#
#
# Elastic Constant Matrix: (Units=GPa)
#
#
# Indices 1 2 3 4 5 6 
#
# 1 110.2766 31.0937 65.5753 0.0000 0.0000 0.0000
# 2 31.0937 58.3190 48.0104 0.0000 0.0000 0.0000
# 3 65.5753 48.0104 197.6876 0.0000 0.0000 0.0000
# 4 0.0000 0.0000 0.0000 108.3692 0.0000 0.0000
# 5 0.0000 0.0000 0.0000 0.0000 53.9569 0.0000
# 6 0.0000 0.0000 0.0000 0.0000 0.0000 40.8464
#
#
#
# Elastic Compliance Matrix: (Units=1/GPa)
#
#
# Indices 1 2 3 4 5 6 
#
# 1 0.011963 -0.003889 -0.003024 0.000000 0.000000 0.000000
# 2 -0.003889 0.022696 -0.004222 0.000000 0.000000 0.000000
# 3 -0.003024 -0.004222 0.007087 0.000000 0.000000 0.000000
# 4 0.000000 0.000000 0.000000 0.009228 0.000000 0.000000
# 5 0.000000 0.000000 0.000000 0.000000 0.018533 0.000000
# 6 0.000000 0.000000 0.000000 0.000000 0.000000 0.024482
#
#
# Mechanical properties :
#
#
# Convention : Reuss Voigt Hill
#
# Bulk Modulus (GPa) = 51.34380 72.84911 62.09645
# Shear Modulus (GPa) = 40.73322 55.40810 48.07066
#
# Velocity S-wave (km/s) = 4.54119 5.29641 4.93327
# Velocity P-wave (km/s) = 7.31374 8.61885 7.99298
#
# Compressibility (1/GPa) = 0.01947655
#
# Stress axis : x y z
#
# Youngs Moduli (GPa) = 83.59362 44.06025 141.10650
#
# Poissons Ratio (x) = 0.17134 0.42666
# Poissons Ratio (y) = 0.32508 0.59575
# Poissons Ratio (z) = 0.25276 0.18602
#
# Static dielectric constant tensor:
#      x y z
#    x 3.691040 0.000000 0.000000 
#    y 0.000000 3.510900 0.000000 
#    z 0.000000 0.000000 4.166350 
# 
# 
# High freq. dielectric constant tensor:
#      x y z
#    x 1.786880 0.000000 0.000000 
#    y 0.000000 1.762730 0.000000 
#    z 0.000000 0.000000 1.797150 
# 
# From -- ./inp_files/10202.got.cif
#   From: 2010.03.12/outbox.cif.g09.slc.cpg/sg57_6_cif.got.tgz:10202.got - 2010.04.16 15:48:40.
