data_PCOD8233548
_publ_section_title
;
Structure prediction by ZEFSAII (Michael W. Deem and Ramdas Pophale) SiO2 
 PCOD8233548
Probable space group: P B C M
;
_chemical_formula_sum "Si O2"
_cell_formula_units_Z 64
_cell_length_a 14.212890
_cell_length_b 12.032999
_cell_length_c 17.874803
_cell_angle_alpha 90.000000
_cell_angle_beta 90.000000
_cell_angle_gamma 90.000000
_cell_volume 3057.014788
_symmetry_space_group_name_H-M "P B C M"
_symmetry_group_IT_number 57
_symmetry_cell_setting 'orthorhombic'
loop_
_space_group_symop_operation_xyz
x,y,z
-x,-y,1/2+z
x,1/2-y,-z
-x,1/2+y,1/2-z
-x,-y,-z
x,y,1/2-z
-x,1/2+y,z
x,1/2-y,1/2+z
loop_
_atom_site_type_symbol
_atom_site_label
_atom_site_fract_x
_atom_site_fract_y
_atom_site_fract_z
Si Si1 0.867257 0.062097 0.333572
Si Si2 0.794465 0.610635 0.338239
Si Si3 0.357885 0.284652 0.163676
Si Si4 0.128185 0.691327 0.831966
Si Si5 0.661120 0.043507 0.337974
Si Si6 0.544594 0.263244 0.912337
Si Si7 0.676329 0.397370 0.333116
Si Si8 0.039012 0.995196 0.083384
O O1 0.851560 0.019013 0.250000
O O2 0.911004 0.185227 0.338736
O O3 0.765650 0.058713 0.372423
O O4 0.943925 0.983873 0.369706
O O5 0.821769 0.600070 0.250000
O O6 0.744336 0.728970 0.355879
O O7 0.719482 0.514553 0.360787
O O8 0.889173 0.593626 0.389141
O O9 0.380152 0.258733 0.250000
O O10 0.361881 0.415089 0.147292
O O11 0.436986 0.226791 0.113538
O O12 0.099674 0.640355 0.750000
O O13 0.241628 0.695680 0.835309
O O14 0.090529 0.621039 0.901565
O O15 0.654113 0.074724 0.250000
O O16 0.593216 0.123451 0.384592
O O17 0.590906 0.149440 0.881646
O O18 0.550330 0.250000 0.000000
O O19 0.635454 0.412866 0.250000
O O20 0.000000 0.000000 0.000000
#
# Coordination Sequence:
#
# PCOD8233548 Si02
#       8
#     8   8   8   8   8   8   8   8
#     4  10  20  38  63  88 117 158 209 267 314 365
#     4   9  20  41  67  94 125 168 224 272 319 382
#     4  10  23  43  67  93 125 171 222 272 323 380
#     4   9  18  36  60  85 115 157 211 262 305 364
#     4  10  22  42  67  96 126 160 219 278 325 383
#     4  12  25  39  60  95 132 171 209 266 334 407
#     4   9  17  36  64  88 115 158 216 270 311 368
#     4  11  23  37  58  96 130 167 205 253 323 394
#
# _framework density 20.935457
#
# number of rings (size 3 to 8) (size 9 to 14) (size 15 to 20)
#    0.000    2.000    1.250    3.000    1.750    4.000 
#    2.250    2.500    0.000    0.000    0.000    0.000 
#    0.000    0.000    0.000    0.000    0.000    0.000 
#
# Total GULP energy -793157.013072 kJ/mol
# GULP energy per Si atom -12393.078329 kJ/mol
# Density = 2.088781 g / cm^3
# Si number density = 20.935457 Si / 1000 Ang^3
#
#
#
# Elastic Constant Matrix: (Units=GPa)
#
#
# Indices 1 2 3 4 5 6 
#
# 1 120.1155 37.7512 62.1168 0.0000 0.0000 0.0000
# 2 37.7512 66.8930 34.5801 0.0000 0.0000 0.0000
# 3 62.1168 34.5801 104.7715 0.0000 0.0000 0.0000
# 4 0.0000 0.0000 0.0000 15.2139 0.0000 0.0000
# 5 0.0000 0.0000 0.0000 0.0000 18.2537 0.0000
# 6 0.0000 0.0000 0.0000 0.0000 0.0000 28.6216
#
#
#
# Elastic Compliance Matrix: (Units=1/GPa)
#
#
# Indices 1 2 3 4 5 6 
#
# 1 0.012833 -0.003990 -0.006291 0.000000 0.000000 0.000000
# 2 -0.003990 0.019265 -0.003993 0.000000 0.000000 0.000000
# 3 -0.006291 -0.003993 0.014593 0.000000 0.000000 0.000000
# 4 0.000000 0.000000 0.000000 0.065729 0.000000 0.000000
# 5 0.000000 0.000000 0.000000 0.000000 0.054783 0.000000
# 6 0.000000 0.000000 0.000000 0.000000 0.000000 0.034939
#
#
# Mechanical properties :
#
#
# Convention : Reuss Voigt Hill
#
# Bulk Modulus (GPa) = 55.12115 62.29736 58.70926
# Shear Modulus (GPa) = 21.12040 22.90664 22.01352
#
# Velocity S-wave (km/s) = 3.17966 3.31139 3.24619
# Velocity P-wave (km/s) = 6.31400 6.66647 6.49263
#
# Compressibility (1/GPa) = 0.01814186
#
# Stress axis : x y z
#
# Youngs Moduli (GPa) = 77.92462 51.90728 68.52812
#
# Poissons Ratio (x) = 0.20711 0.43114
# Poissons Ratio (y) = 0.31091 0.27363
# Poissons Ratio (z) = 0.49026 0.20726
#
# Static dielectric constant tensor:
#      x y z
#    x 3.853230 0.000000 0.000000 
#    y 0.000000 3.699240 0.000000 
#    z 0.000000 0.000000 3.599120 
# 
# 
# High freq. dielectric constant tensor:
#      x y z
#    x 1.824250 0.000000 0.000000 
#    y 0.000000 1.818000 0.000000 
#    z 0.000000 0.000000 1.789830 
# 
# From -- ./inp_files/22634.got.cif
#   From: 2010.03.12/outbox.cif.g09.slc.cpg/sg57_12_cif.got.tgz:22634.got - 2010.04.16 15:48:40.
