data_PCOD8233292
_publ_section_title
;
Structure prediction by ZEFSAII (Michael W. Deem and Ramdas Pophale) SiO2 
 PCOD8233292
Probable space group: P B C M
;
_chemical_formula_sum "Si O2"
_cell_formula_units_Z 48
_cell_length_a 17.128485
_cell_length_b 15.536298
_cell_length_c 9.263058
_cell_angle_alpha 90.000000
_cell_angle_beta 90.000000
_cell_angle_gamma 90.000000
_cell_volume 2465.022444
_symmetry_space_group_name_H-M "P B C M"
_symmetry_group_IT_number 57
_symmetry_cell_setting 'orthorhombic'
loop_
_space_group_symop_operation_xyz
x,y,z
-x,-y,1/2+z
x,1/2-y,-z
-x,1/2+y,1/2-z
-x,-y,-z
x,y,1/2-z
-x,1/2+y,z
x,1/2-y,1/2+z
loop_
_atom_site_type_symbol
_atom_site_label
_atom_site_fract_x
_atom_site_fract_y
_atom_site_fract_z
Si Si1 0.678559 0.833844 0.081463
Si Si2 0.152660 0.102673 0.580627
Si Si3 0.679917 0.166432 0.419586
Si Si4 0.418870 0.000771 0.919364
Si Si5 0.007503 0.410136 0.918857
Si Si6 0.162669 0.908829 0.583042
O O1 0.665737 0.819734 0.250000
O O2 0.770072 0.843912 0.044657
O O3 0.631687 0.917527 0.028054
O O4 0.645992 0.750000 0.000000
O O5 0.132611 0.103905 0.750000
O O6 0.078422 0.143070 0.493202
O O7 0.164499 0.005727 0.520301
O O8 0.646165 0.250000 0.500000
O O9 0.678865 0.184980 0.250000
O O10 0.767578 0.148600 0.482298
O O11 0.626914 0.085445 0.460727
O O12 0.434447 0.006104 0.750000
O O13 0.500000 0.000000 0.000000
O O14 0.024992 0.424200 0.750000
O O15 0.922532 0.364279 0.939874
O O16 0.000000 0.500000 0.000000
O O17 0.183642 0.920020 0.750000
#
# Coordination Sequence:
#
# PCOD8233292 Si02
#       6
#     8   8   8   8   8   8
#     4  10  21  38  60  85 113 150 188 229 281 338
#     4   9  16  31  53  75 105 146 189 231 276 326
#     4  10  20  37  59  83 111 147 185 225 273 328
#     4  10  22  41  64  85 112 147 182 223 280 340
#     4   9  16  26  46  76 107 144 189 233 276 324
#     4   8  14  29  52  73 102 145 186 221 267 323
#
# _framework density 19.472439999999999
#
# number of rings (size 3 to 8) (size 9 to 14) (size 15 to 20)
#    0.000    2.667    1.667    1.500    0.000    2.667 
#    0.000    8.333    0.000    4.000    0.000    0.000 
#    0.000    0.000    0.000    0.000    0.000    0.000 
#
# Total GULP energy -594892.937625 kJ/mol
# GULP energy per Si atom -12393.602867 kJ/mol
# Density = 1.942812 g / cm^3
# Si number density = 19.472440 Si / 1000 Ang^3
#
#
#
# Elastic Constant Matrix: (Units=GPa)
#
#
# Indices 1 2 3 4 5 6 
#
# 1 146.0625 60.5671 61.2154 0.0000 0.0000 0.0000
# 2 60.5671 121.3697 45.4706 0.0000 0.0000 0.0000
# 3 61.2154 45.4706 60.9729 0.0000 0.0000 0.0000
# 4 0.0000 0.0000 0.0000 27.0622 0.0000 0.0000
# 5 0.0000 0.0000 0.0000 0.0000 35.0150 0.0000
# 6 0.0000 0.0000 0.0000 0.0000 0.0000 7.3279
#
#
#
# Elastic Compliance Matrix: (Units=1/GPa)
#
#
# Indices 1 2 3 4 5 6 
#
# 1 0.012186 -0.002078 -0.010685 0.000000 0.000000 0.000000
# 2 -0.002078 0.011788 -0.006705 0.000000 0.000000 0.000000
# 3 -0.010685 -0.006705 0.032128 0.000000 0.000000 0.000000
# 4 0.000000 0.000000 0.000000 0.036952 0.000000 0.000000
# 5 0.000000 0.000000 0.000000 0.000000 0.028559 0.000000
# 6 0.000000 0.000000 0.000000 0.000000 0.000000 0.136465
#
#
# Mechanical properties :
#
#
# Convention : Reuss Voigt Hill
#
# Bulk Modulus (GPa) = 58.25076 73.65680 65.95378
# Shear Modulus (GPa) = 16.51604 24.62449 20.57026
#
# Velocity S-wave (km/s) = 2.91550 3.55995 3.25372
# Velocity P-wave (km/s) = 6.42752 7.40311 6.93249
#
# Compressibility (1/GPa) = 0.01716716
#
# Stress axis : x y z
#
# Youngs Moduli (GPa) = 82.05981 84.83036 31.12548
#
# Poissons Ratio (x) = 0.17630 0.33257
# Poissons Ratio (y) = 0.17054 0.20868
# Poissons Ratio (z) = 0.87680 0.56875
#
# Static dielectric constant tensor:
#      x y z
#    x 3.924060 0.000000 0.000000 
#    y 0.000000 3.363690 0.000000 
#    z 0.000000 0.000000 3.348740 
# 
# 
# High freq. dielectric constant tensor:
#      x y z
#    x 1.769830 0.000000 0.000000 
#    y 0.000000 1.736980 0.000000 
#    z 0.000000 0.000000 1.733920 
# 
# From -- ./inp_files/6523.got.cif
#   From: 2010.03.12/outbox.cif.g09.slc.cpg/sg57_4_cif.got.tgz:6523.got - 2010.04.16 15:48:40.
