data_PCOD8233243
_publ_section_title
;
Structure prediction by ZEFSAII (Michael W. Deem and Ramdas Pophale) SiO2 
 PCOD8233243
Probable space group: P B C M
;
_chemical_formula_sum "Si O2"
_cell_formula_units_Z 48
_cell_length_a 14.909658
_cell_length_b 19.305498
_cell_length_c 9.708372
_cell_angle_alpha 90.000000
_cell_angle_beta 90.000000
_cell_angle_gamma 90.000000
_cell_volume 2794.441998
_symmetry_space_group_name_H-M "P B C M"
_symmetry_group_IT_number 57
_symmetry_cell_setting 'orthorhombic'
loop_
_space_group_symop_operation_xyz
x,y,z
-x,-y,1/2+z
x,1/2-y,-z
-x,1/2+y,1/2-z
-x,-y,-z
x,y,1/2-z
-x,1/2+y,z
x,1/2-y,1/2+z
loop_
_atom_site_type_symbol
_atom_site_label
_atom_site_fract_x
_atom_site_fract_y
_atom_site_fract_z
Si Si1 0.219635 0.863776 0.403006
Si Si2 0.428930 0.669578 0.250000
Si Si3 0.074832 0.590237 0.409535
Si Si4 0.294682 0.485837 0.963280
Si Si5 0.644693 0.250000 0.500000
Si Si6 0.891253 0.958286 0.906713
Si Si7 0.438689 0.055169 0.250000
Si Si8 0.366509 0.977600 0.750000
O O1 0.180955 0.853027 0.250000
O O2 0.135881 0.854166 0.509080
O O3 0.266211 0.938454 0.411729
O O4 0.294290 0.807213 0.429753
O O5 0.418756 0.715965 0.114503
O O6 0.528284 0.635360 0.250000
O O7 0.354843 0.606710 0.250000
O O8 0.104715 0.590462 0.250000
O O9 0.093828 0.516013 0.477089
O O10 0.966632 0.602378 0.424779
O O11 0.211393 0.432935 0.931501
O O12 0.382410 0.459576 0.886094
O O13 0.317290 0.487227 0.122900
O O14 0.901192 0.988076 0.750000
O O15 0.526764 0.005414 0.250000
#
# Coordination Sequence:
#
# PCOD8233243 Si02
#       8
#     8   4   8   8   4   8   4   4
#     4  11  21  32  51  74 108 144 175 216 264 325
#     4  10  24  37  55  76 105 141 179 226 274 317
#     4   9  18  28  45  71 104 137 171 207 249 301
#     4  11  18  33  52  77 109 141 175 213 276 322
#     4  12  22  38  52  78 108 142 182 222 266 324
#     4   9  17  29  44  70 105 140 170 201 249 312
#     4  10  20  37  53  74 108 138 183 220 273 340
#     4  10  22  30  48  80 103 139 174 220 267 327
#
# _framework density 17.176953999999999
#
# number of rings (size 3 to 8) (size 9 to 14) (size 15 to 20)
#    0.500    1.333    4.167    2.000    5.833    0.667 
#    0.000    0.833    0.000    0.000    0.000    1.167 
#    0.000    0.000    0.000    0.000    0.000    0.000 
#
# Total GULP energy -594666.101520 kJ/mol
# GULP energy per Si atom -12388.877115 kJ/mol
# Density = 1.713786 g / cm^3
# Si number density = 17.176954 Si / 1000 Ang^3
#
#
#
# Elastic Constant Matrix: (Units=GPa)
#
#
# Indices 1 2 3 4 5 6 
#
# 1 120.4400 36.2563 58.5115 0.0000 0.0000 0.0000
# 2 36.2563 44.4296 31.1230 0.0000 0.0000 0.0000
# 3 58.5115 31.1230 162.5476 0.0000 0.0000 0.0000
# 4 0.0000 0.0000 0.0000 17.5907 0.0000 0.0000
# 5 0.0000 0.0000 0.0000 0.0000 31.1123 0.0000
# 6 0.0000 0.0000 0.0000 0.0000 0.0000 12.7958
#
#
#
# Elastic Compliance Matrix: (Units=1/GPa)
#
#
# Indices 1 2 3 4 5 6 
#
# 1 0.012039 -0.007840 -0.002832 0.000000 0.000000 0.000000
# 2 -0.007840 0.031100 -0.003132 0.000000 0.000000 0.000000
# 3 -0.002832 -0.003132 0.007771 0.000000 0.000000 0.000000
# 4 0.000000 0.000000 0.000000 0.056848 0.000000 0.000000
# 5 0.000000 0.000000 0.000000 0.000000 0.032142 0.000000
# 6 0.000000 0.000000 0.000000 0.000000 0.000000 0.078151
#
#
# Mechanical properties :
#
#
# Convention : Reuss Voigt Hill
#
# Bulk Modulus (GPa) = 42.91863 64.35544 53.63704
# Shear Modulus (GPa) = 19.72950 25.73485 22.73218
#
# Velocity S-wave (km/s) = 3.39278 3.87488 3.64182
# Velocity P-wave (km/s) = 6.35518 7.58730 6.99841
#
# Compressibility (1/GPa) = 0.02329990
#
# Stress axis : x y z
#
# Youngs Moduli (GPa) = 83.06256 32.15460 128.67656
#
# Poissons Ratio (x) = 0.25210 0.36448
# Poissons Ratio (y) = 0.65123 0.40308
# Poissons Ratio (z) = 0.23527 0.10072
#
# Static dielectric constant tensor:
#      x y z
#    x 3.721530 0.000000 0.000000 
#    y 0.000000 2.815740 0.000000 
#    z 0.000000 0.000000 3.391470 
# 
# 
# High freq. dielectric constant tensor:
#      x y z
#    x 1.672900 0.000000 0.000000 
#    y 0.000000 1.593930 0.000000 
#    z 0.000000 0.000000 1.687880 
# 
# From -- ./inp_files/5378.got.cif
#   From: 2010.03.12/outbox.cif.g09.slc.cpg/sg57_3_cif.got.tgz:5378.got - 2010.04.16 15:48:40.
