data_PCOD8233489
_publ_section_title
;
Structure prediction by ZEFSAII (Michael W. Deem and Ramdas Pophale) SiO2 
 PCOD8233489
Probable space group: P B C M
;
_chemical_formula_sum "Si O2"
_cell_formula_units_Z 40
_cell_length_a 7.543750
_cell_length_b 13.948030
_cell_length_c 16.668465
_cell_angle_alpha 90.000000
_cell_angle_beta 90.000000
_cell_angle_gamma 90.000000
_cell_volume 1753.863410
_symmetry_space_group_name_H-M "P B C M"
_symmetry_group_IT_number 57
_symmetry_cell_setting 'orthorhombic'
loop_
_space_group_symop_operation_xyz
x,y,z
-x,-y,1/2+z
x,1/2-y,-z
-x,1/2+y,1/2-z
-x,-y,-z
x,y,1/2-z
-x,1/2+y,z
x,1/2-y,1/2+z
loop_
_atom_site_type_symbol
_atom_site_label
_atom_site_fract_x
_atom_site_fract_y
_atom_site_fract_z
Si Si1 0.245355 0.166435 0.944483
Si Si2 0.688836 0.934971 0.904666
Si Si3 0.568019 0.375058 0.341093
Si Si4 0.032737 0.300447 0.659324
Si Si5 0.347157 0.842555 0.841507
O O1 0.369676 0.128048 0.874624
O O2 0.069371 0.211463 0.902311
O O3 0.334566 0.250000 0.000000
O O4 0.219946 0.079136 0.007466
O O5 0.801451 0.873490 0.840993
O O6 0.483705 0.897319 0.899795
O O7 0.690811 0.047937 0.887091
O O8 0.552347 0.408996 0.250000
O O9 0.652556 0.271881 0.351203
O O10 0.012203 0.259808 0.750000
O O11 0.858272 0.362752 0.635310
O O12 0.391017 0.873106 0.750000
#
# Coordination Sequence:
#
# PCOD8233489 Si02
#       5
#     8   8   8   8   8
#     4  10  20  38  60  86 122 161 196 248 311 359
#     4  11  22  41  61  92 126 159 203 259 310 363
#     4  11  21  38  66  91 118 164 209 251 307 367
#     4  10  20  39  62  86 122 164 208 253 301 365
#     4  10  21  39  64  91 121 165 208 250 308 363
#
# _framework density 22.806791
#
# number of rings (size 3 to 8) (size 9 to 14) (size 15 to 20)
#    0.000    1.600    4.000    3.000    0.000    0.000 
#   14.400    1.000    0.000    0.000    0.000    0.000 
#    0.000    0.000    0.000    0.000    0.000    0.000 
#
# Total GULP energy -495652.769623 kJ/mol
# GULP energy per Si atom -12391.319241 kJ/mol
# Density = 2.275488 g / cm^3
# Si number density = 22.806791 Si / 1000 Ang^3
#
#
#
# Elastic Constant Matrix: (Units=GPa)
#
#
# Indices 1 2 3 4 5 6 
#
# 1 94.3642 -2.1047 21.3340 0.0000 0.0000 0.0000
# 2 -2.1047 57.9769 -0.5173 0.0000 0.0000 0.0000
# 3 21.3340 -0.5173 49.6972 0.0000 0.0000 0.0000
# 4 0.0000 0.0000 0.0000 25.5736 0.0000 0.0000
# 5 0.0000 0.0000 0.0000 0.0000 22.6396 0.0000
# 6 0.0000 0.0000 0.0000 0.0000 0.0000 14.9057
#
#
#
# Elastic Compliance Matrix: (Units=1/GPa)
#
#
# Indices 1 2 3 4 5 6 
#
# 1 0.011745 0.000381 -0.005038 0.000000 0.000000 0.000000
# 2 0.000381 0.017262 0.000016 0.000000 0.000000 0.000000
# 3 -0.005038 0.000016 0.022285 0.000000 0.000000 0.000000
# 4 0.000000 0.000000 0.000000 0.039103 0.000000 0.000000
# 5 0.000000 0.000000 0.000000 0.000000 0.044170 0.000000
# 6 0.000000 0.000000 0.000000 0.000000 0.000000 0.067088
#
#
# Mechanical properties :
#
#
# Convention : Reuss Voigt Hill
#
# Bulk Modulus (GPa) = 23.80345 26.60693 25.20519
# Shear Modulus (GPa) = 22.22840 24.84555 23.53698
#
# Velocity S-wave (km/s) = 3.12531 3.30418 3.21599
# Velocity P-wave (km/s) = 4.84593 5.12331 4.98655
#
# Compressibility (1/GPa) = 0.04201072
#
# Stress axis : x y z
#
# Youngs Moduli (GPa) = 85.14479 57.92993 44.87395
#
# Poissons Ratio (x) = -0.02209 0.22607
# Poissons Ratio (y) = -0.03247 -0.00072
# Poissons Ratio (z) = 0.42894 -0.00093
#
# Static dielectric constant tensor:
#      x y z
#    x 4.036290 0.000000 0.000000 
#    y 0.000000 3.963910 0.000000 
#    z 0.000000 0.000000 4.244130 
# 
# 
# High freq. dielectric constant tensor:
#      x y z
#    x 1.883000 0.000000 0.000000 
#    y 0.000000 1.881920 0.000000 
#    z 0.000000 0.000000 1.904090 
# 
# From -- ./inp_files/20731.got.cif
#   From: 2010.03.12/outbox.cif.g09.slc.cpg/sg57_11_cif.got.tgz:20731.got - 2010.04.16 15:48:40.
