data_PCOD8233537
_publ_section_title
;
Structure prediction by ZEFSAII (Michael W. Deem and Ramdas Pophale) SiO2 
 PCOD8233537
Probable space group: P B C M
;
_chemical_formula_sum "Si O2"
_cell_formula_units_Z 48
_cell_length_a 8.528541
_cell_length_b 10.214335
_cell_length_c 28.853314
_cell_angle_alpha 90.000000
_cell_angle_beta 90.000000
_cell_angle_gamma 90.000000
_cell_volume 2513.509558
_symmetry_space_group_name_H-M "P B C M"
_symmetry_group_IT_number 57
_symmetry_cell_setting 'orthorhombic'
loop_
_space_group_symop_operation_xyz
x,y,z
-x,-y,1/2+z
x,1/2-y,-z
-x,1/2+y,1/2-z
-x,-y,-z
x,y,1/2-z
-x,1/2+y,z
x,1/2-y,1/2+z
loop_
_atom_site_type_symbol
_atom_site_label
_atom_site_fract_x
_atom_site_fract_y
_atom_site_fract_z
Si Si1 0.122450 0.512335 0.397326
Si Si2 0.855820 0.779709 0.882806
Si Si3 0.378939 0.243684 0.303521
Si Si4 0.288360 0.610213 0.014150
Si Si5 0.392663 0.075896 0.436777
Si Si6 0.440702 0.987162 0.653814
O O1 0.067512 0.360794 0.394540
O O2 0.173180 0.541682 0.449725
O O3 0.262227 0.538585 0.361348
O O4 0.980572 0.604761 0.383009
O O5 0.781171 0.778833 0.831692
O O6 0.718210 0.804639 0.920660
O O7 0.333029 0.242109 0.250000
O O8 0.458471 0.380848 0.316998
O O9 0.506264 0.132317 0.314181
O O10 0.461278 0.635245 0.035190
O O11 0.216843 0.750000 0.000000
O O12 0.293001 0.521550 0.968492
O O13 0.451395 0.996695 0.391745
#
# Coordination Sequence:
#
# PCOD8233537 Si02
#       6
#     8   8   8   8   8   8
#     4  10  23  39  56  82 117 157 193 228 286 333
#     4  10  23  40  58  79 118 158 188 237 289 343
#     4  10  20  38  62  90 113 143 188 240 289 348
#     4  10  22  34  58  86 112 149 201 239 273 341
#     4   9  21  36  57  82 116 152 190 240 286 325
#     4   9  20  36  62  86 115 148 184 236 291 342
#
# _framework density 19.096806000000001
#
# number of rings (size 3 to 8) (size 9 to 14) (size 15 to 20)
#    0.000    2.333    0.000    0.500   16.333    2.000 
#    0.000    4.167    0.000    0.000    0.000    0.000 
#    0.000    0.000    0.000    0.000    0.000    0.000 
#
# Total GULP energy -595357.702918 kJ/mol
# GULP energy per Si atom -12403.285477 kJ/mol
# Density = 1.905334 g / cm^3
# Si number density = 19.096806 Si / 1000 Ang^3
#
#
#
# Elastic Constant Matrix: (Units=GPa)
#
#
# Indices 1 2 3 4 5 6 
#
# 1 70.3845 57.8305 31.9475 0.0000 0.0000 0.0000
# 2 57.8305 152.9723 61.8121 0.0000 0.0000 0.0000
# 3 31.9475 61.8121 130.4467 0.0000 0.0000 0.0000
# 4 0.0000 0.0000 0.0000 23.6876 0.0000 0.0000
# 5 0.0000 0.0000 0.0000 0.0000 13.1894 0.0000
# 6 0.0000 0.0000 0.0000 0.0000 0.0000 34.0867
#
#
#
# Elastic Compliance Matrix: (Units=1/GPa)
#
#
# Indices 1 2 3 4 5 6 
#
# 1 0.020910 -0.007218 -0.001701 0.000000 0.000000 0.000000
# 2 -0.007218 0.010577 -0.003244 0.000000 0.000000 0.000000
# 3 -0.001701 -0.003244 0.009620 0.000000 0.000000 0.000000
# 4 0.000000 0.000000 0.000000 0.042216 0.000000 0.000000
# 5 0.000000 0.000000 0.000000 0.000000 0.075819 0.000000
# 6 0.000000 0.000000 0.000000 0.000000 0.000000 0.029337
#
#
# Mechanical properties :
#
#
# Convention : Reuss Voigt Hill
#
# Bulk Modulus (GPa) = 59.59111 72.99820 66.29465
# Shear Modulus (GPa) = 22.89408 27.67362 25.28385
#
# Velocity S-wave (km/s) = 3.46619 3.81086 3.64261
# Velocity P-wave (km/s) = 6.87690 7.59420 7.24444
#
# Compressibility (1/GPa) = 0.01678103
#
# Stress axis : x y z
#
# Youngs Moduli (GPa) = 47.82401 94.54884 103.95297
#
# Poissons Ratio (x) = 0.68242 0.17682
# Poissons Ratio (y) = 0.34517 0.33723
# Poissons Ratio (z) = 0.08135 0.30672
#
# Static dielectric constant tensor:
#      x y z
#    x 3.335600 0.000000 0.000000 
#    y 0.000000 3.557030 0.000000 
#    z 0.000000 0.000000 3.476050 
# 
# 
# High freq. dielectric constant tensor:
#      x y z
#    x 1.726760 0.000000 0.000000 
#    y 0.000000 1.752940 0.000000 
#    z 0.000000 0.000000 1.740250 
# 
# From -- ./inp_files/29453.got.cif
#   From: 2010.03.12/outbox.cif.g09.slc.cpg/sg57_15_cif.got.tgz:29453.got - 2010.04.16 15:48:40.
