data_PCOD8233747
_publ_section_title
;
Structure prediction by ZEFSAII (Michael W. Deem and Ramdas Pophale) SiO2 
 PCOD8233747
Probable space group: P B C M
;
_chemical_formula_sum "Si O2"
_cell_formula_units_Z 48
_cell_length_a 12.418335
_cell_length_b 23.514630
_cell_length_c 8.897841
_cell_angle_alpha 90.000000
_cell_angle_beta 90.000000
_cell_angle_gamma 90.000000
_cell_volume 2598.281264
_symmetry_space_group_name_H-M "P B C M"
_symmetry_group_IT_number 57
_symmetry_cell_setting 'orthorhombic'
loop_
_space_group_symop_operation_xyz
x,y,z
-x,-y,1/2+z
x,1/2-y,-z
-x,1/2+y,1/2-z
-x,-y,-z
x,y,1/2-z
-x,1/2+y,z
x,1/2-y,1/2+z
loop_
_atom_site_type_symbol
_atom_site_label
_atom_site_fract_x
_atom_site_fract_y
_atom_site_fract_z
Si Si1 0.797146 0.888331 0.428238
Si Si2 0.371127 0.309014 0.573749
Si Si3 0.116854 0.498544 0.926902
Si Si4 0.795905 0.378138 0.425383
Si Si5 0.379146 0.691760 0.075540
Si Si6 0.003641 0.189494 0.573123
O O1 0.786481 0.893843 0.250000
O O2 0.690003 0.860871 0.496098
O O3 0.809740 0.950209 0.499947
O O4 0.899256 0.850975 0.476990
O O5 0.332235 0.250000 0.500000
O O6 0.345338 0.306557 0.750000
O O7 0.496279 0.319682 0.540293
O O8 0.103081 0.488594 0.750000
O O9 0.177961 0.556906 0.962181
O O10 0.000000 0.500000 0.000000
O O11 0.777215 0.368665 0.250000
O O12 0.687492 0.361228 0.511591
O O13 0.893414 0.338749 0.484363
O O14 0.356448 0.698022 0.250000
O O15 0.339050 0.750000 0.000000
O O16 0.021570 0.250000 0.500000
O O17 0.002344 0.197190 0.750000
#
# Coordination Sequence:
#
# PCOD8233747 Si02
#       6
#     8   8   8   8   8   8
#     4  11  22  38  58  83 115 150 194 237 283 342
#     4  10  21  38  59  86 117 151 191 236 287 340
#     4  11  22  39  60  83 114 153 193 237 287 341
#     4  10  21  38  57  81 114 148 189 235 282 337
#     4  10  21  37  59  86 116 150 191 235 284 342
#     4  10  21  35  51  79 114 144 179 228 280 335
#
# _framework density 18.473749999999999
#
# number of rings (size 3 to 8) (size 9 to 14) (size 15 to 20)
#    0.000    1.667    1.667    3.000    0.000    8.000 
#    0.000    0.833    0.000    0.000    0.000    0.000 
#    0.000    0.000    0.000    0.000    0.000    0.000 
#
# Total GULP energy -595473.272536 kJ/mol
# GULP energy per Si atom -12405.693178 kJ/mol
# Density = 1.843170 g / cm^3
# Si number density = 18.473750 Si / 1000 Ang^3
#
#
#
# Elastic Constant Matrix: (Units=GPa)
#
#
# Indices 1 2 3 4 5 6 
#
# 1 94.1376 63.5589 55.3233 0.0000 0.0000 0.0000
# 2 63.5589 130.8697 66.6530 0.0000 0.0000 0.0000
# 3 55.3233 66.6530 91.1008 0.0000 0.0000 0.0000
# 4 0.0000 0.0000 0.0000 36.1601 0.0000 0.0000
# 5 0.0000 0.0000 0.0000 0.0000 33.6022 0.0000
# 6 0.0000 0.0000 0.0000 0.0000 0.0000 27.5718
#
#
#
# Elastic Compliance Matrix: (Units=1/GPa)
#
#
# Indices 1 2 3 4 5 6 
#
# 1 0.018501 -0.005201 -0.007430 0.000000 0.000000 0.000000
# 2 -0.005201 0.013642 -0.006822 0.000000 0.000000 0.000000
# 3 -0.007430 -0.006822 0.020480 0.000000 0.000000 0.000000
# 4 0.000000 0.000000 0.000000 0.027655 0.000000 0.000000
# 5 0.000000 0.000000 0.000000 0.000000 0.029760 0.000000
# 6 0.000000 0.000000 0.000000 0.000000 0.000000 0.036269
#
#
# Mechanical properties :
#
#
# Convention : Reuss Voigt Hill
#
# Bulk Modulus (GPa) = 72.90546 76.35318 74.62932
# Shear Modulus (GPa) = 26.34556 28.17168 27.25862
#
# Velocity S-wave (km/s) = 3.78048 3.90931 3.84543
# Velocity P-wave (km/s) = 7.65546 7.86112 7.75897
#
# Compressibility (1/GPa) = 0.01371639
#
# Stress axis : x y z
#
# Youngs Moduli (GPa) = 54.05195 73.30333 48.82748
#
# Poissons Ratio (x) = 0.38126 0.36277
# Poissons Ratio (y) = 0.28113 0.33312
# Poissons Ratio (z) = 0.40159 0.50011
#
# Static dielectric constant tensor:
#      x y z
#    x 3.443160 0.000000 0.000000 
#    y 0.000000 3.460430 0.000000 
#    z 0.000000 0.000000 3.499340 
# 
# 
# High freq. dielectric constant tensor:
#      x y z
#    x 1.717510 0.000000 0.000000 
#    y 0.000000 1.720110 0.000000 
#    z 0.000000 0.000000 1.725960 
# 
# From -- ./inp_files/3145.got.cif
#   From: 2010.03.12/outbox.cif.g09.slc.cpg/sg57_2_cif.got.tgz:3145.got - 2010.04.16 15:48:40.
