data_PCOD8233135
_publ_section_title
;
Structure prediction by ZEFSAII (Michael W. Deem and Ramdas Pophale) SiO2 
 PCOD8233135
Probable space group: P B C M
;
_chemical_formula_sum "Si O2"
_cell_formula_units_Z 64
_cell_length_a 23.930124
_cell_length_b 15.194430
_cell_length_c 8.892855
_cell_angle_alpha 90.000000
_cell_angle_beta 90.000000
_cell_angle_gamma 90.000000
_cell_volume 3233.482932
_symmetry_space_group_name_H-M "P B C M"
_symmetry_group_IT_number 57
_symmetry_cell_setting 'orthorhombic'
loop_
_space_group_symop_operation_xyz
x,y,z
-x,-y,1/2+z
x,1/2-y,-z
-x,1/2+y,1/2-z
-x,-y,-z
x,y,1/2-z
-x,1/2+y,z
x,1/2-y,1/2+z
loop_
_atom_site_type_symbol
_atom_site_label
_atom_site_fract_x
_atom_site_fract_y
_atom_site_fract_z
Si Si1 0.394401 0.164023 0.573773
Si Si2 0.691071 0.990703 0.425046
Si Si3 0.806783 0.993957 0.572300
Si Si4 0.987588 0.157911 0.423787
Si Si5 0.866162 0.346219 0.571913
Si Si6 0.108570 0.345612 0.926870
Si Si7 0.376370 0.839501 0.573487
Si Si8 0.496721 0.904892 0.571197
O O1 0.365607 0.250000 0.500000
O O2 0.404105 0.177042 0.750000
O O3 0.453708 0.154165 0.492292
O O4 0.355683 0.081272 0.539657
O O5 0.707899 0.989801 0.250000
O O6 0.744365 0.968351 0.525973
O O7 0.666099 0.084053 0.475724
O O8 0.812177 0.004653 0.750000
O O9 0.821629 0.086573 0.495548
O O10 0.846588 0.915597 0.511750
O O11 0.991181 0.250000 0.500000
O O12 0.985101 0.177824 0.250000
O O13 0.046786 0.111226 0.464707
O O14 0.928318 0.113688 0.469786
O O15 0.857568 0.250000 0.500000
O O16 0.856886 0.338475 0.750000
O O17 0.115783 0.331785 0.750000
O O18 0.118130 0.250000 0.000000
O O19 0.354539 0.750000 0.500000
O O20 0.375619 0.827851 0.750000
O O21 0.438781 0.861291 0.518222
O O22 0.500175 0.913217 0.750000
O O23 0.500000 0.000000 0.500000
#
# Coordination Sequence:
#
# PCOD8233135 Si02
#       8
#     8   8   8   8   8   8   8   8
#     4  11  23  41  63  90 121 156 197 242 293 350
#     4  10  23  44  61  78 114 155 197 246 292 340
#     4  11  24  39  57  84 115 150 196 243 291 344
#     4   8  15  30  53  81 112 146 183 227 282 344
#     4  10  20  36  59  85 114 150 190 233 288 346
#     4   9  19  36  57  83 116 149 187 236 287 344
#     4  10  22  40  61  88 117 150 189 232 285 341
#     4  11  21  37  62  92 126 159 191 234 290 347
#
# _framework density 19.792898999999998
#
# number of rings (size 3 to 8) (size 9 to 14) (size 15 to 20)
#    0.000    2.000    1.250    1.875    0.000    6.500 
#    0.000    3.750    0.000    0.000    0.000    0.000 
#    0.000    0.000    0.000    0.000    0.000    0.000 
#
# Total GULP energy -793323.365061 kJ/mol
# GULP energy per Si atom -12395.677579 kJ/mol
# Density = 1.974785 g / cm^3
# Si number density = 19.792899 Si / 1000 Ang^3
#
#
#
# Elastic Constant Matrix: (Units=GPa)
#
#
# Indices 1 2 3 4 5 6 
#
# 1 82.6662 12.6381 24.9941 0.0000 0.0000 0.0000
# 2 12.6381 91.0477 24.5901 0.0000 0.0000 0.0000
# 3 24.9941 24.5901 54.0929 0.0000 0.0000 0.0000
# 4 0.0000 0.0000 0.0000 33.7337 0.0000 0.0000
# 5 0.0000 0.0000 0.0000 0.0000 30.7755 0.0000
# 6 0.0000 0.0000 0.0000 0.0000 0.0000 16.7066
#
#
#
# Elastic Compliance Matrix: (Units=1/GPa)
#
#
# Indices 1 2 3 4 5 6 
#
# 1 0.014065 -0.000225 -0.006397 0.000000 0.000000 0.000000
# 2 -0.000225 0.012524 -0.005589 0.000000 0.000000 0.000000
# 3 -0.006397 -0.005589 0.023983 0.000000 0.000000 0.000000
# 4 0.000000 0.000000 0.000000 0.029644 0.000000 0.000000
# 5 0.000000 0.000000 0.000000 0.000000 0.032493 0.000000
# 6 0.000000 0.000000 0.000000 0.000000 0.000000 0.059857
#
#
# Mechanical properties :
#
#
# Convention : Reuss Voigt Hill
#
# Bulk Modulus (GPa) = 38.24000 39.13905 38.68953
# Shear Modulus (GPa) = 24.30658 27.28212 25.79435
#
# Velocity S-wave (km/s) = 3.50815 3.71668 3.61392
# Velocity P-wave (km/s) = 5.98093 6.18349 6.08305
#
# Compressibility (1/GPa) = 0.02615062
#
# Stress axis : x y z
#
# Youngs Moduli (GPa) = 71.09705 79.84647 41.69560
#
# Poissons Ratio (x) = 0.01794 0.26672
# Poissons Ratio (y) = 0.01598 0.23306
# Poissons Ratio (z) = 0.45480 0.44630
#
# Static dielectric constant tensor:
#      x y z
#    x 4.609150 0.000000 0.000000 
#    y 0.000000 3.583280 0.000000 
#    z 0.000000 0.000000 3.552060 
# 
# 
# High freq. dielectric constant tensor:
#      x y z
#    x 1.779390 0.000000 0.000000 
#    y 0.000000 1.768460 0.000000 
#    z 0.000000 0.000000 1.771740 
# 
# From -- ./inp_files/9484.got.cif
#   From: 2010.03.12/outbox.cif.g09.slc.cpg/sg57_5_cif.got.tgz:9484.got - 2010.04.16 15:48:40.
