data_PCOD8233552
_publ_section_title
;
Structure prediction by ZEFSAII (Michael W. Deem and Ramdas Pophale) SiO2 
 PCOD8233552
Probable space group: P B C M
;
_chemical_formula_sum "Si O2"
_cell_formula_units_Z 56
_cell_length_a 14.156670
_cell_length_b 11.040775
_cell_length_c 16.968397
_cell_angle_alpha 90.000000
_cell_angle_beta 90.000000
_cell_angle_gamma 90.000000
_cell_volume 2652.170772
_symmetry_space_group_name_H-M "P B C M"
_symmetry_group_IT_number 57
_symmetry_cell_setting 'orthorhombic'
loop_
_space_group_symop_operation_xyz
x,y,z
-x,-y,1/2+z
x,1/2-y,-z
-x,1/2+y,1/2-z
-x,-y,-z
x,y,1/2-z
-x,1/2+y,z
x,1/2-y,1/2+z
loop_
_atom_site_type_symbol
_atom_site_label
_atom_site_fract_x
_atom_site_fract_y
_atom_site_fract_z
Si Si1 0.193566 0.629722 0.336798
Si Si2 0.304952 0.407811 0.378462
Si Si3 0.022453 0.625775 0.451421
Si Si4 0.169089 0.204877 0.088642
Si Si5 0.345336 0.821880 0.160800
Si Si6 0.546583 0.722959 0.163223
Si Si7 0.663967 0.949090 0.938302
O O1 0.147026 0.637305 0.250000
O O2 0.275575 0.529019 0.334575
O O3 0.115229 0.597274 0.401191
O O4 0.247115 0.754016 0.356613
O O5 0.215386 0.316452 0.364029
O O6 0.399778 0.352631 0.340952
O O7 0.329313 0.438225 0.468596
O O8 0.041885 0.750000 0.500000
O O9 0.000000 0.500000 0.500000
O O10 0.936681 0.658837 0.390567
O O11 0.236470 0.089653 0.099783
O O12 0.163970 0.250000 0.000000
O O13 0.343795 0.876626 0.250000
O O14 0.434962 0.734763 0.151894
O O15 0.357534 0.917858 0.091460
O O16 0.567050 0.666820 0.250000
O O17 0.581803 0.638623 0.092685
#
# Coordination Sequence:
#
# PCOD8233552 Si02
#       7
#     8   8   8   8   8   8   8
#     4  11  25  43  62  95 134 171 208 263 329 393
#     4  10  21  40  63  91 124 162 213 263 317 383
#     4  11  23  41  70  98 128 170 218 266 330 389
#     4   8  17  36  61  88 119 153 199 255 309 373
#     4  10  24  40  58  87 126 172 215 260 327 386
#     4  10  21  39  62  86 124 173 212 260 320 386
#     4  10  20  38  63  91 122 158 215 270 314 374
#
# _framework density 21.114778000000001
#
# number of rings (size 3 to 8) (size 9 to 14) (size 15 to 20)
#    0.000    2.000    0.000    4.714    6.000    0.571 
#    2.571    6.429    0.000    0.000    0.000    0.000 
#    0.000    0.000    0.000    0.000    0.000    0.000 
#
# Total GULP energy -693862.459863 kJ/mol
# GULP energy per Si atom -12390.401069 kJ/mol
# Density = 2.106672 g / cm^3
# Si number density = 21.114778 Si / 1000 Ang^3
#
#
#
# Elastic Constant Matrix: (Units=GPa)
#
#
# Indices 1 2 3 4 5 6 
#
# 1 99.3072 22.5253 44.7796 0.0000 0.0000 0.0000
# 2 22.5253 78.6931 31.7154 0.0000 0.0000 0.0000
# 3 44.7796 31.7154 75.1270 0.0000 0.0000 0.0000
# 4 0.0000 0.0000 0.0000 23.8987 0.0000 0.0000
# 5 0.0000 0.0000 0.0000 0.0000 30.9069 0.0000
# 6 0.0000 0.0000 0.0000 0.0000 0.0000 20.5170
#
#
#
# Elastic Compliance Matrix: (Units=1/GPa)
#
#
# Indices 1 2 3 4 5 6 
#
# 1 0.013809 -0.000766 -0.007908 0.000000 0.000000 0.000000
# 2 -0.000766 0.015355 -0.006026 0.000000 0.000000 0.000000
# 3 -0.007908 -0.006026 0.020568 0.000000 0.000000 0.000000
# 4 0.000000 0.000000 0.000000 0.041843 0.000000 0.000000
# 5 0.000000 0.000000 0.000000 0.000000 0.032355 0.000000
# 6 0.000000 0.000000 0.000000 0.000000 0.000000 0.048740
#
#
# Mechanical properties :
#
#
# Convention : Reuss Voigt Hill
#
# Bulk Modulus (GPa) = 49.17914 50.12977 49.65445
# Shear Modulus (GPa) = 23.94084 25.33832 24.63958
#
# Velocity S-wave (km/s) = 3.37091 3.46790 3.41975
# Velocity P-wave (km/s) = 6.20424 6.31096 6.25783
#
# Compressibility (1/GPa) = 0.02033382
#
# Stress axis : x y z
#
# Youngs Moduli (GPa) = 72.41546 65.12360 48.61896
#
# Poissons Ratio (x) = 0.04987 0.38447
# Poissons Ratio (y) = 0.05545 0.29298
# Poissons Ratio (z) = 0.57264 0.39243
#
# Static dielectric constant tensor:
#      x y z
#    x 4.209730 0.000000 0.000000 
#    y 0.000000 3.830090 0.000000 
#    z 0.000000 0.000000 3.647860 
# 
# 
# High freq. dielectric constant tensor:
#      x y z
#    x 1.833780 0.000000 0.000000 
#    y 0.000000 1.827260 0.000000 
#    z 0.000000 0.000000 1.809290 
# 
# From -- ./inp_files/18490.got.cif
#   From: 2010.03.12/outbox.cif.g09.slc.cpg/sg57_10_cif.got.tgz:18490.got - 2010.04.16 15:48:40.
