data_PCOD8233030
_publ_section_title
;
Structure prediction by ZEFSAII (Michael W. Deem and Ramdas Pophale) SiO2 
 PCOD8233030
Probable space group: P B C M
;
_chemical_formula_sum "Si O2"
_cell_formula_units_Z 36
_cell_length_a 8.796156
_cell_length_b 9.924866
_cell_length_c 21.507043
_cell_angle_alpha 90.000000
_cell_angle_beta 90.000000
_cell_angle_gamma 90.000000
_cell_volume 1877.579255
_symmetry_space_group_name_H-M "P B C M"
_symmetry_group_IT_number 57
_symmetry_cell_setting 'orthorhombic'
loop_
_space_group_symop_operation_xyz
x,y,z
-x,-y,1/2+z
x,1/2-y,-z
-x,1/2+y,1/2-z
-x,-y,-z
x,y,1/2-z
-x,1/2+y,z
x,1/2-y,1/2+z
loop_
_atom_site_type_symbol
_atom_site_label
_atom_site_fract_x
_atom_site_fract_y
_atom_site_fract_z
Si Si1 0.884171 0.586815 0.410499
Si Si2 0.380231 0.410470 0.822026
Si Si3 0.671983 0.750000 0.500000
Si Si4 0.474940 0.669898 0.614387
Si Si5 0.144463 0.712860 0.929941
O O1 0.793222 0.588086 0.345719
O O2 0.777426 0.640149 0.466435
O O3 0.933889 0.434660 0.427189
O O4 0.031279 0.678548 0.399972
O O5 0.381643 0.447488 0.750000
O O6 0.450734 0.264060 0.833527
O O7 0.480770 0.517501 0.860750
O O8 0.566127 0.673345 0.549598
O O9 0.301080 0.715983 0.607358
O O10 0.180237 0.750000 0.000000
#
# Coordination Sequence:
#
# PCOD8233030 Si02
#       5
#     8   8   4   8   8
#     4  10  23  35  57  81 119 148 187 228 281 343
#     4  10  22  41  58  81 112 154 195 238 277 335
#     4  10  20  36  56  92 114 148 180 238 296 338
#     4  10  22  35  63  85 116 144 193 236 290 341
#     4  11  21  35  55  88 116 149 179 231 288 347
#
# _framework density 19.173625000000001
#
# number of rings (size 3 to 8) (size 9 to 14) (size 15 to 20)
#    0.000    1.778    2.222    1.333    3.111    4.444 
#    0.000    5.556    0.000    0.000    0.000    0.000 
#    0.000    0.000    0.000    0.000    0.000    0.000 
#
# Total GULP energy -446526.797700 kJ/mol
# GULP energy per Si atom -12403.522158 kJ/mol
# Density = 1.912998 g / cm^3
# Si number density = 19.173625 Si / 1000 Ang^3
#
#
#
# Elastic Constant Matrix: (Units=GPa)
#
#
# Indices 1 2 3 4 5 6 
#
# 1 61.6606 11.2690 6.4242 0.0000 0.0000 0.0000
# 2 11.2690 69.2657 -1.8365 0.0000 0.0000 0.0000
# 3 6.4242 -1.8365 87.0282 0.0000 0.0000 0.0000
# 4 0.0000 0.0000 0.0000 23.3315 0.0000 0.0000
# 5 0.0000 0.0000 0.0000 0.0000 -8.7269 0.0000
# 6 0.0000 0.0000 0.0000 0.0000 0.0000 16.0359
#
#
#
# Elastic Compliance Matrix: (Units=1/GPa)
#
#
# Indices 1 2 3 4 5 6 
#
# 1 0.016861 -0.002778 -0.001303 0.000000 0.000000 0.000000
# 2 -0.002778 0.014903 0.000520 0.000000 0.000000 0.000000
# 3 -0.001303 0.000520 0.011598 0.000000 0.000000 0.000000
# 4 0.000000 0.000000 0.000000 0.042861 0.000000 0.000000
# 5 0.000000 0.000000 0.000000 0.000000 -0.114589 0.000000
# 6 0.000000 0.000000 0.000000 0.000000 0.000000 0.062360
#
#
# Mechanical properties :
#
#
# Convention : Reuss Voigt Hill
#
# Bulk Modulus (GPa) = 27.59473 27.74089 27.66781
# Shear Modulus (GPa) = 93.99168 19.60130 56.79649
#
# Velocity S-wave (km/s) = 7.00912 3.20082 5.44853
# Velocity P-wave (km/s) = 8.94019 5.30660 7.35143
#
# Compressibility (1/GPa) = 0.03623880
#
# Stress axis : x y z
#
# Youngs Moduli (GPa) = 59.30759 67.10128 86.22402
#
# Poissons Ratio (x) = 0.18639 0.11237
# Poissons Ratio (y) = 0.16474 -0.04480
# Poissons Ratio (z) = 0.07729 -0.03486
#
# Static dielectric constant tensor:
#      x y z
#    x 3.514380 0.000000 0.000000 
#    y 0.000000 3.649930 0.000000 
#    z 0.000000 0.000000 3.321020 
# 
# 
# High freq. dielectric constant tensor:
#      x y z
#    x 1.746390 0.000000 0.000000 
#    y 0.000000 1.759650 0.000000 
#    z 0.000000 0.000000 1.727750 
# 
# From -- ./inp_files/23981.got.cif
#   From: 2010.03.12/outbox.cif.g09.slc.cpg/sg57_12_cif.got.tgz:23981.got - 2010.04.16 15:48:40.
