data_PCOD8233183
_publ_section_title
;
Structure prediction by ZEFSAII (Michael W. Deem and Ramdas Pophale) SiO2 
 PCOD8233183
Probable space group: P B C M
;
_chemical_formula_sum "Si O2"
_cell_formula_units_Z 56
_cell_length_a 21.309234
_cell_length_b 14.826183
_cell_length_c 9.200591
_cell_angle_alpha 90.000000
_cell_angle_beta 90.000000
_cell_angle_gamma 90.000000
_cell_volume 2906.785064
_symmetry_space_group_name_H-M "P B C M"
_symmetry_group_IT_number 57
_symmetry_cell_setting 'orthorhombic'
loop_
_space_group_symop_operation_xyz
x,y,z
-x,-y,1/2+z
x,1/2-y,-z
-x,1/2+y,1/2-z
-x,-y,-z
x,y,1/2-z
-x,1/2+y,z
x,1/2-y,1/2+z
loop_
_atom_site_type_symbol
_atom_site_label
_atom_site_fract_x
_atom_site_fract_y
_atom_site_fract_z
Si Si1 0.574806 0.589390 0.081224
Si Si2 0.437949 0.593429 0.415897
Si Si3 0.769409 0.994179 0.417986
Si Si4 0.914893 0.482715 0.916668
Si Si5 0.705062 0.838145 0.578073
Si Si6 0.307295 0.833866 0.584559
Si Si7 0.997758 0.848004 0.077555
O O1 0.586212 0.575974 0.250000
O O2 0.506888 0.636004 0.047875
O O3 0.633474 0.646132 0.020454
O O4 0.575862 0.490886 0.015446
O O5 0.437167 0.558854 0.250000
O O6 0.382566 0.664686 0.441790
O O7 0.755901 0.967941 0.250000
O O8 0.841075 0.020067 0.441903
O O9 0.752134 0.914874 0.526558
O O10 0.725477 0.075764 0.470427
O O11 0.932835 0.461066 0.750000
O O12 0.939619 0.583810 0.956338
O O13 0.942046 0.402307 0.016474
O O14 0.730687 0.750000 0.500000
O O15 0.709123 0.827125 0.750000
O O16 0.278295 0.750000 0.500000
O O17 0.289704 0.818031 0.750000
O O18 0.005482 0.831045 0.250000
O O19 0.988631 0.750000 0.000000
#
# Coordination Sequence:
#
# PCOD8233183 Si02
#       7
#     8   8   8   8   8   8   8
#     4   9  18  32  52  77 103 134 178 230 282 338
#     4   9  17  32  53  76 102 136 178 227 285 337
#     4  10  21  40  60  81 113 150 188 231 277 325
#     4   9  20  38  60  86 116 151 190 230 275 326
#     4  11  23  37  55  80 110 146 188 234 283 337
#     4  10  21  35  54  78 107 143 182 227 277 332
#     4  10  20  36  60  89 120 151 184 228 274 324
#
# _framework density 19.265270000000001
#
# number of rings (size 3 to 8) (size 9 to 14) (size 15 to 20)
#    0.000    2.286    1.429    0.857    0.000    4.571 
#    0.000    2.857    0.000    0.000    0.000    0.000 
#    0.000    0.000    0.000    0.000    0.000    0.000 
#
# Total GULP energy -694091.634439 kJ/mol
# GULP energy per Si atom -12394.493472 kJ/mol
# Density = 1.922142 g / cm^3
# Si number density = 19.265270 Si / 1000 Ang^3
#
#
#
# Elastic Constant Matrix: (Units=GPa)
#
#
# Indices 1 2 3 4 5 6 
#
# 1 68.5095 9.8999 21.2490 0.0000 0.0000 0.0000
# 2 9.8999 90.2496 35.2129 0.0000 0.0000 0.0000
# 3 21.2490 35.2129 52.6981 0.0000 0.0000 0.0000
# 4 0.0000 0.0000 0.0000 36.8842 0.0000 0.0000
# 5 0.0000 0.0000 0.0000 0.0000 25.4083 0.0000
# 6 0.0000 0.0000 0.0000 0.0000 0.0000 0.0382
#
#
#
# Elastic Compliance Matrix: (Units=1/GPa)
#
#
# Indices 1 2 3 4 5 6 
#
# 1 0.016760 0.001080 -0.007480 0.000000 0.000000 0.000000
# 2 0.001080 0.015058 -0.010497 0.000000 0.000000 0.000000
# 3 -0.007480 -0.010497 0.029006 0.000000 0.000000 0.000000
# 4 0.000000 0.000000 0.000000 0.027112 0.000000 0.000000
# 5 0.000000 0.000000 0.000000 0.000000 0.039357 0.000000
# 6 0.000000 0.000000 0.000000 0.000000 0.000000 26.161802
#
#
# Mechanical properties :
#
#
# Convention : Reuss Voigt Hill
#
# Bulk Modulus (GPa) = 36.99529 38.24232 37.61880
# Shear Modulus (GPa) = 0.18988 22.13916 11.16452
#
# Velocity S-wave (km/s) = 0.31429 3.39363 2.40992
# Velocity P-wave (km/s) = 4.40187 5.93709 5.22616
#
# Compressibility (1/GPa) = 0.02703047
#
# Stress axis : x y z
#
# Youngs Moduli (GPa) = 59.66455 66.41201 34.47567
#
# Poissons Ratio (x) = -0.07171 0.25787
# Poissons Ratio (y) = -0.06443 0.36189
# Poissons Ratio (z) = 0.44627 0.69712
#
# Static dielectric constant tensor:
#      x y z
#    x 3.645180 0.000000 0.000000 
#    y 0.000000 3.383360 0.000000 
#    z 0.000000 0.000000 3.483110 
# 
# 
# High freq. dielectric constant tensor:
#      x y z
#    x 1.752210 0.000000 0.000000 
#    y 0.000000 1.738880 0.000000 
#    z 0.000000 0.000000 1.749140 
# 
# From -- ./inp_files/8069.got.cif
#   From: 2010.03.12/outbox.cif.g09.slc.cpg/sg57_5_cif.got.tgz:8069.got - 2010.04.16 15:48:40.
