data_PCOD8233197
_publ_section_title
;
Structure prediction by ZEFSAII (Michael W. Deem and Ramdas Pophale) SiO2 
 PCOD8233197
Probable space group: P B C M
;
_chemical_formula_sum "Si O2"
_cell_formula_units_Z 64
_cell_length_a 23.775593
_cell_length_b 15.015790
_cell_length_c 9.014065
_cell_angle_alpha 90.000000
_cell_angle_beta 90.000000
_cell_angle_gamma 90.000000
_cell_volume 3218.105140
_symmetry_space_group_name_H-M "P B C M"
_symmetry_group_IT_number 57
_symmetry_cell_setting 'orthorhombic'
loop_
_space_group_symop_operation_xyz
x,y,z
-x,-y,1/2+z
x,1/2-y,-z
-x,1/2+y,1/2-z
-x,-y,-z
x,y,1/2-z
-x,1/2+y,z
x,1/2-y,1/2+z
loop_
_atom_site_type_symbol
_atom_site_label
_atom_site_fract_x
_atom_site_fract_y
_atom_site_fract_z
Si Si1 0.506942 0.159970 0.425063
Si Si2 0.995332 0.348898 0.925935
Si Si3 0.618344 0.880094 0.916339
Si Si4 0.394191 0.916655 0.083877
Si Si5 0.078056 0.506973 0.577922
Si Si6 0.279369 0.838295 0.423878
Si Si7 0.271846 0.335865 0.424096
Si Si8 0.208513 0.007522 0.078108
O O1 0.528692 0.250000 0.500000
O O2 0.509672 0.165682 0.250000
O O3 0.443992 0.138916 0.479253
O O4 0.550844 0.085606 0.480003
O O5 0.989224 0.334303 0.750000
O O6 0.048678 0.412626 0.965336
O O7 0.000330 0.250000 0.000000
O O8 0.942553 0.406464 0.986008
O O9 0.625862 0.840466 0.750000
O O10 0.629700 0.984388 0.911230
O O11 0.662810 0.837414 0.027503
O O12 0.411258 0.886112 0.250000
O O13 0.342651 0.858937 0.018521
O O14 0.067070 0.528492 0.750000
O O15 0.143059 0.494541 0.541208
O O16 0.256408 0.750000 0.500000
O O17 0.281559 0.824087 0.250000
O O18 0.235070 0.913709 0.467104
O O19 0.243219 0.250000 0.500000
O O20 0.268132 0.326529 0.250000
O O21 0.237632 0.420715 0.475154
O O22 0.220305 0.030642 0.250000
#
# Coordination Sequence:
#
# PCOD8233197 Si02
#       8
#     8   8   8   8   8   8   8   8
#     4  11  23  36  54  80 110 144 185 238 293 358
#     4  10  20  36  60  91 127 164 204 250 297 352
#     4  10  21  40  61  82 111 146 189 241 301 359
#     4  10  20  37  59  81 109 146 187 237 298 356
#     4   9  20  38  62  90 121 163 207 251 301 350
#     4  10  21  37  59  83 114 154 193 242 295 352
#     4  12  25  40  62  89 118 156 200 247 300 360
#     4  10  21  42  64  86 122 161 202 250 301 351
#
# _framework density 19.887478999999999
#
# number of rings (size 3 to 8) (size 9 to 14) (size 15 to 20)
#    0.000    1.750    1.250    3.000    0.000    6.500 
#    0.000    2.500    0.000    0.000    0.000    0.000 
#    0.000    0.000    0.000    0.000    0.000    0.000 
#
# Total GULP energy -793586.147000 kJ/mol
# GULP energy per Si atom -12399.783547 kJ/mol
# Density = 1.984221 g / cm^3
# Si number density = 19.887479 Si / 1000 Ang^3
#
#
#
# Elastic Constant Matrix: (Units=GPa)
#
#
# Indices 1 2 3 4 5 6 
#
# 1 117.2228 45.1002 56.5111 0.0000 0.0000 0.0000
# 2 45.1002 121.7818 60.5382 0.0000 0.0000 0.0000
# 3 56.5111 60.5382 102.1798 0.0000 0.0000 0.0000
# 4 0.0000 0.0000 0.0000 32.0363 0.0000 0.0000
# 5 0.0000 0.0000 0.0000 0.0000 -293.3127 0.0000
# 6 0.0000 0.0000 0.0000 0.0000 0.0000 84.6046
#
#
#
# Elastic Compliance Matrix: (Units=1/GPa)
#
#
# Indices 1 2 3 4 5 6 
#
# 1 0.011849 -0.001602 -0.005604 0.000000 0.000000 0.000000
# 2 -0.001602 0.011856 -0.006138 0.000000 0.000000 0.000000
# 3 -0.005604 -0.006138 0.016522 0.000000 0.000000 0.000000
# 4 0.000000 0.000000 0.000000 0.031215 0.000000 0.000000
# 5 0.000000 0.000000 0.000000 0.000000 -0.003409 0.000000
# 6 0.000000 0.000000 0.000000 0.000000 0.000000 0.011820
#
#
# Mechanical properties :
#
#
# Convention : Reuss Voigt Hill
#
# Bulk Modulus (GPa) = 73.86120 73.94261 73.90190
# Shear Modulus (GPa) = 45.02336 -23.39871 10.81233
#
# Velocity S-wave (km/s) = 4.76321 -3.43382 2.33421
# Velocity P-wave (km/s) = 8.21408 4.64109 6.67124
#
# Compressibility (1/GPa) = 0.01353891
#
# Stress axis : x y z
#
# Youngs Moduli (GPa) = 84.39762 84.34457 60.52386
#
# Poissons Ratio (x) = 0.13516 0.33915
# Poissons Ratio (y) = 0.13524 0.37150
# Poissons Ratio (z) = 0.47293 0.51772
#
# Static dielectric constant tensor:
#      x y z
#    x 3.615560 0.000000 0.000000 
#    y 0.000000 3.808010 0.000000 
#    z 0.000000 0.000000 3.529540 
# 
# 
# High freq. dielectric constant tensor:
#      x y z
#    x 1.773110 0.000000 0.000000 
#    y 0.000000 1.786060 0.000000 
#    z 0.000000 0.000000 1.769460 
# 
# From -- ./inp_files/9389.got.cif
#   From: 2010.03.12/outbox.cif.g09.slc.cpg/sg57_5_cif.got.tgz:9389.got - 2010.04.16 15:48:40.
