data_PCOD8233464
_publ_section_title
;
Structure prediction by ZEFSAII (Michael W. Deem and Ramdas Pophale) SiO2 
 PCOD8233464
Probable space group: P B C M
;
_chemical_formula_sum "Si O2"
_cell_formula_units_Z 48
_cell_length_a 28.673240
_cell_length_b 9.149965
_cell_length_c 8.904847
_cell_angle_alpha 90.000000
_cell_angle_beta 90.000000
_cell_angle_gamma 90.000000
_cell_volume 2336.268022
_symmetry_space_group_name_H-M "P B C M"
_symmetry_group_IT_number 57
_symmetry_cell_setting 'orthorhombic'
loop_
_space_group_symop_operation_xyz
x,y,z
-x,-y,1/2+z
x,1/2-y,-z
-x,1/2+y,1/2-z
-x,-y,-z
x,y,1/2-z
-x,1/2+y,z
x,1/2-y,1/2+z
loop_
_atom_site_type_symbol
_atom_site_label
_atom_site_fract_x
_atom_site_fract_y
_atom_site_fract_z
Si Si1 0.041401 0.592171 0.568129
Si Si2 0.138437 0.908954 0.931792
Si Si3 0.608959 0.913103 0.972277
Si Si4 0.531998 0.665353 0.250000
Si Si5 0.305572 0.603109 0.586878
Si Si6 0.440856 0.492403 0.250000
Si Si7 0.220735 0.408456 0.568914
O O1 0.033359 0.750000 0.500000
O O2 0.041827 0.592019 0.750000
O O3 0.089986 0.532210 0.501307
O O4 0.000000 0.500000 0.500000
O O5 0.136532 0.901383 0.750000
O O6 0.150515 0.750000 0.000000
O O7 0.175723 0.024713 0.989328
O O8 0.559378 0.899082 0.890629
O O9 0.648585 0.003898 0.889866
O O10 0.629047 0.750000 0.000000
O O11 0.595785 0.006372 0.116593
O O12 0.478027 0.622045 0.250000
O O13 0.531510 0.839956 0.250000
O O14 0.316980 0.750000 0.500000
O O15 0.288546 0.653358 0.750000
O O16 0.264323 0.507417 0.514545
O O17 0.229293 0.250000 0.500000
O O18 0.215663 0.401493 0.750000
#
# Coordination Sequence:
#
# PCOD8233464 Si02
#       7
#     8   8   8   4   8   4   8
#     4  11  22  39  62  92 128 171 217 268 321 377
#     4  11  22  40  64  93 127 168 212 262 317 373
#     4  10  21  40  60  86 118 158 197 244 297 354
#     4  10  20  38  58  84 122 150 200 238 299 346
#     4  11  25  42  63  90 121 155 198 249 300 362
#     4  10  22  34  60  88 114 160 190 244 291 360
#     4  11  24  43  65  93 124 161 204 253 310 373
#
# _framework density 20.545587000000001
#
# number of rings (size 3 to 8) (size 9 to 14) (size 15 to 20)
#    0.000    1.333    0.833    6.000    1.167    4.667 
#    0.000    3.333    0.000    0.000    0.000    0.000 
#    0.000    0.000    0.000    0.000    0.000    0.000 
#
# Total GULP energy -594965.278443 kJ/mol
# GULP energy per Si atom -12395.109968 kJ/mol
# Density = 2.049882 g / cm^3
# Si number density = 20.545587 Si / 1000 Ang^3
#
#
#
# Elastic Constant Matrix: (Units=GPa)
#
#
# Indices 1 2 3 4 5 6 
#
# 1 103.4425 49.4420 27.6042 0.0000 0.0000 0.0000
# 2 49.4420 89.3109 31.3461 0.0000 0.0000 0.0000
# 3 27.6042 31.3461 144.7637 0.0000 0.0000 0.0000
# 4 0.0000 0.0000 0.0000 32.9897 0.0000 0.0000
# 5 0.0000 0.0000 0.0000 0.0000 74.4917 0.0000
# 6 0.0000 0.0000 0.0000 0.0000 0.0000 43.1020
#
#
#
# Elastic Compliance Matrix: (Units=1/GPa)
#
#
# Indices 1 2 3 4 5 6 
#
# 1 0.013283 -0.006996 -0.001018 0.000000 0.000000 0.000000
# 2 -0.006996 0.015802 -0.002088 0.000000 0.000000 0.000000
# 3 -0.001018 -0.002088 0.007554 0.000000 0.000000 0.000000
# 4 0.000000 0.000000 0.000000 0.030313 0.000000 0.000000
# 5 0.000000 0.000000 0.000000 0.000000 0.013424 0.000000
# 6 0.000000 0.000000 0.000000 0.000000 0.000000 0.023201
#
#
# Mechanical properties :
#
#
# Convention : Reuss Voigt Hill
#
# Bulk Modulus (GPa) = 60.84241 61.58905 61.21573
# Shear Modulus (GPa) = 38.68213 45.39166 42.03690
#
# Velocity S-wave (km/s) = 4.34377 4.70543 4.52821
# Velocity P-wave (km/s) = 7.40510 7.71773 7.56303
#
# Compressibility (1/GPa) = 0.01643590
#
# Stress axis : x y z
#
# Youngs Moduli (GPa) = 75.28608 63.28116 132.38047
#
# Poissons Ratio (x) = 0.44271 0.13476
# Poissons Ratio (y) = 0.52670 0.27638
# Poissons Ratio (z) = 0.07664 0.13212
#
# Static dielectric constant tensor:
#      x y z
#    x 3.592240 0.000000 0.000000 
#    y 0.000000 3.618500 0.000000 
#    z 0.000000 0.000000 3.294400 
# 
# 
# High freq. dielectric constant tensor:
#      x y z
#    x 1.811290 0.000000 0.000000 
#    y 0.000000 1.800070 0.000000 
#    z 0.000000 0.000000 1.821930 
# 
# From -- ./inp_files/10163.got.cif
#   From: 2010.03.12/outbox.cif.g09.slc.cpg/sg57_6_cif.got.tgz:10163.got - 2010.04.16 15:48:40.
