data_PCOD8233106
_publ_section_title
;
Structure prediction by ZEFSAII (Michael W. Deem and Ramdas Pophale) SiO2 
 PCOD8233106
Probable space group: P B C M
;
_chemical_formula_sum "Si O2"
_cell_formula_units_Z 56
_cell_length_a 15.415483
_cell_length_b 8.353118
_cell_length_c 19.474801
_cell_angle_alpha 90.000000
_cell_angle_beta 90.000000
_cell_angle_gamma 90.000000
_cell_volume 2507.718488
_symmetry_space_group_name_H-M "P B C M"
_symmetry_group_IT_number 57
_symmetry_cell_setting 'orthorhombic'
loop_
_space_group_symop_operation_xyz
x,y,z
-x,-y,1/2+z
x,1/2-y,-z
-x,1/2+y,1/2-z
-x,-y,-z
x,y,1/2-z
-x,1/2+y,z
x,1/2-y,1/2+z
loop_
_atom_site_type_symbol
_atom_site_label
_atom_site_fract_x
_atom_site_fract_y
_atom_site_fract_z
Si Si1 0.288399 0.406370 0.587819
Si Si2 0.438596 0.962024 0.171660
Si Si3 0.019988 0.235796 0.826848
Si Si4 0.133785 0.540572 0.827115
Si Si5 0.618074 0.101499 0.328991
Si Si6 0.077482 0.412754 0.460720
Si Si7 0.261923 0.456011 0.438321
O O1 0.377206 0.420399 0.629312
O O2 0.212393 0.517926 0.620023
O O3 0.313449 0.459782 0.510441
O O4 0.256621 0.223619 0.592145
O O5 0.427484 0.015383 0.250000
O O6 0.413269 0.780547 0.158529
O O7 0.539071 0.984274 0.150812
O O8 0.045680 0.178136 0.750000
O O9 0.054884 0.414154 0.840078
O O10 0.060648 0.115505 0.881149
O O11 0.914326 0.213967 0.835795
O O12 0.172110 0.521985 0.750000
O O13 0.648469 0.076015 0.250000
O O14 0.696938 0.070612 0.381047
O O15 0.098596 0.250000 0.500000
O O16 0.165553 0.516988 0.459605
O O17 0.000000 0.500000 0.500000
#
# Coordination Sequence:
#
# PCOD8233106 Si02
#       7
#     8   8   8   8   8   8   8
#     4  11  21  40  62  91 131 169 221 262 322 391
#     4  10  22  43  71  99 131 168 211 265 332 403
#     4  10  20  36  58  84 116 156 210 266 323 380
#     4  10  20  37  60  87 121 162 210 268 324 382
#     4  10  23  44  69 101 131 166 214 267 332 400
#     4  12  23  43  64  90 128 176 222 272 331 390
#     4  11  23  40  62  95 130 172 220 271 317 392
#
# _framework density 22.331054999999999
#
# number of rings (size 3 to 8) (size 9 to 14) (size 15 to 20)
#    0.000    1.429    2.857    3.000    0.000    4.000 
#    7.714    0.000    0.000    0.000    0.000    0.000 
#    0.000    0.000    0.000    0.000    0.000    0.000 
#
# Total GULP energy -694112.945625 kJ/mol
# GULP energy per Si atom -12394.874029 kJ/mol
# Density = 2.228023 g / cm^3
# Si number density = 22.331055 Si / 1000 Ang^3
#
#
#
# Elastic Constant Matrix: (Units=GPa)
#
#
# Indices 1 2 3 4 5 6 
#
# 1 128.7583 34.5785 60.4303 0.0000 0.0000 0.0000
# 2 34.5785 39.6931 29.8540 0.0000 0.0000 0.0000
# 3 60.4303 29.8540 122.6765 0.0000 0.0000 0.0000
# 4 0.0000 0.0000 0.0000 28.2380 0.0000 0.0000
# 5 0.0000 0.0000 0.0000 0.0000 45.0505 0.0000
# 6 0.0000 0.0000 0.0000 0.0000 0.0000 35.3540
#
#
#
# Elastic Compliance Matrix: (Units=1/GPa)
#
#
# Indices 1 2 3 4 5 6 
#
# 1 0.011519 -0.007059 -0.003956 0.000000 0.000000 0.000000
# 2 -0.007059 0.035164 -0.005080 0.000000 0.000000 0.000000
# 3 -0.003956 -0.005080 0.011337 0.000000 0.000000 0.000000
# 4 0.000000 0.000000 0.000000 0.035413 0.000000 0.000000
# 5 0.000000 0.000000 0.000000 0.000000 0.022197 0.000000
# 6 0.000000 0.000000 0.000000 0.000000 0.000000 0.028285
#
#
# Mechanical properties :
#
#
# Convention : Reuss Voigt Hill
#
# Bulk Modulus (GPa) = 38.71709 60.09482 49.40595
# Shear Modulus (GPa) = 27.06863 32.81284 29.94074
#
# Velocity S-wave (km/s) = 3.48537 3.83741 3.66562
# Velocity P-wave (km/s) = 5.79418 6.82668 6.33151
#
# Compressibility (1/GPa) = 0.02582839
#
# Stress axis : x y z
#
# Youngs Moduli (GPa) = 86.81222 28.43856 88.20934
#
# Poissons Ratio (x) = 0.20075 0.34899
# Poissons Ratio (y) = 0.61282 0.44810
# Poissons Ratio (z) = 0.34347 0.14447
#
# Static dielectric constant tensor:
#      x y z
#    x 4.161620 0.000000 0.000000 
#    y 0.000000 3.801520 0.000000 
#    z 0.000000 0.000000 4.296050 
# 
# 
# High freq. dielectric constant tensor:
#      x y z
#    x 1.873630 0.000000 0.000000 
#    y 0.000000 1.859780 0.000000 
#    z 0.000000 0.000000 1.896410 
# 
# From -- ./inp_files/25407.got.cif
#   From: 2010.03.12/outbox.cif.g09.slc.cpg/sg57_13_cif.got.tgz:25407.got - 2010.04.16 15:48:40.
