data_PCOD8233573
_publ_section_title
;
Structure prediction by ZEFSAII (Michael W. Deem and Ramdas Pophale) SiO2 
 PCOD8233573
Probable space group: P B C M
;
_chemical_formula_sum "Si O2"
_cell_formula_units_Z 64
_cell_length_a 11.934467
_cell_length_b 31.504717
_cell_length_c 8.447161
_cell_angle_alpha 90.000000
_cell_angle_beta 90.000000
_cell_angle_gamma 90.000000
_cell_volume 3176.065004
_symmetry_space_group_name_H-M "P B C M"
_symmetry_group_IT_number 57
_symmetry_cell_setting 'orthorhombic'
loop_
_space_group_symop_operation_xyz
x,y,z
-x,-y,1/2+z
x,1/2-y,-z
-x,1/2+y,1/2-z
-x,-y,-z
x,y,1/2-z
-x,1/2+y,z
x,1/2-y,1/2+z
loop_
_atom_site_type_symbol
_atom_site_label
_atom_site_fract_x
_atom_site_fract_y
_atom_site_fract_z
Si Si1 0.112320 0.520263 0.065424
Si Si2 0.506430 0.704946 0.937513
Si Si3 0.618657 0.123244 0.433164
Si Si4 0.760109 0.793837 0.436385
Si Si5 0.756539 0.947077 0.934294
Si Si6 0.900950 0.872874 0.436392
Si Si7 0.520728 0.547430 0.936673
Si Si8 0.149797 0.889569 0.068089
O O1 0.101492 0.531789 0.250000
O O2 0.215248 0.488456 0.037785
O O3 0.137128 0.560851 0.960979
O O4 0.000000 0.500000 0.000000
O O5 0.498099 0.704099 0.750000
O O6 0.633818 0.699535 0.999076
O O7 0.458143 0.750000 0.000000
O O8 0.438387 0.665828 0.005906
O O9 0.592576 0.117305 0.250000
O O10 0.578044 0.080372 0.520948
O O11 0.751295 0.129287 0.460905
O O12 0.810820 0.750000 0.500000
O O13 0.760994 0.792900 0.250000
O O14 0.838796 0.831161 0.499717
O O15 0.757563 0.958637 0.750000
O O16 0.849784 0.911769 0.966967
O O17 0.633204 0.932423 0.987889
O O18 0.881880 0.881237 0.250000
O O19 0.032081 0.867199 0.475898
O O20 0.532833 0.545109 0.750000
O O21 0.500000 0.500000 0.000000
O O22 0.180958 0.881400 0.250000
#
# Coordination Sequence:
#
# PCOD8233573 Si02
#       8
#     8   8   8   8   8   8   8   8
#     4  12  23  38  58  84 118 158 204 251 300 353
#     4  10  20  38  65  95 126 159 201 252 312 375
#     4  12  25  42  63  90 124 163 210 260 316 377
#     4   9  19  36  60  90 120 151 185 234 294 356
#     4  12  24  38  60  89 119 153 197 246 302 357
#     4  10  21  38  60  86 118 155 198 243 292 350
#     4  12  25  43  63  87 122 161 205 254 310 372
#     4  11  23  40  61  85 119 163 208 252 303 359
#
# _framework density 20.150721000000001
#
# number of rings (size 3 to 8) (size 9 to 14) (size 15 to 20)
#    0.000    1.000    1.250    6.750    0.000    2.500 
#    0.000    0.625    0.000    1.500    0.000    0.000 
#    0.000    0.000    0.000    0.000    0.000    0.000 
#
# Total GULP energy -793883.399848 kJ/mol
# GULP energy per Si atom -12404.428123 kJ/mol
# Density = 2.010486 g / cm^3
# Si number density = 20.150721 Si / 1000 Ang^3
#
#
#
# Elastic Constant Matrix: (Units=GPa)
#
#
# Indices 1 2 3 4 5 6 
#
# 1 109.0558 49.2317 29.7650 0.0000 0.0000 0.0000
# 2 49.2317 132.1595 25.0796 0.0000 0.0000 0.0000
# 3 29.7650 25.0796 83.8527 0.0000 0.0000 0.0000
# 4 0.0000 0.0000 0.0000 33.9672 0.0000 0.0000
# 5 0.0000 0.0000 0.0000 0.0000 31.1332 0.0000
# 6 0.0000 0.0000 0.0000 0.0000 0.0000 41.0728
#
#
#
# Elastic Compliance Matrix: (Units=1/GPa)
#
#
# Indices 1 2 3 4 5 6 
#
# 1 0.011704 -0.003786 -0.003022 0.000000 0.000000 0.000000
# 2 -0.003786 0.009247 -0.001422 0.000000 0.000000 0.000000
# 3 -0.003022 -0.001422 0.013424 0.000000 0.000000 0.000000
# 4 0.000000 0.000000 0.000000 0.029440 0.000000 0.000000
# 5 0.000000 0.000000 0.000000 0.000000 0.032120 0.000000
# 6 0.000000 0.000000 0.000000 0.000000 0.000000 0.024347
#
#
# Mechanical properties :
#
#
# Convention : Reuss Voigt Hill
#
# Bulk Modulus (GPa) = 55.82148 59.24673 57.53411
# Shear Modulus (GPa) = 35.03540 35.96741 35.50140
#
# Velocity S-wave (km/s) = 4.17426 4.22941 4.20193
# Velocity P-wave (km/s) = 7.14106 7.30180 7.22187
#
# Compressibility (1/GPa) = 0.01791425
#
# Stress axis : x y z
#
# Youngs Moduli (GPa) = 85.44294 108.14465 74.49580
#
# Poissons Ratio (x) = 0.40947 0.22512
# Poissons Ratio (y) = 0.32352 0.10590
# Poissons Ratio (z) = 0.25821 0.15374
#
# Static dielectric constant tensor:
#      x y z
#    x 3.818430 0.000000 0.000000 
#    y 0.000000 3.050990 0.000000 
#    z 0.000000 0.000000 3.573170 
# 
# 
# High freq. dielectric constant tensor:
#      x y z
#    x 1.792630 0.000000 0.000000 
#    y 0.000000 1.781770 0.000000 
#    z 0.000000 0.000000 1.794090 
# 
# From -- ./inp_files/3808.got.cif
#   From: 2010.03.12/outbox.cif.g09.slc.cpg/sg57_2_cif.got.tgz:3808.got - 2010.04.16 15:48:40.
