data_PCOD8233356
_publ_section_title
;
Structure prediction by ZEFSAII (Michael W. Deem and Ramdas Pophale) SiO2 
 PCOD8233356
Probable space group: P B C M
;
_chemical_formula_sum "Si O2"
_cell_formula_units_Z 40
_cell_length_a 16.532327
_cell_length_b 14.534868
_cell_length_c 8.472277
_cell_angle_alpha 90.000000
_cell_angle_beta 90.000000
_cell_angle_gamma 90.000000
_cell_volume 2035.847417
_symmetry_space_group_name_H-M "P B C M"
_symmetry_group_IT_number 57
_symmetry_cell_setting 'orthorhombic'
loop_
_space_group_symop_operation_xyz
x,y,z
-x,-y,1/2+z
x,1/2-y,-z
-x,1/2+y,1/2-z
-x,-y,-z
x,y,1/2-z
-x,1/2+y,z
x,1/2-y,1/2+z
loop_
_atom_site_type_symbol
_atom_site_label
_atom_site_fract_x
_atom_site_fract_y
_atom_site_fract_z
Si Si1 0.490484 0.852589 0.564760
Si Si2 0.804713 0.512489 0.433956
Si Si3 0.071425 0.151379 0.565917
Si Si4 0.901989 0.351792 0.935829
Si Si5 0.620252 0.500763 0.064110
O O1 0.494785 0.750000 0.500000
O O2 0.492344 0.844809 0.750000
O O3 0.566737 0.913027 0.502879
O O4 0.408875 0.904781 0.512355
O O5 0.815725 0.535536 0.250000
O O6 0.854092 0.583854 0.539628
O O7 0.835948 0.410796 0.471480
O O8 0.711883 0.519825 0.487101
O O9 0.097463 0.250000 0.500000
O O10 0.050526 0.159104 0.750000
O O11 0.992486 0.112860 0.475124
O O12 0.886693 0.357820 0.750000
O O13 0.891726 0.250000 0.000000
O O14 0.612160 0.488649 0.250000
#
# Coordination Sequence:
#
# PCOD8233356 Si02
#       5
#     8   8   8   8   8
#     4  10  20  37  61  85 111 145 182 223 274 330
#     4  11  22  38  58  83 115 148 185 231 281 330
#     4  11  22  38  58  82 112 149 191 233 279 329
#     4  11  22  38  58  82 111 148 192 234 280 330
#     4   9  21  39  58  83 113 145 184 228 272 326
#
# _framework density 19.647839000000001
#
# number of rings (size 3 to 8) (size 9 to 14) (size 15 to 20)
#    0.000    1.600    0.000    6.600    0.000    4.000 
#    0.000    2.000    0.000    0.000    0.000    0.000 
#    0.000    0.000    0.000    0.000    0.000    0.000 
#
# Total GULP energy -496159.405500 kJ/mol
# GULP energy per Si atom -12403.985137 kJ/mol
# Density = 1.960312 g / cm^3
# Si number density = 19.647839 Si / 1000 Ang^3
#
#
#
# Elastic Constant Matrix: (Units=GPa)
#
#
# Indices 1 2 3 4 5 6 
#
# 1 64.7196 20.7447 19.4358 0.0000 0.0000 0.0000
# 2 20.7447 97.0256 19.9121 0.0000 0.0000 0.0000
# 3 19.4358 19.9121 56.8881 0.0000 0.0000 0.0000
# 4 0.0000 0.0000 0.0000 30.6253 0.0000 0.0000
# 5 0.0000 0.0000 0.0000 0.0000 26.4234 0.0000
# 6 0.0000 0.0000 0.0000 0.0000 0.0000 -32.1128
#
#
#
# Elastic Compliance Matrix: (Units=1/GPa)
#
#
# Indices 1 2 3 4 5 6 
#
# 1 0.017882 -0.002768 -0.005141 0.000000 0.000000 0.000000
# 2 -0.002768 0.011533 -0.003091 0.000000 0.000000 0.000000
# 3 -0.005141 -0.003091 0.020417 0.000000 0.000000 0.000000
# 4 0.000000 0.000000 0.000000 0.032653 0.000000 0.000000
# 5 0.000000 0.000000 0.000000 0.000000 0.037845 0.000000
# 6 0.000000 0.000000 0.000000 0.000000 0.000000 -0.031140
#
#
# Mechanical properties :
#
#
# Convention : Reuss Voigt Hill
#
# Bulk Modulus (GPa) = 35.92984 37.64652 36.78818
# Shear Modulus (GPa) = 41.50535 15.55656 28.53096
#
# Velocity S-wave (km/s) = 4.60114 2.81689 3.81480
# Velocity P-wave (km/s) = 6.82305 5.45730 6.17803
#
# Compressibility (1/GPa) = 0.02783202
#
# Stress axis : x y z
#
# Youngs Moduli (GPa) = 55.92101 86.70928 48.97997
#
# Poissons Ratio (x) = 0.24005 0.25178
# Poissons Ratio (y) = 0.15481 0.15139
# Poissons Ratio (z) = 0.28746 0.26801
#
# Static dielectric constant tensor:
#      x y z
#    x 3.723500 0.000000 0.000000 
#    y 0.000000 3.741390 0.000000 
#    z 0.000000 0.000000 3.597670 
# 
# 
# High freq. dielectric constant tensor:
#      x y z
#    x 1.762520 0.000000 0.000000 
#    y 0.000000 1.772670 0.000000 
#    z 0.000000 0.000000 1.775750 
# 
# From -- ./inp_files/4272.got.cif
#   From: 2010.03.12/outbox.cif.g09.slc.cpg/sg57_3_cif.got.tgz:4272.got - 2010.04.16 15:48:40.
