data_PCOD8233016
_publ_section_title
;
Structure prediction by ZEFSAII (Michael W. Deem and Ramdas Pophale) SiO2 
 PCOD8233016
Probable space group: P B C M
;
_chemical_formula_sum "Si O2"
_cell_formula_units_Z 64
_cell_length_a 19.278098
_cell_length_b 9.492983
_cell_length_c 18.515327
_cell_angle_alpha 90.000000
_cell_angle_beta 90.000000
_cell_angle_gamma 90.000000
_cell_volume 3388.428090
_symmetry_space_group_name_H-M "P B C M"
_symmetry_group_IT_number 57
_symmetry_cell_setting 'orthorhombic'
loop_
_space_group_symop_operation_xyz
x,y,z
-x,-y,1/2+z
x,1/2-y,-z
-x,1/2+y,1/2-z
-x,-y,-z
x,y,1/2-z
-x,1/2+y,z
x,1/2-y,1/2+z
loop_
_atom_site_type_symbol
_atom_site_label
_atom_site_fract_x
_atom_site_fract_y
_atom_site_fract_z
Si Si1 0.713665 0.415472 0.668244
Si Si2 0.316742 0.836011 0.428163
Si Si3 0.046052 0.314253 0.166537
Si Si4 0.182930 0.119187 0.589713
Si Si5 0.793927 0.931136 0.926594
Si Si6 0.918815 0.498371 0.166553
Si Si7 0.442173 0.986786 0.666608
Si Si8 0.473303 0.710403 0.919419
O O1 0.738906 0.404846 0.750000
O O2 0.707570 0.256335 0.639602
O O3 0.769808 0.501501 0.624630
O O4 0.640602 0.495340 0.661438
O O5 0.297342 0.750000 0.500000
O O6 0.398833 0.867142 0.425223
O O7 0.279033 0.986935 0.426670
O O8 0.059926 0.348984 0.250000
O O9 0.106252 0.390312 0.121971
O O10 0.972086 0.376960 0.142282
O O11 0.044763 0.148127 0.151220
O O12 0.175123 0.084672 0.505978
O O13 0.216528 0.273577 0.605291
O O14 0.848869 0.019042 0.879402
O O15 0.897884 0.483270 0.250000
O O16 0.467184 0.998484 0.750000
O O17 0.470819 0.110701 0.617229
O O18 0.469457 0.842914 0.633005
O O19 0.499020 0.750000 0.000000
#
# Coordination Sequence:
#
# PCOD8233016 Si02
#       8
#     8   8   8   8   8   8   8   8
#     4  10  21  37  57  82 112 148 186 228 281 336
#     4  10  20  38  58  81 115 147 185 233 279 329
#     4   9  18  34  54  76 108 144 182 229 276 330
#     4  10  20  36  56  82 111 147 187 229 280 335
#     4  10  21  36  56  81 112 146 184 232 281 327
#     4   9  19  35  53  77 107 141 182 228 276 330
#     4  10  21  38  57  83 116 148 185 237 286 333
#     4  10  21  37  59  84 112 149 193 230 280 341
#
# _framework density 18.887813999999999
#
# number of rings (size 3 to 8) (size 9 to 14) (size 15 to 20)
#    0.000    2.250    1.250    1.125    0.000    4.000 
#    2.250    1.250    0.000    0.000    0.000    0.000 
#    0.000    0.000    0.000    0.000    0.000    0.000 
#
# Total GULP energy -793738.609558 kJ/mol
# GULP energy per Si atom -12402.165774 kJ/mol
# Density = 1.884482 g / cm^3
# Si number density = 18.887814 Si / 1000 Ang^3
#
#
#
# Elastic Constant Matrix: (Units=GPa)
#
#
# Indices 1 2 3 4 5 6 
#
# 1 26.3704 9.5563 33.9603 0.0000 0.0000 0.0000
# 2 9.5563 37.1791 21.1962 0.0000 0.0000 0.0000
# 3 33.9603 21.1962 85.6729 0.0000 0.0000 0.0000
# 4 0.0000 0.0000 0.0000 27.5996 0.0000 0.0000
# 5 0.0000 0.0000 0.0000 0.0000 28.9688 0.0000
# 6 0.0000 0.0000 0.0000 0.0000 0.0000 23.8075
#
#
#
# Elastic Compliance Matrix: (Units=1/GPa)
#
#
# Indices 1 2 3 4 5 6 
#
# 1 0.077718 -0.002809 -0.030112 0.000000 0.000000 0.000000
# 2 -0.002809 0.031415 -0.006659 0.000000 0.000000 0.000000
# 3 -0.030112 -0.006659 0.025256 0.000000 0.000000 0.000000
# 4 0.000000 0.000000 0.000000 0.036232 0.000000 0.000000
# 5 0.000000 0.000000 0.000000 0.000000 0.034520 0.000000
# 6 0.000000 0.000000 0.000000 0.000000 0.000000 0.042004
#
#
# Mechanical properties :
#
#
# Convention : Reuss Voigt Hill
#
# Bulk Modulus (GPa) = 18.10633 30.96089 24.53361
# Shear Modulus (GPa) = 14.50473 21.70915 18.10694
#
# Velocity S-wave (km/s) = 2.77418 3.39392 3.09958
# Velocity P-wave (km/s) = 4.45741 5.63789 5.08204
#
# Compressibility (1/GPa) = 0.05522930
#
# Stress axis : x y z
#
# Youngs Moduli (GPa) = 12.86701 31.83180 39.59445
#
# Poissons Ratio (x) = 0.08942 1.19227
# Poissons Ratio (y) = 0.03614 0.26365
# Poissons Ratio (z) = 0.38745 0.21196
#
# Static dielectric constant tensor:
#      x y z
#    x 3.386630 0.000000 0.000000 
#    y 0.000000 3.757930 0.000000 
#    z 0.000000 0.000000 3.671220 
# 
# 
# High freq. dielectric constant tensor:
#      x y z
#    x 1.726110 0.000000 0.000000 
#    y 0.000000 1.729920 0.000000 
#    z 0.000000 0.000000 1.744930 
# 
# From -- ./inp_files/25647.got.cif
#   From: 2010.03.12/outbox.cif.g09.slc.cpg/sg57_13_cif.got.tgz:25647.got - 2010.04.16 15:48:40.
