data_PCOD8233874
_publ_section_title
;
Structure prediction by ZEFSAII (Michael W. Deem and Ramdas Pophale) SiO2 
 PCOD8233874
Probable space group: P B C M
;
_chemical_formula_sum "Si O2"
_cell_formula_units_Z 56
_cell_length_a 14.470201
_cell_length_b 21.280519
_cell_length_c 9.017233
_cell_angle_alpha 90.000000
_cell_angle_beta 90.000000
_cell_angle_gamma 90.000000
_cell_volume 2776.707102
_symmetry_space_group_name_H-M "P B C M"
_symmetry_group_IT_number 57
_symmetry_cell_setting 'orthorhombic'
loop_
_space_group_symop_operation_xyz
x,y,z
-x,-y,1/2+z
x,1/2-y,-z
-x,1/2+y,1/2-z
-x,-y,-z
x,y,1/2-z
-x,1/2+y,z
x,1/2-y,1/2+z
loop_
_atom_site_type_symbol
_atom_site_label
_atom_site_fract_x
_atom_site_fract_y
_atom_site_fract_z
Si Si1 0.407254 0.010678 0.911973
Si Si2 0.260649 0.933175 0.074929
Si Si3 0.761328 0.686030 0.074791
Si Si4 0.049915 0.558946 0.576536
Si Si5 0.581783 0.655324 0.911975
Si Si6 0.935080 0.682042 0.925857
Si Si7 0.624044 0.313893 0.075245
O O1 0.412273 0.977472 0.750000
O O2 0.397596 0.083580 0.886702
O O3 0.500000 0.000000 0.000000
O O4 0.318061 0.989207 0.001936
O O5 0.270646 0.940554 0.250000
O O6 0.155877 0.938623 0.021018
O O7 0.305536 0.867497 0.022035
O O8 0.770329 0.683669 0.250000
O O9 0.795546 0.750000 0.000000
O O10 0.655042 0.677879 0.032277
O O11 0.843454 0.646149 0.997758
O O12 0.044068 0.545416 0.750000
O O13 0.000000 0.500000 0.500000
O O14 0.011662 0.628661 0.540655
O O15 0.594819 0.688802 0.750000
O O16 0.479861 0.668273 0.976556
O O17 0.921384 0.692661 0.750000
O O18 0.963764 0.750000 0.000000
O O19 0.626940 0.305584 0.250000
O O20 0.656943 0.250000 0.000000
#
# Coordination Sequence:
#
# PCOD8233874 Si02
#       7
#     8   8   8   8   8   8   8
#     4  11  22  38  61  88 119 156 196 240 289 350
#     4  10  22  43  62  86 121 159 198 246 304 362
#     4  11  22  36  57  86 118 157 198 244 295 355
#     4  10  24  43  66  92 124 160 203 258 318 375
#     4  10  21  37  56  83 120 159 195 242 294 347
#     4  10  21  40  63  90 122 161 205 257 314 376
#     4  10  21  38  59  84 119 157 196 242 292 347
#
# _framework density 20.167774000000001
#
# number of rings (size 3 to 8) (size 9 to 14) (size 15 to 20)
#    0.000    1.714    1.429    3.429    2.000    5.714 
#    0.000    0.000    0.000    0.000    0.000    0.000 
#    0.000    0.000    0.000    0.000    0.000    0.000 
#
# Total GULP energy -693863.744376 kJ/mol
# GULP energy per Si atom -12390.424007 kJ/mol
# Density = 2.012187 g / cm^3
# Si number density = 20.167774 Si / 1000 Ang^3
#
#
#
# Elastic Constant Matrix: (Units=GPa)
#
#
# Indices 1 2 3 4 5 6 
#
# 1 160.9265 41.3084 53.5071 0.0000 0.0000 0.0000
# 2 41.3084 84.6694 30.5872 0.0000 0.0000 0.0000
# 3 53.5071 30.5872 93.8761 0.0000 0.0000 0.0000
# 4 0.0000 0.0000 0.0000 29.9734 0.0000 0.0000
# 5 0.0000 0.0000 0.0000 0.0000 31.5797 0.0000
# 6 0.0000 0.0000 0.0000 0.0000 0.0000 31.7646
#
#
#
# Elastic Compliance Matrix: (Units=1/GPa)
#
#
# Indices 1 2 3 4 5 6 
#
# 1 0.008143 -0.002603 -0.003794 0.000000 0.000000 0.000000
# 2 -0.002603 0.014218 -0.003149 0.000000 0.000000 0.000000
# 3 -0.003794 -0.003149 0.013841 0.000000 0.000000 0.000000
# 4 0.000000 0.000000 0.000000 0.033363 0.000000 0.000000
# 5 0.000000 0.000000 0.000000 0.000000 0.031666 0.000000
# 6 0.000000 0.000000 0.000000 0.000000 0.000000 0.031482
#
#
# Mechanical properties :
#
#
# Convention : Reuss Voigt Hill
#
# Bulk Modulus (GPa) = 58.44031 65.58635 62.01333
# Shear Modulus (GPa) = 31.74464 32.93484 32.33974
#
# Velocity S-wave (km/s) = 3.97171 4.04548 4.00876
# Velocity P-wave (km/s) = 7.07620 7.37646 7.22789
#
# Compressibility (1/GPa) = 0.01711148
#
# Stress axis : x y z
#
# Youngs Moduli (GPa) = 122.79869 70.33323 72.25084
#
# Poissons Ratio (x) = 0.18305 0.27409
# Poissons Ratio (y) = 0.31959 0.22753
# Poissons Ratio (z) = 0.46585 0.22149
#
# Static dielectric constant tensor:
#      x y z
#    x 3.819790 0.000000 0.000000 
#    y 0.000000 3.630360 0.000000 
#    z 0.000000 0.000000 3.780240 
# 
# 
# High freq. dielectric constant tensor:
#      x y z
#    x 1.796580 0.000000 0.000000 
#    y 0.000000 1.784120 0.000000 
#    z 0.000000 0.000000 1.788870 
# 
# From -- ./inp_files/5284.got.cif
#   From: 2010.03.12/outbox.cif.g09.slc.cpg/sg57_3_cif.got.tgz:5284.got - 2010.04.16 15:48:40.
