data_PCOD8233437
_publ_section_title
;
Structure prediction by ZEFSAII (Michael W. Deem and Ramdas Pophale) SiO2 
 PCOD8233437
Probable space group: P B C M
;
_chemical_formula_sum "Si O2"
_cell_formula_units_Z 52
_cell_length_a 21.407161
_cell_length_b 8.497616
_cell_length_c 13.950511
_cell_angle_alpha 90.000000
_cell_angle_beta 90.000000
_cell_angle_gamma 90.000000
_cell_volume 2537.735138
_symmetry_space_group_name_H-M "P B C M"
_symmetry_group_IT_number 57
_symmetry_cell_setting 'orthorhombic'
loop_
_space_group_symop_operation_xyz
x,y,z
-x,-y,1/2+z
x,1/2-y,-z
-x,1/2+y,1/2-z
-x,-y,-z
x,y,1/2-z
-x,1/2+y,z
x,1/2-y,1/2+z
loop_
_atom_site_type_symbol
_atom_site_label
_atom_site_fract_x
_atom_site_fract_y
_atom_site_fract_z
Si Si1 0.158669 0.250000 0.000000
Si Si2 0.456722 0.065774 0.359335
Si Si3 0.647700 0.071299 0.976182
Si Si4 0.124396 0.700212 0.641232
Si Si5 0.926804 0.017151 0.012645
Si Si6 0.767410 0.980168 0.638317
Si Si7 0.585925 0.585768 0.640701
O O1 0.110304 0.367437 0.053629
O O2 0.200022 0.160719 0.078999
O O3 0.439145 0.031072 0.250000
O O4 0.438882 0.242692 0.389412
O O5 0.418631 0.941586 0.422905
O O6 0.530187 0.039184 0.375395
O O7 0.699302 0.999237 0.906153
O O8 0.663957 0.250000 0.000000
O O9 0.643773 0.968759 0.074343
O O10 0.104466 0.729427 0.750000
O O11 0.099466 0.845441 0.580047
O O12 0.091181 0.545727 0.598561
O O13 0.197745 0.651524 0.631212
O O14 0.000000 0.000000 0.000000
O O15 0.762789 0.929100 0.750000
O O16 0.609729 0.584707 0.750000
#
# Coordination Sequence:
#
# PCOD8233437 Si02
#       7
#     4   8   8   8   8   8   8
#     4  10  22  38  66  92 128 166 202 254 316 366
#     4  10  21  40  64  90 125 161 202 265 325 385
#     4  12  25  38  62  87 121 167 218 265 319 381
#     4   9  20  39  61  84 124 168 207 248 303 367
#     4  10  20  37  64  97 129 160 203 255 308 368
#     4  10  24  44  63  88 124 170 217 265 313 373
#     4  10  22  40  63  92 125 161 208 262 327 390
#
# _framework density 20.490711999999998
#
# number of rings (size 3 to 8) (size 9 to 14) (size 15 to 20)
#    0.000    1.846    0.000    3.231    6.462    3.692 
#    0.000    3.077    0.000    0.000    0.000    0.000 
#    0.000    0.000    0.000    0.000    0.000    0.000 
#
# Total GULP energy -644293.880942 kJ/mol
# GULP energy per Si atom -12390.266941 kJ/mol
# Density = 2.044407 g / cm^3
# Si number density = 20.490712 Si / 1000 Ang^3
#
#
#
# Elastic Constant Matrix: (Units=GPa)
#
#
# Indices 1 2 3 4 5 6 
#
# 1 81.6093 33.9488 57.7817 0.0000 0.0000 0.0000
# 2 33.9488 100.5642 48.1458 0.0000 0.0000 0.0000
# 3 57.7817 48.1458 141.1401 0.0000 0.0000 0.0000
# 4 0.0000 0.0000 0.0000 29.4476 0.0000 0.0000
# 5 0.0000 0.0000 0.0000 0.0000 27.5418 0.0000
# 6 0.0000 0.0000 0.0000 0.0000 0.0000 20.2034
#
#
#
# Elastic Compliance Matrix: (Units=1/GPa)
#
#
# Indices 1 2 3 4 5 6 
#
# 1 0.018004 -0.003047 -0.006331 0.000000 0.000000 0.000000
# 2 -0.003047 0.012400 -0.002983 0.000000 0.000000 0.000000
# 3 -0.006331 -0.002983 0.010695 0.000000 0.000000 0.000000
# 4 0.000000 0.000000 0.000000 0.033959 0.000000 0.000000
# 5 0.000000 0.000000 0.000000 0.000000 0.036308 0.000000
# 6 0.000000 0.000000 0.000000 0.000000 0.000000 0.049497
#
#
# Mechanical properties :
#
#
# Convention : Reuss Voigt Hill
#
# Bulk Modulus (GPa) = 61.06003 67.00737 64.03370
# Shear Modulus (GPa) = 26.17217 27.66772 26.91995
#
# Velocity S-wave (km/s) = 3.57777 3.67857 3.62852
# Velocity P-wave (km/s) = 6.85061 7.12845 6.99091
#
# Compressibility (1/GPa) = 0.01637732
#
# Stress axis : x y z
#
# Youngs Moduli (GPa) = 55.54450 80.64260 93.50483
#
# Poissons Ratio (x) = 0.24568 0.59201
# Poissons Ratio (y) = 0.16922 0.27891
# Poissons Ratio (z) = 0.35167 0.24054
#
# Static dielectric constant tensor:
#      x y z
#    x 3.682770 0.000000 0.000000 
#    y 0.000000 3.986870 0.000000 
#    z 0.000000 0.000000 3.954180 
# 
# 
# High freq. dielectric constant tensor:
#      x y z
#    x 1.794610 0.000000 0.000000 
#    y 0.000000 1.802560 0.000000 
#    z 0.000000 0.000000 1.809610 
# 
# From -- ./inp_files/19281.got.cif
#   From: 2010.03.12/outbox.cif.g09.slc.cpg/sg57_10_cif.got.tgz:19281.got - 2010.04.16 15:48:40.
