data_PCOD8233132
_publ_section_title
;
Structure prediction by ZEFSAII (Michael W. Deem and Ramdas Pophale) SiO2 
 PCOD8233132
Probable space group: P B C M
;
_chemical_formula_sum "Si O2"
_cell_formula_units_Z 48
_cell_length_a 30.595518
_cell_length_b 9.571277
_cell_length_c 8.665981
_cell_angle_alpha 90.000000
_cell_angle_beta 90.000000
_cell_angle_gamma 90.000000
_cell_volume 2537.730084
_symmetry_space_group_name_H-M "P B C M"
_symmetry_group_IT_number 57
_symmetry_cell_setting 'orthorhombic'
loop_
_space_group_symop_operation_xyz
x,y,z
-x,-y,1/2+z
x,1/2-y,-z
-x,1/2+y,1/2-z
-x,-y,-z
x,y,1/2-z
-x,1/2+y,z
x,1/2-y,1/2+z
loop_
_atom_site_type_symbol
_atom_site_label
_atom_site_fract_x
_atom_site_fract_y
_atom_site_fract_z
Si Si1 0.465645 0.396240 0.430556
Si Si2 0.633862 0.899747 0.068065
Si Si3 0.124406 0.400423 0.428142
Si Si4 0.037727 0.405487 0.567854
Si Si5 0.221117 0.095855 0.929630
Si Si6 0.705513 0.096001 0.567609
O O1 0.478919 0.250000 0.500000
O O2 0.500000 0.500000 0.500000
O O3 0.471374 0.390510 0.250000
O O4 0.416062 0.435642 0.476120
O O5 0.641512 0.894465 0.250000
O O6 0.648107 0.750000 0.000000
O O7 0.662127 0.022210 0.994689
O O8 0.130016 0.250000 0.500000
O O9 0.110880 0.389037 0.250000
O O10 0.084440 0.475507 0.518512
O O11 0.172168 0.470097 0.448293
O O12 0.034163 0.250000 0.500000
O O13 0.033497 0.400062 0.750000
O O14 0.000000 0.500000 0.500000
O O15 0.234176 0.104723 0.750000
O O16 0.225571 0.250000 0.000000
O O17 0.252227 0.990851 0.018589
O O18 0.708816 0.250000 0.500000
O O19 0.703127 0.105469 0.750000
#
# Coordination Sequence:
#
# PCOD8233132 Si02
#       6
#     8   8   8   8   8   8
#     4  10  21  37  59  85 115 149 186 229 275 326
#     4  10  21  39  61  85 112 146 188 230 273 323
#     4   9  17  31  53  80 108 140 180 224 269 319
#     4  11  21  35  55  80 111 145 183 227 274 325
#     4  10  20  36  59  85 112 143 182 225 269 323
#     4  12  25  40  58  81 112 147 183 227 278 330
#
# _framework density 18.914541
#
# number of rings (size 3 to 8) (size 9 to 14) (size 15 to 20)
#    0.000    1.667    0.000    6.500    0.000    4.667 
#    0.000    0.833    0.000    4.000    0.000    0.000 
#    0.000    0.000    0.000    0.000    0.000    0.000 
#
# Total GULP energy -595096.708778 kJ/mol
# GULP energy per Si atom -12397.848100 kJ/mol
# Density = 1.887149 g / cm^3
# Si number density = 18.914541 Si / 1000 Ang^3
#
#
#
# Elastic Constant Matrix: (Units=GPa)
#
#
# Indices 1 2 3 4 5 6 
#
# 1 138.2602 78.6048 55.1625 0.0000 0.0000 0.0000
# 2 78.6048 112.2564 55.7639 0.0000 0.0000 0.0000
# 3 55.1625 55.7639 130.9879 0.0000 0.0000 0.0000
# 4 0.0000 0.0000 0.0000 34.7831 0.0000 0.0000
# 5 0.0000 0.0000 0.0000 0.0000 35.7322 0.0000
# 6 0.0000 0.0000 0.0000 0.0000 0.0000 97.9039
#
#
#
# Elastic Compliance Matrix: (Units=1/GPa)
#
#
# Indices 1 2 3 4 5 6 
#
# 1 0.012391 -0.007716 -0.001933 0.000000 0.000000 0.000000
# 2 -0.007716 0.016102 -0.003606 0.000000 0.000000 0.000000
# 3 -0.001933 -0.003606 0.009983 0.000000 0.000000 0.000000
# 4 0.000000 0.000000 0.000000 0.028750 0.000000 0.000000
# 5 0.000000 0.000000 0.000000 0.000000 0.027986 0.000000
# 6 0.000000 0.000000 0.000000 0.000000 0.000000 0.010214
#
#
# Mechanical properties :
#
#
# Convention : Reuss Voigt Hill
#
# Bulk Modulus (GPa) = 83.56504 84.50743 84.03623
# Shear Modulus (GPa) = 36.78506 46.48207 41.63357
#
# Velocity S-wave (km/s) = 4.41478 4.96267 4.69672
# Velocity P-wave (km/s) = 8.38232 8.80983 8.59873
#
# Compressibility (1/GPa) = 0.01196673
#
# Stress axis : x y z
#
# Youngs Moduli (GPa) = 80.70474 62.10321 100.16624
#
# Poissons Ratio (x) = 0.47919 0.19365
# Poissons Ratio (y) = 0.62272 0.36116
# Poissons Ratio (z) = 0.15602 0.22392
#
# Static dielectric constant tensor:
#      x y z
#    x 4.075230 0.000000 0.000000 
#    y 0.000000 3.229940 0.000000 
#    z 0.000000 0.000000 3.721050 
# 
# 
# High freq. dielectric constant tensor:
#      x y z
#    x 1.758250 0.000000 0.000000 
#    y 0.000000 1.707500 0.000000 
#    z 0.000000 0.000000 1.758460 
# 
# From -- ./inp_files/10022.got.cif
#   From: 2010.03.12/outbox.cif.g09.slc.cpg/sg57_6_cif.got.tgz:10022.got - 2010.04.16 15:48:40.
