data_PCOD8233936
_publ_section_title
;
Structure prediction by ZEFSAII (Michael W. Deem and Ramdas Pophale) SiO2 
 PCOD8233936
Probable space group: P B C M
;
_chemical_formula_sum "Si O2"
_cell_formula_units_Z 64
_cell_length_a 14.161172
_cell_length_b 25.535104
_cell_length_c 8.857633
_cell_angle_alpha 90.000000
_cell_angle_beta 90.000000
_cell_angle_gamma 90.000000
_cell_volume 3202.982094
_symmetry_space_group_name_H-M "P B C M"
_symmetry_group_IT_number 57
_symmetry_cell_setting 'orthorhombic'
loop_
_space_group_symop_operation_xyz
x,y,z
-x,-y,1/2+z
x,1/2-y,-z
-x,1/2+y,1/2-z
-x,-y,-z
x,y,1/2-z
-x,1/2+y,z
x,1/2-y,1/2+z
loop_
_atom_site_type_symbol
_atom_site_label
_atom_site_fract_x
_atom_site_fract_y
_atom_site_fract_z
Si Si1 0.735805 0.305139 0.429159
Si Si2 0.703639 0.506566 0.925779
Si Si3 0.079076 0.304647 0.428144
Si Si4 0.912047 0.141326 0.071501
Si Si5 0.908174 0.022963 0.075696
Si Si6 0.295048 0.303967 0.073857
Si Si7 0.619685 0.104781 0.075683
Si Si8 0.600864 0.601636 0.075939
O O1 0.703910 0.250000 0.500000
O O2 0.740664 0.300140 0.250000
O O3 0.838448 0.319969 0.492656
O O4 0.658321 0.348265 0.474011
O O5 0.682380 0.517680 0.750000
O O6 0.815493 0.511558 0.960673
O O7 0.670157 0.448833 0.971994
O O8 0.648874 0.547826 0.026817
O O9 0.047351 0.250000 0.500000
O O10 0.061808 0.303261 0.250000
O O11 0.187249 0.317208 0.469566
O O12 0.016400 0.349125 0.505921
O O13 0.909459 0.150897 0.250000
O O14 0.885948 0.082243 0.025758
O O15 0.931779 0.022365 0.250000
O O16 0.000000 0.000000 0.000000
O O17 0.307119 0.296778 0.250000
O O18 0.329045 0.250000 0.000000
O O19 0.360679 0.350477 0.020028
O O20 0.642230 0.117958 0.250000
O O21 0.509638 0.097253 0.045376
O O22 0.623974 0.611880 0.250000
#
# Coordination Sequence:
#
# PCOD8233936 Si02
#       8
#     8   8   8   8   8   8   8   8
#     4  12  25  41  65  94 125 165 210 258 312 376
#     4  10  21  42  66  89 124 165 203 251 310 364
#     4  10  21  37  58  86 116 154 199 244 294 352
#     4  11  22  40  62  87 123 163 202 250 305 362
#     4  10  23  40  61  89 124 165 201 248 305 361
#     4  10  22  41  63  88 124 163 202 254 308 364
#     4  10  22  44  66  89 124 161 204 259 313 365
#     4  11  24  39  64  96 123 159 206 255 308 371
#
# _framework density 19.981379
#
# number of rings (size 3 to 8) (size 9 to 14) (size 15 to 20)
#    0.000    1.500    1.250    3.375    1.750    5.000 
#    0.000    0.000    0.000    0.000    0.000    0.000 
#    0.000    0.000    0.000    0.000    0.000    0.000 
#
# Total GULP energy -793920.728378 kJ/mol
# GULP energy per Si atom -12405.011381 kJ/mol
# Density = 1.993590 g / cm^3
# Si number density = 19.981379 Si / 1000 Ang^3
#
#
#
# Elastic Constant Matrix: (Units=GPa)
#
#
# Indices 1 2 3 4 5 6 
#
# 1 95.3845 46.3442 37.3552 0.0000 0.0000 0.0000
# 2 46.3442 102.0796 43.4012 0.0000 0.0000 0.0000
# 3 37.3552 43.4012 83.1062 0.0000 0.0000 0.0000
# 4 0.0000 0.0000 0.0000 37.8602 0.0000 0.0000
# 5 0.0000 0.0000 0.0000 0.0000 32.5446 0.0000
# 6 0.0000 0.0000 0.0000 0.0000 0.0000 26.9986
#
#
#
# Elastic Compliance Matrix: (Units=1/GPa)
#
#
# Indices 1 2 3 4 5 6 
#
# 1 0.014383 -0.004860 -0.003927 0.000000 0.000000 0.000000
# 2 -0.004860 0.014235 -0.005249 0.000000 0.000000 0.000000
# 3 -0.003927 -0.005249 0.016539 0.000000 0.000000 0.000000
# 4 0.000000 0.000000 0.000000 0.026413 0.000000 0.000000
# 5 0.000000 0.000000 0.000000 0.000000 0.030727 0.000000
# 6 0.000000 0.000000 0.000000 0.000000 0.000000 0.037039
#
#
# Mechanical properties :
#
#
# Convention : Reuss Voigt Hill
#
# Bulk Modulus (GPa) = 58.53336 59.41908 58.97622
# Shear Modulus (GPa) = 28.88439 29.71198 29.29819
#
# Velocity S-wave (km/s) = 3.80618 3.86033 3.83335
# Velocity P-wave (km/s) = 6.97665 7.04778 7.01231
#
# Compressibility (1/GPa) = 0.01708427
#
# Stress axis : x y z
#
# Youngs Moduli (GPa) = 69.52528 70.25071 60.46253
#
# Poissons Ratio (x) = 0.34145 0.23742
# Poissons Ratio (y) = 0.33793 0.31738
# Poissons Ratio (z) = 0.27301 0.36876
#
# Static dielectric constant tensor:
#      x y z
#    x 3.690500 0.000000 0.000000 
#    y 0.000000 3.706310 0.000000 
#    z 0.000000 0.000000 3.668170 
# 
# 
# High freq. dielectric constant tensor:
#      x y z
#    x 1.789640 0.000000 0.000000 
#    y 0.000000 1.786220 0.000000 
#    z 0.000000 0.000000 1.783020 
# 
# From -- ./inp_files/5650.got.cif
#   From: 2010.03.12/outbox.cif.g09.slc.cpg/sg57_3_cif.got.tgz:5650.got - 2010.04.16 15:48:40.
