data_PCOD8233150
_publ_section_title
;
Structure prediction by ZEFSAII (Michael W. Deem and Ramdas Pophale) SiO2 
 PCOD8233150
Probable space group: P B C M
;
_chemical_formula_sum "Si O2"
_cell_formula_units_Z 48
_cell_length_a 15.308125
_cell_length_b 17.859866
_cell_length_c 8.841839
_cell_angle_alpha 90.000000
_cell_angle_beta 90.000000
_cell_angle_gamma 90.000000
_cell_volume 2417.368166
_symmetry_space_group_name_H-M "P B C M"
_symmetry_group_IT_number 57
_symmetry_cell_setting 'orthorhombic'
loop_
_space_group_symop_operation_xyz
x,y,z
-x,-y,1/2+z
x,1/2-y,-z
-x,1/2+y,1/2-z
-x,-y,-z
x,y,1/2-z
-x,1/2+y,z
x,1/2-y,1/2+z
loop_
_atom_site_type_symbol
_atom_site_label
_atom_site_fract_x
_atom_site_fract_y
_atom_site_fract_z
Si Si1 0.502246 0.419106 0.073096
Si Si2 0.175391 0.594590 0.421572
Si Si3 0.670874 0.326102 0.077168
Si Si4 0.654390 0.668961 0.069855
Si Si5 0.188591 0.080584 0.572799
Si Si6 0.983438 0.921050 0.925334
O O1 0.478041 0.423562 0.250000
O O2 0.599589 0.389608 0.045547
O O3 0.500000 0.500000 0.000000
O O4 0.436389 0.363447 0.990226
O O5 0.205887 0.606151 0.250000
O O6 0.234894 0.645853 0.525193
O O7 0.186159 0.507452 0.464312
O O8 0.075211 0.623174 0.443067
O O9 0.678847 0.305944 0.250000
O O10 0.640572 0.250000 0.000000
O O11 0.651361 0.674501 0.250000
O O12 0.671114 0.750000 0.000000
O O13 0.731598 0.614549 0.019109
O O14 0.198682 0.097649 0.750000
O O15 0.097907 0.117941 0.512069
O O16 0.958927 0.931231 0.750000
O O17 0.000000 0.000000 0.000000
#
# Coordination Sequence:
#
# PCOD8233150 Si02
#       6
#     8   8   8   8   8   8
#     4  11  24  42  64  91 118 150 192 238 287 342
#     4   9  19  35  57  84 116 151 190 236 285 337
#     4  11  24  39  58  83 114 151 190 232 283 338
#     4  12  25  41  61  86 118 156 194 239 292 350
#     4  10  20  36  59  87 117 152 193 241 292 346
#     4   9  17  31  53  83 116 152 193 240 290 339
#
# _framework density 19.856304999999999
#
# number of rings (size 3 to 8) (size 9 to 14) (size 15 to 20)
#    0.000    1.667    0.000    6.000    0.000   10.667 
#    0.000    0.833    0.000    4.000    0.000    0.000 
#    0.000    0.000    0.000    0.000    0.000    0.000 
#
# Total GULP energy -595215.966429 kJ/mol
# GULP energy per Si atom -12400.332634 kJ/mol
# Density = 1.981111 g / cm^3
# Si number density = 19.856305 Si / 1000 Ang^3
#
#
#
# Elastic Constant Matrix: (Units=GPa)
#
#
# Indices 1 2 3 4 5 6 
#
# 1 93.3777 11.3769 52.1119 0.0000 0.0000 0.0000
# 2 11.3769 62.8490 40.2222 0.0000 0.0000 0.0000
# 3 52.1119 40.2222 136.5010 0.0000 0.0000 0.0000
# 4 0.0000 0.0000 0.0000 33.6377 0.0000 0.0000
# 5 0.0000 0.0000 0.0000 0.0000 39.3709 0.0000
# 6 0.0000 0.0000 0.0000 0.0000 0.0000 11.3517
#
#
#
# Elastic Compliance Matrix: (Units=1/GPa)
#
#
# Indices 1 2 3 4 5 6 
#
# 1 0.013666 0.001066 -0.005532 0.000000 0.000000 0.000000
# 2 0.001066 0.019692 -0.006210 0.000000 0.000000 0.000000
# 3 -0.005532 -0.006210 0.011268 0.000000 0.000000 0.000000
# 4 0.000000 0.000000 0.000000 0.029729 0.000000 0.000000
# 5 0.000000 0.000000 0.000000 0.000000 0.025399 0.000000
# 6 0.000000 0.000000 0.000000 0.000000 0.000000 0.088092
#
#
# Mechanical properties :
#
#
# Convention : Reuss Voigt Hill
#
# Bulk Modulus (GPa) = 42.96263 55.57218 49.26740
# Shear Modulus (GPa) = 23.04623 29.47318 26.25970
#
# Velocity S-wave (km/s) = 3.41053 3.85687 3.64055
# Velocity P-wave (km/s) = 6.09858 6.91967 6.52206
#
# Compressibility (1/GPa) = 0.02327604
#
# Stress axis : x y z
#
# Youngs Moduli (GPa) = 73.17259 50.78142 88.75065
#
# Poissons Ratio (x) = -0.05414 0.49093
# Poissons Ratio (y) = -0.07802 0.55111
# Poissons Ratio (z) = 0.40476 0.31534
#
# Static dielectric constant tensor:
#      x y z
#    x 4.267820 0.000000 0.000000 
#    y 0.000000 3.409170 0.000000 
#    z 0.000000 0.000000 3.994230 
# 
# 
# High freq. dielectric constant tensor:
#      x y z
#    x 1.795030 0.000000 0.000000 
#    y 0.000000 1.751040 0.000000 
#    z 0.000000 0.000000 1.790340 
# 
# From -- ./inp_files/4713.got.cif
#   From: 2010.03.12/outbox.cif.g09.slc.cpg/sg57_3_cif.got.tgz:4713.got - 2010.04.16 15:48:40.
