data_PCOD8233252
_publ_section_title
;
Structure prediction by ZEFSAII (Michael W. Deem and Ramdas Pophale) SiO2 
 PCOD8233252
Probable space group: P B C M
;
_chemical_formula_sum "Si O2"
_cell_formula_units_Z 48
_cell_length_a 8.601378
_cell_length_b 15.018207
_cell_length_c 19.933550
_cell_angle_alpha 90.000000
_cell_angle_beta 90.000000
_cell_angle_gamma 90.000000
_cell_volume 2574.961676
_symmetry_space_group_name_H-M "P B C M"
_symmetry_group_IT_number 57
_symmetry_cell_setting 'orthorhombic'
loop_
_space_group_symop_operation_xyz
x,y,z
-x,-y,1/2+z
x,1/2-y,-z
-x,1/2+y,1/2-z
-x,-y,-z
x,y,1/2-z
-x,1/2+y,z
x,1/2-y,1/2+z
loop_
_atom_site_type_symbol
_atom_site_label
_atom_site_fract_x
_atom_site_fract_y
_atom_site_fract_z
Si Si1 0.069694 0.560162 0.827127
Si Si2 0.098596 0.260081 0.327152
Si Si3 0.304099 0.511524 0.564147
Si Si4 0.697994 0.686518 0.059927
Si Si5 0.600120 0.411182 0.931663
Si Si6 0.136908 0.609091 0.326651
O O1 0.127648 0.564939 0.750000
O O2 0.220082 0.563288 0.875263
O O3 0.950697 0.639394 0.843352
O O4 0.979443 0.470395 0.843157
O O5 0.148984 0.247282 0.250000
O O6 0.246483 0.231566 0.370997
O O7 0.949352 0.200381 0.344665
O O8 0.228002 0.413019 0.551715
O O9 0.293162 0.571935 0.497313
O O10 0.487931 0.497374 0.581302
O O11 0.509746 0.676390 0.060300
O O12 0.753837 0.750000 0.000000
O O13 0.706828 0.397288 0.868191
O O14 0.190320 0.606343 0.250000
#
# Coordination Sequence:
#
# PCOD8233252 Si02
#       6
#     8   8   8   8   8   8
#     4  10  21  37  61  86 114 151 192 240 285 336
#     4  10  22  38  58  86 113 146 192 237 283 339
#     4   9  20  39  57  80 117 150 188 236 282 342
#     4  10  21  37  58  82 113 152 188 231 284 340
#     4   9  21  36  56  83 111 152 184 235 285 334
#     4  10  20  37  57  84 116 145 190 238 282 338
#
# _framework density 18.641055000000001
#
# number of rings (size 3 to 8) (size 9 to 14) (size 15 to 20)
#    1.000    1.333    1.667    0.000    2.333    4.667 
#    0.000    0.000    0.000    7.000    0.000    0.000 
#    0.000    0.000    0.000    0.000    0.000    0.000 
#
# Total GULP energy -594986.419930 kJ/mol
# GULP energy per Si atom -12395.550415 kJ/mol
# Density = 1.859863 g / cm^3
# Si number density = 18.641055 Si / 1000 Ang^3
#
#
#
# Elastic Constant Matrix: (Units=GPa)
#
#
# Indices 1 2 3 4 5 6 
#
# 1 56.1176 16.9408 62.1680 0.0000 0.0000 0.0000
# 2 16.9408 53.3657 46.6492 0.0000 0.0000 0.0000
# 3 62.1680 46.6492 119.1959 0.0000 0.0000 0.0000
# 4 0.0000 0.0000 0.0000 26.1642 0.0000 0.0000
# 5 0.0000 0.0000 0.0000 0.0000 45.6584 0.0000
# 6 0.0000 0.0000 0.0000 0.0000 0.0000 17.2103
#
#
#
# Elastic Compliance Matrix: (Units=1/GPa)
#
#
# Indices 1 2 3 4 5 6 
#
# 1 0.045172 0.009508 -0.027281 0.000000 0.000000 0.000000
# 2 0.009508 0.030484 -0.016889 0.000000 0.000000 0.000000
# 3 -0.027281 -0.016889 0.029228 0.000000 0.000000 0.000000
# 4 0.000000 0.000000 0.000000 0.038220 0.000000 0.000000
# 5 0.000000 0.000000 0.000000 0.000000 0.021902 0.000000
# 6 0.000000 0.000000 0.000000 0.000000 0.000000 0.058105
#
#
# Mechanical properties :
#
#
# Convention : Reuss Voigt Hill
#
# Bulk Modulus (GPa) = 28.12228 53.35504 40.73866
# Shear Modulus (GPa) = 16.43179 24.66799 20.54989
#
# Velocity S-wave (km/s) = 2.97220 3.64169 3.32384
# Velocity P-wave (km/s) = 5.18629 6.80933 6.05246
#
# Compressibility (1/GPa) = 0.03555900
#
# Stress axis : x y z
#
# Youngs Moduli (GPa) = 22.13777 32.80403 34.21370
#
# Poissons Ratio (x) = -0.31189 0.93338
# Poissons Ratio (y) = -0.21048 0.57784
# Poissons Ratio (z) = 0.60394 0.55404
#
# Static dielectric constant tensor:
#      x y z
#    x 3.116700 0.000000 0.000000 
#    y 0.000000 3.480640 0.000000 
#    z 0.000000 0.000000 3.361280 
# 
# 
# High freq. dielectric constant tensor:
#      x y z
#    x 1.701010 0.000000 0.000000 
#    y 0.000000 1.723160 0.000000 
#    z 0.000000 0.000000 1.725290 
# 
# From -- ./inp_files/24248.got.cif
#   From: 2010.03.12/outbox.cif.g09.slc.cpg/sg57_13_cif.got.tgz:24248.got - 2010.04.16 15:48:40.
