data_PCOD8233211
_publ_section_title
;
Structure prediction by ZEFSAII (Michael W. Deem and Ramdas Pophale) SiO2 
 PCOD8233211
Probable space group: P B C M
;
_chemical_formula_sum "Si O2"
_cell_formula_units_Z 56
_cell_length_a 14.681022
_cell_length_b 22.383552
_cell_length_c 8.955306
_cell_angle_alpha 90.000000
_cell_angle_beta 90.000000
_cell_angle_gamma 90.000000
_cell_volume 2942.833726
_symmetry_space_group_name_H-M "P B C M"
_symmetry_group_IT_number 57
_symmetry_cell_setting 'orthorhombic'
loop_
_space_group_symop_operation_xyz
x,y,z
-x,-y,1/2+z
x,1/2-y,-z
-x,1/2+y,1/2-z
-x,-y,-z
x,y,1/2-z
-x,1/2+y,z
x,1/2-y,1/2+z
loop_
_atom_site_type_symbol
_atom_site_label
_atom_site_fract_x
_atom_site_fract_y
_atom_site_fract_z
Si Si1 0.618204 0.449795 0.577075
Si Si2 0.588533 0.927461 0.576740
Si Si3 0.878503 0.651365 0.921189
Si Si4 0.905055 0.987383 0.078045
Si Si5 0.302184 0.189451 0.073836
Si Si6 0.790116 0.084381 0.926805
Si Si7 0.922007 0.310654 0.426360
O O1 0.644591 0.450691 0.750000
O O2 0.626513 0.517457 0.518041
O O3 0.519274 0.421504 0.549365
O O4 0.687865 0.406887 0.488192
O O5 0.610258 0.940110 0.750000
O O6 0.636126 0.866497 0.521241
O O7 0.861423 0.670490 0.750000
O O8 0.876611 0.580741 0.938155
O O9 0.975805 0.674817 0.979602
O O10 0.801869 0.680441 0.023969
O O11 0.913569 0.006568 0.250000
O O12 0.826023 0.023100 0.996116
O O13 0.000000 0.000000 0.000000
O O14 0.305965 0.196940 0.250000
O O15 0.341417 0.250000 0.000000
O O16 0.790084 0.079422 0.750000
O O17 0.854020 0.137992 0.982813
O O18 0.887365 0.250000 0.500000
O O19 0.917524 0.305028 0.250000
#
# Coordination Sequence:
#
# PCOD8233211 Si02
#       7
#     8   8   8   8   8   8   8
#     4  10  20  36  61  90 114 143 185 233 284 341
#     4   9  20  39  60  84 116 148 182 228 286 345
#     4  10  21  38  56  80 113 148 187 231 277 332
#     4  11  21  35  56  84 116 149 186 231 281 333
#     4  11  23  38  57  83 113 151 191 234 283 338
#     4  11  22  38  56  81 116 150 186 231 279 333
#     4  10  22  39  55  74 105 146 189 232 274 323
#
# _framework density 19.029278000000001
#
# number of rings (size 3 to 8) (size 9 to 14) (size 15 to 20)
#    0.000    1.714    1.429    3.000    0.000    8.000 
#    0.000    0.714    0.000    3.429    0.000    0.000 
#    0.000    0.000    0.000    0.000    0.000    0.000 
#
# Total GULP energy -694644.728297 kJ/mol
# GULP energy per Si atom -12404.370148 kJ/mol
# Density = 1.898597 g / cm^3
# Si number density = 19.029278 Si / 1000 Ang^3
#
#
#
# Elastic Constant Matrix: (Units=GPa)
#
#
# Indices 1 2 3 4 5 6 
#
# 1 105.0662 52.7959 40.0197 0.0000 0.0000 0.0000
# 2 52.7959 105.9407 42.0366 0.0000 0.0000 0.0000
# 3 40.0197 42.0366 74.5046 0.0000 0.0000 0.0000
# 4 0.0000 0.0000 0.0000 32.8939 0.0000 0.0000
# 5 0.0000 0.0000 0.0000 0.0000 34.6672 0.0000
# 6 0.0000 0.0000 0.0000 0.0000 0.0000 20.7619
#
#
#
# Elastic Compliance Matrix: (Units=1/GPa)
#
#
# Indices 1 2 3 4 5 6 
#
# 1 0.013800 -0.005071 -0.004551 0.000000 0.000000 0.000000
# 2 -0.005071 0.014026 -0.005190 0.000000 0.000000 0.000000
# 3 -0.004551 -0.005190 0.018795 0.000000 0.000000 0.000000
# 4 0.000000 0.000000 0.000000 0.030401 0.000000 0.000000
# 5 0.000000 0.000000 0.000000 0.000000 0.028846 0.000000
# 6 0.000000 0.000000 0.000000 0.000000 0.000000 0.048165
#
#
# Mechanical properties :
#
#
# Convention : Reuss Voigt Hill
#
# Bulk Modulus (GPa) = 58.83680 61.69066 60.26373
# Shear Modulus (GPa) = 26.41023 27.70856 27.05939
#
# Velocity S-wave (km/s) = 3.72946 3.82003 3.77502
# Velocity P-wave (km/s) = 7.03785 7.20736 7.12311
#
# Compressibility (1/GPa) = 0.01699616
#
# Stress axis : x y z
#
# Youngs Moduli (GPa) = 72.46570 71.29781 53.20681
#
# Poissons Ratio (x) = 0.36157 0.24215
# Poissons Ratio (y) = 0.36749 0.27612
# Poissons Ratio (z) = 0.32980 0.37000
#
# Static dielectric constant tensor:
#      x y z
#    x 3.481500 0.000000 0.000000 
#    y 0.000000 3.493110 0.000000 
#    z 0.000000 0.000000 3.475340 
# 
# 
# High freq. dielectric constant tensor:
#      x y z
#    x 1.743800 0.000000 0.000000 
#    y 0.000000 1.736680 0.000000 
#    z 0.000000 0.000000 1.744150 
# 
# From -- ./inp_files/5134.got.cif
#   From: 2010.03.12/outbox.cif.g09.slc.cpg/sg57_3_cif.got.tgz:5134.got - 2010.04.16 15:48:40.
