data_PCOD8233330
_publ_section_title
;
Structure prediction by ZEFSAII (Michael W. Deem and Ramdas Pophale) SiO2 
 PCOD8233330
Probable space group: P B C M
;
_chemical_formula_sum "Si O2"
_cell_formula_units_Z 64
_cell_length_a 23.892838
_cell_length_b 8.644921
_cell_length_c 15.347381
_cell_angle_alpha 90.000000
_cell_angle_beta 90.000000
_cell_angle_gamma 90.000000
_cell_volume 3170.027590
_symmetry_space_group_name_H-M "P B C M"
_symmetry_group_IT_number 57
_symmetry_cell_setting 'orthorhombic'
loop_
_space_group_symop_operation_xyz
x,y,z
-x,-y,1/2+z
x,1/2-y,-z
-x,1/2+y,1/2-z
-x,-y,-z
x,y,1/2-z
-x,1/2+y,z
x,1/2-y,1/2+z
loop_
_atom_site_type_symbol
_atom_site_label
_atom_site_fract_x
_atom_site_fract_y
_atom_site_fract_z
Si Si1 0.630151 0.067145 0.499891
Si Si2 0.836271 0.596977 0.347875
Si Si3 0.459629 0.355458 0.916353
Si Si4 0.176210 0.459673 0.151914
Si Si5 0.950883 0.451787 0.353434
Si Si6 0.938270 0.109032 0.353748
Si Si7 0.251293 0.432270 0.993732
Si Si8 0.564743 0.543336 0.652798
O O1 0.618783 0.250000 0.500000
O O2 0.590081 0.978086 0.568190
O O3 0.693274 0.029081 0.526555
O O4 0.619499 0.999268 0.403078
O O5 0.825153 0.530359 0.250000
O O6 0.835018 0.779417 0.346108
O O7 0.897732 0.552892 0.382499
O O8 0.790247 0.530226 0.413931
O O9 0.443621 0.229705 0.842626
O O10 0.513160 0.455398 0.891746
O O11 0.473195 0.250000 0.000000
O O12 0.191657 0.518440 0.250000
O O13 0.120109 0.537613 0.114588
O O14 0.226088 0.495915 0.084719
O O15 0.955732 0.450536 0.250000
O O16 0.941813 0.281363 0.390942
O O17 0.008620 0.517516 0.393117
O O18 0.940341 0.104813 0.250000
O O19 0.264830 0.250000 0.000000
O O20 0.573437 0.481254 0.750000
#
# Coordination Sequence:
#
# PCOD8233330 Si02
#       8
#     8   8   8   8   8   8   8   8
#     4  11  23  40  59  81 115 157 194 230 278 335
#     4   9  18  34  54  76 101 134 174 222 275 328
#     4  10  20  37  60  86 119 156 189 225 277 334
#     4   9  18  33  54  76 102 135 175 221 273 328
#     4   9  16  27  47  73 103 133 168 213 266 326
#     4   9  16  27  46  74 103 134 169 212 265 325
#     4  10  21  38  57  78 106 143 187 231 276 327
#     4  11  21  36  61  92 121 150 188 234 278 327
#
# _framework density 20.189098000000001
#
# number of rings (size 3 to 8) (size 9 to 14) (size 15 to 20)
#    0.000    2.250    0.000    4.875    0.000    4.500 
#    0.000    5.625    0.000    0.000    0.000    0.000 
#    0.000    0.000    0.000    0.000    0.000    0.000 
#
# Total GULP energy -793459.714538 kJ/mol
# GULP energy per Si atom -12397.808040 kJ/mol
# Density = 2.014315 g / cm^3
# Si number density = 20.189098 Si / 1000 Ang^3
#
#
#
# Elastic Constant Matrix: (Units=GPa)
#
#
# Indices 1 2 3 4 5 6 
#
# 1 73.3189 22.9729 11.1176 0.0000 0.0000 0.0000
# 2 22.9729 68.1709 11.0205 0.0000 0.0000 0.0000
# 3 11.1176 11.0205 54.5574 0.0000 0.0000 0.0000
# 4 0.0000 0.0000 0.0000 12.4369 0.0000 0.0000
# 5 0.0000 0.0000 0.0000 0.0000 14.6469 0.0000
# 6 0.0000 0.0000 0.0000 0.0000 0.0000 36.5133
#
#
#
# Elastic Compliance Matrix: (Units=1/GPa)
#
#
# Indices 1 2 3 4 5 6 
#
# 1 0.015495 -0.004870 -0.002174 0.000000 0.000000 0.000000
# 2 -0.004870 0.016695 -0.002380 0.000000 0.000000 0.000000
# 3 -0.002174 -0.002380 0.019253 0.000000 0.000000 0.000000
# 4 0.000000 0.000000 0.000000 0.080406 0.000000 0.000000
# 5 0.000000 0.000000 0.000000 0.000000 0.068274 0.000000
# 6 0.000000 0.000000 0.000000 0.000000 0.000000 0.027387
#
#
# Mechanical properties :
#
#
# Convention : Reuss Voigt Hill
#
# Bulk Modulus (GPa) = 30.67948 31.80767 31.24357
# Shear Modulus (GPa) = 19.43848 22.78184 21.11016
#
# Velocity S-wave (km/s) = 3.10630 3.36284 3.23712
# Velocity P-wave (km/s) = 5.30043 5.55584 5.42964
#
# Compressibility (1/GPa) = 0.03259508
#
# Stress axis : x y z
#
# Youngs Moduli (GPa) = 64.53862 59.89842 51.93995
#
# Poissons Ratio (x) = 0.29171 0.11290
# Poissons Ratio (y) = 0.31431 0.12361
# Poissons Ratio (z) = 0.14029 0.14255
#
# Static dielectric constant tensor:
#      x y z
#    x 3.607120 0.000000 0.000000 
#    y 0.000000 3.779670 0.000000 
#    z 0.000000 0.000000 3.766200 
# 
# 
# High freq. dielectric constant tensor:
#      x y z
#    x 1.784920 0.000000 0.000000 
#    y 0.000000 1.790030 0.000000 
#    z 0.000000 0.000000 1.770390 
# 
# From -- ./inp_files/19495.got.cif
#   From: 2010.03.12/outbox.cif.g09.slc.cpg/sg57_10_cif.got.tgz:19495.got - 2010.04.16 15:48:40.
