data_PCOD8233438
_publ_section_title
;
Structure prediction by ZEFSAII (Michael W. Deem and Ramdas Pophale) SiO2 
 PCOD8233438
Probable space group: P B C M
;
_chemical_formula_sum "Si O2"
_cell_formula_units_Z 36
_cell_length_a 7.999460
_cell_length_b 16.213104
_cell_length_c 13.474028
_cell_angle_alpha 90.000000
_cell_angle_beta 90.000000
_cell_angle_gamma 90.000000
_cell_volume 1747.528572
_symmetry_space_group_name_H-M "P B C M"
_symmetry_group_IT_number 57
_symmetry_cell_setting 'orthorhombic'
loop_
_space_group_symop_operation_xyz
x,y,z
-x,-y,1/2+z
x,1/2-y,-z
-x,1/2+y,1/2-z
-x,-y,-z
x,y,1/2-z
-x,1/2+y,z
x,1/2-y,1/2+z
loop_
_atom_site_type_symbol
_atom_site_label
_atom_site_fract_x
_atom_site_fract_y
_atom_site_fract_z
Si Si1 0.679915 0.966989 0.468949
Si Si2 0.652828 0.639507 0.358962
Si Si3 0.933871 0.250000 0.500000
Si Si4 0.203685 0.184638 0.864221
Si Si5 0.743474 0.375399 0.864034
O O1 0.751352 0.924401 0.569470
O O2 0.675727 0.893226 0.387631
O O3 0.500000 0.000000 0.500000
O O4 0.792151 0.040554 0.423571
O O5 0.719938 0.618156 0.250000
O O6 0.694434 0.732670 0.388512
O O7 0.454949 0.631502 0.365338
O O8 0.821911 0.298696 0.579001
O O9 0.041420 0.184958 0.564679
O O10 0.147299 0.180436 0.750000
O O11 0.809178 0.378264 0.750000
#
# Coordination Sequence:
#
# PCOD8233438 Si02
#       5
#     8   8   4   8   8
#     4  10  20  37  65  90 118 151 206 257 311 348
#     4   9  19  38  64  91 121 157 207 257 302 359
#     4  12  24  38  64  84 130 172 206 242 306 380
#     4  11  22  40  63  90 123 163 205 251 306 367
#     4  10  23  40  60  90 125 162 204 257 307 361
#
# _framework density 20.600522000000002
#
# number of rings (size 3 to 8) (size 9 to 14) (size 15 to 20)
#    0.000    1.778    2.222    1.333    6.222    1.778 
#    0.000    2.222    0.000    0.000    0.000    0.000 
#    0.000    0.000    0.000    0.000    0.000    0.000 
#
# Total GULP energy -446094.609691 kJ/mol
# GULP energy per Si atom -12391.516936 kJ/mol
# Density = 2.055363 g / cm^3
# Si number density = 20.600522 Si / 1000 Ang^3
#
#
#
# Elastic Constant Matrix: (Units=GPa)
#
#
# Indices 1 2 3 4 5 6 
#
# 1 30.5540 28.8405 37.8654 0.0000 0.0000 0.0000
# 2 28.8405 139.4966 78.5694 0.0000 0.0000 0.0000
# 3 37.8654 78.5694 164.7770 0.0000 0.0000 0.0000
# 4 0.0000 0.0000 0.0000 44.7423 0.0000 0.0000
# 5 0.0000 0.0000 0.0000 0.0000 24.0929 0.0000
# 6 0.0000 0.0000 0.0000 0.0000 0.0000 21.2301
#
#
#
# Elastic Compliance Matrix: (Units=1/GPa)
#
#
# Indices 1 2 3 4 5 6 
#
# 1 0.048280 -0.005103 -0.008661 0.000000 0.000000 0.000000
# 2 -0.005103 0.010340 -0.003758 0.000000 0.000000 0.000000
# 3 -0.008661 -0.003758 0.009851 0.000000 0.000000 0.000000
# 4 0.000000 0.000000 0.000000 0.022350 0.000000 0.000000
# 5 0.000000 0.000000 0.000000 0.000000 0.041506 0.000000
# 6 0.000000 0.000000 0.000000 0.000000 0.000000 0.047103
#
#
# Mechanical properties :
#
#
# Convention : Reuss Voigt Hill
#
# Bulk Modulus (GPa) = 29.91646 69.48644 49.70145
# Shear Modulus (GPa) = 22.16145 30.64988 26.40566
#
# Velocity S-wave (km/s) = 3.28345 3.86141 3.58410
# Velocity P-wave (km/s) = 5.37852 7.32696 6.42701
#
# Compressibility (1/GPa) = 0.03342642
#
# Stress axis : x y z
#
# Youngs Moduli (GPa) = 20.71253 96.70975 101.51379
#
# Poissons Ratio (x) = 0.49355 0.87923
# Poissons Ratio (y) = 0.10571 0.38146
# Poissons Ratio (z) = 0.17939 0.36341
#
# Static dielectric constant tensor:
#      x y z
#    x 3.366790 0.000000 0.000000 
#    y 0.000000 4.050670 0.000000 
#    z 0.000000 0.000000 4.353170 
# 
# 
# High freq. dielectric constant tensor:
#      x y z
#    x 1.770430 0.000000 0.000000 
#    y 0.000000 1.812610 0.000000 
#    z 0.000000 0.000000 1.832600 
# 
# From -- ./inp_files/15787.got.cif
#   From: 2010.03.12/outbox.cif.g09.slc.cpg/sg57_8_cif.got.tgz:15787.got - 2010.04.16 15:48:40.
