data_PCOD8233602
_publ_section_title
;
Structure prediction by ZEFSAII (Michael W. Deem and Ramdas Pophale) SiO2 
 PCOD8233602
Probable space group: P B C M
;
_chemical_formula_sum "Si O2"
_cell_formula_units_Z 40
_cell_length_a 13.803739
_cell_length_b 9.045607
_cell_length_c 16.193107
_cell_angle_alpha 90.000000
_cell_angle_beta 90.000000
_cell_angle_gamma 90.000000
_cell_volume 2021.923128
_symmetry_space_group_name_H-M "P B C M"
_symmetry_group_IT_number 57
_symmetry_cell_setting 'orthorhombic'
loop_
_space_group_symop_operation_xyz
x,y,z
-x,-y,1/2+z
x,1/2-y,-z
-x,1/2+y,1/2-z
-x,-y,-z
x,y,1/2-z
-x,1/2+y,z
x,1/2-y,1/2+z
loop_
_atom_site_type_symbol
_atom_site_label
_atom_site_fract_x
_atom_site_fract_y
_atom_site_fract_z
Si Si1 0.712525 0.452722 0.569448
Si Si2 0.229555 0.654422 0.658004
Si Si3 0.097942 0.582272 0.519997
Si Si4 0.602334 0.509078 0.404377
Si Si5 0.583663 0.667733 0.846347
O O1 0.722183 0.288663 0.606656
O O2 0.818202 0.495049 0.534442
O O3 0.632337 0.458343 0.496670
O O4 0.681155 0.570881 0.638877
O O5 0.201098 0.704468 0.750000
O O6 0.133651 0.584212 0.615442
O O7 0.312308 0.529822 0.660078
O O8 0.078098 0.750000 0.500000
O O9 0.000000 0.500000 0.500000
O O10 0.505563 0.428486 0.377204
O O11 0.586379 0.684436 0.400535
O O12 0.573743 0.706240 0.750000
#
# Coordination Sequence:
#
# PCOD8233602 Si02
#       5
#     8   8   8   8   8
#     4  10  22  39  60  82 111 153 198 241 292 353
#     4  10  20  39  61  85 114 149 193 244 290 340
#     4   9  20  38  60  84 113 149 186 229 288 351
#     4  11  23  38  55  81 116 156 197 239 295 358
#     4  12  23  36  55  84 118 155 197 249 299 352
#
# _framework density 19.783145999999999
#
# number of rings (size 3 to 8) (size 9 to 14) (size 15 to 20)
#    0.000    1.600    0.000    6.600    0.000    4.800 
#    0.000    5.000    0.000    0.000    0.000    0.000 
#    0.000    0.000    0.000    0.000    0.000    0.000 
#
# Total GULP energy -495845.729567 kJ/mol
# GULP energy per Si atom -12396.143239 kJ/mol
# Density = 1.973812 g / cm^3
# Si number density = 19.783146 Si / 1000 Ang^3
#
#
#
# Elastic Constant Matrix: (Units=GPa)
#
#
# Indices 1 2 3 4 5 6 
#
# 1 123.9236 58.6195 60.0713 0.0000 0.0000 0.0000
# 2 58.6195 101.2947 38.3538 0.0000 0.0000 0.0000
# 3 60.0713 38.3538 118.2878 0.0000 0.0000 0.0000
# 4 0.0000 0.0000 0.0000 29.5210 0.0000 0.0000
# 5 0.0000 0.0000 0.0000 0.0000 -29.9969 0.0000
# 6 0.0000 0.0000 0.0000 0.0000 0.0000 27.5740
#
#
#
# Elastic Compliance Matrix: (Units=1/GPa)
#
#
# Indices 1 2 3 4 5 6 
#
# 1 0.013128 -0.005783 -0.004792 0.000000 0.000000 0.000000
# 2 -0.005783 0.013801 -0.001538 0.000000 0.000000 0.000000
# 3 -0.004792 -0.001538 0.011386 0.000000 0.000000 0.000000
# 4 0.000000 0.000000 0.000000 0.033874 0.000000 0.000000
# 5 0.000000 0.000000 0.000000 0.000000 -0.033337 0.000000
# 6 0.000000 0.000000 0.000000 0.000000 0.000000 0.036266
#
#
# Mechanical properties :
#
#
# Convention : Reuss Voigt Hill
#
# Bulk Modulus (GPa) = 70.97443 73.06615 72.02029
# Shear Modulus (GPa) = 48.05842 17.85039 32.95441
#
# Velocity S-wave (km/s) = 4.93410 3.00709 4.08583
# Velocity P-wave (km/s) = 8.27131 7.00504 7.66437
#
# Compressibility (1/GPa) = 0.01408958
#
# Stress axis : x y z
#
# Youngs Moduli (GPa) = 76.17522 72.45826 87.82600
#
# Poissons Ratio (x) = 0.41900 0.42084
# Poissons Ratio (y) = 0.44050 0.13509
# Poissons Ratio (z) = 0.36501 0.11146
#
# Static dielectric constant tensor:
#      x y z
#    x 3.693100 0.000000 0.000000 
#    y 0.000000 3.999120 0.000000 
#    z 0.000000 0.000000 3.718670 
# 
# 
# High freq. dielectric constant tensor:
#      x y z
#    x 1.762730 0.000000 0.000000 
#    y 0.000000 1.772620 0.000000 
#    z 0.000000 0.000000 1.774630 
# 
# From -- ./inp_files/18208.got.cif
#   From: 2010.03.12/outbox.cif.g09.slc.cpg/sg57_10_cif.got.tgz:18208.got - 2010.04.16 15:48:40.
