data_PCOD8233164
_publ_section_title
;
Structure prediction by ZEFSAII (Michael W. Deem and Ramdas Pophale) SiO2 
 PCOD8233164
Probable space group: P B C M
;
_chemical_formula_sum "Si O2"
_cell_formula_units_Z 48
_cell_length_a 15.055370
_cell_length_b 18.308906
_cell_length_c 8.930907
_cell_angle_alpha 90.000000
_cell_angle_beta 90.000000
_cell_angle_gamma 90.000000
_cell_volume 2461.780884
_symmetry_space_group_name_H-M "P B C M"
_symmetry_group_IT_number 57
_symmetry_cell_setting 'orthorhombic'
loop_
_space_group_symop_operation_xyz
x,y,z
-x,-y,1/2+z
x,1/2-y,-z
-x,1/2+y,1/2-z
-x,-y,-z
x,y,1/2-z
-x,1/2+y,z
x,1/2-y,1/2+z
loop_
_atom_site_type_symbol
_atom_site_label
_atom_site_fract_x
_atom_site_fract_y
_atom_site_fract_z
Si Si1 0.418263 0.906360 0.424736
Si Si2 0.902084 0.426469 0.923835
Si Si3 0.402084 0.426469 0.923835
Si Si4 0.238857 0.325551 0.574066
Si Si5 0.081738 0.406360 0.075264
Si Si6 0.261143 0.825551 0.925934
O O1 0.411894 0.889439 0.250000
O O2 0.518530 0.892527 0.478949
O O3 0.355603 0.850487 0.511167
O O4 0.388460 0.988661 0.463822
O O5 0.926347 0.416519 0.750000
O O6 0.888460 0.511339 0.963822
O O7 0.812235 0.385594 0.968717
O O8 0.981470 0.392527 0.021051
O O9 0.426347 0.416519 0.750000
O O10 0.312235 0.385594 0.968717
O O11 0.268392 0.250000 0.500000
O O12 0.230634 0.314553 0.750000
O O13 0.144397 0.350487 0.511167
O O14 0.088106 0.389439 0.250000
O O15 0.269366 0.814553 0.750000
O O16 0.231608 0.750000 0.000000
#
# Coordination Sequence:
#
# PCOD8233164 Si02
#       6
#     8   8   8   8   8   8
#     4  10  20  36  60  86 111 143 184 230 279 329
#     4   9  20  38  59  83 111 146 187 230 275 325
#     4   9  20  38  59  83 111 146 187 230 275 325
#     4  11  23  38  56  80 113 149 185 227 275 330
#     4  10  20  36  60  86 111 143 184 230 279 329
#     4  11  23  38  56  80 113 149 185 227 275 330
#
# _framework density 19.498079000000001
#
# number of rings (size 3 to 8) (size 9 to 14) (size 15 to 20)
#    0.000    2.000    0.000    3.000    0.000    5.333 
#    0.000    3.333    0.000    0.000    0.000    0.000 
#    0.000    0.000    0.000    0.000    0.000    0.000 
#
# Total GULP energy -595511.309529 kJ/mol
# GULP energy per Si atom -12406.485615 kJ/mol
# Density = 1.945370 g / cm^3
# Si number density = 19.498079 Si / 1000 Ang^3
#
#
#
# Elastic Constant Matrix: (Units=GPa)
#
#
# Indices 1 2 3 4 5 6 
#
# 1 80.0707 22.3458 42.0648 0.0000 0.0000 0.0000
# 2 22.3458 54.4001 29.0194 0.0000 0.0000 0.0000
# 3 42.0648 29.0194 83.0367 0.0000 0.0000 0.0000
# 4 0.0000 0.0000 0.0000 33.7598 0.0000 0.0000
# 5 0.0000 0.0000 0.0000 0.0000 35.7142 0.0000
# 6 0.0000 0.0000 0.0000 0.0000 0.0000 17.1535
#
#
#
# Elastic Compliance Matrix: (Units=1/GPa)
#
#
# Indices 1 2 3 4 5 6 
#
# 1 0.017409 -0.003007 -0.007768 0.000000 0.000000 0.000000
# 2 -0.003007 0.023114 -0.006554 0.000000 0.000000 0.000000
# 3 -0.007768 -0.006554 0.018269 0.000000 0.000000 0.000000
# 4 0.000000 0.000000 0.000000 0.029621 0.000000 0.000000
# 5 0.000000 0.000000 0.000000 0.000000 0.028000 0.000000
# 6 0.000000 0.000000 0.000000 0.000000 0.000000 0.058297
#
#
# Mechanical properties :
#
#
# Convention : Reuss Voigt Hill
#
# Bulk Modulus (GPa) = 41.43841 44.92974 43.18408
# Shear Modulus (GPa) = 22.99759 25.59732 24.29745
#
# Velocity S-wave (km/s) = 3.43808 3.62721 3.53391
# Velocity P-wave (km/s) = 6.08763 6.37459 6.23276
#
# Compressibility (1/GPa) = 0.02413220
#
# Stress axis : x y z
#
# Youngs Moduli (GPa) = 57.44086 43.26382 54.73838
#
# Poissons Ratio (x) = 0.13010 0.42522
# Poissons Ratio (y) = 0.17274 0.35878
# Poissons Ratio (z) = 0.44621 0.28357
#
# Static dielectric constant tensor:
#      x y z
#    x 3.503090 0.000000 0.000000 
#    y 0.000000 3.574330 0.000000 
#    z 0.000000 0.000000 3.560690 
# 
# 
# High freq. dielectric constant tensor:
#      x y z
#    x 1.764550 0.000000 0.000000 
#    y 0.000000 1.755410 0.000000 
#    z 0.000000 0.000000 1.767330 
# 
# From -- ./inp_files/4552.got.cif
#   From: 2010.03.12/outbox.cif.g09.slc.cpg/sg57_3_cif.got.tgz:4552.got - 2010.04.16 15:48:40.
