data_PCOD8233349
_publ_section_title
;
Structure prediction by ZEFSAII (Michael W. Deem and Ramdas Pophale) SiO2 
 PCOD8233349
Probable space group: P B C M
;
_chemical_formula_sum "Si O2"
_cell_formula_units_Z 48
_cell_length_a 28.322725
_cell_length_b 8.810156
_cell_length_c 9.940157
_cell_angle_alpha 90.000000
_cell_angle_beta 90.000000
_cell_angle_gamma 90.000000
_cell_volume 2480.343774
_symmetry_space_group_name_H-M "P B C M"
_symmetry_group_IT_number 57
_symmetry_cell_setting 'orthorhombic'
loop_
_space_group_symop_operation_xyz
x,y,z
-x,-y,1/2+z
x,1/2-y,-z
-x,1/2+y,1/2-z
-x,-y,-z
x,y,1/2-z
-x,1/2+y,z
x,1/2-y,1/2+z
loop_
_atom_site_type_symbol
_atom_site_label
_atom_site_fract_x
_atom_site_fract_y
_atom_site_fract_z
Si Si1 0.236069 0.067978 0.990190
Si Si2 0.718346 0.431453 0.250000
Si Si3 0.550786 0.573230 0.002465
Si Si4 0.708758 0.426895 0.750000
Si Si5 0.389872 0.435980 0.250000
Si Si6 0.615219 0.921475 0.750000
Si Si7 0.034510 0.099671 0.589475
Si Si8 0.862103 0.609050 0.596987
O O1 0.182929 0.010266 0.951826
O O2 0.271972 0.011351 0.879511
O O3 0.237953 0.250000 0.000000
O O4 0.251835 0.991302 0.126142
O O5 0.719798 0.250475 0.250000
O O6 0.665085 0.493134 0.250000
O O7 0.583733 0.525121 0.125666
O O8 0.541675 0.750000 0.000000
O O9 0.500000 0.500000 0.000000
O O10 0.578836 0.516994 0.874756
O O11 0.653280 0.449758 0.750000
O O12 0.374355 0.259048 0.250000
O O13 0.036349 0.250000 0.500000
O O14 0.019203 0.122355 0.750000
O O15 0.087128 0.023498 0.589579
O O16 0.000000 0.000000 0.500000
O O17 0.865428 0.750000 0.500000
O O18 0.852865 0.664306 0.750000
#
# Coordination Sequence:
#
# PCOD8233349 Si02
#       8
#     8   4   8   4   4   4   8   8
#     4  11  22  40  64  88 115 160 208 248 300 368
#     4  12  26  39  59  92 124 159 196 254 316 360
#     4  10  21  36  57  83 112 145 189 240 291 348
#     4  12  24  41  61  88 126 153 196 256 310 360
#     4  10  21  37  59  82 108 155 197 238 285 352
#     4  10  21  39  57  82 114 151 201 238 283 360
#     4  10  20  37  60  90 124 163 209 263 316 376
#     4   9  19  35  61  90 118 154 210 262 300 359
#
# _framework density 19.352156000000001
#
# number of rings (size 3 to 8) (size 9 to 14) (size 15 to 20)
#    0.000    1.667    0.833    4.000    3.500    3.333 
#    0.000    1.667    0.000    0.000    0.000    0.000 
#    0.000    0.000    0.000    0.000    0.000    0.000 
#
# Total GULP energy -594725.710322 kJ/mol
# GULP energy per Si atom -12390.118965 kJ/mol
# Density = 1.930811 g / cm^3
# Si number density = 19.352156 Si / 1000 Ang^3
#
#
#
# Elastic Constant Matrix: (Units=GPa)
#
#
# Indices 1 2 3 4 5 6 
#
# 1 177.6579 53.8246 91.8069 0.0000 0.0000 0.0000
# 2 53.8246 76.5687 44.8479 0.0000 0.0000 0.0000
# 3 91.8069 44.8479 195.7518 0.0000 0.0000 0.0000
# 4 0.0000 0.0000 0.0000 29.0337 0.0000 0.0000
# 5 0.0000 0.0000 0.0000 0.0000 61.2520 0.0000
# 6 0.0000 0.0000 0.0000 0.0000 0.0000 25.0789
#
#
#
# Elastic Compliance Matrix: (Units=1/GPa)
#
#
# Indices 1 2 3 4 5 6 
#
# 1 0.008447 -0.004178 -0.003004 0.000000 0.000000 0.000000
# 2 -0.004178 0.017151 -0.001970 0.000000 0.000000 0.000000
# 3 -0.003004 -0.001970 0.006969 0.000000 0.000000 0.000000
# 4 0.000000 0.000000 0.000000 0.034443 0.000000 0.000000
# 5 0.000000 0.000000 0.000000 0.000000 0.016326 0.000000
# 6 0.000000 0.000000 0.000000 0.000000 0.000000 0.039874
#
#
# Mechanical properties :
#
#
# Convention : Reuss Voigt Hill
#
# Bulk Modulus (GPa) = 70.11588 92.32634 81.22111
# Shear Modulus (GPa) = 34.18351 40.37286 37.27819
#
# Velocity S-wave (km/s) = 4.20741 4.57247 4.39373
# Velocity P-wave (km/s) = 7.74037 8.69993 8.23414
#
# Compressibility (1/GPa) = 0.01426210
#
# Stress axis : x y z
#
# Youngs Moduli (GPa) = 118.38122 58.30531 143.49485
#
# Poissons Ratio (x) = 0.24362 0.43113
# Poissons Ratio (y) = 0.49463 0.28266
# Poissons Ratio (z) = 0.35567 0.11485
#
# Static dielectric constant tensor:
#      x y z
#    x 4.166610 0.000000 0.000000 
#    y 0.000000 3.341490 0.000000 
#    z 0.000000 0.000000 3.892730 
# 
# 
# High freq. dielectric constant tensor:
#      x y z
#    x 1.777580 0.000000 0.000000 
#    y 0.000000 1.718740 0.000000 
#    z 0.000000 0.000000 1.781660 
# 
# From -- ./inp_files/10228.got.cif
#   From: 2010.03.12/outbox.cif.g09.slc.cpg/sg57_6_cif.got.tgz:10228.got - 2010.04.16 15:48:40.
