data_PCOD8233892
_publ_section_title
;
Structure prediction by ZEFSAII (Michael W. Deem and Ramdas Pophale) SiO2 
 PCOD8233892
Probable space group: P B C M
;
_chemical_formula_sum "Si O2"
_cell_formula_units_Z 40
_cell_length_a 25.366806
_cell_length_b 9.550463
_cell_length_c 8.514026
_cell_angle_alpha 90.000000
_cell_angle_beta 90.000000
_cell_angle_gamma 90.000000
_cell_volume 2062.648313
_symmetry_space_group_name_H-M "P B C M"
_symmetry_group_IT_number 57
_symmetry_cell_setting 'orthorhombic'
loop_
_space_group_symop_operation_xyz
x,y,z
-x,-y,1/2+z
x,1/2-y,-z
-x,1/2+y,1/2-z
-x,-y,-z
x,y,1/2-z
-x,1/2+y,z
x,1/2-y,1/2+z
loop_
_atom_site_type_symbol
_atom_site_label
_atom_site_fract_x
_atom_site_fract_y
_atom_site_fract_z
Si Si1 0.545751 0.904603 0.934797
Si Si2 0.249682 0.602742 0.065110
Si Si3 0.863496 0.096788 0.935305
Si Si4 0.047062 0.406525 0.064466
Si Si5 0.655176 0.598330 0.934178
O O1 0.542450 0.901078 0.750000
O O2 0.538085 0.750000 0.000000
O O3 0.602501 0.965399 0.987456
O O4 0.500000 0.000000 0.000000
O O5 0.238244 0.611913 0.250000
O O6 0.294926 0.494426 0.021317
O O7 0.269947 0.750000 0.000000
O O8 0.196443 0.558209 0.977011
O O9 0.872239 0.096433 0.750000
O O10 0.879098 0.250000 0.000000
O O11 0.898312 0.976417 0.013191
O O12 0.043341 0.400143 0.250000
O O13 0.042960 0.250000 0.000000
O O14 0.000000 0.500000 0.000000
O O15 0.645183 0.606437 0.750000
O O16 0.668010 0.750000 0.000000
#
# Coordination Sequence:
#
# PCOD8233892 Si02
#       5
#     8   8   8   8   8
#     4  11  22  38  59  83 113 148 189 235 287 342
#     4  10  21  37  58  85 116 151 192 238 285 339
#     4  11  22  39  62  88 119 156 195 239 289 341
#     4  12  25  43  64  90 121 155 196 240 289 343
#     4  10  21  37  57  82 113 148 189 234 285 341
#
# _framework density 19.392544999999998
#
# number of rings (size 3 to 8) (size 9 to 14) (size 15 to 20)
#    0.000    1.200    0.000    9.600    0.000    4.800 
#    0.000    4.000    0.000    0.000    0.000    0.000 
#    0.000    0.000    0.000    0.000    0.000    0.000 
#
# Total GULP energy -496160.466662 kJ/mol
# GULP energy per Si atom -12404.011667 kJ/mol
# Density = 1.934841 g / cm^3
# Si number density = 19.392545 Si / 1000 Ang^3
#
#
#
# Elastic Constant Matrix: (Units=GPa)
#
#
# Indices 1 2 3 4 5 6 
#
# 1 130.3148 94.4215 66.8509 0.0000 0.0000 0.0000
# 2 94.4215 130.6917 66.7162 0.0000 0.0000 0.0000
# 3 66.8509 66.7162 172.6778 0.0000 0.0000 0.0000
# 4 0.0000 0.0000 0.0000 37.1937 0.0000 0.0000
# 5 0.0000 0.0000 0.0000 0.0000 38.5719 0.0000
# 6 0.0000 0.0000 0.0000 0.0000 0.0000**********
#
#
#
# Elastic Compliance Matrix: (Units=1/GPa)
#
#
# Indices 1 2 3 4 5 6 
#
# 1 0.016782 -0.010972 -0.002258 0.000000 0.000000 0.000000
# 2 -0.010972 0.016705 -0.002206 0.000000 0.000000 0.000000
# 3 -0.002258 -0.002206 0.007518 0.000000 0.000000 0.000000
# 4 0.000000 0.000000 0.000000 0.026886 0.000000 0.000000
# 5 0.000000 0.000000 0.000000 0.000000 0.025926 0.000000
# 6 0.000000 0.000000 0.000000 0.000000 0.000000 -0.000015
#
#
# Mechanical properties :
#
#
# Convention : Reuss Voigt Hill
#
# Bulk Modulus (GPa) = 98.69627 98.85129 98.77378
# Shear Modulus (GPa) = 39.04683 -13761.97516 -6861.46416
#
# Velocity S-wave (km/s) = 4.49207 -84.33229 -59.54727
# Velocity P-wave (km/s) = 8.82663 97.11588 68.38708
#
# Compressibility (1/GPa) = 0.01013210
#
# Stress axis : x y z
#
# Youngs Moduli (GPa) = 59.58837 59.86288 133.01886
#
# Poissons Ratio (x) = 0.65681 0.30034
# Poissons Ratio (y) = 0.65379 0.29350
# Poissons Ratio (z) = 0.13454 0.13209
#
# Static dielectric constant tensor:
#      x y z
#    x 3.764020 0.000000 0.000000 
#    y 0.000000 3.911410 0.000000 
#    z 0.000000 0.000000 3.722830 
# 
# 
# High freq. dielectric constant tensor:
#      x y z
#    x 1.770220 0.000000 0.000000 
#    y 0.000000 1.754710 0.000000 
#    z 0.000000 0.000000 1.780290 
# 
# From -- ./inp_files/9644.got.cif
#   From: 2010.03.12/outbox.cif.g09.slc.cpg/sg57_5_cif.got.tgz:9644.got - 2010.04.16 15:48:40.
