data_PCOD8233169
_publ_section_title
;
Structure prediction by ZEFSAII (Michael W. Deem and Ramdas Pophale) SiO2 
 PCOD8233169
Probable space group: P B C M
;
_chemical_formula_sum "Si O2"
_cell_formula_units_Z 40
_cell_length_a 9.762904
_cell_length_b 13.232184
_cell_length_c 15.465529
_cell_angle_alpha 90.000000
_cell_angle_beta 90.000000
_cell_angle_gamma 90.000000
_cell_volume 1997.907282
_symmetry_space_group_name_H-M "P B C M"
_symmetry_group_IT_number 57
_symmetry_cell_setting 'orthorhombic'
loop_
_space_group_symop_operation_xyz
x,y,z
-x,-y,1/2+z
x,1/2-y,-z
-x,1/2+y,1/2-z
-x,-y,-z
x,y,1/2-z
-x,1/2+y,z
x,1/2-y,1/2+z
loop_
_atom_site_type_symbol
_atom_site_label
_atom_site_fract_x
_atom_site_fract_y
_atom_site_fract_z
Si Si1 0.341690 0.831054 0.347836
Si Si2 0.075167 0.643761 0.951096
Si Si3 0.553187 0.631242 0.510187
Si Si4 0.393071 0.596641 0.155671
Si Si5 0.816648 0.971181 0.427618
O O1 0.365487 0.868265 0.250000
O O2 0.189886 0.858766 0.377765
O O3 0.456746 0.886794 0.405824
O O4 0.346700 0.711076 0.356383
O O5 0.933568 0.610667 0.903407
O O6 0.058464 0.750000 0.000000
O O7 0.113908 0.562661 0.022544
O O8 0.565849 0.750000 0.500000
O O9 0.489749 0.573193 0.426661
O O10 0.704445 0.587732 0.516284
O O11 0.465009 0.583155 0.250000
O O12 0.261612 0.521524 0.154058
#
# Coordination Sequence:
#
# PCOD8233169 Si02
#       5
#     8   8   8   8   8
#     4  10  20  37  61  83 115 158 196 237 293 349
#     4  11  21  39  59  84 116 155 195 242 293 350
#     4  10  20  39  58  88 120 154 193 243 291 348
#     4  10  20  36  60  87 117 153 195 242 289 347
#     4  11  22  35  61  88 114 152 199 240 294 346
#
# _framework density 20.020949999999999
#
# number of rings (size 3 to 8) (size 9 to 14) (size 15 to 20)
#    0.000    1.600    4.000    1.800    0.000    1.600 
#    0.000    0.000    0.000    4.800    0.000    0.000 
#    0.000    0.000    0.000    0.000    0.000    0.000 
#
# Total GULP energy -495713.029718 kJ/mol
# GULP energy per Si atom -12392.825743 kJ/mol
# Density = 1.997538 g / cm^3
# Si number density = 20.020950 Si / 1000 Ang^3
#
#
#
# Elastic Constant Matrix: (Units=GPa)
#
#
# Indices 1 2 3 4 5 6 
#
# 1 123.2119 41.7693 32.6628 0.0000 0.0000 0.0000
# 2 41.7693 72.1043 28.4369 0.0000 0.0000 0.0000
# 3 32.6628 28.4369 105.5491 0.0000 0.0000 0.0000
# 4 0.0000 0.0000 0.0000 0.1785 0.0000 0.0000
# 5 0.0000 0.0000 0.0000 0.0000 4.6736 0.0000
# 6 0.0000 0.0000 0.0000 0.0000 0.0000 -30.0126
#
#
#
# Elastic Compliance Matrix: (Units=1/GPa)
#
#
# Indices 1 2 3 4 5 6 
#
# 1 0.010391 -0.005316 -0.001783 0.000000 0.000000 0.000000
# 2 -0.005316 0.018237 -0.003268 0.000000 0.000000 0.000000
# 3 -0.001783 -0.003268 0.010907 0.000000 0.000000 0.000000
# 4 0.000000 0.000000 0.000000 5.601612 0.000000 0.000000
# 5 0.000000 0.000000 0.000000 0.000000 0.213968 0.000000
# 6 0.000000 0.000000 0.000000 0.000000 0.000000 -0.033319
#
#
# Mechanical properties :
#
#
# Convention : Reuss Voigt Hill
#
# Bulk Modulus (GPa) = 53.19296 56.28926 54.74111
# Shear Modulus (GPa) = 0.85488 8.16766 4.51127
#
# Velocity S-wave (km/s) = 0.65415 2.02198 1.50272
# Velocity P-wave (km/s) = 5.21506 5.79892 5.51472
#
# Compressibility (1/GPa) = 0.01879948
#
# Stress axis : x y z
#
# Youngs Moduli (GPa) = 96.23689 54.83245 91.68684
#
# Poissons Ratio (x) = 0.29150 0.16351
# Poissons Ratio (y) = 0.51161 0.29967
# Poissons Ratio (z) = 0.17162 0.17921
#
# Static dielectric constant tensor:
#      x y z
#    x 3.817440 0.000000 0.000000 
#    y 0.000000 3.943510 0.000000 
#    z 0.000000 0.000000 3.621210 
# 
# 
# High freq. dielectric constant tensor:
#      x y z
#    x 1.776180 0.000000 0.000000 
#    y 0.000000 1.807950 0.000000 
#    z 0.000000 0.000000 1.761060 
# 
# From -- ./inp_files/15893.got.cif
#   From: 2010.03.12/outbox.cif.g09.slc.cpg/sg57_8_cif.got.tgz:15893.got - 2010.04.16 15:48:40.
