data_PCOD8233161
_publ_section_title
;
Structure prediction by ZEFSAII (Michael W. Deem and Ramdas Pophale) SiO2 
 PCOD8233161
Probable space group: P B C M
;
_chemical_formula_sum "Si O2"
_cell_formula_units_Z 64
_cell_length_a 9.129517
_cell_length_b 12.411095
_cell_length_c 27.179754
_cell_angle_alpha 90.000000
_cell_angle_beta 90.000000
_cell_angle_gamma 90.000000
_cell_volume 3079.664616
_symmetry_space_group_name_H-M "P B C M"
_symmetry_group_IT_number 57
_symmetry_cell_setting 'orthorhombic'
loop_
_space_group_symop_operation_xyz
x,y,z
-x,-y,1/2+z
x,1/2-y,-z
-x,1/2+y,1/2-z
-x,-y,-z
x,y,1/2-z
-x,1/2+y,z
x,1/2-y,1/2+z
loop_
_atom_site_type_symbol
_atom_site_label
_atom_site_fract_x
_atom_site_fract_y
_atom_site_fract_z
Si Si1 0.119542 0.292498 0.196109
Si Si2 0.609925 0.097366 0.645710
Si Si3 0.615692 0.134020 0.478107
Si Si4 0.745347 0.172167 0.122387
Si Si5 0.889510 0.450057 0.195537
Si Si6 0.678088 0.540622 0.446839
Si Si7 0.329754 0.484428 0.305909
Si Si8 0.924404 0.872847 0.880518
O O1 0.154072 0.241513 0.250000
O O2 0.186846 0.411164 0.191446
O O3 0.169332 0.209382 0.154067
O O4 0.947664 0.325779 0.191260
O O5 0.661463 0.214547 0.627873
O O6 0.715751 0.054792 0.688564
O O7 0.609245 0.013944 0.600957
O O8 0.448742 0.092561 0.668024
O O9 0.648321 0.250000 0.500000
O O10 0.681411 0.113526 0.424914
O O11 0.705033 0.051637 0.512898
O O12 0.439595 0.119386 0.472969
O O13 0.918853 0.182874 0.109877
O O14 0.705232 0.098468 0.169011
O O15 0.924578 0.497760 0.250000
O O16 0.957634 0.521180 0.151585
O O17 0.829327 0.602014 0.430062
O O18 0.375847 0.510340 0.250000
#
# Coordination Sequence:
#
# PCOD8233161 Si02
#       8
#     8   8   8   8   8   8   8   8
#     4  10  21  37  59  89 129 175 215 258 316 385
#     4  11  22  40  65  96 124 170 215 268 326 384
#     4  11  23  45  72  98 127 166 212 267 335 398
#     4  12  24  41  68  93 129 173 212 272 327 386
#     4  10  20  36  59  90 128 171 216 261 311 381
#     4  10  24  43  69  97 126 164 216 269 329 389
#     4  11  25  41  60  96 136 171 217 268 317 380
#     4  11  23  40  63  94 129 169 219 265 322 386
#
# _framework density 20.781485
#
# number of rings (size 3 to 8) (size 9 to 14) (size 15 to 20)
#    0.000    1.250    5.000    0.750    1.750    2.000 
#    0.000    3.125    0.000    0.000    0.000    0.000 
#    0.000    0.000    0.000    0.000    0.000    0.000 
#
# Total GULP energy -793128.878813 kJ/mol
# GULP energy per Si atom -12392.638731 kJ/mol
# Density = 2.073419 g / cm^3
# Si number density = 20.781485 Si / 1000 Ang^3
#
#
#
# Elastic Constant Matrix: (Units=GPa)
#
#
# Indices 1 2 3 4 5 6 
#
# 1 70.8152 13.9466 16.5600 0.0000 0.0000 0.0000
# 2 13.9466 70.8292 17.4837 0.0000 0.0000 0.0000
# 3 16.5600 17.4837 79.8881 0.0000 0.0000 0.0000
# 4 0.0000 0.0000 0.0000 33.8270 0.0000 0.0000
# 5 0.0000 0.0000 0.0000 0.0000 29.6480 0.0000
# 6 0.0000 0.0000 0.0000 0.0000 0.0000 27.5729
#
#
#
# Elastic Compliance Matrix: (Units=1/GPa)
#
#
# Indices 1 2 3 4 5 6 
#
# 1 0.015199 -0.002342 -0.002638 0.000000 0.000000 0.000000
# 2 -0.002342 0.015285 -0.002860 0.000000 0.000000 0.000000
# 3 -0.002638 -0.002860 0.013690 0.000000 0.000000 0.000000
# 4 0.000000 0.000000 0.000000 0.029562 0.000000 0.000000
# 5 0.000000 0.000000 0.000000 0.000000 0.033729 0.000000
# 6 0.000000 0.000000 0.000000 0.000000 0.000000 0.036267
#
#
# Mechanical properties :
#
#
# Convention : Reuss Voigt Hill
#
# Bulk Modulus (GPa) = 35.09295 35.27923 35.18609
# Shear Modulus (GPa) = 29.60124 29.77906 29.69015
#
# Velocity S-wave (km/s) = 3.77822 3.78955 3.78389
# Velocity P-wave (km/s) = 5.99638 6.01338 6.00489
#
# Compressibility (1/GPa) = 0.02849575
#
# Stress axis : x y z
#
# Youngs Moduli (GPa) = 65.79219 65.42159 73.04451
#
# Poissons Ratio (x) = 0.15319 0.19271
# Poissons Ratio (y) = 0.15406 0.20890
# Poissons Ratio (z) = 0.17357 0.18710
#
# Static dielectric constant tensor:
#      x y z
#    x 3.694190 0.000000 0.000000 
#    y 0.000000 3.595130 0.000000 
#    z 0.000000 0.000000 3.824050 
# 
# 
# High freq. dielectric constant tensor:
#      x y z
#    x 1.808260 0.000000 0.000000 
#    y 0.000000 1.810000 0.000000 
#    z 0.000000 0.000000 1.815480 
# 
# From -- ./inp_files/29610.got.cif
#   From: 2010.03.12/outbox.cif.g09.slc.cpg/sg57_15_cif.got.tgz:29610.got - 2010.04.16 15:48:40.
