data_PCOD8233805
_publ_section_title
;
Structure prediction by ZEFSAII (Michael W. Deem and Ramdas Pophale) SiO2 
 PCOD8233805
Probable space group: P B C M
;
_chemical_formula_sum "Si O2"
_cell_formula_units_Z 64
_cell_length_a 20.310373
_cell_length_b 9.371807
_cell_length_c 17.243356
_cell_angle_alpha 90.000000
_cell_angle_beta 90.000000
_cell_angle_gamma 90.000000
_cell_volume 3282.184802
_symmetry_space_group_name_H-M "P B C M"
_symmetry_group_IT_number 57
_symmetry_cell_setting 'orthorhombic'
loop_
_space_group_symop_operation_xyz
x,y,z
-x,-y,1/2+z
x,1/2-y,-z
-x,1/2+y,1/2-z
-x,-y,-z
x,y,1/2-z
-x,1/2+y,z
x,1/2-y,1/2+z
loop_
_atom_site_type_symbol
_atom_site_label
_atom_site_fract_x
_atom_site_fract_y
_atom_site_fract_z
Si Si1 0.300009 0.665031 0.573456
Si Si2 0.827023 0.119959 0.659591
Si Si3 0.674133 0.660905 0.075314
Si Si4 0.069303 0.373948 0.342161
Si Si5 0.946128 0.305534 0.842769
Si Si6 0.546709 0.913625 0.839866
Si Si7 0.554116 0.287245 0.411650
Si Si8 0.193812 0.301061 0.658296
O O1 0.272700 0.750000 0.500000
O O2 0.245024 0.680332 0.639348
O O3 0.311754 0.501073 0.550136
O O4 0.367956 0.735542 0.603118
O O5 0.835654 0.131166 0.750000
O O6 0.884841 0.215515 0.622320
O O7 0.833955 0.955946 0.632851
O O8 0.613500 0.667434 0.135278
O O9 0.737725 0.732191 0.115538
O O10 0.654146 0.750000 0.000000
O O11 0.065948 0.375576 0.250000
O O12 0.058331 0.533113 0.375229
O O13 0.140584 0.315993 0.368950
O O14 0.012700 0.268471 0.373974
O O15 0.945331 0.307735 0.750000
O O16 0.552502 0.957273 0.750000
O O17 0.484148 0.812765 0.851930
O O18 0.534704 0.050748 0.893494
O O19 0.534688 0.250000 0.500000
O O20 0.206642 0.296819 0.750000
#
# Coordination Sequence:
#
# PCOD8233805 Si02
#       8
#     8   8   8   8   8   8   8   8
#     4   9  20  36  54  75 101 136 175 212 256 313
#     4   9  17  30  50  73  99 130 168 212 260 310
#     4  10  21  36  55  76 104 141 177 216 265 324
#     4   9  16  26  43  68 101 134 168 210 258 311
#     4   9  16  26  42  69 100 133 168 207 257 312
#     4  11  22  37  58  85 113 143 183 231 275 321
#     4  10  21  38  58  81 111 148 185 223 272 332
#     4   9  17  31  50  73  99 131 170 215 261 309
#
# _framework density 19.499206999999998
#
# number of rings (size 3 to 8) (size 9 to 14) (size 15 to 20)
#    0.000    2.500    0.000    2.250    0.000    9.500 
#    0.000    0.000    0.000    4.500    0.000    5.250 
#    0.000    0.000    0.000    0.000    0.000    0.000 
#
# Total GULP energy -793572.231632 kJ/mol
# GULP energy per Si atom -12399.566119 kJ/mol
# Density = 1.945483 g / cm^3
# Si number density = 19.499207 Si / 1000 Ang^3
#
#
#
# Elastic Constant Matrix: (Units=GPa)
#
#
# Indices 1 2 3 4 5 6 
#
# 1 109.8483 57.6228 33.0270 0.0000 0.0000 0.0000
# 2 57.6228 95.0765 30.3472 0.0000 0.0000 0.0000
# 3 33.0270 30.3472 47.2926 0.0000 0.0000 0.0000
# 4 0.0000 0.0000 0.0000 21.7015 0.0000 0.0000
# 5 0.0000 0.0000 0.0000 0.0000 14.5350 0.0000
# 6 0.0000 0.0000 0.0000 0.0000 0.0000 38.5701
#
#
#
# Elastic Compliance Matrix: (Units=1/GPa)
#
#
# Indices 1 2 3 4 5 6 
#
# 1 0.014445 -0.006960 -0.005621 0.000000 0.000000 0.000000
# 2 -0.006960 0.016581 -0.005779 0.000000 0.000000 0.000000
# 3 -0.005621 -0.005779 0.028779 0.000000 0.000000 0.000000
# 4 0.000000 0.000000 0.000000 0.046080 0.000000 0.000000
# 5 0.000000 0.000000 0.000000 0.000000 0.068800 0.000000
# 6 0.000000 0.000000 0.000000 0.000000 0.000000 0.025927
#
#
# Mechanical properties :
#
#
# Convention : Reuss Voigt Hill
#
# Bulk Modulus (GPa) = 43.32106 54.91238 49.11672
# Shear Modulus (GPa) = 20.40602 23.70935 22.05768
#
# Velocity S-wave (km/s) = 3.23848 3.49078 3.36699
# Velocity P-wave (km/s) = 6.02069 6.66857 6.35290
#
# Compressibility (1/GPa) = 0.02308346
#
# Stress axis : x y z
#
# Youngs Moduli (GPa) = 69.22990 60.31070 34.74775
#
# Poissons Ratio (x) = 0.41978 0.19532
# Poissons Ratio (y) = 0.48186 0.20081
# Poissons Ratio (z) = 0.38915 0.34854
#
# Static dielectric constant tensor:
#      x y z
#    x 3.744960 0.000000 0.000000 
#    y 0.000000 3.654260 0.000000 
#    z 0.000000 0.000000 3.163810 
# 
# 
# High freq. dielectric constant tensor:
#      x y z
#    x 1.773250 0.000000 0.000000 
#    y 0.000000 1.759960 0.000000 
#    z 0.000000 0.000000 1.719940 
# 
# From -- ./inp_files/23047.got.cif
#   From: 2010.03.12/outbox.cif.g09.slc.cpg/sg57_12_cif.got.tgz:23047.got - 2010.04.16 15:48:40.
