data_PCOD8233724
_publ_section_title
;
Structure prediction by ZEFSAII (Michael W. Deem and Ramdas Pophale) SiO2 
 PCOD8233724
Probable space group: P B C M
;
_chemical_formula_sum "Si O2"
_cell_formula_units_Z 64
_cell_length_a 16.764918
_cell_length_b 14.095118
_cell_length_c 14.629518
_cell_angle_alpha 90.000000
_cell_angle_beta 90.000000
_cell_angle_gamma 90.000000
_cell_volume 3457.006270
_symmetry_space_group_name_H-M "P B C M"
_symmetry_group_IT_number 57
_symmetry_cell_setting 'orthorhombic'
loop_
_space_group_symop_operation_xyz
x,y,z
-x,-y,1/2+z
x,1/2-y,-z
-x,1/2+y,1/2-z
-x,-y,-z
x,y,1/2-z
-x,1/2+y,z
x,1/2-y,1/2+z
loop_
_atom_site_type_symbol
_atom_site_label
_atom_site_fract_x
_atom_site_fract_y
_atom_site_fract_z
Si Si1 0.886017 0.411604 0.357171
Si Si2 0.452693 0.990150 0.357446
Si Si3 0.013278 0.270104 0.400389
Si Si4 0.728493 0.998564 0.646109
Si Si5 0.268185 0.356700 0.489183
Si Si6 0.452365 0.141656 0.511652
Si Si7 0.861586 0.922548 0.352696
Si Si8 0.990643 0.441380 0.852602
O O1 0.896749 0.391962 0.250000
O O2 0.928695 0.324956 0.409187
O O3 0.792321 0.420023 0.382449
O O4 0.928766 0.509701 0.390830
O O5 0.476003 0.005205 0.250000
O O6 0.360052 0.960195 0.365970
O O7 0.501469 0.904687 0.402972
O O8 0.468474 0.086454 0.415720
O O9 0.047865 0.250000 0.500000
O O10 0.995804 0.170928 0.352274
O O11 0.079740 0.331119 0.348526
O O12 0.744828 0.966250 0.750000
O O13 0.742644 0.904992 0.587173
O O14 0.237573 0.250000 0.500000
O O15 0.360163 0.360964 0.458995
O O16 0.216867 0.409327 0.412750
O O17 0.481679 0.250000 0.500000
O O18 0.831020 0.942129 0.250000
O O19 0.910911 0.011800 0.397530
O O20 0.982301 0.478245 0.750000
#
# Coordination Sequence:
#
# PCOD8233724 Si02
#       8
#     8   8   8   8   8   8   8   8
#     4   9  19  34  52  71  97 133 171 213 262 314
#     4   9  18  35  59  84 111 146 184 223 271 330
#     4  11  22  32  50  75  98 134 179 226 269 315
#     4   9  19  35  56  78 105 139 175 219 266 313
#     4  10  21  34  53  81 112 140 175 217 266 322
#     4   9  19  36  57  85 116 146 177 224 276 328
#     4  10  22  36  51  73 106 143 180 222 266 315
#     4   9  19  35  51  67  96 138 174 216 267 310
#
# _framework density 18.513127000000001
#
# number of rings (size 3 to 8) (size 9 to 14) (size 15 to 20)
#    0.000    2.500    0.000    2.250    5.250    2.500 
#    0.000    3.125    2.750    0.000    0.000    0.000 
#    0.000    0.000    0.000    0.000    0.000    0.000 
#
# Total GULP energy -793222.739378 kJ/mol
# GULP energy per Si atom -12394.105303 kJ/mol
# Density = 1.847099 g / cm^3
# Si number density = 18.513127 Si / 1000 Ang^3
#
#
#
# Elastic Constant Matrix: (Units=GPa)
#
#
# Indices 1 2 3 4 5 6 
#
# 1 85.2964 40.0406 38.3148 0.0000 0.0000 0.0000
# 2 40.0406 111.4791 20.5182 0.0000 0.0000 0.0000
# 3 38.3148 20.5182 82.3704 0.0000 0.0000 0.0000
# 4 0.0000 0.0000 0.0000 22.5032 0.0000 0.0000
# 5 0.0000 0.0000 0.0000 0.0000 30.5093 0.0000
# 6 0.0000 0.0000 0.0000 0.0000 0.0000 20.9457
#
#
#
# Elastic Compliance Matrix: (Units=1/GPa)
#
#
# Indices 1 2 3 4 5 6 
#
# 1 0.017027 -0.004882 -0.006704 0.000000 0.000000 0.000000
# 2 -0.004882 0.010801 -0.000420 0.000000 0.000000 0.000000
# 3 -0.006704 -0.000420 0.015363 0.000000 0.000000 0.000000
# 4 0.000000 0.000000 0.000000 0.044438 0.000000 0.000000
# 5 0.000000 0.000000 0.000000 0.000000 0.032777 0.000000
# 6 0.000000 0.000000 0.000000 0.000000 0.000000 0.047743
#
#
# Mechanical properties :
#
#
# Convention : Reuss Voigt Hill
#
# Bulk Modulus (GPa) = 52.13761 52.98812 52.56286
# Shear Modulus (GPa) = 25.18218 26.80979 25.99598
#
# Velocity S-wave (km/s) = 3.69214 3.80958 3.75132
# Velocity P-wave (km/s) = 6.81172 6.93070 6.87147
#
# Compressibility (1/GPa) = 0.01918001
#
# Stress axis : x y z
#
# Youngs Moduli (GPa) = 58.73065 92.58448 65.09040
#
# Poissons Ratio (x) = 0.45197 0.43637
# Poissons Ratio (y) = 0.28671 0.02732
# Poissons Ratio (z) = 0.39373 0.03886
#
# Static dielectric constant tensor:
#      x y z
#    x 3.453460 0.000000 0.000000 
#    y 0.000000 3.301980 0.000000 
#    z 0.000000 0.000000 3.402950 
# 
# 
# High freq. dielectric constant tensor:
#      x y z
#    x 1.713250 0.000000 0.000000 
#    y 0.000000 1.705590 0.000000 
#    z 0.000000 0.000000 1.720620 
# 
# From -- ./inp_files/19146.got.cif
#   From: 2010.03.12/outbox.cif.g09.slc.cpg/sg57_10_cif.got.tgz:19146.got - 2010.04.16 15:48:40.
