data_PCOD8233070
_publ_section_title
;
Structure prediction by ZEFSAII (Michael W. Deem and Ramdas Pophale) SiO2 
 PCOD8233070
Probable space group: P B C M
;
_chemical_formula_sum "Si O2"
_cell_formula_units_Z 56
_cell_length_a 20.251404
_cell_length_b 8.495408
_cell_length_c 15.807479
_cell_angle_alpha 90.000000
_cell_angle_beta 90.000000
_cell_angle_gamma 90.000000
_cell_volume 2719.580962
_symmetry_space_group_name_H-M "P B C M"
_symmetry_group_IT_number 57
_symmetry_cell_setting 'orthorhombic'
loop_
_space_group_symop_operation_xyz
x,y,z
-x,-y,1/2+z
x,1/2-y,-z
-x,1/2+y,1/2-z
-x,-y,-z
x,y,1/2-z
-x,1/2+y,z
x,1/2-y,1/2+z
loop_
_atom_site_type_symbol
_atom_site_label
_atom_site_fract_x
_atom_site_fract_y
_atom_site_fract_z
Si Si1 0.651396 0.034261 0.155818
Si Si2 0.288796 0.064405 0.491771
Si Si3 0.529204 0.620185 0.935358
Si Si4 0.959423 0.648472 0.417384
Si Si5 0.387712 0.837785 0.088868
Si Si6 0.849559 0.437457 0.497675
Si Si7 0.917226 0.541735 0.845842
O O1 0.669807 0.975389 0.250000
O O2 0.584462 0.946834 0.126302
O O3 0.645861 0.224724 0.158095
O O4 0.707419 0.995128 0.088389
O O5 0.290398 0.250000 0.500000
O O6 0.347362 0.000957 0.428495
O O7 0.219553 0.996491 0.457707
O O8 0.463892 0.655037 0.879024
O O9 0.559257 0.750000 0.000000
O O10 0.500000 0.500000 0.000000
O O11 0.979495 0.750000 0.500000
O O12 0.906481 0.513399 0.439537
O O13 0.022101 0.561474 0.379687
O O14 0.931723 0.771294 0.348520
O O15 0.387539 0.750000 0.000000
O O16 0.854342 0.250000 0.500000
O O17 0.855399 0.502541 0.593732
O O18 0.900106 0.494032 0.750000
#
# Coordination Sequence:
#
# PCOD8233070 Si02
#       7
#     8   8   8   8   8   8   8
#     4  11  23  37  57  88 120 149 187 243 295 339
#     4  11  22  40  65  83 108 153 200 237 284 349
#     4  11  18  35  60  83 114 155 198 235 280 345
#     4  10  20  36  57  85 120 155 198 240 272 338
#     4   9  19  36  58  80 111 152 191 230 279 347
#     4  11  22  39  62  86 112 152 201 240 279 341
#     4  11  21  35  58  89 124 156 187 237 296 334
#
# _framework density 20.591408000000001
#
# number of rings (size 3 to 8) (size 9 to 14) (size 15 to 20)
#    0.000    1.429    4.286    6.429    0.000    1.143 
#    0.000    1.429    0.000    4.286    0.000    0.000 
#    0.000    0.000    0.000    0.000    0.000    0.000 
#
# Total GULP energy -693732.599150 kJ/mol
# GULP energy per Si atom -12388.082128 kJ/mol
# Density = 2.054454 g / cm^3
# Si number density = 20.591408 Si / 1000 Ang^3
#
#
#
# Elastic Constant Matrix: (Units=GPa)
#
#
# Indices 1 2 3 4 5 6 
#
# 1 64.6768 18.4860 1.1226 0.0000 0.0000 0.0000
# 2 18.4860 135.6998 2.6371 0.0000 0.0000 0.0000
# 3 1.1226 2.6371 68.7976 0.0000 0.0000 0.0000
# 4 0.0000 0.0000 0.0000 16.4112 0.0000 0.0000
# 5 0.0000 0.0000 0.0000 0.0000 12.9154 0.0000
# 6 0.0000 0.0000 0.0000 0.0000 0.0000 32.4505
#
#
#
# Elastic Compliance Matrix: (Units=1/GPa)
#
#
# Indices 1 2 3 4 5 6 
#
# 1 0.016090 -0.002188 -0.000179 0.000000 0.000000 0.000000
# 2 -0.002188 0.007672 -0.000258 0.000000 0.000000 0.000000
# 3 -0.000179 -0.000258 0.014548 0.000000 0.000000 0.000000
# 4 0.000000 0.000000 0.000000 0.060934 0.000000 0.000000
# 5 0.000000 0.000000 0.000000 0.000000 0.077427 0.000000
# 6 0.000000 0.000000 0.000000 0.000000 0.000000 0.030816
#
#
# Mechanical properties :
#
#
# Convention : Reuss Voigt Hill
#
# Bulk Modulus (GPa) = 30.24833 34.85175 32.55004
# Shear Modulus (GPa) = 22.34547 28.81730 25.58138
#
# Velocity S-wave (km/s) = 3.29779 3.74502 3.52850
# Velocity P-wave (km/s) = 5.40576 5.97180 5.69581
#
# Compressibility (1/GPa) = 0.03305968
#
# Stress axis : x y z
#
# Youngs Moduli (GPa) = 62.15002 130.33812 68.73702
#
# Poissons Ratio (x) = 0.28524 0.01228
# Poissons Ratio (y) = 0.13601 0.01776
# Poissons Ratio (z) = 0.01110 0.03368
#
# Static dielectric constant tensor:
#      x y z
#    x 3.604870 0.000000 0.000000 
#    y 0.000000 4.584630 0.000000 
#    z 0.000000 0.000000 3.493890 
# 
# 
# High freq. dielectric constant tensor:
#      x y z
#    x 1.806000 0.000000 0.000000 
#    y 0.000000 1.823280 0.000000 
#    z 0.000000 0.000000 1.764100 
# 
# From -- ./inp_files/19332.got.cif
#   From: 2010.03.12/outbox.cif.g09.slc.cpg/sg57_10_cif.got.tgz:19332.got - 2010.04.16 15:48:40.
