data_PCOD8233286
_publ_section_title
;
Structure prediction by ZEFSAII (Michael W. Deem and Ramdas Pophale) SiO2 
 PCOD8233286
Probable space group: P B C M
;
_chemical_formula_sum "Si O2"
_cell_formula_units_Z 48
_cell_length_a 16.390979
_cell_length_b 18.034319
_cell_length_c 8.728544
_cell_angle_alpha 90.000000
_cell_angle_beta 90.000000
_cell_angle_gamma 90.000000
_cell_volume 2580.158863
_symmetry_space_group_name_H-M "P B C M"
_symmetry_group_IT_number 57
_symmetry_cell_setting 'orthorhombic'
loop_
_space_group_symop_operation_xyz
x,y,z
-x,-y,1/2+z
x,1/2-y,-z
-x,1/2+y,1/2-z
-x,-y,-z
x,y,1/2-z
-x,1/2+y,z
x,1/2-y,1/2+z
loop_
_atom_site_type_symbol
_atom_site_label
_atom_site_fract_x
_atom_site_fract_y
_atom_site_fract_z
Si Si1 0.822468 0.399341 0.931240
Si Si2 0.249606 0.043863 0.429614
Si Si3 0.417126 0.526590 0.927394
Si Si4 0.330727 0.673302 0.568063
Si Si5 0.151915 0.330734 0.070295
Si Si6 0.988855 0.419446 0.429862
O O1 0.818819 0.391942 0.750000
O O2 0.803346 0.483541 0.979528
O O3 0.759850 0.341531 0.005618
O O4 0.912149 0.378667 0.991851
O O5 0.231006 0.034550 0.250000
O O6 0.225455 0.124654 0.489847
O O7 0.345488 0.032101 0.463599
O O8 0.433838 0.533073 0.750000
O O9 0.390412 0.607608 0.989588
O O10 0.500000 0.500000 0.000000
O O11 0.364722 0.750000 0.500000
O O12 0.326857 0.676724 0.750000
O O13 0.168990 0.326795 0.250000
O O14 0.066933 0.369967 0.031519
O O15 0.150441 0.250000 0.000000
O O16 0.974012 0.427185 0.250000
O O17 0.000000 0.500000 0.500000
#
# Coordination Sequence:
#
# PCOD8233286 Si02
#       6
#     8   8   8   8   8   8
#     4  11  21  34  56  84 112 150 193 231 283 340
#     4  10  20  37  59  82 112 147 187 233 280 334
#     4   9  20  37  60  89 116 147 186 230 280 340
#     4  10  21  38  58  85 118 151 188 235 291 343
#     4  11  24  39  57  82 112 150 194 238 290 339
#     4  11  22  36  56  82 113 151 198 242 286 338
#
# _framework density 18.603504999999998
#
# number of rings (size 3 to 8) (size 9 to 14) (size 15 to 20)
#    0.000    1.667    1.667    4.500    0.000    6.667 
#    0.000    2.500    0.000    2.000    0.000    0.000 
#    0.000    0.000    0.000    0.000    0.000    0.000 
#
# Total GULP energy -595355.661515 kJ/mol
# GULP energy per Si atom -12403.242948 kJ/mol
# Density = 1.856116 g / cm^3
# Si number density = 18.603505 Si / 1000 Ang^3
#
#
#
# Elastic Constant Matrix: (Units=GPa)
#
#
# Indices 1 2 3 4 5 6 
#
# 1 128.4925 63.1331 54.7247 0.0000 0.0000 0.0000
# 2 63.1331 134.4461 51.2559 0.0000 0.0000 0.0000
# 3 54.7247 51.2559 101.8181 0.0000 0.0000 0.0000
# 4 0.0000 0.0000 0.0000 34.9751 0.0000 0.0000
# 5 0.0000 0.0000 0.0000 0.0000 34.4022 0.0000
# 6 0.0000 0.0000 0.0000 0.0000 0.0000 27.5548
#
#
#
# Elastic Compliance Matrix: (Units=1/GPa)
#
#
# Indices 1 2 3 4 5 6 
#
# 1 0.011438 -0.003746 -0.004262 0.000000 0.000000 0.000000
# 2 -0.003746 0.010432 -0.003238 0.000000 0.000000 0.000000
# 3 -0.004262 -0.003238 0.013742 0.000000 0.000000 0.000000
# 4 0.000000 0.000000 0.000000 0.028592 0.000000 0.000000
# 5 0.000000 0.000000 0.000000 0.000000 0.029068 0.000000
# 6 0.000000 0.000000 0.000000 0.000000 0.000000 0.036291
#
#
# Mechanical properties :
#
#
# Convention : Reuss Voigt Hill
#
# Bulk Modulus (GPa) = 76.22017 78.10935 77.16476
# Shear Modulus (GPa) = 31.96354 32.42929 32.19641
#
# Velocity S-wave (km/s) = 4.14955 4.17967 4.16464
# Velocity P-wave (km/s) = 8.00113 8.08520 8.04328
#
# Compressibility (1/GPa) = 0.01311989
#
# Stress axis : x y z
#
# Youngs Moduli (GPa) = 87.42428 95.86342 72.76987
#
# Poissons Ratio (x) = 0.35915 0.31014
# Poissons Ratio (y) = 0.32753 0.23560
# Poissons Ratio (z) = 0.37259 0.31037
#
# Static dielectric constant tensor:
#      x y z
#    x 3.856180 0.000000 0.000000 
#    y 0.000000 3.580020 0.000000 
#    z 0.000000 0.000000 3.498720 
# 
# 
# High freq. dielectric constant tensor:
#      x y z
#    x 1.717410 0.000000 0.000000 
#    y 0.000000 1.716390 0.000000 
#    z 0.000000 0.000000 1.736040 
# 
# From -- ./inp_files/4665.got.cif
#   From: 2010.03.12/outbox.cif.g09.slc.cpg/sg57_3_cif.got.tgz:4665.got - 2010.04.16 15:48:40.
