data_PCOD8233080
_publ_section_title
;
Structure prediction by ZEFSAII (Michael W. Deem and Ramdas Pophale) SiO2 
 PCOD8233080
Probable space group: P B C M
;
_chemical_formula_sum "Si O2"
_cell_formula_units_Z 64
_cell_length_a 21.579044
_cell_length_b 18.055310
_cell_length_c 8.720262
_cell_angle_alpha 90.000000
_cell_angle_beta 90.000000
_cell_angle_gamma 90.000000
_cell_volume 3397.556468
_symmetry_space_group_name_H-M "P B C M"
_symmetry_group_IT_number 57
_symmetry_cell_setting 'orthorhombic'
loop_
_space_group_symop_operation_xyz
x,y,z
-x,-y,1/2+z
x,1/2-y,-z
-x,1/2+y,1/2-z
-x,-y,-z
x,y,1/2-z
-x,1/2+y,z
x,1/2-y,1/2+z
loop_
_atom_site_type_symbol
_atom_site_label
_atom_site_fract_x
_atom_site_fract_y
_atom_site_fract_z
Si Si1 0.619146 0.408395 0.070207
Si Si2 0.065015 0.477066 0.068466
Si Si3 0.735578 0.330585 0.569127
Si Si4 0.245232 0.081002 0.926302
Si Si5 0.819489 0.447089 0.430434
Si Si6 0.129718 0.171804 0.928552
Si Si7 0.493320 0.329815 0.069873
Si Si8 0.383939 0.434871 0.072286
O O1 0.633175 0.396783 0.250000
O O2 0.557312 0.366472 0.016457
O O3 0.674872 0.377671 0.969301
O O4 0.610097 0.494298 0.035189
O O5 0.062497 0.481722 0.250000
O O6 0.083868 0.393861 0.014550
O O7 0.115129 0.535380 0.008140
O O8 0.000000 0.500000 0.000000
O O9 0.727428 0.250000 0.500000
O O10 0.744066 0.325908 0.750000
O O11 0.795830 0.368806 0.495188
O O12 0.230898 0.058372 0.750000
O O13 0.200419 0.149187 0.973365
O O14 0.316621 0.103766 0.948986
O O15 0.231172 0.009818 0.030511
O O16 0.828439 0.441252 0.250000
O O17 0.122542 0.182670 0.750000
O O18 0.110916 0.250000 0.000000
O O19 0.491159 0.322316 0.250000
O O20 0.435540 0.378388 0.011944
O O21 0.486395 0.250000 0.000000
O O22 0.394466 0.457122 0.250000
#
# Coordination Sequence:
#
# PCOD8233080 Si02
#       8
#     8   8   8   8   8   8   8   8
#     4  11  22  37  57  83 111 144 194 243 289 353
#     4  10  21  39  62  89 120 158 201 243 287 336
#     4  12  24  39  59  85 116 150 189 239 296 350
#     4   9  18  34  55  80 112 149 187 232 287 338
#     4  11  21  36  59  87 117 149 190 233 280 342
#     4   9  19  34  54  83 118 152 190 236 282 333
#     4  10  23  39  54  77 110 148 191 241 295 351
#     4  10  20  36  58  81 109 148 189 236 293 346
#
# _framework density 18.837067000000001
#
# number of rings (size 3 to 8) (size 9 to 14) (size 15 to 20)
#    0.000    1.750    1.250    4.500    0.000    5.500 
#    0.000    0.625    0.000    1.500    0.000    0.000 
#    0.000    0.000    0.000    0.000    0.000    0.000 
#
# Total GULP energy -793747.867267 kJ/mol
# GULP energy per Si atom -12402.310426 kJ/mol
# Density = 1.879419 g / cm^3
# Si number density = 18.837067 Si / 1000 Ang^3
#
#
#
# Elastic Constant Matrix: (Units=GPa)
#
#
# Indices 1 2 3 4 5 6 
#
# 1 104.8108 64.9603 30.6224 0.0000 0.0000 0.0000
# 2 64.9603 123.3291 34.2636 0.0000 0.0000 0.0000
# 3 30.6224 34.2636 70.5170 0.0000 0.0000 0.0000
# 4 0.0000 0.0000 0.0000 35.1699 0.0000 0.0000
# 5 0.0000 0.0000 0.0000 0.0000 26.0812 0.0000
# 6 0.0000 0.0000 0.0000 0.0000 0.0000 29.6027
#
#
#
# Elastic Compliance Matrix: (Units=1/GPa)
#
#
# Indices 1 2 3 4 5 6 
#
# 1 0.014705 -0.006903 -0.003032 0.000000 0.000000 0.000000
# 2 -0.006903 0.012615 -0.003131 0.000000 0.000000 0.000000
# 3 -0.003032 -0.003131 0.017019 0.000000 0.000000 0.000000
# 4 0.000000 0.000000 0.000000 0.028433 0.000000 0.000000
# 5 0.000000 0.000000 0.000000 0.000000 0.038342 0.000000
# 6 0.000000 0.000000 0.000000 0.000000 0.000000 0.033781
#
#
# Mechanical properties :
#
#
# Convention : Reuss Voigt Hill
#
# Bulk Modulus (GPa) = 54.92683 62.03881 58.48282
# Shear Modulus (GPa) = 28.23320 29.42480 28.82900
#
# Velocity S-wave (km/s) = 3.87565 3.95659 3.91633
# Velocity P-wave (km/s) = 7.01782 7.34021 7.18082
#
# Compressibility (1/GPa) = 0.01820604
#
# Stress axis : x y z
#
# Youngs Moduli (GPa) = 68.00234 79.27341 58.75783
#
# Poissons Ratio (x) = 0.54726 0.17813
# Poissons Ratio (y) = 0.46945 0.18400
# Poissons Ratio (z) = 0.20615 0.24824
#
# Static dielectric constant tensor:
#      x y z
#    x 3.642940 0.000000 0.000000 
#    y 0.000000 3.456370 0.000000 
#    z 0.000000 0.000000 3.436460 
# 
# 
# High freq. dielectric constant tensor:
#      x y z
#    x 1.735990 0.000000 0.000000 
#    y 0.000000 1.726870 0.000000 
#    z 0.000000 0.000000 1.733940 
# 
# From -- ./inp_files/8582.got.cif
#   From: 2010.03.12/outbox.cif.g09.slc.cpg/sg57_5_cif.got.tgz:8582.got - 2010.04.16 15:48:40.
