data_PCOD8233959
_publ_section_title
;
Structure prediction by ZEFSAII (Michael W. Deem and Ramdas Pophale) SiO2 
 PCOD8233959
Probable space group: P B C M
;
_chemical_formula_sum "Si O2"
_cell_formula_units_Z 32
_cell_length_a 11.117214
_cell_length_b 13.502160
_cell_length_c 10.929164
_cell_angle_alpha 90.000000
_cell_angle_beta 90.000000
_cell_angle_gamma 90.000000
_cell_volume 1640.537487
_symmetry_space_group_name_H-M "P B C M"
_symmetry_group_IT_number 57
_symmetry_cell_setting 'orthorhombic'
loop_
_space_group_symop_operation_xyz
x,y,z
-x,-y,1/2+z
x,1/2-y,-z
-x,1/2+y,1/2-z
-x,-y,-z
x,y,1/2-z
-x,1/2+y,z
x,1/2-y,1/2+z
loop_
_atom_site_type_symbol
_atom_site_label
_atom_site_fract_x
_atom_site_fract_y
_atom_site_fract_z
Si Si1 0.034998 0.422455 0.891788
Si Si2 0.112646 0.750000 0.000000
Si Si3 0.676295 0.367280 0.386951
Si Si4 0.525433 0.750000 0.000000
Si Si5 0.685364 0.919237 0.889862
O O1 0.008265 0.459558 0.750000
O O2 0.174441 0.396593 0.905486
O O3 0.966705 0.318677 0.911535
O O4 0.000000 0.500000 0.000000
O O5 0.197077 0.820531 0.078860
O O6 0.693648 0.401139 0.250000
O O7 0.564915 0.292099 0.397087
O O8 0.656344 0.473588 0.453556
O O9 0.608627 0.661809 0.041116
O O10 0.644022 0.912954 0.750000
#
# Coordination Sequence:
#
# PCOD8233959 Si02
#       5
#     8   4   8   4   8
#     4  11  23  40  65  94 127 165 206 258 312 371
#     4  11  21  38  64  90 121 161 210 246 308 377
#     4  10  21  37  59  85 119 159 201 253 304 361
#     4  11  21  36  60  86 117 155 208 244 304 369
#     4  10  21  39  59  84 121 158 197 252 310 357
#
# _framework density 19.505801999999999
#
# number of rings (size 3 to 8) (size 9 to 14) (size 15 to 20)
#    0.000    1.500    2.500    3.000    0.000    1.000 
#    0.000    2.500    0.000    0.000    0.000    0.000 
#    0.000    0.000    0.000    0.000    0.000    0.000 
#
# Total GULP energy -396468.023560 kJ/mol
# GULP energy per Si atom -12389.625736 kJ/mol
# Density = 1.946141 g / cm^3
# Si number density = 19.505802 Si / 1000 Ang^3
#
#
#
# Elastic Constant Matrix: (Units=GPa)
#
#
# Indices 1 2 3 4 5 6 
#
# 1 92.7113 48.2549 28.0711 0.0000 0.0000 0.0000
# 2 48.2549 140.9061 35.4484 0.0000 0.0000 0.0000
# 3 28.0711 35.4484 85.8005 0.0000 0.0000 0.0000
# 4 0.0000 0.0000 0.0000 28.6102 0.0000 0.0000
# 5 0.0000 0.0000 0.0000 0.0000 -5.4329 0.0000
# 6 0.0000 0.0000 0.0000 0.0000 0.0000 11.7766
#
#
#
# Elastic Compliance Matrix: (Units=1/GPa)
#
#
# Indices 1 2 3 4 5 6 
#
# 1 0.013720 -0.003983 -0.002843 0.000000 0.000000 0.000000
# 2 -0.003983 0.009077 -0.002447 0.000000 0.000000 0.000000
# 3 -0.002843 -0.002447 0.013596 0.000000 0.000000 0.000000
# 4 0.000000 0.000000 0.000000 0.034953 0.000000 0.000000
# 5 0.000000 0.000000 0.000000 0.000000 -0.184063 0.000000
# 6 0.000000 0.000000 0.000000 0.000000 0.000000 0.084914
#
#
# Mechanical properties :
#
#
# Convention : Reuss Voigt Hill
#
# Bulk Modulus (GPa) = 56.03376 60.32966 58.18171
# Shear Modulus (GPa) = -1511.61405 20.83367 -745.39019
#
# Velocity S-wave (km/s) = -27.86823 3.27169 -19.56955
# Velocity P-wave (km/s) = 31.72899 6.72816 21.92556
#
# Compressibility (1/GPa) = 0.01784638
#
# Stress axis : x y z
#
# Youngs Moduli (GPa) = 72.88458 110.17294 73.55109
#
# Poissons Ratio (x) = 0.43887 0.20911
# Poissons Ratio (y) = 0.29033 0.17996
# Poissons Ratio (z) = 0.20722 0.26957
#
# Static dielectric constant tensor:
#      x y z
#    x 3.663900 0.000000 0.000000 
#    y 0.000000 -4.767920 0.000000 
#    z 0.000000 0.000000 3.662270 
# 
# 
# High freq. dielectric constant tensor:
#      x y z
#    x 1.771870 0.000000 0.000000 
#    y 0.000000 1.779630 0.000000 
#    z 0.000000 0.000000 1.742500 
# 
# From -- ./inp_files/2423.got.cif
#   From: 2010.03.12/outbox.cif.g09.slc.cpg/sg57_2_cif.got.tgz:2423.got - 2010.04.16 15:48:40.
