data_PCOD8233290
_publ_section_title
;
Structure prediction by ZEFSAII (Michael W. Deem and Ramdas Pophale) SiO2 
 PCOD8233290
Probable space group: P B C M
;
_chemical_formula_sum "Si O2"
_cell_formula_units_Z 48
_cell_length_a 18.836996
_cell_length_b 15.355884
_cell_length_c 8.637393
_cell_angle_alpha 90.000000
_cell_angle_beta 90.000000
_cell_angle_gamma 90.000000
_cell_volume 2498.441291
_symmetry_space_group_name_H-M "P B C M"
_symmetry_group_IT_number 57
_symmetry_cell_setting 'orthorhombic'
loop_
_space_group_symop_operation_xyz
x,y,z
-x,-y,1/2+z
x,1/2-y,-z
-x,1/2+y,1/2-z
-x,-y,-z
x,y,1/2-z
-x,1/2+y,z
x,1/2-y,1/2+z
loop_
_atom_site_type_symbol
_atom_site_label
_atom_site_fract_x
_atom_site_fract_y
_atom_site_fract_z
Si Si1 0.323574 0.657302 0.066542
Si Si2 0.577830 0.499818 0.932679
Si Si3 0.172184 0.843994 0.433877
Si Si4 0.168591 0.159622 0.932697
Si Si5 0.078200 0.994945 0.934308
Si Si6 0.670543 0.659513 0.566483
O O1 0.314262 0.663246 0.250000
O O2 0.382963 0.588378 0.016105
O O3 0.347921 0.750000 0.000000
O O4 0.249110 0.626619 0.995080
O O5 0.573253 0.506087 0.750000
O O6 0.621672 0.581956 0.998879
O O7 0.500000 0.500000 0.000000
O O8 0.151659 0.750000 0.500000
O O9 0.172946 0.840373 0.250000
O O10 0.113867 0.910500 0.493301
O O11 0.166483 0.166134 0.750000
O O12 0.120347 0.080394 0.991781
O O13 0.248986 0.143789 0.992112
O O14 0.138180 0.250000 0.000000
O O15 0.077969 0.987566 0.750000
O O16 0.000000 0.000000 0.000000
O O17 0.640450 0.750000 0.500000
O O18 0.667967 0.662717 0.750000
#
# Coordination Sequence:
#
# PCOD8233290 Si02
#       6
#     8   8   8   8   8   8
#     4  10  20  37  59  83 110 144 184 231 281 333
#     4  10  22  37  54  77 111 148 182 221 272 328
#     4  11  22  38  61  87 112 145 188 236 285 338
#     4   9  19  36  59  82 108 141 180 226 275 324
#     4  11  23  39  57  82 117 154 189 230 279 334
#     4   9  18  35  56  79 104 136 176 220 267 317
#
# _framework density 19.211978999999999
#
# number of rings (size 3 to 8) (size 9 to 14) (size 15 to 20)
#    0.000    2.000    0.000    4.500    0.000    7.333 
#    0.000    8.333    0.000    0.000    0.000    0.000 
#    0.000    0.000    0.000    0.000    0.000    0.000 
#
# Total GULP energy -595339.735025 kJ/mol
# GULP energy per Si atom -12402.911146 kJ/mol
# Density = 1.916825 g / cm^3
# Si number density = 19.211979 Si / 1000 Ang^3
#
#
#
# Elastic Constant Matrix: (Units=GPa)
#
#
# Indices 1 2 3 4 5 6 
#
# 1 153.2186 112.2010 45.9470 0.0000 0.0000 0.0000
# 2 112.2010 164.0938 52.5690 0.0000 0.0000 0.0000
# 3 45.9470 52.5690 76.1633 0.0000 0.0000 0.0000
# 4 0.0000 0.0000 0.0000 34.9417 0.0000 0.0000
# 5 0.0000 0.0000 0.0000 0.0000 33.3363 0.0000
# 6 0.0000 0.0000 0.0000 0.0000 0.0000 18.1527
#
#
#
# Elastic Compliance Matrix: (Units=1/GPa)
#
#
# Indices 1 2 3 4 5 6 
#
# 1 0.013367 -0.008418 -0.002254 0.000000 0.000000 0.000000
# 2 -0.008418 0.013125 -0.003981 0.000000 0.000000 0.000000
# 3 -0.002254 -0.003981 0.017237 0.000000 0.000000 0.000000
# 4 0.000000 0.000000 0.000000 0.028619 0.000000 0.000000
# 5 0.000000 0.000000 0.000000 0.000000 0.029997 0.000000
# 6 0.000000 0.000000 0.000000 0.000000 0.000000 0.055088
#
#
# Mechanical properties :
#
#
# Convention : Reuss Voigt Hill
#
# Bulk Modulus (GPa) = 69.32875 90.54554 79.93715
# Shear Modulus (GPa) = 26.10338 29.47004 27.78671
#
# Velocity S-wave (km/s) = 3.69006 3.92080 3.80718
# Velocity P-wave (km/s) = 7.37020 8.22976 7.81182
#
# Compressibility (1/GPa) = 0.01442403
#
# Stress axis : x y z
#
# Youngs Moduli (GPa) = 74.81339 76.19031 58.01451
#
# Poissons Ratio (x) = 0.64134 0.13075
# Poissons Ratio (y) = 0.62975 0.23096
# Poissons Ratio (z) = 0.16861 0.30332
#
# Static dielectric constant tensor:
#      x y z
#    x 3.875650 0.000000 0.000000 
#    y 0.000000 3.789170 0.000000 
#    z 0.000000 0.000000 3.460720 
# 
# 
# High freq. dielectric constant tensor:
#      x y z
#    x 1.744670 0.000000 0.000000 
#    y 0.000000 1.763550 0.000000 
#    z 0.000000 0.000000 1.747310 
# 
# From -- ./inp_files/6494.got.cif
#   From: 2010.03.12/outbox.cif.g09.slc.cpg/sg57_4_cif.got.tgz:6494.got - 2010.04.16 15:48:40.
