data_PCOD8233932
_publ_section_title
;
Structure prediction by ZEFSAII (Michael W. Deem and Ramdas Pophale) SiO2 
 PCOD8233932
Probable space group: P B C M
;
_chemical_formula_sum "Si O2"
_cell_formula_units_Z 40
_cell_length_a 25.265668
_cell_length_b 9.112497
_cell_length_c 8.762194
_cell_angle_alpha 90.000000
_cell_angle_beta 90.000000
_cell_angle_gamma 90.000000
_cell_volume 2017.349049
_symmetry_space_group_name_H-M "P B C M"
_symmetry_group_IT_number 57
_symmetry_cell_setting 'orthorhombic'
loop_
_space_group_symop_operation_xyz
x,y,z
-x,-y,1/2+z
x,1/2-y,-z
-x,1/2+y,1/2-z
-x,-y,-z
x,y,1/2-z
-x,1/2+y,z
x,1/2-y,1/2+z
loop_
_atom_site_type_symbol
_atom_site_label
_atom_site_fract_x
_atom_site_fract_y
_atom_site_fract_z
Si Si1 0.643115 0.410281 0.071632
Si Si2 0.548619 0.588557 0.568047
Si Si3 0.746881 0.904494 0.926419
Si Si4 0.163853 0.591266 0.073346
Si Si5 0.955262 0.405078 0.574771
O O1 0.627668 0.402958 0.250000
O O2 0.700642 0.478573 0.046545
O O3 0.642514 0.250000 0.000000
O O4 0.602432 0.510962 0.980922
O O5 0.547502 0.750000 0.500000
O O6 0.500000 0.500000 0.500000
O O7 0.544512 0.595439 0.750000
O O8 0.757580 0.876418 0.750000
O O9 0.730798 0.750000 0.000000
O O10 0.799973 0.967354 0.999668
O O11 0.178135 0.608005 0.250000
O O12 0.103955 0.532895 0.049161
O O13 0.173505 0.750000 0.000000
O O14 0.958729 0.250000 0.500000
O O15 0.969187 0.389400 0.750000
O O16 0.000000 0.500000 0.500000
#
# Coordination Sequence:
#
# PCOD8233932 Si02
#       5
#     8   8   8   8   8
#     4  11  24  42  64  92 123 159 201 245 295 352
#     4  12  25  43  66  93 126 163 203 249 299 352
#     4  11  24  40  61  88 120 156 196 243 295 349
#     4  10  21  38  60  85 115 151 194 240 291 349
#     4  10  21  37  58  84 114 151 192 239 291 348
#
# _framework density 19.827999999999999
#
# number of rings (size 3 to 8) (size 9 to 14) (size 15 to 20)
#    0.000    1.200    0.000    6.000    0.000    9.600 
#    0.000    0.000    0.000    0.000    0.000    0.000 
#    0.000    0.000    0.000    0.000    0.000    0.000 
#
# Total GULP energy -496154.270100 kJ/mol
# GULP energy per Si atom -12403.856753 kJ/mol
# Density = 1.978287 g / cm^3
# Si number density = 19.828000 Si / 1000 Ang^3
#
#
#
# Elastic Constant Matrix: (Units=GPa)
#
#
# Indices 1 2 3 4 5 6 
#
# 1 113.0739 54.2306 82.8225 0.0000 0.0000 0.0000
# 2 54.2306 128.3639 81.6688 0.0000 0.0000 0.0000
# 3 82.8225 81.6688 181.9951 0.0000 0.0000 0.0000
# 4 0.0000 0.0000 0.0000 42.8957 0.0000 0.0000
# 5 0.0000 0.0000 0.0000 0.0000 33.3502 0.0000
# 6 0.0000 0.0000 0.0000 0.0000 0.0000 92.8577
#
#
#
# Elastic Compliance Matrix: (Units=1/GPa)
#
#
# Indices 1 2 3 4 5 6 
#
# 1 0.013849 -0.002577 -0.005146 0.000000 0.000000 0.000000
# 2 -0.002577 0.011383 -0.003935 0.000000 0.000000 0.000000
# 3 -0.005146 -0.003935 0.009602 0.000000 0.000000 0.000000
# 4 0.000000 0.000000 0.000000 0.023312 0.000000 0.000000
# 5 0.000000 0.000000 0.000000 0.000000 0.029985 0.000000
# 6 0.000000 0.000000 0.000000 0.000000 0.000000 0.010769
#
#
# Mechanical properties :
#
#
# Convention : Reuss Voigt Hill
#
# Bulk Modulus (GPa) = 86.82151 95.65294 91.23723
# Shear Modulus (GPa) = 39.66495 47.46813 43.56654
#
# Velocity S-wave (km/s) = 4.47749 4.89815 4.69254
# Velocity P-wave (km/s) = 8.40315 8.96300 8.68759
#
# Compressibility (1/GPa) = 0.01151788
#
# Stress axis : x y z
#
# Youngs Moduli (GPa) = 72.20792 87.85275 104.14008
#
# Poissons Ratio (x) = 0.22637 0.53591
# Poissons Ratio (y) = 0.18606 0.40982
# Poissons Ratio (z) = 0.37159 0.34572
#
# Static dielectric constant tensor:
#      x y z
#    x 3.740510 0.000000 0.000000 
#    y 0.000000 2.461040 0.000000 
#    z 0.000000 0.000000 3.930230 
# 
# 
# High freq. dielectric constant tensor:
#      x y z
#    x 1.789590 0.000000 0.000000 
#    y 0.000000 1.780610 0.000000 
#    z 0.000000 0.000000 1.796450 
# 
# From -- ./inp_files/8877.got.cif
#   From: 2010.03.12/outbox.cif.g09.slc.cpg/sg57_5_cif.got.tgz:8877.got - 2010.04.16 15:48:40.
