data_PCOD8233224
_publ_section_title
;
Structure prediction by ZEFSAII (Michael W. Deem and Ramdas Pophale) SiO2 
 PCOD8233224
Probable space group: P B C M
;
_chemical_formula_sum "Si O2"
_cell_formula_units_Z 64
_cell_length_a 23.732292
_cell_length_b 15.045909
_cell_length_c 9.011183
_cell_angle_alpha 90.000000
_cell_angle_beta 90.000000
_cell_angle_gamma 90.000000
_cell_volume 3217.658310
_symmetry_space_group_name_H-M "P B C M"
_symmetry_group_IT_number 57
_symmetry_cell_setting 'orthorhombic'
loop_
_space_group_symop_operation_xyz
x,y,z
-x,-y,1/2+z
x,1/2-y,-z
-x,1/2+y,1/2-z
-x,-y,-z
x,y,1/2-z
-x,1/2+y,z
x,1/2-y,1/2+z
loop_
_atom_site_type_symbol
_atom_site_label
_atom_site_fract_x
_atom_site_fract_y
_atom_site_fract_z
Si Si1 0.608071 0.583179 0.915716
Si Si2 0.508812 0.660020 0.075010
Si Si3 0.724695 0.840276 0.074347
Si Si4 0.922508 0.507622 0.078537
Si Si5 0.208477 0.008391 0.422260
Si Si6 0.274094 0.665300 0.923500
Si Si7 0.383383 0.620078 0.416266
Si Si8 0.004383 0.348824 0.073891
O O1 0.591012 0.614645 0.750000
O O2 0.660758 0.639243 0.978563
O O3 0.629700 0.483388 0.911906
O O4 0.553590 0.586887 0.021321
O O5 0.511327 0.666439 0.250000
O O6 0.446039 0.637197 0.020395
O O7 0.530053 0.750000 0.000000
O O8 0.727346 0.833194 0.250000
O O9 0.744762 0.750000 0.000000
O O10 0.769327 0.912326 0.021854
O O11 0.935548 0.528544 0.250000
O O12 0.857024 0.494135 0.047310
O O13 0.951444 0.413334 0.033323
O O14 0.942298 0.594249 0.985503
O O15 0.221164 0.028384 0.250000
O O16 0.240737 0.920812 0.477052
O O17 0.270760 0.677664 0.750000
O O18 0.244529 0.750000 0.000000
O O19 0.339384 0.664312 0.972914
O O20 0.376813 0.659967 0.250000
O O21 0.010100 0.334214 0.250000
O O22 0.999336 0.250000 0.000000
#
# Coordination Sequence:
#
# PCOD8233224 Si02
#       8
#     8   8   8   8   8   8   8   8
#     4  10  21  38  59  82 110 143 185 237 295 355
#     4  11  23  36  54  79 109 143 184 234 289 352
#     4  11  23  39  61  86 116 154 195 244 297 355
#     4   9  20  39  61  87 122 160 201 248 291 340
#     4  10  22  41  62  87 119 156 201 248 293 342
#     4  11  23  38  60  87 116 154 196 241 293 352
#     4  10  21  39  59  82 111 144 186 238 293 352
#     4  10  20  36  61  92 125 162 201 241 291 344
#
# _framework density 19.890239999999999
#
# number of rings (size 3 to 8) (size 9 to 14) (size 15 to 20)
#    0.000    1.750    1.250    2.625    0.000    7.000 
#    0.000    0.000    0.000    0.000    0.000    0.000 
#    0.000    0.000    0.000    0.000    0.000    0.000 
#
# Total GULP energy -793588.111198 kJ/mol
# GULP energy per Si atom -12399.814237 kJ/mol
# Density = 1.984497 g / cm^3
# Si number density = 19.890240 Si / 1000 Ang^3
#
#
#
# Elastic Constant Matrix: (Units=GPa)
#
#
# Indices 1 2 3 4 5 6 
#
# 1 106.6050 43.1588 41.1311 0.0000 0.0000 0.0000
# 2 43.1588 133.3193 49.4131 0.0000 0.0000 0.0000
# 3 41.1311 49.4131 73.4208 0.0000 0.0000 0.0000
# 4 0.0000 0.0000 0.0000 35.2571 0.0000 0.0000
# 5 0.0000 0.0000 0.0000 0.0000 28.5179 0.0000
# 6 0.0000 0.0000 0.0000 0.0000 0.0000 -6.7781
#
#
#
# Elastic Compliance Matrix: (Units=1/GPa)
#
#
# Indices 1 2 3 4 5 6 
#
# 1 0.012320 -0.001906 -0.005619 0.000000 0.000000 0.000000
# 2 -0.001906 0.010288 -0.005857 0.000000 0.000000 0.000000
# 3 -0.005619 -0.005857 0.020710 0.000000 0.000000 0.000000
# 4 0.000000 0.000000 0.000000 0.028363 0.000000 0.000000
# 5 0.000000 0.000000 0.000000 0.000000 0.035066 0.000000
# 6 0.000000 0.000000 0.000000 0.000000 0.000000 -0.147534
#
#
# Mechanical properties :
#
#
# Convention : Reuss Voigt Hill
#
# Bulk Modulus (GPa) = 60.40484 64.52791 62.46637
# Shear Modulus (GPa) = -587.82481 23.37552 -282.22464
#
# Velocity S-wave (km/s) = -17.20976 3.43188 -11.92472
# Velocity P-wave (km/s) = 19.09100 6.94378 12.57478
#
# Compressibility (1/GPa) = 0.01655497
#
# Stress axis : x y z
#
# Youngs Moduli (GPa) = 81.16900 97.19707 48.28642
#
# Poissons Ratio (x) = 0.18521 0.27134
# Poissons Ratio (y) = 0.15467 0.28280
# Poissons Ratio (z) = 0.45611 0.56925
#
# Static dielectric constant tensor:
#      x y z
#    x 3.559400 0.000000 0.000000 
#    y 0.000000 3.784090 0.000000 
#    z 0.000000 0.000000 3.617800 
# 
# 
# High freq. dielectric constant tensor:
#      x y z
#    x 1.770060 0.000000 0.000000 
#    y 0.000000 1.787180 0.000000 
#    z 0.000000 0.000000 1.775120 
# 
# From -- ./inp_files/9284.got.cif
#   From: 2010.03.12/outbox.cif.g09.slc.cpg/sg57_5_cif.got.tgz:9284.got - 2010.04.16 15:48:40.
