data_PCOD8233144
_publ_section_title
;
Structure prediction by ZEFSAII (Michael W. Deem and Ramdas Pophale) SiO2 
 PCOD8233144
Probable space group: P B C M
;
_chemical_formula_sum "Si O2"
_cell_formula_units_Z 64
_cell_length_a 11.852340
_cell_length_b 31.208678
_cell_length_c 9.062155
_cell_angle_alpha 90.000000
_cell_angle_beta 90.000000
_cell_angle_gamma 90.000000
_cell_volume 3352.053641
_symmetry_space_group_name_H-M "P B C M"
_symmetry_group_IT_number 57
_symmetry_cell_setting 'orthorhombic'
loop_
_space_group_symop_operation_xyz
x,y,z
-x,-y,1/2+z
x,1/2-y,-z
-x,1/2+y,1/2-z
-x,-y,-z
x,y,1/2-z
-x,1/2+y,z
x,1/2-y,1/2+z
loop_
_atom_site_type_symbol
_atom_site_label
_atom_site_fract_x
_atom_site_fract_y
_atom_site_fract_z
Si Si1 0.887656 0.485350 0.921594
Si Si2 0.509611 0.706732 0.923154
Si Si3 0.626500 0.122904 0.575228
Si Si4 0.767456 0.792298 0.422308
Si Si5 0.756979 0.947582 0.917329
Si Si6 0.898079 0.864622 0.580306
Si Si7 0.502401 0.546150 0.078232
Si Si8 0.150314 0.887867 0.919775
O O1 0.906348 0.491741 0.750000
O O2 0.862012 0.437032 0.963494
O O3 0.780816 0.512652 0.975671
O O4 0.000000 0.500000 0.000000
O O5 0.495939 0.713678 0.750000
O O6 0.442812 0.664700 0.976462
O O7 0.638855 0.698741 0.970287
O O8 0.462742 0.750000 0.000000
O O9 0.618893 0.116231 0.750000
O O10 0.582232 0.079714 0.497219
O O11 0.754624 0.132209 0.525116
O O12 0.814317 0.750000 0.500000
O O13 0.778022 0.785536 0.250000
O O14 0.845687 0.830874 0.470262
O O15 0.779963 0.962394 0.750000
O O16 0.842098 0.909828 0.960642
O O17 0.627374 0.933670 0.937987
O O18 0.870766 0.853034 0.750000
O O19 0.031480 0.864780 0.551048
O O20 0.468566 0.540623 0.250000
O O21 0.500000 0.500000 0.000000
O O22 0.187251 0.882473 0.750000
#
# Coordination Sequence:
#
# PCOD8233144 Si02
#       8
#     8   8   8   8   8   8   8   8
#     4  11  21  35  55  79 110 148 190 236 282 331
#     4   9  20  38  61  89 118 147 185 235 288 344
#     4  11  23  39  59  85 119 154 194 243 292 349
#     4  10  20  36  59  87 115 143 177 220 277 338
#     4  10  21  37  56  81 110 144 187 233 281 333
#     4  10  20  37  57  80 111 143 182 230 277 327
#     4  11  23  38  58  83 115 154 195 239 290 347
#     4  10  22  39  57  79 112 153 194 236 280 334
#
# _framework density 19.092772
#
# number of rings (size 3 to 8) (size 9 to 14) (size 15 to 20)
#    0.000    1.750    1.250    3.000    0.000    6.500 
#    0.000    0.625    0.000    1.500    0.000    0.000 
#    0.000    0.000    0.000    0.000    0.000    0.000 
#
# Total GULP energy -793810.853470 kJ/mol
# GULP energy per Si atom -12403.294585 kJ/mol
# Density = 1.904932 g / cm^3
# Si number density = 19.092772 Si / 1000 Ang^3
#
#
#
# Elastic Constant Matrix: (Units=GPa)
#
#
# Indices 1 2 3 4 5 6 
#
# 1 90.5465 40.4371 33.6063 0.0000 0.0000 0.0000
# 2 40.4371 103.9854 51.5082 0.0000 0.0000 0.0000
# 3 33.6063 51.5082 62.3176 0.0000 0.0000 0.0000
# 4 0.0000 0.0000 0.0000 36.5203 0.0000 0.0000
# 5 0.0000 0.0000 0.0000 0.0000 33.7734 0.0000
# 6 0.0000 0.0000 0.0000 0.0000 0.0000 14.1991
#
#
#
# Elastic Compliance Matrix: (Units=1/GPa)
#
#
# Indices 1 2 3 4 5 6 
#
# 1 0.014324 -0.002953 -0.005284 0.000000 0.000000 0.000000
# 2 -0.002953 0.016892 -0.012370 0.000000 0.000000 0.000000
# 3 -0.005284 -0.012370 0.029120 0.000000 0.000000 0.000000
# 4 0.000000 0.000000 0.000000 0.027382 0.000000 0.000000
# 5 0.000000 0.000000 0.000000 0.000000 0.029609 0.000000
# 6 0.000000 0.000000 0.000000 0.000000 0.000000 0.070427
#
#
# Mechanical properties :
#
#
# Convention : Reuss Voigt Hill
#
# Bulk Modulus (GPa) = 52.29140 56.43918 54.36529
# Shear Modulus (GPa) = 21.24567 25.65177 23.44872
#
# Velocity S-wave (km/s) = 3.33942 3.66940 3.50829
# Velocity P-wave (km/s) = 6.50512 6.89763 6.70425
#
# Compressibility (1/GPa) = 0.01912360
#
# Stress axis : x y z
#
# Youngs Moduli (GPa) = 69.81365 59.19870 34.34021
#
# Poissons Ratio (x) = 0.17481 0.18145
# Poissons Ratio (y) = 0.20615 0.42478
# Poissons Ratio (z) = 0.36888 0.73227
#
# Static dielectric constant tensor:
#      x y z
#    x 3.601740 0.000000 0.000000 
#    y 0.000000 5.112740 0.000000 
#    z 0.000000 0.000000 3.533730 
# 
# 
# High freq. dielectric constant tensor:
#      x y z
#    x 1.748330 0.000000 0.000000 
#    y 0.000000 1.735920 0.000000 
#    z 0.000000 0.000000 1.745840 
# 
# From -- ./inp_files/3809.got.cif
#   From: 2010.03.12/outbox.cif.g09.slc.cpg/sg57_2_cif.got.tgz:3809.got - 2010.04.16 15:48:40.
