data_PCOD8233691
_publ_section_title
;
Structure prediction by ZEFSAII (Michael W. Deem and Ramdas Pophale) SiO2 
 PCOD8233691
Probable space group: P B C M
;
_chemical_formula_sum "Si O2"
_cell_formula_units_Z 40
_cell_length_a 7.597994
_cell_length_b 12.815279
_cell_length_c 18.477842
_cell_angle_alpha 90.000000
_cell_angle_beta 90.000000
_cell_angle_gamma 90.000000
_cell_volume 1799.195106
_symmetry_space_group_name_H-M "P B C M"
_symmetry_group_IT_number 57
_symmetry_cell_setting 'orthorhombic'
loop_
_space_group_symop_operation_xyz
x,y,z
-x,-y,1/2+z
x,1/2-y,-z
-x,1/2+y,1/2-z
-x,-y,-z
x,y,1/2-z
-x,1/2+y,z
x,1/2-y,1/2+z
loop_
_atom_site_type_symbol
_atom_site_label
_atom_site_fract_x
_atom_site_fract_y
_atom_site_fract_z
Si Si1 0.527151 0.604816 0.169422
Si Si2 0.738669 0.602834 0.981857
Si Si3 0.636878 0.421315 0.062887
Si Si4 0.164694 0.265848 0.617547
Si Si5 0.214430 0.752560 0.331994
O O1 0.527596 0.557681 0.250000
O O2 0.562554 0.512159 0.114482
O O3 0.671716 0.697734 0.166417
O O4 0.337653 0.654219 0.151339
O O5 0.758118 0.479122 0.001233
O O6 0.833330 0.667102 0.044612
O O7 0.528810 0.631936 0.977167
O O8 0.819572 0.642142 0.905106
O O9 0.752575 0.341566 0.108368
O O10 0.986207 0.284875 0.661245
O O11 0.247173 0.794025 0.250000
#
# Coordination Sequence:
#
# PCOD8233691 Si02
#       5
#     8   8   8   8   8
#     4  10  21  40  63  88 129 168 209 263 309 368
#     4   9  20  40  60  90 122 160 202 255 315 362
#     4  10  20  41  66  91 125 164 213 258 317 377
#     4  10  20  41  61  91 126 165 203 258 318 371
#     4  11  23  40  64  93 123 169 215 254 316 379
#
# _framework density 22.232163
#
# number of rings (size 3 to 8) (size 9 to 14) (size 15 to 20)
#    0.000    2.000    2.000    1.200    0.000    0.800 
#   28.800    0.000    0.000    0.000    0.000    0.000 
#    0.000    0.000    0.000    0.000    0.000    0.000 
#
# Total GULP energy -495648.107269 kJ/mol
# GULP energy per Si atom -12391.202682 kJ/mol
# Density = 2.218156 g / cm^3
# Si number density = 22.232163 Si / 1000 Ang^3
#
#
#
# Elastic Constant Matrix: (Units=GPa)
#
#
# Indices 1 2 3 4 5 6 
#
# 1 92.1318 11.5817 13.5722 0.0000 0.0000 0.0000
# 2 11.5817 50.6980 16.4895 0.0000 0.0000 0.0000
# 3 13.5722 16.4895 47.8472 0.0000 0.0000 0.0000
# 4 0.0000 0.0000 0.0000 38.8605 0.0000 0.0000
# 5 0.0000 0.0000 0.0000 0.0000 35.6208 0.0000
# 6 0.0000 0.0000 0.0000 0.0000 0.0000 22.0996
#
#
#
# Elastic Compliance Matrix: (Units=1/GPa)
#
#
# Indices 1 2 3 4 5 6 
#
# 1 0.011465 -0.001758 -0.002646 0.000000 0.000000 0.000000
# 2 -0.001758 0.022484 -0.007250 0.000000 0.000000 0.000000
# 3 -0.002646 -0.007250 0.024149 0.000000 0.000000 0.000000
# 4 0.000000 0.000000 0.000000 0.025733 0.000000 0.000000
# 5 0.000000 0.000000 0.000000 0.000000 0.028073 0.000000
# 6 0.000000 0.000000 0.000000 0.000000 0.000000 0.045250
#
#
# Mechanical properties :
#
#
# Convention : Reuss Voigt Hill
#
# Bulk Modulus (GPa) = 28.74451 30.44042 29.59247
# Shear Modulus (GPa) = 26.03356 29.25178 27.64267
#
# Velocity S-wave (km/s) = 3.42568 3.63125 3.52996
# Velocity P-wave (km/s) = 5.34830 5.59492 5.47300
#
# Compressibility (1/GPa) = 0.03478925
#
# Stress axis : x y z
#
# Youngs Moduli (GPa) = 87.22298 44.47529 41.40960
#
# Poissons Ratio (x) = 0.07821 0.10957
# Poissons Ratio (y) = 0.15338 0.30022
# Poissons Ratio (z) = 0.23080 0.32244
#
# Static dielectric constant tensor:
#      x y z
#    x 3.851020 0.000000 0.000000 
#    y 0.000000 3.961740 0.000000 
#    z 0.000000 0.000000 4.157720 
# 
# 
# High freq. dielectric constant tensor:
#      x y z
#    x 1.865720 0.000000 0.000000 
#    y 0.000000 1.857040 0.000000 
#    z 0.000000 0.000000 1.881090 
# 
# From -- ./inp_files/26114.got.cif
#   From: 2010.03.12/outbox.cif.g09.slc.cpg/sg57_14_cif.got.tgz:26114.got - 2010.04.16 15:48:40.
