data_PCOD8233064
_publ_section_title
;
Structure prediction by ZEFSAII (Michael W. Deem and Ramdas Pophale) SiO2 
 PCOD8233064
Probable space group: P B C M
;
_chemical_formula_sum "Si O2"
_cell_formula_units_Z 64
_cell_length_a 20.993084
_cell_length_b 18.661891
_cell_length_c 8.703523
_cell_angle_alpha 90.000000
_cell_angle_beta 90.000000
_cell_angle_gamma 90.000000
_cell_volume 3409.784823
_symmetry_space_group_name_H-M "P B C M"
_symmetry_group_IT_number 57
_symmetry_cell_setting 'orthorhombic'
loop_
_space_group_symop_operation_xyz
x,y,z
-x,-y,1/2+z
x,1/2-y,-z
-x,1/2+y,1/2-z
-x,-y,-z
x,y,1/2-z
-x,1/2+y,z
x,1/2-y,1/2+z
loop_
_atom_site_type_symbol
_atom_site_label
_atom_site_fract_x
_atom_site_fract_y
_atom_site_fract_z
Si Si1 0.896599 0.178392 0.428797
Si Si2 0.374819 0.176042 0.569188
Si Si3 0.750741 0.889730 0.567685
Si Si4 0.303585 0.971981 0.567308
Si Si5 0.879701 0.827683 0.067384
Si Si6 0.246187 0.823762 0.568457
Si Si7 0.990551 0.922800 0.931236
Si Si8 0.563150 0.530760 0.572044
O O1 0.926280 0.250000 0.500000
O O2 0.892246 0.190944 0.250000
O O3 0.825650 0.163804 0.493776
O O4 0.942562 0.113988 0.471839
O O5 0.401725 0.250000 0.500000
O O6 0.361636 0.182511 0.750000
O O7 0.309243 0.156940 0.485690
O O8 0.427722 0.115076 0.535112
O O9 0.756685 0.887210 0.750000
O O10 0.812288 0.854426 0.493452
O O11 0.744456 0.971799 0.511457
O O12 0.296598 0.982013 0.750000
O O13 0.287216 0.891732 0.512551
O O14 0.375232 0.987877 0.510144
O O15 0.878147 0.823098 0.250000
O O16 0.896274 0.750000 0.000000
O O17 0.933066 0.883409 0.015026
O O18 0.274776 0.750000 0.500000
O O19 0.248600 0.817861 0.750000
O O20 0.976795 0.924674 0.750000
O O21 0.000000 0.000000 0.000000
O O22 0.500000 0.500000 0.500000
O O23 0.556796 0.516868 0.750000
#
# Coordination Sequence:
#
# PCOD8233064 Si02
#       8
#     8   8   8   8   8   8   8   8
#     4   9  19  35  56  79 104 138 179 223 276 331
#     4  10  20  36  57  84 115 149 188 231 280 335
#     4  11  22  36  57  87 116 146 185 231 282 341
#     4   9  19  36  57  81 113 150 187 229 281 334
#     4  12  25  42  61  82 113 151 188 234 286 339
#     4   9  18  34  56  81 109 142 180 226 277 331
#     4  11  24  40  57  83 112 145 190 234 282 338
#     4   9  19  35  55  80 111 149 189 229 273 325
#
# _framework density 18.769513
#
# number of rings (size 3 to 8) (size 9 to 14) (size 15 to 20)
#    0.000    2.000    0.000    4.500    1.750    5.000 
#    0.000    0.625    0.000    3.000    0.000    0.000 
#    0.000    0.000    0.000    0.000    0.000    0.000 
#
# Total GULP energy -793630.459455 kJ/mol
# GULP energy per Si atom -12400.475929 kJ/mol
# Density = 1.872679 g / cm^3
# Si number density = 18.769513 Si / 1000 Ang^3
#
#
#
# Elastic Constant Matrix: (Units=GPa)
#
#
# Indices 1 2 3 4 5 6 
#
# 1 83.9202 61.3454 39.0912 0.0000 0.0000 0.0000
# 2 61.3454 166.6263 53.4595 0.0000 0.0000 0.0000
# 3 39.0912 53.4595 83.4816 0.0000 0.0000 0.0000
# 4 0.0000 0.0000 0.0000 36.3689 0.0000 0.0000
# 5 0.0000 0.0000 0.0000 0.0000 30.8376 0.0000
# 6 0.0000 0.0000 0.0000 0.0000 0.0000 33.2125
#
#
#
# Elastic Compliance Matrix: (Units=1/GPa)
#
#
# Indices 1 2 3 4 5 6 
#
# 1 0.017968 -0.004928 -0.005258 0.000000 0.000000 0.000000
# 2 -0.004928 0.008905 -0.003395 0.000000 0.000000 0.000000
# 3 -0.005258 -0.003395 0.016615 0.000000 0.000000 0.000000
# 4 0.000000 0.000000 0.000000 0.027496 0.000000 0.000000
# 5 0.000000 0.000000 0.000000 0.000000 0.032428 0.000000
# 6 0.000000 0.000000 0.000000 0.000000 0.000000 0.030109
#
#
# Mechanical properties :
#
#
# Convention : Reuss Voigt Hill
#
# Bulk Modulus (GPa) = 61.25245 71.31335 66.28290
# Shear Modulus (GPa) = 30.09805 32.09262 31.09533
#
# Velocity S-wave (km/s) = 4.00879 4.13949 4.07467
# Velocity P-wave (km/s) = 7.35745 7.80538 7.58472
#
# Compressibility (1/GPa) = 0.01632588
#
# Stress axis : x y z
#
# Youngs Moduli (GPa) = 55.65557 112.29639 60.18785
#
# Poissons Ratio (x) = 0.55341 0.31645
# Poissons Ratio (y) = 0.27428 0.20433
# Poissons Ratio (z) = 0.29262 0.38123
#
# Static dielectric constant tensor:
#      x y z
#    x 3.858490 0.000000 0.000000 
#    y 0.000000 3.610060 0.000000 
#    z 0.000000 0.000000 3.413880 
# 
# 
# High freq. dielectric constant tensor:
#      x y z
#    x 1.719540 0.000000 0.000000 
#    y 0.000000 1.741530 0.000000 
#    z 0.000000 0.000000 1.731920 
# 
# From -- ./inp_files/8544.got.cif
#   From: 2010.03.12/outbox.cif.g09.slc.cpg/sg57_5_cif.got.tgz:8544.got - 2010.04.16 15:48:40.
