data_PCOD8233371
_publ_section_title
;
Structure prediction by ZEFSAII (Michael W. Deem and Ramdas Pophale) SiO2 
 PCOD8233371
Probable space group: P B C M
;
_chemical_formula_sum "Si O2"
_cell_formula_units_Z 56
_cell_length_a 20.903656
_cell_length_b 15.359246
_cell_length_c 8.855934
_cell_angle_alpha 90.000000
_cell_angle_beta 90.000000
_cell_angle_gamma 90.000000
_cell_volume 2843.325090
_symmetry_space_group_name_H-M "P B C M"
_symmetry_group_IT_number 57
_symmetry_cell_setting 'orthorhombic'
loop_
_space_group_symop_operation_xyz
x,y,z
-x,-y,1/2+z
x,1/2-y,-z
-x,1/2+y,1/2-z
-x,-y,-z
x,y,1/2-z
-x,1/2+y,z
x,1/2-y,1/2+z
loop_
_atom_site_type_symbol
_atom_site_label
_atom_site_fract_x
_atom_site_fract_y
_atom_site_fract_z
Si Si1 0.359109 0.839427 0.927372
Si Si2 0.282457 0.008511 0.926313
Si Si3 0.496613 0.905491 0.570563
Si Si4 0.940075 0.660652 0.072619
Si Si5 0.149303 0.004341 0.428148
Si Si6 0.621531 0.663818 0.572688
Si Si7 0.086094 0.659974 0.428163
O O1 0.357523 0.828380 0.750000
O O2 0.311319 0.916143 0.977528
O O3 0.430584 0.861335 0.982240
O O4 0.334682 0.750000 0.000000
O O5 0.264206 0.008981 0.750000
O O6 0.334328 0.081816 0.963713
O O7 0.220839 0.029636 0.026192
O O8 0.500596 0.913707 0.750000
O O9 0.553311 0.846901 0.506995
O O10 0.500000 0.000000 0.500000
O O11 0.934108 0.671937 0.250000
O O12 0.897082 0.581155 0.013818
O O13 0.012927 0.641506 0.022922
O O14 0.914816 0.750000 0.000000
O O15 0.143351 0.991554 0.250000
O O16 0.130708 0.915726 0.510260
O O17 0.653595 0.750000 0.500000
O O18 0.611354 0.675878 0.750000
O O19 0.110168 0.750000 0.500000
O O20 0.093762 0.666097 0.250000
#
# Coordination Sequence:
#
# PCOD8233371 Si02
#       7
#     8   8   8   8   8   8   8
#     4  10  22  40  60  85 114 148 190 236 289 346
#     4  10  23  43  59  78 116 159 198 241 290 345
#     4  11  21  37  62  90 120 152 189 241 298 352
#     4   9  20  37  59  88 120 151 191 239 288 346
#     4  11  23  38  58  87 119 153 197 242 289 346
#     4  11  23  41  62  87 118 154 197 245 296 354
#     4  10  20  37  61  88 118 154 191 236 292 344
#
# _framework density 19.695250999999999
#
# number of rings (size 3 to 8) (size 9 to 14) (size 15 to 20)
#    0.000    1.714    1.429    2.571    0.000    6.857 
#    0.000    4.286    0.000    0.000    0.000    0.000 
#    0.000    0.000    0.000    0.000    0.000    0.000 
#
# Total GULP energy -694695.331270 kJ/mol
# GULP energy per Si atom -12405.273773 kJ/mol
# Density = 1.965042 g / cm^3
# Si number density = 19.695251 Si / 1000 Ang^3
#
#
#
# Elastic Constant Matrix: (Units=GPa)
#
#
# Indices 1 2 3 4 5 6 
#
# 1 66.2203 17.4320 22.9672 0.0000 0.0000 0.0000
# 2 17.4320 113.0075 29.9078 0.0000 0.0000 0.0000
# 3 22.9672 29.9078 59.5550 0.0000 0.0000 0.0000
# 4 0.0000 0.0000 0.0000 39.4928 0.0000 0.0000
# 5 0.0000 0.0000 0.0000 0.0000 32.0933 0.0000
# 6 0.0000 0.0000 0.0000 0.0000 0.0000 11.4536
#
#
#
# Elastic Compliance Matrix: (Units=1/GPa)
#
#
# Indices 1 2 3 4 5 6 
#
# 1 0.017541 -0.001056 -0.006235 0.000000 0.000000 0.000000
# 2 -0.001056 0.010269 -0.004750 0.000000 0.000000 0.000000
# 3 -0.006235 -0.004750 0.021581 0.000000 0.000000 0.000000
# 4 0.000000 0.000000 0.000000 0.025321 0.000000 0.000000
# 5 0.000000 0.000000 0.000000 0.000000 0.031159 0.000000
# 6 0.000000 0.000000 0.000000 0.000000 0.000000 0.087309
#
#
# Mechanical properties :
#
#
# Convention : Reuss Voigt Hill
#
# Bulk Modulus (GPa) = 39.50878 42.15517 40.83198
# Shear Modulus (GPa) = 22.15356 27.83965 24.99660
#
# Velocity S-wave (km/s) = 3.35747 3.76376 3.56640
# Velocity P-wave (km/s) = 5.92737 6.35122 6.14295
#
# Compressibility (1/GPa) = 0.02531083
#
# Stress axis : x y z
#
# Youngs Moduli (GPa) = 57.00803 97.38174 46.33751
#
# Poissons Ratio (x) = 0.10282 0.28889
# Poissons Ratio (y) = 0.06019 0.22009
# Poissons Ratio (z) = 0.35542 0.46253
#
# Static dielectric constant tensor:
#      x y z
#    x 3.716840 0.000000 0.000000 
#    y 0.000000 3.779650 0.000000 
#    z 0.000000 0.000000 3.552290 
# 
# 
# High freq. dielectric constant tensor:
#      x y z
#    x 1.763290 0.000000 0.000000 
#    y 0.000000 1.783580 0.000000 
#    z 0.000000 0.000000 1.768520 
# 
# From -- ./inp_files/8032.got.cif
#   From: 2010.03.12/outbox.cif.g09.slc.cpg/sg57_5_cif.got.tgz:8032.got - 2010.04.16 15:48:40.
