data_PCOD8233497
_publ_section_title
;
Structure prediction by ZEFSAII (Michael W. Deem and Ramdas Pophale) SiO2 
 PCOD8233497
Probable space group: P B C M
;
_chemical_formula_sum "Si O2"
_cell_formula_units_Z 48
_cell_length_a 16.192178
_cell_length_b 9.667812
_cell_length_c 15.304242
_cell_angle_alpha 90.000000
_cell_angle_beta 90.000000
_cell_angle_gamma 90.000000
_cell_volume 2395.770927
_symmetry_space_group_name_H-M "P B C M"
_symmetry_group_IT_number 57
_symmetry_cell_setting 'orthorhombic'
loop_
_space_group_symop_operation_xyz
x,y,z
-x,-y,1/2+z
x,1/2-y,-z
-x,1/2+y,1/2-z
-x,-y,-z
x,y,1/2-z
-x,1/2+y,z
x,1/2-y,1/2+z
loop_
_atom_site_type_symbol
_atom_site_label
_atom_site_fract_x
_atom_site_fract_y
_atom_site_fract_z
Si Si1 0.898632 0.687560 0.750000
Si Si2 0.635224 0.939921 0.347844
Si Si3 0.949501 0.122238 0.250000
Si Si4 0.480401 0.873458 0.438883
Si Si5 0.155213 0.668571 0.081790
Si Si6 0.329759 0.748351 0.648356
Si Si7 0.200149 0.143596 0.923012
O O1 0.950491 0.544431 0.750000
O O2 0.841613 0.698597 0.665064
O O3 0.958135 0.820044 0.750000
O O4 0.667884 0.917609 0.250000
O O5 0.544965 0.873555 0.358475
O O6 0.701189 0.866331 0.410893
O O7 0.627446 0.103486 0.366646
O O8 0.904024 0.180587 0.335361
O O9 0.503509 0.750000 0.500000
O O10 0.386997 0.865418 0.400723
O O11 0.500000 0.000000 0.500000
O O12 0.240009 0.747829 0.105004
O O13 0.167060 0.509245 0.054439
O O14 0.114881 0.750000 0.000000
O O15 0.322060 0.709445 0.750000
O O16 0.178657 0.250000 0.000000
#
# Coordination Sequence:
#
# PCOD8233497 Si02
#       7
#     4   8   4   8   8   8   8
#     4  10  22  42  68  93 130 164 205 252 315 377
#     4  10  20  38  61  83 117 161 207 251 305 363
#     4  10  22  42  66  95 124 166 203 254 311 383
#     4  12  23  37  57  87 121 158 205 254 306 359
#     4  10  21  39  66  92 122 165 209 252 315 375
#     4  10  20  38  61  84 117 159 207 253 300 362
#     4  10  21  40  65  93 123 166 208 256 314 373
#
# _framework density 20.035305000000001
#
# number of rings (size 3 to 8) (size 9 to 14) (size 15 to 20)
#    0.000    1.667    3.333    1.500    2.333    2.000 
#    0.000    3.333    0.000    0.000    0.000    0.000 
#    0.000    0.000    0.000    0.000    0.000    0.000 
#
# Total GULP energy -595132.231078 kJ/mol
# GULP energy per Si atom -12398.588147 kJ/mol
# Density = 1.998970 g / cm^3
# Si number density = 20.035305 Si / 1000 Ang^3
#
#
#
# Elastic Constant Matrix: (Units=GPa)
#
#
# Indices 1 2 3 4 5 6 
#
# 1 68.6209 28.2394 28.1172 0.0000 0.0000 0.0000
# 2 28.2394 76.6308 58.5422 0.0000 0.0000 0.0000
# 3 28.1172 58.5422 129.6411 0.0000 0.0000 0.0000
# 4 0.0000 0.0000 0.0000 39.3589 0.0000 0.0000
# 5 0.0000 0.0000 0.0000 0.0000 19.5667 0.0000
# 6 0.0000 0.0000 0.0000 0.0000 0.0000 34.5128
#
#
#
# Elastic Compliance Matrix: (Units=1/GPa)
#
#
# Indices 1 2 3 4 5 6 
#
# 1 0.017328 -0.005365 -0.001335 0.000000 0.000000 0.000000
# 2 -0.005365 0.021584 -0.008583 0.000000 0.000000 0.000000
# 3 -0.001335 -0.008583 0.011879 0.000000 0.000000 0.000000
# 4 0.000000 0.000000 0.000000 0.025407 0.000000 0.000000
# 5 0.000000 0.000000 0.000000 0.000000 0.051107 0.000000
# 6 0.000000 0.000000 0.000000 0.000000 0.000000 0.028975
#
#
# Mechanical properties :
#
#
# Convention : Reuss Voigt Hill
#
# Bulk Modulus (GPa) = 49.44768 56.07669 52.76218
# Shear Modulus (GPa) = 25.82800 29.35395 27.59098
#
# Velocity S-wave (km/s) = 3.59433 3.83183 3.71498
# Velocity P-wave (km/s) = 6.47761 6.90123 6.69277
#
# Compressibility (1/GPa) = 0.02022340
#
# Stress axis : x y z
#
# Youngs Moduli (GPa) = 57.71014 46.33114 84.18220
#
# Poissons Ratio (x) = 0.24859 0.11241
# Poissons Ratio (y) = 0.30964 0.72253
# Poissons Ratio (z) = 0.07706 0.39766
#
# Static dielectric constant tensor:
#      x y z
#    x 3.701300 0.000000 0.000000 
#    y 0.000000 3.459960 0.000000 
#    z 0.000000 0.000000 3.745660 
# 
# 
# High freq. dielectric constant tensor:
#      x y z
#    x 1.775250 0.000000 0.000000 
#    y 0.000000 1.766530 0.000000 
#    z 0.000000 0.000000 1.796930 
# 
# From -- ./inp_files/18993.got.cif
#   From: 2010.03.12/outbox.cif.g09.slc.cpg/sg57_10_cif.got.tgz:18993.got - 2010.04.16 15:48:40.
