data_PCOD8233571
_publ_section_title
;
Structure prediction by ZEFSAII (Michael W. Deem and Ramdas Pophale) SiO2 
 PCOD8233571
Probable space group: P B C M
;
_chemical_formula_sum "Si O2"
_cell_formula_units_Z 40
_cell_length_a 5.196693
_cell_length_b 18.835997
_cell_length_c 18.817631
_cell_angle_alpha 90.000000
_cell_angle_beta 90.000000
_cell_angle_gamma 90.000000
_cell_volume 1841.961811
_symmetry_space_group_name_H-M "P B C M"
_symmetry_group_IT_number 57
_symmetry_cell_setting 'orthorhombic'
loop_
_space_group_symop_operation_xyz
x,y,z
-x,-y,1/2+z
x,1/2-y,-z
-x,1/2+y,1/2-z
-x,-y,-z
x,y,1/2-z
-x,1/2+y,z
x,1/2-y,1/2+z
loop_
_atom_site_type_symbol
_atom_site_label
_atom_site_fract_x
_atom_site_fract_y
_atom_site_fract_z
Si Si1 0.769205 0.232302 0.082334
Si Si2 0.843617 0.004382 0.609164
Si Si3 0.374912 0.865919 0.169623
Si Si4 0.652818 0.561298 0.554843
Si Si5 0.274533 0.356578 0.912214
O O1 0.769116 0.301779 0.130814
O O2 0.544840 0.178962 0.108596
O O3 0.048307 0.199819 0.095381
O O4 0.720629 0.250000 0.000000
O O5 0.814257 0.064495 0.669593
O O6 0.623462 0.019223 0.546898
O O7 0.119854 0.005862 0.571616
O O8 0.786589 0.924830 0.638591
O O9 0.448022 0.845484 0.250000
O O10 0.627312 0.887172 0.124436
O O11 0.724164 0.614665 0.492376
#
# Coordination Sequence:
#
# PCOD8233571 Si02
#       5
#     8   8   8   8   8
#     4  12  24  40  64  99 131 172 214 269 324 386
#     4  10  22  39  64  95 122 164 210 268 323 380
#     4  10  25  44  65  91 132 178 220 262 326 404
#     4  10  20  38  65  94 121 161 209 264 322 377
#     4  12  22  39  66  97 130 159 215 275 326 368
#
# _framework density 21.715976999999999
#
# number of rings (size 3 to 8) (size 9 to 14) (size 15 to 20)
#    1.200    0.000    2.000    5.400    2.800    0.800 
#    0.000    2.000    0.000    0.000    0.000    0.000 
#    0.000    0.000    0.000    0.000    0.000    0.000 
#
# Total GULP energy -495755.396828 kJ/mol
# GULP energy per Si atom -12393.884921 kJ/mol
# Density = 2.166655 g / cm^3
# Si number density = 21.715977 Si / 1000 Ang^3
#
#
#
# Elastic Constant Matrix: (Units=GPa)
#
#
# Indices 1 2 3 4 5 6 
#
# 1 111.6614 20.4511 1.7773 0.0000 0.0000 0.0000
# 2 20.4511 129.8810 30.3744 0.0000 0.0000 0.0000
# 3 1.7773 30.3744 68.4310 0.0000 0.0000 0.0000
# 4 0.0000 0.0000 0.0000 13.8966 0.0000 0.0000
# 5 0.0000 0.0000 0.0000 0.0000 10.6598 0.0000
# 6 0.0000 0.0000 0.0000 0.0000 0.0000 40.7868
#
#
#
# Elastic Compliance Matrix: (Units=1/GPa)
#
#
# Indices 1 2 3 4 5 6 
#
# 1 0.009234 -0.001560 0.000453 0.000000 0.000000 0.000000
# 2 -0.001560 0.008855 -0.003890 0.000000 0.000000 0.000000
# 3 0.000453 -0.003890 0.016328 0.000000 0.000000 0.000000
# 4 0.000000 0.000000 0.000000 0.071960 0.000000 0.000000
# 5 0.000000 0.000000 0.000000 0.000000 0.093810 0.000000
# 6 0.000000 0.000000 0.000000 0.000000 0.000000 0.024518
#
#
# Mechanical properties :
#
#
# Convention : Reuss Voigt Hill
#
# Bulk Modulus (GPa) = 40.94560 46.13100 43.53830
# Shear Modulus (GPa) = 20.58966 30.22667 25.40816
#
# Velocity S-wave (km/s) = 3.08252 3.73488 3.42427
# Velocity P-wave (km/s) = 5.61829 6.31570 5.97718
#
# Compressibility (1/GPa) = 0.02442265
#
# Stress axis : x y z
#
# Youngs Moduli (GPa) = 108.29391 112.93503 61.24425
#
# Poissons Ratio (x) = 0.17616 -0.02772
# Poissons Ratio (y) = 0.16892 0.23823
# Poissons Ratio (z) = -0.04901 0.43929
#
# Static dielectric constant tensor:
#      x y z
#    x 3.852230 0.000000 0.000000 
#    y 0.000000 4.265140 0.000000 
#    z 0.000000 0.000000 3.722760 
# 
# 
# High freq. dielectric constant tensor:
#      x y z
#    x 1.861120 0.000000 0.000000 
#    y 0.000000 1.874490 0.000000 
#    z 0.000000 0.000000 1.803210 
# 
# From -- ./inp_files/23579.got.cif
#   From: 2010.03.12/outbox.cif.g09.slc.cpg/sg57_12_cif.got.tgz:23579.got - 2010.04.16 15:48:40.
