data_PCOD8233426
_publ_section_title
;
Structure prediction by ZEFSAII (Michael W. Deem and Ramdas Pophale) SiO2 
 PCOD8233426
Probable space group: P B C M
;
_chemical_formula_sum "Si O2"
_cell_formula_units_Z 64
_cell_length_a 23.668537
_cell_length_b 15.038074
_cell_length_c 8.734315
_cell_angle_alpha 90.000000
_cell_angle_beta 90.000000
_cell_angle_gamma 90.000000
_cell_volume 3108.797846
_symmetry_space_group_name_H-M "P B C M"
_symmetry_group_IT_number 57
_symmetry_cell_setting 'orthorhombic'
loop_
_space_group_symop_operation_xyz
x,y,z
-x,-y,1/2+z
x,1/2-y,-z
-x,1/2+y,1/2-z
-x,-y,-z
x,y,1/2-z
-x,1/2+y,z
x,1/2-y,1/2+z
loop_
_atom_site_type_symbol
_atom_site_label
_atom_site_fract_x
_atom_site_fract_y
_atom_site_fract_z
Si Si1 0.501189 0.849670 0.930638
Si Si2 0.878347 0.616008 0.077045
Si Si3 0.420638 0.988263 0.071504
Si Si4 0.891001 0.087020 0.577796
Si Si5 0.233295 0.160409 0.929825
Si Si6 0.710529 0.008348 0.928375
Si Si7 0.216994 0.839602 0.929408
Si Si8 0.003922 0.657070 0.068867
O O1 0.498969 0.836487 0.750000
O O2 0.552171 0.916789 0.980261
O O3 0.507717 0.750000 0.000000
O O4 0.444881 0.901301 0.985175
O O5 0.870678 0.653687 0.250000
O O6 0.866372 0.511614 0.077606
O O7 0.940717 0.635947 0.012081
O O8 0.834035 0.660390 0.961741
O O9 0.432237 0.973455 0.250000
O O10 0.355145 0.992623 0.030857
O O11 0.898453 0.122774 0.750000
O O12 0.846419 0.148165 0.490925
O O13 0.951915 0.085081 0.495252
O O14 0.245233 0.151869 0.750000
O O15 0.259456 0.250000 0.000000
O O16 0.263756 0.084977 0.025154
O O17 0.721874 0.026218 0.750000
O O18 0.740595 0.082815 0.027373
O O19 0.213361 0.831241 0.750000
O O20 0.242648 0.750000 0.000000
O O21 0.006469 0.656389 0.250000
O O22 0.024353 0.750000 0.000000
#
# Coordination Sequence:
#
# PCOD8233426 Si02
#       8
#     8   8   8   8   8   8   8   8
#     4  10  20  37  63  95 131 170 211 255 304 360
#     4  10  22  40  62  86 116 153 197 250 312 373
#     4   9  21  40  63  92 127 169 211 257 308 359
#     4  11  22  39  62  86 116 154 195 250 312 373
#     4  12  25  41  64  91 123 164 209 257 312 373
#     4  11  23  43  66  92 128 164 209 263 312 367
#     4  12  25  42  64  91 121 162 209 256 314 374
#     4  11  23  38  56  83 115 150 195 248 305 373
#
# _framework density 20.586735999999998
#
# number of rings (size 3 to 8) (size 9 to 14) (size 15 to 20)
#    0.000    1.250    1.250    4.875    0.000    5.000 
#    0.000    1.250    0.000    0.000    0.000    0.000 
#    0.000    0.000    0.000    0.000    0.000    0.000 
#
# Total GULP energy -793760.746959 kJ/mol
# GULP energy per Si atom -12402.511671 kJ/mol
# Density = 2.053988 g / cm^3
# Si number density = 20.586736 Si / 1000 Ang^3
#
#
#
# Elastic Constant Matrix: (Units=GPa)
#
#
# Indices 1 2 3 4 5 6 
#
# 1 105.3592 28.1890 34.9415 0.0000 0.0000 0.0000
# 2 28.1890 117.4075 29.9010 0.0000 0.0000 0.0000
# 3 34.9415 29.9010 100.1728 0.0000 0.0000 0.0000
# 4 0.0000 0.0000 0.0000 32.9508 0.0000 0.0000
# 5 0.0000 0.0000 0.0000 0.0000 36.0547 0.0000
# 6 0.0000 0.0000 0.0000 0.0000 0.0000 -209.4214
#
#
#
# Elastic Compliance Matrix: (Units=1/GPa)
#
#
# Indices 1 2 3 4 5 6 
#
# 1 0.011079 -0.001814 -0.003323 0.000000 0.000000 0.000000
# 2 -0.001814 0.009515 -0.002208 0.000000 0.000000 0.000000
# 3 -0.003323 -0.002208 0.011801 0.000000 0.000000 0.000000
# 4 0.000000 0.000000 0.000000 0.030348 0.000000 0.000000
# 5 0.000000 0.000000 0.000000 0.000000 0.027736 0.000000
# 6 0.000000 0.000000 0.000000 0.000000 0.000000 -0.004775
#
#
# Mechanical properties :
#
#
# Convention : Reuss Voigt Hill
#
# Bulk Modulus (GPa) = 56.47791 56.55584 56.51688
# Shear Modulus (GPa) = 47.03951 -12.75598 17.14177
#
# Velocity S-wave (km/s) = 4.78529 -2.49192 2.88872
# Velocity P-wave (km/s) = 7.61746 4.38772 6.21602
#
# Compressibility (1/GPa) = 0.01770604
#
# Stress axis : x y z
#
# Youngs Moduli (GPa) = 90.26396 105.09712 84.74008
#
# Poissons Ratio (x) = 0.19061 0.28159
# Poissons Ratio (y) = 0.16371 0.18707
# Poissons Ratio (z) = 0.29995 0.23201
#
# Static dielectric constant tensor:
#      x y z
#    x 3.756070 0.000000 0.000000 
#    y 0.000000 3.621100 0.000000 
#    z 0.000000 0.000000 3.723950 
# 
# 
# High freq. dielectric constant tensor:
#      x y z
#    x 1.801190 0.000000 0.000000 
#    y 0.000000 1.817180 0.000000 
#    z 0.000000 0.000000 1.811080 
# 
# From -- ./inp_files/9394.got.cif
#   From: 2010.03.12/outbox.cif.g09.slc.cpg/sg57_5_cif.got.tgz:9394.got - 2010.04.16 15:48:40.
