data_PCOD8233741
_publ_section_title
;
Structure prediction by ZEFSAII (Michael W. Deem and Ramdas Pophale) SiO2 
 PCOD8233741
Probable space group: P B C M
;
_chemical_formula_sum "Si O2"
_cell_formula_units_Z 64
_cell_length_a 23.888489
_cell_length_b 9.277245
_cell_length_c 14.861992
_cell_angle_alpha 90.000000
_cell_angle_beta 90.000000
_cell_angle_gamma 90.000000
_cell_volume 3293.705232
_symmetry_space_group_name_H-M "P B C M"
_symmetry_group_IT_number 57
_symmetry_cell_setting 'orthorhombic'
loop_
_space_group_symop_operation_xyz
x,y,z
-x,-y,1/2+z
x,1/2-y,-z
-x,1/2+y,1/2-z
-x,-y,-z
x,y,1/2-z
-x,1/2+y,z
x,1/2-y,1/2+z
loop_
_atom_site_type_symbol
_atom_site_label
_atom_site_fract_x
_atom_site_fract_y
_atom_site_fract_z
Si Si1 0.436986 0.047371 0.647488
Si Si2 0.359427 0.417379 0.990985
Si Si3 0.940166 0.628572 0.643158
Si Si4 0.152850 0.876506 0.353313
Si Si5 0.955295 0.549235 0.142987
Si Si6 0.832068 0.045085 0.146597
Si Si7 0.546626 0.620346 0.147361
Si Si8 0.247946 0.584162 0.508980
O O1 0.418364 0.018055 0.750000
O O2 0.383476 0.018636 0.584505
O O3 0.458437 0.209456 0.633258
O O4 0.487235 0.943897 0.617454
O O5 0.404373 0.446680 0.912780
O O6 0.302860 0.497077 0.964801
O O7 0.345368 0.250000 0.000000
O O8 0.945189 0.632716 0.750000
O O9 0.948082 0.789532 0.603427
O O10 0.879842 0.566255 0.615152
O O11 0.988401 0.523942 0.603913
O O12 0.165499 0.915232 0.250000
O O13 0.144020 0.706082 0.366835
O O14 0.204014 0.937587 0.410837
O O15 0.096897 0.952975 0.388501
O O16 0.958358 0.555208 0.250000
O O17 0.814205 0.018311 0.250000
O O18 0.777774 0.022965 0.084241
O O19 0.560241 0.578327 0.250000
O O20 0.264926 0.750000 0.500000
#
# Coordination Sequence:
#
# PCOD8233741 Si02
#       8
#     8   8   8   8   8   8   8   8
#     4   9  18  33  53  78 106 134 165 202 245 292
#     4  10  21  35  51  73 103 136 167 204 248 290
#     4   9  16  27  47  75 102 128 161 201 248 303
#     4   9  18  34  53  71  96 129 163 205 253 295
#     4   9  16  27  47  75 102 128 161 201 248 303
#     4   9  18  34  53  71  96 129 163 205 253 295
#     4   9  18  33  53  78 106 134 165 202 245 292
#     4  10  22  37  52  73  99 130 172 212 245 290
#
# _framework density 19.431004999999999
#
# number of rings (size 3 to 8) (size 9 to 14) (size 15 to 20)
#    0.000    2.750    0.000    1.125    0.000    6.000 
#    0.000    0.625    0.000    0.000    0.000    0.000 
#    0.000    0.000    0.000    0.000    0.000    0.000 
#
# Total GULP energy -793696.819337 kJ/mol
# GULP energy per Si atom -12401.512802 kJ/mol
# Density = 1.938678 g / cm^3
# Si number density = 19.431005 Si / 1000 Ang^3
#
#
#
# Elastic Constant Matrix: (Units=GPa)
#
#
# Indices 1 2 3 4 5 6 
#
# 1 66.4270 19.2694 3.1778 0.0000 0.0000 0.0000
# 2 19.2694 56.5032 0.7726 0.0000 0.0000 0.0000
# 3 3.1778 0.7726 36.4180 0.0000 0.0000 0.0000
# 4 0.0000 0.0000 0.0000 13.3586 0.0000 0.0000
# 5 0.0000 0.0000 0.0000 0.0000 18.3646 0.0000
# 6 0.0000 0.0000 0.0000 0.0000 0.0000 37.4039
#
#
#
# Elastic Compliance Matrix: (Units=1/GPa)
#
#
# Indices 1 2 3 4 5 6 
#
# 1 0.016772 -0.005702 -0.001343 0.000000 0.000000 0.000000
# 2 -0.005702 0.019641 0.000081 0.000000 0.000000 0.000000
# 3 -0.001343 0.000081 0.027574 0.000000 0.000000 0.000000
# 4 0.000000 0.000000 0.000000 0.074858 0.000000 0.000000
# 5 0.000000 0.000000 0.000000 0.000000 0.054453 0.000000
# 6 0.000000 0.000000 0.000000 0.000000 0.000000 0.026735
#
#
# Mechanical properties :
#
#
# Convention : Reuss Voigt Hill
#
# Bulk Modulus (GPa) = 19.97542 22.86530 21.42036
# Shear Modulus (GPa) = 19.94834 22.90066 21.42450
#
# Velocity S-wave (km/s) = 3.20757 3.43675 3.32413
# Velocity P-wave (km/s) = 4.90107 5.24798 5.07749
#
# Compressibility (1/GPa) = 0.05006153
#
# Stress axis : x y z
#
# Youngs Moduli (GPa) = 59.62226 50.91291 36.26553
#
# Poissons Ratio (x) = 0.29028 0.04869
# Poissons Ratio (y) = 0.33994 -0.00293
# Poissons Ratio (z) = 0.08005 -0.00412
#
# Static dielectric constant tensor:
#      x y z
#    x 3.379500 0.000000 0.000000 
#    y 0.000000 3.577240 0.000000 
#    z 0.000000 0.000000 3.550930 
# 
# 
# High freq. dielectric constant tensor:
#      x y z
#    x 1.745050 0.000000 0.000000 
#    y 0.000000 1.753330 0.000000 
#    z 0.000000 0.000000 1.755220 
# 
# From -- ./inp_files/19485.got.cif
#   From: 2010.03.12/outbox.cif.g09.slc.cpg/sg57_10_cif.got.tgz:19485.got - 2010.04.16 15:48:40.
