data_PCOD8233439
_publ_section_title
;
Structure prediction by ZEFSAII (Michael W. Deem and Ramdas Pophale) SiO2 
 PCOD8233439
Probable space group: P B C M
;
_chemical_formula_sum "Si O2"
_cell_formula_units_Z 64
_cell_length_a 19.729636
_cell_length_b 9.409322
_cell_length_c 17.726546
_cell_angle_alpha 90.000000
_cell_angle_beta 90.000000
_cell_angle_gamma 90.000000
_cell_volume 3290.800282
_symmetry_space_group_name_H-M "P B C M"
_symmetry_group_IT_number 57
_symmetry_cell_setting 'orthorhombic'
loop_
_space_group_symop_operation_xyz
x,y,z
-x,-y,1/2+z
x,1/2-y,-z
-x,1/2+y,1/2-z
-x,-y,-z
x,y,1/2-z
-x,1/2+y,z
x,1/2-y,1/2+z
loop_
_atom_site_type_symbol
_atom_site_label
_atom_site_fract_x
_atom_site_fract_y
_atom_site_fract_z
Si Si1 0.699946 0.441006 0.051887
Si Si2 0.640693 0.576162 0.834133
Si Si3 0.888705 0.750852 0.335332
Si Si4 0.888724 0.420151 0.661918
Si Si5 0.992215 0.871685 0.942713
Si Si6 0.431068 0.418921 0.015100
Si Si7 0.261871 0.330338 0.665301
Si Si8 0.740249 0.364308 0.894895
O O1 0.738805 0.538125 0.110242
O O2 0.702403 0.284934 0.088863
O O3 0.624492 0.501681 0.037026
O O4 0.741955 0.448546 0.974188
O O5 0.608830 0.582374 0.750000
O O6 0.582831 0.555106 0.896191
O O7 0.678589 0.721816 0.854911
O O8 0.694353 0.447321 0.834756
O O9 0.910033 0.712565 0.250000
O O10 0.808495 0.748998 0.345472
O O11 0.925670 0.634796 0.388681
O O12 0.905068 0.914630 0.354133
O O13 0.898072 0.384104 0.750000
O O14 0.943723 0.339647 0.611091
O O15 0.816074 0.358118 0.636745
O O16 0.981647 0.750000 0.000000
O O17 0.000000 0.000000 0.000000
O O18 0.435695 0.250000 0.000000
O O19 0.500000 0.500000 0.000000
O O20 0.270748 0.388133 0.750000
#
# Coordination Sequence:
#
# PCOD8233439 Si02
#       8
#     8   8   8   8   8   8   8   8
#     4  10  23  40  60  97 130 165 205 264 317 371
#     4  10  20  40  66  96 128 163 211 262 318 381
#     4  10  22  42  64  89 122 164 210 262 324 389
#     4  11  23  42  64  89 124 166 208 263 329 387
#     4  12  26  42  61  90 123 166 215 264 316 386
#     4  11  24  42  68  94 132 177 215 256 309 374
#     4  10  20  37  65  94 122 161 213 263 320 380
#     4  10  22  37  65  93 128 160 211 262 320 383
#
# _framework density 19.448156000000001
#
# number of rings (size 3 to 8) (size 9 to 14) (size 15 to 20)
#    0.000    1.500    3.750    0.750    7.000    1.000 
#    0.000    2.500    0.000    0.000    0.000    0.000 
#    0.000    0.000    0.000    0.000    0.000    0.000 
#
# Total GULP energy -793236.678278 kJ/mol
# GULP energy per Si atom -12394.323098 kJ/mol
# Density = 1.940389 g / cm^3
# Si number density = 19.448156 Si / 1000 Ang^3
#
#
#
# Elastic Constant Matrix: (Units=GPa)
#
#
# Indices 1 2 3 4 5 6 
#
# 1 88.1169 13.9255 47.3570 0.0000 0.0000 0.0000
# 2 13.9255 59.4245 34.7852 0.0000 0.0000 0.0000
# 3 47.3570 34.7852 113.6136 0.0000 0.0000 0.0000
# 4 0.0000 0.0000 0.0000 22.2116 0.0000 0.0000
# 5 0.0000 0.0000 0.0000 0.0000 32.0261 0.0000
# 6 0.0000 0.0000 0.0000 0.0000 0.0000 31.6294
#
#
#
# Elastic Compliance Matrix: (Units=1/GPa)
#
#
# Indices 1 2 3 4 5 6 
#
# 1 0.014626 0.000172 -0.006149 0.000000 0.000000 0.000000
# 2 0.000172 0.020505 -0.006350 0.000000 0.000000 0.000000
# 3 -0.006149 -0.006350 0.013309 0.000000 0.000000 0.000000
# 4 0.000000 0.000000 0.000000 0.045022 0.000000 0.000000
# 5 0.000000 0.000000 0.000000 0.000000 0.031225 0.000000
# 6 0.000000 0.000000 0.000000 0.000000 0.000000 0.031616
#
#
# Mechanical properties :
#
#
# Convention : Reuss Voigt Hill
#
# Bulk Modulus (GPa) = 42.04121 50.36559 46.20340
# Shear Modulus (GPa) = 26.47123 28.17925 27.32524
#
# Velocity S-wave (km/s) = 3.69334 3.81063 3.75244
# Velocity P-wave (km/s) = 6.31281 6.73162 6.52558
#
# Compressibility (1/GPa) = 0.02378618
#
# Stress axis : x y z
#
# Youngs Moduli (GPa) = 68.37060 48.76947 75.13722
#
# Poissons Ratio (x) = -0.00839 0.46204
# Poissons Ratio (y) = -0.01176 0.47709
# Poissons Ratio (z) = 0.42043 0.30967
#
# Static dielectric constant tensor:
#      x y z
#    x 3.364720 0.000000 0.000000 
#    y 0.000000 3.563630 0.000000 
#    z 0.000000 0.000000 3.775120 
# 
# 
# High freq. dielectric constant tensor:
#      x y z
#    x 1.743630 0.000000 0.000000 
#    y 0.000000 1.755680 0.000000 
#    z 0.000000 0.000000 1.775830 
# 
# From -- ./inp_files/23068.got.cif
#   From: 2010.03.12/outbox.cif.g09.slc.cpg/sg57_12_cif.got.tgz:23068.got - 2010.04.16 15:48:40.
