data_PCOD8233807
_publ_section_title
;
Structure prediction by ZEFSAII (Michael W. Deem and Ramdas Pophale) SiO2 
 PCOD8233807
Probable space group: P B C M
;
_chemical_formula_sum "Si O2"
_cell_formula_units_Z 64
_cell_length_a 21.169077
_cell_length_b 18.577295
_cell_length_c 8.702255
_cell_angle_alpha 90.000000
_cell_angle_beta 90.000000
_cell_angle_gamma 90.000000
_cell_volume 3422.285249
_symmetry_space_group_name_H-M "P B C M"
_symmetry_group_IT_number 57
_symmetry_cell_setting 'orthorhombic'
loop_
_space_group_symop_operation_xyz
x,y,z
-x,-y,1/2+z
x,1/2-y,-z
-x,1/2+y,1/2-z
-x,-y,-z
x,y,1/2-z
-x,1/2+y,z
x,1/2-y,1/2+z
loop_
_atom_site_type_symbol
_atom_site_label
_atom_site_fract_x
_atom_site_fract_y
_atom_site_fract_z
Si Si1 0.124960 0.825338 0.432354
Si Si2 0.390736 0.174573 0.067580
Si Si3 0.503055 0.578610 0.567772
Si Si4 0.062663 0.531296 0.571096
Si Si5 0.747501 0.105355 0.567704
Si Si6 0.745325 0.675490 0.568866
Si Si7 0.617543 0.171347 0.931893
Si Si8 0.806987 0.958223 0.570206
O O1 0.101473 0.750000 0.500000
O O2 0.124463 0.821607 0.250000
O O3 0.077776 0.888197 0.490932
O O4 0.195787 0.843531 0.492127
O O5 0.391699 0.178020 0.250000
O O6 0.415175 0.250000 0.000000
O O7 0.435534 0.112607 0.007443
O O8 0.320903 0.156594 0.010040
O O9 0.500000 0.500000 0.500000
O O10 0.509952 0.576595 0.750000
O O11 0.441118 0.622561 0.516443
O O12 0.051589 0.536069 0.750000
O O13 0.121204 0.479464 0.533230
O O14 0.000000 0.500000 0.500000
O O15 0.746943 0.107189 0.750000
O O16 0.681210 0.134306 0.500839
O O17 0.760293 0.022886 0.516859
O O18 0.772341 0.750000 0.500000
O O19 0.735913 0.683932 0.750000
O O20 0.793693 0.612003 0.530633
O O21 0.621630 0.177988 0.750000
O O22 0.608474 0.250000 0.000000
O O23 0.797449 0.941250 0.750000
#
# Coordination Sequence:
#
# PCOD8233807 Si02
#       8
#     8   8   8   8   8   8   8   8
#     4   9  17  31  52  79 109 141 179 220 263 316
#     4  11  22  39  61  81 106 144 185 231 285 338
#     4  11  24  39  55  80 110 143 188 233 280 335
#     4   9  19  35  55  80 111 149 189 228 271 321
#     4   8  16  32  54  79 108 141 176 215 266 325
#     4  11  22  37  58  86 113 141 182 232 283 339
#     4  10  21  36  55  79 107 142 177 216 271 328
#     4   9  18  35  58  81 110 147 184 225 276 328
#
# _framework density 18.700955
#
# number of rings (size 3 to 8) (size 9 to 14) (size 15 to 20)
#    0.000    2.250    0.000    5.625    1.750    3.000 
#    0.000    3.125    0.000    1.500    0.000    0.000 
#    0.000    0.000    0.000    0.000    0.000    0.000 
#
# Total GULP energy -793594.079635 kJ/mol
# GULP energy per Si atom -12399.907494 kJ/mol
# Density = 1.865839 g / cm^3
# Si number density = 18.700955 Si / 1000 Ang^3
#
#
#
# Elastic Constant Matrix: (Units=GPa)
#
#
# Indices 1 2 3 4 5 6 
#
# 1 95.9597 76.4436 34.8106 0.0000 0.0000 0.0000
# 2 76.4436 163.7218 48.3309 0.0000 0.0000 0.0000
# 3 34.8106 48.3309 71.1679 0.0000 0.0000 0.0000
# 4 0.0000 0.0000 0.0000 34.0121 0.0000 0.0000
# 5 0.0000 0.0000 0.0000 0.0000 24.9471 0.0000
# 6 0.0000 0.0000 0.0000 0.0000 0.0000 29.0651
#
#
#
# Elastic Compliance Matrix: (Units=1/GPa)
#
#
# Indices 1 2 3 4 5 6 
#
# 1 0.017351 -0.006999 -0.003734 0.000000 0.000000 0.000000
# 2 -0.006999 0.010463 -0.003682 0.000000 0.000000 0.000000
# 3 -0.003734 -0.003682 0.018378 0.000000 0.000000 0.000000
# 4 0.000000 0.000000 0.000000 0.029401 0.000000 0.000000
# 5 0.000000 0.000000 0.000000 0.000000 0.040085 0.000000
# 6 0.000000 0.000000 0.000000 0.000000 0.000000 0.034406
#
#
# Mechanical properties :
#
#
# Convention : Reuss Voigt Hill
#
# Bulk Modulus (GPa) = 57.59619 72.22440 64.91029
# Shear Modulus (GPa) = 27.07075 29.02248 28.04661
#
# Velocity S-wave (km/s) = 3.80881 3.94372 3.87685
# Velocity P-wave (km/s) = 7.08577 7.70985 7.40439
#
# Compressibility (1/GPa) = 0.01736226
#
# Stress axis : x y z
#
# Youngs Moduli (GPa) = 57.63250 95.57606 54.41289
#
# Poissons Ratio (x) = 0.66897 0.20317
# Poissons Ratio (y) = 0.40339 0.20034
# Poissons Ratio (z) = 0.21519 0.35190
#
# Static dielectric constant tensor:
#      x y z
#    x 3.399760 0.000000 0.000000 
#    y 0.000000 3.479420 0.000000 
#    z 0.000000 0.000000 3.268280 
# 
# 
# High freq. dielectric constant tensor:
#      x y z
#    x 1.720620 0.000000 0.000000 
#    y 0.000000 1.737810 0.000000 
#    z 0.000000 0.000000 1.714040 
# 
# From -- ./inp_files/8564.got.cif
#   From: 2010.03.12/outbox.cif.g09.slc.cpg/sg57_5_cif.got.tgz:8564.got - 2010.04.16 15:48:40.
