data_PCOD8233287
_publ_section_title
;
Structure prediction by ZEFSAII (Michael W. Deem and Ramdas Pophale) SiO2 
 PCOD8233287
Probable space group: P B C M
;
_chemical_formula_sum "Si O2"
_cell_formula_units_Z 48
_cell_length_a 9.871112
_cell_length_b 29.120123
_cell_length_c 8.964374
_cell_angle_alpha 90.000000
_cell_angle_beta 90.000000
_cell_angle_gamma 90.000000
_cell_volume 2576.791338
_symmetry_space_group_name_H-M "P B C M"
_symmetry_group_IT_number 57
_symmetry_cell_setting 'orthorhombic'
loop_
_space_group_symop_operation_xyz
x,y,z
-x,-y,1/2+z
x,1/2-y,-z
-x,1/2+y,1/2-z
-x,-y,-z
x,y,1/2-z
-x,1/2+y,z
x,1/2-y,1/2+z
loop_
_atom_site_type_symbol
_atom_site_label
_atom_site_fract_x
_atom_site_fract_y
_atom_site_fract_z
Si Si1 0.786737 0.876111 0.427515
Si Si2 0.609963 0.029862 0.077248
Si Si3 0.281648 0.703062 0.075518
Si Si4 0.503679 0.128156 0.424989
Si Si5 0.026887 0.201199 0.072874
Si Si6 0.871159 0.978281 0.074525
O O1 0.792331 0.870445 0.250000
O O2 0.633136 0.868974 0.480816
O O3 0.839200 0.926324 0.478812
O O4 0.879961 0.838158 0.504309
O O5 0.596692 0.019753 0.250000
O O6 0.587045 0.082516 0.037406
O O7 0.754591 0.012799 0.019827
O O8 0.500000 0.000000 0.000000
O O9 0.290986 0.710199 0.250000
O O10 0.392525 0.666889 0.020088
O O11 0.128516 0.688339 0.032213
O O12 0.323936 0.750000 0.000000
O O13 0.467830 0.131873 0.250000
O O14 0.050251 0.204174 0.250000
O O15 0.066272 0.250000 0.000000
O O16 0.891545 0.978838 0.250000
O O17 0.000000 0.000000 0.000000
#
# Coordination Sequence:
#
# PCOD8233287 Si02
#       6
#     8   8   8   8   8   8
#     4  11  23  39  57  85 120 152 192 240 286 340
#     4  10  20  37  59  82 114 151 190 235 282 336
#     4   9  20  38  60  86 113 144 186 233 282 338
#     4  10  21  37  59  85 113 151 193 234 286 343
#     4  10  21  39  63  87 115 152 190 235 288 343
#     4  10  23  39  57  84 117 152 194 241 286 339
#
# _framework density 18.627817
#
# number of rings (size 3 to 8) (size 9 to 14) (size 15 to 20)
#    0.000    2.000    1.667    1.000    2.333    4.000 
#    0.000    1.667    0.000    0.000    0.000    0.000 
#    0.000    0.000    0.000    0.000    0.000    0.000 
#
# Total GULP energy -595171.574395 kJ/mol
# GULP energy per Si atom -12399.407800 kJ/mol
# Density = 1.858542 g / cm^3
# Si number density = 18.627817 Si / 1000 Ang^3
#
#
#
# Elastic Constant Matrix: (Units=GPa)
#
#
# Indices 1 2 3 4 5 6 
#
# 1 169.9228 111.0151 58.8859 0.0000 0.0000 0.0000
# 2 111.0151 164.0020 62.5355 0.0000 0.0000 0.0000
# 3 58.8859 62.5355 54.2019 0.0000 0.0000 0.0000
# 4 0.0000 0.0000 0.0000 30.4893 0.0000 0.0000
# 5 0.0000 0.0000 0.0000 0.0000 31.0270 0.0000
# 6 0.0000 0.0000 0.0000 0.0000 0.0000 47.9549
#
#
#
# Elastic Compliance Matrix: (Units=1/GPa)
#
#
# Indices 1 2 3 4 5 6 
#
# 1 0.011662 -0.005469 -0.006360 0.000000 0.000000 0.000000
# 2 -0.005469 0.013452 -0.009578 0.000000 0.000000 0.000000
# 3 -0.006360 -0.009578 0.036410 0.000000 0.000000 0.000000
# 4 0.000000 0.000000 0.000000 0.032798 0.000000 0.000000
# 5 0.000000 0.000000 0.000000 0.000000 0.032230 0.000000
# 6 0.000000 0.000000 0.000000 0.000000 0.000000 0.020853
#
#
# Mechanical properties :
#
#
# Convention : Reuss Voigt Hill
#
# Bulk Modulus (GPa) = 53.44937 94.77774 74.11356
# Shear Modulus (GPa) = 25.45081 32.27358 28.86220
#
# Velocity S-wave (km/s) = 3.70033 4.16690 3.94053
# Velocity P-wave (km/s) = 6.85655 8.61051 7.78310
#
# Compressibility (1/GPa) = 0.01870929
#
# Stress axis : x y z
#
# Youngs Moduli (GPa) = 85.74718 74.33832 27.46480
#
# Poissons Ratio (x) = 0.40657 0.17467
# Poissons Ratio (y) = 0.46897 0.26307
# Poissons Ratio (z) = 0.54535 0.71205
#
# Static dielectric constant tensor:
#      x y z
#    x 3.644350 0.000000 0.000000 
#    y 0.000000 3.601350 0.000000 
#    z 0.000000 0.000000 3.412250 
# 
# 
# High freq. dielectric constant tensor:
#      x y z
#    x 1.734300 0.000000 0.000000 
#    y 0.000000 1.735160 0.000000 
#    z 0.000000 0.000000 1.721520 
# 
# From -- ./inp_files/2070.got.cif
#   From: 2010.03.12/outbox.cif.g09.slc.cpg/sg57_2_cif.got.tgz:2070.got - 2010.04.16 15:48:40.
