data_PCOD8233935
_publ_section_title
;
Structure prediction by ZEFSAII (Michael W. Deem and Ramdas Pophale) SiO2 
 PCOD8233935
Probable space group: P B C M
;
_chemical_formula_sum "Si O2"
_cell_formula_units_Z 64
_cell_length_a 25.788440
_cell_length_b 14.735905
_cell_length_c 8.636581
_cell_angle_alpha 90.000000
_cell_angle_beta 90.000000
_cell_angle_gamma 90.000000
_cell_volume 3282.038982
_symmetry_space_group_name_H-M "P B C M"
_symmetry_group_IT_number 57
_symmetry_cell_setting 'orthorhombic'
loop_
_space_group_symop_operation_xyz
x,y,z
-x,-y,1/2+z
x,1/2-y,-z
-x,1/2+y,1/2-z
-x,-y,-z
x,y,1/2-z
-x,1/2+y,z
x,1/2-y,1/2+z
loop_
_atom_site_type_symbol
_atom_site_label
_atom_site_fract_x
_atom_site_fract_y
_atom_site_fract_z
Si Si1 0.621769 0.152485 0.928918
Si Si2 0.185297 0.505976 0.071315
Si Si3 0.741443 0.152435 0.928592
Si Si4 0.004955 0.351043 0.432070
Si Si5 0.631695 0.849087 0.932981
Si Si6 0.075042 0.003129 0.430687
Si Si7 0.556849 0.994561 0.067977
Si Si8 0.261262 0.153398 0.930389
O O1 0.604502 0.150277 0.750000
O O2 0.681614 0.124320 0.945641
O O3 0.611323 0.250000 0.000000
O O4 0.587620 0.085287 0.029237
O O5 0.169394 0.515059 0.250000
O O6 0.212571 0.410485 0.036682
O O7 0.225014 0.584294 0.028767
O O8 0.134769 0.514183 0.966531
O O9 0.758884 0.151301 0.750000
O O10 0.751787 0.250000 0.000000
O O11 0.000908 0.250000 0.500000
O O12 0.006364 0.339509 0.250000
O O13 0.056624 0.404378 0.485395
O O14 0.956546 0.413718 0.487031
O O15 0.631361 0.846766 0.750000
O O16 0.622846 0.750000 0.000000
O O17 0.687248 0.887565 0.989470
O O18 0.584975 0.909832 0.991082
O O19 0.066404 0.017957 0.250000
O O20 0.554297 0.980137 0.250000
O O21 0.500000 0.000000 0.000000
O O22 0.273569 0.163556 0.750000
O O23 0.246051 0.250000 0.000000
#
# Coordination Sequence:
#
# PCOD8233935 Si02
#       8
#     8   8   8   8   8   8   8   8
#     4  10  21  39  62  88 116 151 192 235 284 340
#     4  11  23  37  56  84 121 157 192 237 286 336
#     4  10  21  37  59  85 115 151 192 234 281 339
#     4  10  21  39  63  87 112 148 192 238 288 341
#     4  11  22  39  62  87 115 150 190 235 285 341
#     4  10  22  39  59  85 117 152 193 238 285 338
#     4  12  25  41  60  85 115 148 189 237 288 344
#     4  10  21  37  58  85 115 152 193 234 281 336
#
# _framework density 19.500071999999999
#
# number of rings (size 3 to 8) (size 9 to 14) (size 15 to 20)
#    0.000    1.500    0.000    6.000    0.000    8.500 
#    0.000    5.000    0.000    0.000    0.000    0.000 
#    0.000    0.000    0.000    0.000    0.000    0.000 
#
# Total GULP energy -793862.350041 kJ/mol
# GULP energy per Si atom -12404.099219 kJ/mol
# Density = 1.945569 g / cm^3
# Si number density = 19.500072 Si / 1000 Ang^3
#
#
#
# Elastic Constant Matrix: (Units=GPa)
#
#
# Indices 1 2 3 4 5 6 
#
# 1 86.8983 53.5306 42.9609 0.0000 0.0000 0.0000
# 2 53.5306 110.4718 46.0430 0.0000 0.0000 0.0000
# 3 42.9609 46.0430 105.9736 0.0000 0.0000 0.0000
# 4 0.0000 0.0000 0.0000 37.8176 0.0000 0.0000
# 5 0.0000 0.0000 0.0000 0.0000 37.3095 0.0000
# 6 0.0000 0.0000 0.0000 0.0000 0.0000 1.2967
#
#
#
# Elastic Compliance Matrix: (Units=1/GPa)
#
#
# Indices 1 2 3 4 5 6 
#
# 1 0.017843 -0.006876 -0.004246 0.000000 0.000000 0.000000
# 2 -0.006876 0.013704 -0.003166 0.000000 0.000000 0.000000
# 3 -0.004246 -0.003166 0.012533 0.000000 0.000000 0.000000
# 4 0.000000 0.000000 0.000000 0.026443 0.000000 0.000000
# 5 0.000000 0.000000 0.000000 0.000000 0.026803 0.000000
# 6 0.000000 0.000000 0.000000 0.000000 0.000000 0.771217
#
#
# Mechanical properties :
#
#
# Convention : Reuss Voigt Hill
#
# Bulk Modulus (GPa) = 64.50419 65.37920 64.94169
# Shear Modulus (GPa) = 5.54148 26.00536 15.77342
#
# Velocity S-wave (km/s) = 1.68758 3.65582 2.84719
# Velocity P-wave (km/s) = 6.07849 7.17080 6.64712
#
# Compressibility (1/GPa) = 0.01550287
#
# Stress axis : x y z
#
# Youngs Moduli (GPa) = 56.04561 72.97245 79.78834
#
# Poissons Ratio (x) = 0.50179 0.33875
# Poissons Ratio (y) = 0.38539 0.25264
# Poissons Ratio (z) = 0.23795 0.23106
#
# Static dielectric constant tensor:
#      x y z
#    x 3.539220 0.000000 0.000000 
#    y 0.000000 3.432980 0.000000 
#    z 0.000000 0.000000 3.691300 
# 
# 
# High freq. dielectric constant tensor:
#      x y z
#    x 1.758140 0.000000 0.000000 
#    y 0.000000 1.769240 0.000000 
#    z 0.000000 0.000000 1.778930 
# 
# From -- ./inp_files/9443.got.cif
#   From: 2010.03.12/outbox.cif.g09.slc.cpg/sg57_5_cif.got.tgz:9443.got - 2010.04.16 15:48:40.
