data_PCOD8233792
_publ_section_title
;
Structure prediction by ZEFSAII (Michael W. Deem and Ramdas Pophale) SiO2 
 PCOD8233792
Probable space group: P B C M
;
_chemical_formula_sum "Si O2"
_cell_formula_units_Z 48
_cell_length_a 11.414670
_cell_length_b 23.400391
_cell_length_c 9.375206
_cell_angle_alpha 90.000000
_cell_angle_beta 90.000000
_cell_angle_gamma 90.000000
_cell_volume 2504.190097
_symmetry_space_group_name_H-M "P B C M"
_symmetry_group_IT_number 57
_symmetry_cell_setting 'orthorhombic'
loop_
_space_group_symop_operation_xyz
x,y,z
-x,-y,1/2+z
x,1/2-y,-z
-x,1/2+y,1/2-z
-x,-y,-z
x,y,1/2-z
-x,1/2+y,z
x,1/2-y,1/2+z
loop_
_atom_site_type_symbol
_atom_site_label
_atom_site_fract_x
_atom_site_fract_y
_atom_site_fract_z
Si Si1 0.821155 0.197486 0.907525
Si Si2 0.588275 0.131699 0.918198
Si Si3 0.735477 0.028659 0.584043
Si Si4 0.377841 0.310321 0.579937
Si Si5 0.034900 0.586839 0.911078
Si Si6 0.800982 0.592978 0.085797
O O1 0.806463 0.221724 0.750000
O O2 0.697274 0.171976 0.956041
O O3 0.924364 0.152002 0.916118
O O4 0.862286 0.250000 0.000000
O O5 0.553913 0.134255 0.750000
O O6 0.625802 0.067294 0.969152
O O7 0.484315 0.153382 0.017159
O O8 0.747034 0.044773 0.750000
O O9 0.862045 0.047628 0.519362
O O10 0.714273 0.961376 0.554906
O O11 0.365302 0.250000 0.500000
O O12 0.394672 0.301021 0.750000
O O13 0.262571 0.347891 0.545846
O O14 0.005905 0.567593 0.750000
O O15 0.917599 0.582096 0.999713
O O16 0.836994 0.593035 0.250000
#
# Coordination Sequence:
#
# PCOD8233792 Si02
#       6
#     8   8   8   8   8   8
#     4   9  18  31  49  75 103 132 169 214 262 309
#     4   9  18  35  58  80 104 135 169 211 266 319
#     4   8  16  34  58  82 108 135 165 210 267 316
#     4  11  24  39  54  75 105 141 180 219 257 302
#     4   9  18  33  53  77 105 137 172 210 258 313
#     4  10  21  36  54  77 106 140 176 213 254 305
#
# _framework density 19.167873
#
# number of rings (size 3 to 8) (size 9 to 14) (size 15 to 20)
#    0.000    2.667    0.000    3.500    0.000    5.333 
#    0.000    6.667    0.000    0.000    0.000    0.000 
#    0.000    0.000    0.000    0.000    0.000    0.000 
#
# Total GULP energy -594863.837143 kJ/mol
# GULP energy per Si atom -12392.996607 kJ/mol
# Density = 1.912425 g / cm^3
# Si number density = 19.167873 Si / 1000 Ang^3
#
#
#
# Elastic Constant Matrix: (Units=GPa)
#
#
# Indices 1 2 3 4 5 6 
#
# 1 61.3938 46.1487 29.5723 0.0000 0.0000 0.0000
# 2 46.1487 103.3129 48.6164 0.0000 0.0000 0.0000
# 3 29.5723 48.6164 60.3629 0.0000 0.0000 0.0000
# 4 0.0000 0.0000 0.0000 22.6353 0.0000 0.0000
# 5 0.0000 0.0000 0.0000 0.0000 29.9321 0.0000
# 6 0.0000 0.0000 0.0000 0.0000 0.0000 14.4364
#
#
#
# Elastic Compliance Matrix: (Units=1/GPa)
#
#
# Indices 1 2 3 4 5 6 
#
# 1 0.025554 -0.008894 -0.005355 0.000000 0.000000 0.000000
# 2 -0.008894 0.018683 -0.010690 0.000000 0.000000 0.000000
# 3 -0.005355 -0.010690 0.027799 0.000000 0.000000 0.000000
# 4 0.000000 0.000000 0.000000 0.044179 0.000000 0.000000
# 5 0.000000 0.000000 0.000000 0.000000 0.033409 0.000000
# 6 0.000000 0.000000 0.000000 0.000000 0.000000 0.069269
#
#
# Mechanical properties :
#
#
# Convention : Reuss Voigt Hill
#
# Bulk Modulus (GPa) = 45.13233 52.63827 48.88530
# Shear Modulus (GPa) = 18.10563 20.11624 19.11094
#
# Velocity S-wave (km/s) = 3.07674 3.24308 3.16100
# Velocity P-wave (km/s) = 6.01820 6.44552 6.23552
#
# Compressibility (1/GPa) = 0.02215707
#
# Stress axis : x y z
#
# Youngs Moduli (GPa) = 39.13330 53.52565 35.97190
#
# Poissons Ratio (x) = 0.47608 0.19264
# Poissons Ratio (y) = 0.34807 0.38452
# Poissons Ratio (z) = 0.20957 0.57217
#
# Static dielectric constant tensor:
#      x y z
#    x 3.326640 0.000000 0.000000 
#    y 0.000000 3.661290 0.000000 
#    z 0.000000 0.000000 3.343550 
# 
# 
# High freq. dielectric constant tensor:
#      x y z
#    x 1.734750 0.000000 0.000000 
#    y 0.000000 1.759110 0.000000 
#    z 0.000000 0.000000 1.725530 
# 
# From -- ./inp_files/3129.got.cif
#   From: 2010.03.12/outbox.cif.g09.slc.cpg/sg57_2_cif.got.tgz:3129.got - 2010.04.16 15:48:40.
