data_PCOD8233559
_publ_section_title
;
Structure prediction by ZEFSAII (Michael W. Deem and Ramdas Pophale) SiO2 
 PCOD8233559
Probable space group: P B C M
;
_chemical_formula_sum "Si O2"
_cell_formula_units_Z 40
_cell_length_a 18.925911
_cell_length_b 10.556380
_cell_length_c 10.197722
_cell_angle_alpha 90.000000
_cell_angle_beta 90.000000
_cell_angle_gamma 90.000000
_cell_volume 2037.393786
_symmetry_space_group_name_H-M "P B C M"
_symmetry_group_IT_number 57
_symmetry_cell_setting 'orthorhombic'
loop_
_space_group_symop_operation_xyz
x,y,z
-x,-y,1/2+z
x,1/2-y,-z
-x,1/2+y,1/2-z
-x,-y,-z
x,y,1/2-z
-x,1/2+y,z
x,1/2-y,1/2+z
loop_
_atom_site_type_symbol
_atom_site_label
_atom_site_fract_x
_atom_site_fract_y
_atom_site_fract_z
Si Si1 0.928153 0.573568 0.250000
Si Si2 0.372846 0.861148 0.750000
Si Si3 0.151591 0.106643 0.513141
Si Si4 0.351322 0.569887 0.750000
Si Si5 0.301876 0.490288 0.024166
Si Si6 0.951026 0.866595 0.250000
Si Si7 0.397055 0.250000 0.500000
Si Si8 0.533835 0.636872 0.250000
O O1 0.878939 0.557280 0.123752
O O2 0.966364 0.713549 0.250000
O O3 0.979735 0.453075 0.250000
O O4 0.376116 0.711973 0.750000
O O5 0.453213 0.908916 0.750000
O O6 0.332546 0.904628 0.879707
O O7 0.177875 0.250000 0.500000
O O8 0.219657 0.027734 0.558548
O O9 0.091395 0.093918 0.621396
O O10 0.304290 0.537042 0.624724
O O11 0.423428 0.492592 0.750000
O O12 0.346611 0.363362 0.045032
O O13 0.447903 0.283024 0.620717
#
# Coordination Sequence:
#
# PCOD8233559 Si02
#       8
#     4   4   8   4   8   4   4   4
#     4  10  21  38  62  92 130 161 202 255 303 367
#     4  12  26  39  60  85 125 160 202 248 322 383
#     4  10  20  38  64  90 119 160 208 256 298 348
#     4  10  25  41  56  87 123 159 198 253 317 377
#     4  11  22  41  64  91 118 158 207 265 300 364
#     4  10  21  37  61  94 128 162 204 249 305 367
#     4  10  22  40  66  92 116 146 212 260 308 352
#     4  10  25  39  63  86 118 160 200 255 313 372
#
# _framework density 19.632925
#
# number of rings (size 3 to 8) (size 9 to 14) (size 15 to 20)
#    0.000    1.600    1.000    3.000    5.600    1.600 
#    0.000    6.000    0.000    0.000    0.000    0.000 
#    0.000    0.000    0.000    0.000    0.000    0.000 
#
# Total GULP energy -496129.746415 kJ/mol
# GULP energy per Si atom -12403.243660 kJ/mol
# Density = 1.958824 g / cm^3
# Si number density = 19.632925 Si / 1000 Ang^3
#
#
#
# Elastic Constant Matrix: (Units=GPa)
#
#
# Indices 1 2 3 4 5 6 
#
# 1 114.1757 40.2520 39.3151 0.0000 0.0000 0.0000
# 2 40.2520 93.0215 38.2454 0.0000 0.0000 0.0000
# 3 39.3151 38.2454 130.4132 0.0000 0.0000 0.0000
# 4 0.0000 0.0000 0.0000 36.2854 0.0000 0.0000
# 5 0.0000 0.0000 0.0000 0.0000 9.8863 0.0000
# 6 0.0000 0.0000 0.0000 0.0000 0.0000 19.5018
#
#
#
# Elastic Compliance Matrix: (Units=1/GPa)
#
#
# Indices 1 2 3 4 5 6 
#
# 1 0.010841 -0.003806 -0.002152 0.000000 0.000000 0.000000
# 2 -0.003806 0.013561 -0.002829 0.000000 0.000000 0.000000
# 3 -0.002152 -0.002829 0.009146 0.000000 0.000000 0.000000
# 4 0.000000 0.000000 0.000000 0.027559 0.000000 0.000000
# 5 0.000000 0.000000 0.000000 0.000000 0.101150 0.000000
# 6 0.000000 0.000000 0.000000 0.000000 0.000000 0.051277
#
#
# Mechanical properties :
#
#
# Convention : Reuss Voigt Hill
#
# Bulk Modulus (GPa) = 62.60628 63.69283 63.14955
# Shear Modulus (GPa) = 21.14750 27.78790 24.46770
#
# Velocity S-wave (km/s) = 3.28555 3.76623 3.53407
# Velocity P-wave (km/s) = 6.80814 7.17111 6.99198
#
# Compressibility (1/GPa) = 0.01597284
#
# Stress axis : x y z
#
# Youngs Moduli (GPa) = 92.23902 73.74307 109.33238
#
# Poissons Ratio (x) = 0.28070 0.23528
# Poissons Ratio (y) = 0.35111 0.30933
# Poissons Ratio (z) = 0.19850 0.20864
#
# Static dielectric constant tensor:
#      x y z
#    x 3.404910 0.000000 0.000000 
#    y 0.000000 3.546810 0.000000 
#    z 0.000000 0.000000 11.637840 
# 
# 
# High freq. dielectric constant tensor:
#      x y z
#    x 1.761530 0.000000 0.000000 
#    y 0.000000 1.760790 0.000000 
#    z 0.000000 0.000000 1.786040 
# 
# From -- ./inp_files/6326.got.cif
#   From: 2010.03.12/outbox.cif.g09.slc.cpg/sg57_4_cif.got.tgz:6326.got - 2010.04.16 15:48:40.
