data_PCOD8233125
_publ_section_title
;
Structure prediction by ZEFSAII (Michael W. Deem and Ramdas Pophale) SiO2 
 PCOD8233125
Probable space group: P B C M
;
_chemical_formula_sum "Si O2"
_cell_formula_units_Z 64
_cell_length_a 15.098048
_cell_length_b 9.063899
_cell_length_c 23.745208
_cell_angle_alpha 90.000000
_cell_angle_beta 90.000000
_cell_angle_gamma 90.000000
_cell_volume 3249.464805
_symmetry_space_group_name_H-M "P B C M"
_symmetry_group_IT_number 57
_symmetry_cell_setting 'orthorhombic'
loop_
_space_group_symop_operation_xyz
x,y,z
-x,-y,1/2+z
x,1/2-y,-z
-x,1/2+y,1/2-z
-x,-y,-z
x,y,1/2-z
-x,1/2+y,z
x,1/2-y,1/2+z
loop_
_atom_site_type_symbol
_atom_site_label
_atom_site_fract_x
_atom_site_fract_y
_atom_site_fract_z
Si Si1 0.038932 0.873963 0.385857
Si Si2 0.508860 0.047046 0.375650
Si Si3 0.403858 0.697146 0.559727
Si Si4 0.397361 0.288213 0.315757
Si Si5 0.214647 0.946185 0.441262
Si Si6 0.782397 0.731696 0.369601
Si Si7 0.046544 0.359875 0.813904
Si Si8 0.118950 0.393570 0.037696
O O1 0.139893 0.861405 0.405950
O O2 0.009336 0.715690 0.363862
O O3 0.977990 0.938134 0.437337
O O4 0.032914 0.969888 0.328838
O O5 0.581968 0.161199 0.399842
O O6 0.435532 0.142050 0.344221
O O7 0.461214 0.945743 0.422719
O O8 0.553507 0.939308 0.330718
O O9 0.441294 0.750000 0.500000
O O10 0.299970 0.658315 0.554300
O O11 0.401792 0.263959 0.250000
O O12 0.298201 0.303983 0.337154
O O13 0.244340 0.094816 0.409452
O O14 0.170299 0.980893 0.502200
O O15 0.851167 0.683917 0.321331
O O16 0.820542 0.860600 0.408492
O O17 0.015227 0.329187 0.750000
O O18 0.103647 0.250000 0.000000
#
# Coordination Sequence:
#
# PCOD8233125 Si02
#       8
#     8   8   8   8   8   8   8   8
#     4  10  21  36  59  84 120 152 199 241 282 347
#     4  10  24  42  60  89 123 148 202 240 299 360
#     4  11  23  40  61  88 122 162 190 239 298 357
#     4  11  21  40  67  87 114 153 197 250 299 343
#     4  10  20  36  58  89 117 158 192 238 297 343
#     4   9  19  36  59  86 116 148 200 238 283 352
#     4  10  20  37  58  82 114 157 197 238 288 335
#     4   9  19  35  58  87 122 154 190 235 291 351
#
# _framework density 19.695550999999998
#
# number of rings (size 3 to 8) (size 9 to 14) (size 15 to 20)
#    0.000    2.000    1.250    2.625    1.750    1.500 
#    2.250    0.000    0.000    0.000    0.000    0.000 
#    0.000    0.000    0.000    0.000    0.000    0.000 
#
# Total GULP energy -793370.724494 kJ/mol
# GULP energy per Si atom -12396.417570 kJ/mol
# Density = 1.965072 g / cm^3
# Si number density = 19.695551 Si / 1000 Ang^3
#
#
#
# Elastic Constant Matrix: (Units=GPa)
#
#
# Indices 1 2 3 4 5 6 
#
# 1 96.4989 33.3182 26.6779 0.0000 0.0000 0.0000
# 2 33.3182 66.3681 24.2091 0.0000 0.0000 0.0000
# 3 26.6779 24.2091 105.2211 0.0000 0.0000 0.0000
# 4 0.0000 0.0000 0.0000 23.2161 0.0000 0.0000
# 5 0.0000 0.0000 0.0000 0.0000 20.7686 0.0000
# 6 0.0000 0.0000 0.0000 0.0000 0.0000 26.3343
#
#
#
# Elastic Compliance Matrix: (Units=1/GPa)
#
#
# Indices 1 2 3 4 5 6 
#
# 1 0.012889 -0.005762 -0.001942 0.000000 0.000000 0.000000
# 2 -0.005762 0.019024 -0.002916 0.000000 0.000000 0.000000
# 3 -0.001942 -0.002916 0.010667 0.000000 0.000000 0.000000
# 4 0.000000 0.000000 0.000000 0.043074 0.000000 0.000000
# 5 0.000000 0.000000 0.000000 0.000000 0.048150 0.000000
# 6 0.000000 0.000000 0.000000 0.000000 0.000000 0.037973
#
#
# Mechanical properties :
#
#
# Convention : Reuss Voigt Hill
#
# Bulk Modulus (GPa) = 46.86165 48.49984 47.68074
# Shear Modulus (GPa) = 24.98367 26.32267 25.65317
#
# Velocity S-wave (km/s) = 3.56545 3.65975 3.61291
# Velocity P-wave (km/s) = 6.38707 6.52201 6.45489
#
# Compressibility (1/GPa) = 0.02133941
#
# Stress axis : x y z
#
# Youngs Moduli (GPa) = 77.58385 52.56544 93.74580
#
# Poissons Ratio (x) = 0.30289 0.18207
# Poissons Ratio (y) = 0.44706 0.27337
# Poissons Ratio (z) = 0.15068 0.15328
#
# Static dielectric constant tensor:
#      x y z
#    x 3.538520 0.000000 0.000000 
#    y 0.000000 3.489420 0.000000 
#    z 0.000000 0.000000 3.530910 
# 
# 
# High freq. dielectric constant tensor:
#      x y z
#    x 1.766090 0.000000 0.000000 
#    y 0.000000 1.765870 0.000000 
#    z 0.000000 0.000000 1.769100 
# 
# From -- ./inp_files/27460.got.cif
#   From: 2010.03.12/outbox.cif.g09.slc.cpg/sg57_14_cif.got.tgz:27460.got - 2010.04.16 15:48:40.
