data_PCOD8233803
_publ_section_title
;
Structure prediction by ZEFSAII (Michael W. Deem and Ramdas Pophale) SiO2 
 PCOD8233803
Probable space group: P B C M
;
_chemical_formula_sum "Si O2"
_cell_formula_units_Z 56
_cell_length_a 31.069756
_cell_length_b 5.192483
_cell_length_c 16.212138
_cell_angle_alpha 90.000000
_cell_angle_beta 90.000000
_cell_angle_gamma 90.000000
_cell_volume 2615.490927
_symmetry_space_group_name_H-M "P B C M"
_symmetry_group_IT_number 57
_symmetry_cell_setting 'orthorhombic'
loop_
_space_group_symop_operation_xyz
x,y,z
-x,-y,1/2+z
x,1/2-y,-z
-x,1/2+y,1/2-z
-x,-y,-z
x,y,1/2-z
-x,1/2+y,z
x,1/2-y,1/2+z
loop_
_atom_site_type_symbol
_atom_site_label
_atom_site_fract_x
_atom_site_fract_y
_atom_site_fract_z
Si Si1 0.250457 0.497255 0.551615
Si Si2 0.833256 0.591698 0.154473
Si Si3 0.388205 0.461232 0.153419
Si Si4 0.334452 0.963342 0.345783
Si Si5 0.020932 0.708657 0.094814
Si Si6 0.886797 0.416093 0.654642
Si Si7 0.518675 0.982600 0.092600
O O1 0.265492 0.250000 0.500000
O O2 0.210719 0.396910 0.605102
O O3 0.289863 0.580422 0.608435
O O4 0.236958 0.750000 0.500000
O O5 0.822450 0.638574 0.250000
O O6 0.854365 0.316491 0.138811
O O7 0.864701 0.820295 0.123207
O O8 0.400797 0.444857 0.250000
O O9 0.357354 0.227357 0.127397
O O10 0.430235 0.445920 0.096163
O O11 0.365163 0.727016 0.131340
O O12 0.323233 0.966574 0.250000
O O13 0.070769 0.638227 0.102325
O O14 0.992115 0.481221 0.136856
O O15 0.008303 0.750000 0.000000
O O16 0.900026 0.436813 0.750000
O O17 0.495565 0.743838 0.138933
O O18 0.500000 0.000000 0.000000
#
# Coordination Sequence:
#
# PCOD8233803 Si02
#       7
#     8   8   8   8   8   8   8
#     4  12  25  42  61  97 126 154 200 247 302 360
#     4  10  22  41  63  86 121 163 198 248 307 372
#     4  10  21  39  64  88 115 158 207 245 287 353
#     4  10  22  43  65  89 122 162 201 244 300 359
#     4  10  21  36  54  80 118 160 201 247 305 366
#     4  10  21  37  60  89 114 153 211 253 304 361
#     4  10  21  38  54  85 119 155 195 238 298 352
#
# _framework density 21.410892
#
# number of rings (size 3 to 8) (size 9 to 14) (size 15 to 20)
#    0.000    1.714    0.000    3.857    0.000    2.857 
#   15.429    5.714    0.000    0.000    0.000    0.000 
#    0.000    0.000    0.000    0.000    0.000    0.000 
#
# Total GULP energy -694432.293858 kJ/mol
# GULP energy per Si atom -12400.576676 kJ/mol
# Density = 2.136216 g / cm^3
# Si number density = 21.410892 Si / 1000 Ang^3
#
#
#
# Elastic Constant Matrix: (Units=GPa)
#
#
# Indices 1 2 3 4 5 6 
#
# 1 123.0389 29.9110 44.6576 0.0000 0.0000 0.0000
# 2 29.9110 157.2025 29.2723 0.0000 0.0000 0.0000
# 3 44.6576 29.2723 41.2254 0.0000 0.0000 0.0000
# 4 0.0000 0.0000 0.0000 16.4348 0.0000 0.0000
# 5 0.0000 0.0000 0.0000 0.0000 14.0177 0.0000
# 6 0.0000 0.0000 0.0000 0.0000 0.0000 35.5565
#
#
#
# Elastic Compliance Matrix: (Units=1/GPa)
#
#
# Indices 1 2 3 4 5 6 
#
# 1 0.013398 0.000177 -0.014639 0.000000 0.000000 0.000000
# 2 0.000177 0.007333 -0.005398 0.000000 0.000000 0.000000
# 3 -0.014639 -0.005398 0.043947 0.000000 0.000000 0.000000
# 4 0.000000 0.000000 0.000000 0.060847 0.000000 0.000000
# 5 0.000000 0.000000 0.000000 0.000000 0.071339 0.000000
# 6 0.000000 0.000000 0.000000 0.000000 0.000000 0.028124
#
#
# Mechanical properties :
#
#
# Convention : Reuss Voigt Hill
#
# Bulk Modulus (GPa) = 40.06781 58.79429 49.43105
# Shear Modulus (GPa) = 18.31327 27.71018 23.01172
#
# Velocity S-wave (km/s) = 2.92777 3.60141 3.28192
# Velocity P-wave (km/s) = 5.49395 6.69427 6.12359
#
# Compressibility (1/GPa) = 0.02495769
#
# Stress axis : x y z
#
# Youngs Moduli (GPa) = 74.63968 136.37431 22.75467
#
# Poissons Ratio (x) = -0.02409 0.33309
# Poissons Ratio (y) = -0.01318 0.12283
# Poissons Ratio (z) = 1.09261 0.73615
#
# Static dielectric constant tensor:
#      x y z
#    x 3.674820 0.000000 0.000000 
#    y 0.000000 -4.994870 0.000000 
#    z 0.000000 0.000000 3.655280 
# 
# 
# High freq. dielectric constant tensor:
#      x y z
#    x 1.843670 0.000000 0.000000 
#    y 0.000000 1.871960 0.000000 
#    z 0.000000 0.000000 1.817850 
# 
# From -- ./inp_files/19631.got.cif
#   From: 2010.03.12/outbox.cif.g09.slc.cpg/sg57_10_cif.got.tgz:19631.got - 2010.04.16 15:48:40.
