data_PCOD8233551
_publ_section_title
;
Structure prediction by ZEFSAII (Michael W. Deem and Ramdas Pophale) SiO2 
 PCOD8233551
Probable space group: P B C M
;
_chemical_formula_sum "Si O2"
_cell_formula_units_Z 64
_cell_length_a 14.776890
_cell_length_b 9.403050
_cell_length_c 22.926283
_cell_angle_alpha 90.000000
_cell_angle_beta 90.000000
_cell_angle_gamma 90.000000
_cell_volume 3185.557399
_symmetry_space_group_name_H-M "P B C M"
_symmetry_group_IT_number 57
_symmetry_cell_setting 'orthorhombic'
loop_
_space_group_symop_operation_xyz
x,y,z
-x,-y,1/2+z
x,1/2-y,-z
-x,1/2+y,1/2-z
-x,-y,-z
x,y,1/2-z
-x,1/2+y,z
x,1/2-y,1/2+z
loop_
_atom_site_type_symbol
_atom_site_label
_atom_site_fract_x
_atom_site_fract_y
_atom_site_fract_z
Si Si1 0.349467 0.637588 0.585765
Si Si2 0.865858 0.655029 0.133917
Si Si3 0.211126 0.617739 0.683785
Si Si4 0.538375 0.882319 0.459019
Si Si5 0.056461 0.828347 0.684023
Si Si6 0.708001 0.448376 0.919242
Si Si7 0.193565 0.058086 0.683892
Si Si8 0.236763 0.095096 0.021085
O O1 0.305813 0.621414 0.649602
O O2 0.458376 0.649802 0.588277
O O3 0.315568 0.789022 0.560201
O O4 0.319546 0.499172 0.547869
O O5 0.835003 0.535942 0.179356
O O6 0.808168 0.793007 0.150397
O O7 0.845324 0.607598 0.067137
O O8 0.972282 0.683899 0.140429
O O9 0.234446 0.655516 0.750000
O O10 0.136782 0.728740 0.659352
O O11 0.563603 0.750000 0.500000
O O12 0.500000 0.000000 0.500000
O O13 0.625183 0.940332 0.424799
O O14 0.028062 0.782314 0.750000
O O15 0.093102 0.990028 0.684737
O O16 0.739375 0.453816 0.851864
O O17 0.788874 0.506246 0.962367
O O18 0.230083 0.074489 0.750000
O O19 0.270080 0.250000 0.000000
#
# Coordination Sequence:
#
# PCOD8233551 Si02
#       8
#     8   8   8   8   8   8   8   8
#     4  11  23  40  65  92 123 160 205 254 310 364
#     4  11  22  36  61  92 126 157 210 260 302 351
#     4  10  21  38  64  91 122 166 208 252 309 368
#     4  12  23  37  63  93 118 152 207 254 300 368
#     4  10  20  38  63  89 120 163 212 256 297 357
#     4  12  23  41  63  90 126 157 205 250 307 374
#     4  11  23  39  64  91 122 163 203 251 309 362
#     4  11  22  38  61  89 125 165 199 251 308 359
#
# _framework density 20.090674
#
# number of rings (size 3 to 8) (size 9 to 14) (size 15 to 20)
#    0.000    1.000    5.000    2.625    0.000    2.000 
#    0.000    1.250    2.750    0.000    0.000    0.000 
#    0.000    0.000    0.000    0.000    0.000    0.000 
#
# Total GULP energy -793192.517308 kJ/mol
# GULP energy per Si atom -12393.633083 kJ/mol
# Density = 2.004495 g / cm^3
# Si number density = 20.090674 Si / 1000 Ang^3
#
#
#
# Elastic Constant Matrix: (Units=GPa)
#
#
# Indices 1 2 3 4 5 6 
#
# 1 100.8989 22.3808 54.5004 0.0000 0.0000 0.0000
# 2 22.3808 117.5956 27.6822 0.0000 0.0000 0.0000
# 3 54.5004 27.6822 107.2560 0.0000 0.0000 0.0000
# 4 0.0000 0.0000 0.0000 29.3827 0.0000 0.0000
# 5 0.0000 0.0000 0.0000 0.0000 28.1198 0.0000
# 6 0.0000 0.0000 0.0000 0.0000 0.0000 26.9305
#
#
#
# Elastic Compliance Matrix: (Units=1/GPa)
#
#
# Indices 1 2 3 4 5 6 
#
# 1 0.013778 -0.001037 -0.006733 0.000000 0.000000 0.000000
# 2 -0.001037 0.009132 -0.001830 0.000000 0.000000 0.000000
# 3 -0.006733 -0.001830 0.013217 0.000000 0.000000 0.000000
# 4 0.000000 0.000000 0.000000 0.034034 0.000000 0.000000
# 5 0.000000 0.000000 0.000000 0.000000 0.035562 0.000000
# 6 0.000000 0.000000 0.000000 0.000000 0.000000 0.037133
#
#
# Mechanical properties :
#
#
# Convention : Reuss Voigt Hill
#
# Bulk Modulus (GPa) = 59.07981 59.43080 59.25530
# Shear Modulus (GPa) = 29.81545 31.63242 30.72393
#
# Velocity S-wave (km/s) = 3.85651 3.97228 3.91482
# Velocity P-wave (km/s) = 7.02144 7.11928 7.07053
#
# Compressibility (1/GPa) = 0.01692626
#
# Stress axis : x y z
#
# Youngs Moduli (GPa) = 72.57948 109.50661 75.65888
#
# Poissons Ratio (x) = 0.11358 0.50944
# Poissons Ratio (y) = 0.07528 0.13844
# Poissons Ratio (z) = 0.48870 0.20038
#
# Static dielectric constant tensor:
#      x y z
#    x 4.084750 0.000000 0.000000 
#    y 0.000000 3.996810 0.000000 
#    z 0.000000 0.000000 3.643420 
# 
# 
# High freq. dielectric constant tensor:
#      x y z
#    x 1.759400 0.000000 0.000000 
#    y 0.000000 1.813360 0.000000 
#    z 0.000000 0.000000 1.771120 
# 
# From -- ./inp_files/27481.got.cif
#   From: 2010.03.12/outbox.cif.g09.slc.cpg/sg57_14_cif.got.tgz:27481.got - 2010.04.16 15:48:40.
