data_PCOD8233939
_publ_section_title
;
Structure prediction by ZEFSAII (Michael W. Deem and Ramdas Pophale) SiO2 
 PCOD8233939
Probable space group: P B C M
;
_chemical_formula_sum "Si O2"
_cell_formula_units_Z 64
_cell_length_a 25.815687
_cell_length_b 14.661672
_cell_length_c 8.834767
_cell_angle_alpha 90.000000
_cell_angle_beta 90.000000
_cell_angle_gamma 90.000000
_cell_volume 3343.969339
_symmetry_space_group_name_H-M "P B C M"
_symmetry_group_IT_number 57
_symmetry_cell_setting 'orthorhombic'
loop_
_space_group_symop_operation_xyz
x,y,z
-x,-y,1/2+z
x,1/2-y,-z
-x,1/2+y,1/2-z
-x,-y,-z
x,y,1/2-z
-x,1/2+y,z
x,1/2-y,1/2+z
loop_
_atom_site_type_symbol
_atom_site_label
_atom_site_fract_x
_atom_site_fract_y
_atom_site_fract_z
Si Si1 0.869185 0.149792 0.929005
Si Si2 0.791457 0.509234 0.073450
Si Si3 0.496972 0.597745 0.571084
Si Si4 0.864886 0.649816 0.572000
Si Si5 0.608080 0.659752 0.571657
Si Si6 0.055905 0.991136 0.571198
Si Si7 0.317470 0.497441 0.423758
Si Si8 0.393480 0.663140 0.423209
O O1 0.876776 0.160628 0.750000
O O2 0.820366 0.085129 0.969716
O O3 0.861098 0.250000 0.000000
O O4 0.918996 0.099532 0.999137
O O5 0.796739 0.529247 0.250000
O O6 0.813856 0.598140 0.988304
O O7 0.732301 0.495990 0.028479
O O8 0.500000 0.500000 0.500000
O O9 0.495084 0.588656 0.750000
O O10 0.548943 0.648789 0.516629
O O11 0.446601 0.648133 0.512362
O O12 0.872208 0.750000 0.500000
O O13 0.859199 0.663543 0.750000
O O14 0.913192 0.584069 0.530613
O O15 0.631793 0.750000 0.500000
O O16 0.610636 0.663546 0.750000
O O17 0.645070 0.580338 0.511818
O O18 0.052632 0.976690 0.750000
O O19 0.000000 0.000000 0.500000
O O20 0.300612 0.481153 0.250000
O O21 0.350625 0.587481 0.441548
O O22 0.366689 0.750000 0.500000
O O23 0.408630 0.679157 0.250000
#
# Coordination Sequence:
#
# PCOD8233939 Si02
#       8
#     8   8   8   8   8   8   8   8
#     4  10  21  38  60  86 117 153 197 244 291 346
#     4  10  22  39  60  86 114 147 192 242 292 345
#     4  11  21  37  60  84 113 148 186 229 282 341
#     4  10  21  38  61  87 116 155 198 240 290 342
#     4  10  22  39  57  82 111 144 183 225 278 337
#     4  10  21  37  58  87 124 162 200 242 290 340
#     4  10  22  41  59  79 115 151 185 234 289 343
#     4  11  23  40  59  84 115 149 189 233 284 343
#
# _framework density 19.138930999999999
#
# number of rings (size 3 to 8) (size 9 to 14) (size 15 to 20)
#    0.000    1.750    1.250    2.625    0.000    8.000 
#    0.000    5.000    0.000    0.000    0.000    0.000 
#    0.000    0.000    0.000    0.000    0.000    0.000 
#
# Total GULP energy -793603.644196 kJ/mol
# GULP energy per Si atom -12400.056941 kJ/mol
# Density = 1.909537 g / cm^3
# Si number density = 19.138931 Si / 1000 Ang^3
#
#
#
# Elastic Constant Matrix: (Units=GPa)
#
#
# Indices 1 2 3 4 5 6 
#
# 1 109.2316 33.9373 50.5384 0.0000 0.0000 0.0000
# 2 33.9373 137.9071 60.8601 0.0000 0.0000 0.0000
# 3 50.5384 60.8601 86.8122 0.0000 0.0000 0.0000
# 4 0.0000 0.0000 0.0000 38.5370 0.0000 0.0000
# 5 0.0000 0.0000 0.0000 0.0000 36.9091 0.0000
# 6 0.0000 0.0000 0.0000 0.0000 0.0000 -83.0734
#
#
#
# Elastic Compliance Matrix: (Units=1/GPa)
#
#
# Indices 1 2 3 4 5 6 
#
# 1 0.012533 0.000196 -0.007434 0.000000 0.000000 0.000000
# 2 0.000196 0.010503 -0.007477 0.000000 0.000000 0.000000
# 3 -0.007434 -0.007477 0.021089 0.000000 0.000000 0.000000
# 4 0.000000 0.000000 0.000000 0.025949 0.000000 0.000000
# 5 0.000000 0.000000 0.000000 0.000000 0.027094 0.000000
# 6 0.000000 0.000000 0.000000 0.000000 0.000000 -0.012038
#
#
# Mechanical properties :
#
#
# Convention : Reuss Voigt Hill
#
# Bulk Modulus (GPa) = 68.05018 69.40252 68.72635
# Shear Modulus (GPa) = 41.85541 11.04887 26.45214
#
# Velocity S-wave (km/s) = 4.68153 2.40531 3.72171
# Velocity P-wave (km/s) = 8.05328 6.63741 7.37938
#
# Compressibility (1/GPa) = 0.01469504
#
# Stress axis : x y z
#
# Youngs Moduli (GPa) = 79.78687 95.21290 47.41802
#
# Poissons Ratio (x) = -0.01871 0.35251
# Poissons Ratio (y) = -0.01568 0.35456
# Poissons Ratio (z) = 0.59315 0.71194
#
# Static dielectric constant tensor:
#      x y z
#    x 3.127170 0.000000 0.000000 
#    y 0.000000 3.464920 0.000000 
#    z 0.000000 0.000000 3.578260 
# 
# 
# High freq. dielectric constant tensor:
#      x y z
#    x 1.742510 0.000000 0.000000 
#    y 0.000000 1.757170 0.000000 
#    z 0.000000 0.000000 1.753970 
# 
# From -- ./inp_files/9268.got.cif
#   From: 2010.03.12/outbox.cif.g09.slc.cpg/sg57_5_cif.got.tgz:9268.got - 2010.04.16 15:48:40.
