data_PCOD8233695
_publ_section_title
;
Structure prediction by ZEFSAII (Michael W. Deem and Ramdas Pophale) SiO2 
 PCOD8233695
Probable space group: P B C M
;
_chemical_formula_sum "Si O2"
_cell_formula_units_Z 48
_cell_length_a 11.951071
_cell_length_b 11.697308
_cell_length_c 17.274417
_cell_angle_alpha 90.000000
_cell_angle_beta 90.000000
_cell_angle_gamma 90.000000
_cell_volume 2414.883316
_symmetry_space_group_name_H-M "P B C M"
_symmetry_group_IT_number 57
_symmetry_cell_setting 'orthorhombic'
loop_
_space_group_symop_operation_xyz
x,y,z
-x,-y,1/2+z
x,1/2-y,-z
-x,1/2+y,1/2-z
-x,-y,-z
x,y,1/2-z
-x,1/2+y,z
x,1/2-y,1/2+z
loop_
_atom_site_type_symbol
_atom_site_label
_atom_site_fract_x
_atom_site_fract_y
_atom_site_fract_z
Si Si1 0.323197 0.293889 0.087446
Si Si2 0.431713 0.750291 0.590736
Si Si3 0.270521 0.558870 0.409230
Si Si4 0.156845 0.125870 0.340029
Si Si5 0.911974 0.302517 0.660684
Si Si6 0.223738 0.892173 0.416175
O O1 0.445516 0.272589 0.125762
O O2 0.295997 0.426834 0.088864
O O3 0.235646 0.233166 0.143312
O O4 0.311861 0.250000 0.000000
O O5 0.450532 0.750000 0.500000
O O6 0.383844 0.874234 0.615922
O O7 0.343357 0.652532 0.616679
O O8 0.172339 0.590273 0.349098
O O9 0.227754 0.608023 0.491196
O O10 0.156890 0.095271 0.250000
O O11 0.033041 0.157584 0.369156
O O12 0.203070 0.018721 0.386786
O O13 0.916921 0.265495 0.750000
O O14 0.874473 0.192388 0.611259
#
# Coordination Sequence:
#
# PCOD8233695 Si02
#       6
#     8   8   8   8   8   8
#     4  11  22  37  62  92 121 153 195 244 295 349
#     4   8  19  35  63  90 117 152 189 239 297 353
#     4  10  21  39  63  94 117 151 201 247 292 349
#     4  11  25  40  58  85 120 161 200 242 296 354
#     4  10  23  41  61  84 119 164 198 240 302 353
#     4  10  20  41  64  88 118 152 201 246 292 353
#
# _framework density 19.876736999999999
#
# number of rings (size 3 to 8) (size 9 to 14) (size 15 to 20)
#    0.000    2.000    1.667    2.000    4.667    4.667 
#    0.000    4.167    0.000    0.000    0.000    0.000 
#    0.000    0.000    0.000    0.000    0.000    0.000 
#
# Total GULP energy -595201.313218 kJ/mol
# GULP energy per Si atom -12400.027359 kJ/mol
# Density = 1.983150 g / cm^3
# Si number density = 19.876737 Si / 1000 Ang^3
#
#
#
# Elastic Constant Matrix: (Units=GPa)
#
#
# Indices 1 2 3 4 5 6 
#
# 1 142.1207 61.6192 14.7865 0.0000 0.0000 0.0000
# 2 61.6192 149.3323 11.5956 0.0000 0.0000 0.0000
# 3 14.7865 11.5956 32.5626 0.0000 0.0000 0.0000
# 4 0.0000 0.0000 0.0000 21.5163 0.0000 0.0000
# 5 0.0000 0.0000 0.0000 0.0000 9.0056 0.0000
# 6 0.0000 0.0000 0.0000 0.0000 0.0000 25.7075
#
#
#
# Elastic Compliance Matrix: (Units=1/GPa)
#
#
# Indices 1 2 3 4 5 6 
#
# 1 0.008808 -0.003418 -0.002782 0.000000 0.000000 0.000000
# 2 -0.003418 0.008214 -0.001373 0.000000 0.000000 0.000000
# 3 -0.002782 -0.001373 0.032462 0.000000 0.000000 0.000000
# 4 0.000000 0.000000 0.000000 0.046476 0.000000 0.000000
# 5 0.000000 0.000000 0.000000 0.000000 0.111042 0.000000
# 6 0.000000 0.000000 0.000000 0.000000 0.000000 0.038899
#
#
# Mechanical properties :
#
#
# Convention : Reuss Voigt Hill
#
# Bulk Modulus (GPa) = 29.12295 55.55757 42.34026
# Shear Modulus (GPa) = 18.34903 26.98016 22.66459
#
# Velocity S-wave (km/s) = 3.04162 3.68825 3.38043
# Velocity P-wave (km/s) = 5.19797 6.79333 6.04848
#
# Compressibility (1/GPa) = 0.03433718
#
# Stress axis : x y z
#
# Youngs Moduli (GPa) = 113.53529 121.74965 30.80494
#
# Poissons Ratio (x) = 0.41618 0.08571
# Poissons Ratio (y) = 0.38810 0.04228
# Poissons Ratio (z) = 0.31589 0.16712
#
# Static dielectric constant tensor:
#      x y z
#    x 3.931000 0.000000 0.000000 
#    y 0.000000 3.610510 0.000000 
#    z 0.000000 0.000000 3.397590 
# 
# 
# High freq. dielectric constant tensor:
#      x y z
#    x 1.787030 0.000000 0.000000 
#    y 0.000000 1.783330 0.000000 
#    z 0.000000 0.000000 1.751550 
# 
# From -- ./inp_files/21832.got.cif
#   From: 2010.03.12/outbox.cif.g09.slc.cpg/sg57_11_cif.got.tgz:21832.got - 2010.04.16 15:48:40.
