data_PCOD8233633
_publ_section_title
;
Structure prediction by ZEFSAII (Michael W. Deem and Ramdas Pophale) SiO2 
 PCOD8233633
Probable space group: P B C M
;
_chemical_formula_sum "Si O2"
_cell_formula_units_Z 56
_cell_length_a 12.924172
_cell_length_b 14.066357
_cell_length_c 14.238793
_cell_angle_alpha 90.000000
_cell_angle_beta 90.000000
_cell_angle_gamma 90.000000
_cell_volume 2588.555858
_symmetry_space_group_name_H-M "P B C M"
_symmetry_group_IT_number 57
_symmetry_cell_setting 'orthorhombic'
loop_
_space_group_symop_operation_xyz
x,y,z
-x,-y,1/2+z
x,1/2-y,-z
-x,1/2+y,1/2-z
-x,-y,-z
x,y,1/2-z
-x,1/2+y,z
x,1/2-y,1/2+z
loop_
_atom_site_type_symbol
_atom_site_label
_atom_site_fract_x
_atom_site_fract_y
_atom_site_fract_z
Si Si1 0.356736 0.260878 0.139025
Si Si2 0.169136 0.366839 0.644971
Si Si3 0.661952 0.975270 0.359846
Si Si4 0.559085 0.336858 0.859431
Si Si5 0.956186 0.182603 0.080942
Si Si6 0.183802 0.955437 0.488440
Si Si7 0.246935 0.786727 0.358135
O O1 0.360151 0.259258 0.250000
O O2 0.249815 0.211940 0.104822
O O3 0.367514 0.369906 0.105082
O O4 0.453211 0.202658 0.094213
O O5 0.203293 0.396825 0.750000
O O6 0.165401 0.456701 0.578578
O O7 0.052168 0.327835 0.651442
O O8 0.693843 0.976385 0.250000
O O9 0.567878 0.049621 0.378597
O O10 0.757599 0.012150 0.418770
O O11 0.551772 0.316780 0.750000
O O12 0.659818 0.279744 0.895453
O O13 0.858456 0.226629 0.135319
O O14 0.998773 0.250000 0.000000
O O15 0.923907 0.084827 0.028808
O O16 0.245055 0.876423 0.427662
O O17 0.262116 0.819689 0.250000
#
# Coordination Sequence:
#
# PCOD8233633 Si02
#       7
#     8   8   8   8   8   8   8
#     4   9  21  40  62  93 128 167 213 258 310 378
#     4  11  24  42  62  89 130 171 206 255 324 381
#     4  10  21  39  65  94 124 168 216 257 313 378
#     4   9  18  37  66  91 124 166 209 261 312 366
#     4  10  22  39  64  88 124 163 212 266 311 373
#     4  11  23  39  63  96 127 159 209 268 315 378
#     4  10  20  39  65  94 124 163 209 259 316 374
#
# _framework density 21.633683000000001
#
# number of rings (size 3 to 8) (size 9 to 14) (size 15 to 20)
#    0.000    2.000    1.429    1.286    2.000    1.714 
#    0.000    8.571    0.000    0.000    0.000    0.000 
#    0.000    0.000    0.000    0.000    0.000    0.000 
#
# Total GULP energy -694109.506394 kJ/mol
# GULP energy per Si atom -12394.812614 kJ/mol
# Density = 2.158444 g / cm^3
# Si number density = 21.633683 Si / 1000 Ang^3
#
#
#
# Elastic Constant Matrix: (Units=GPa)
#
#
# Indices 1 2 3 4 5 6 
#
# 1 152.4981 81.0837 22.6400 0.0000 0.0000 0.0000
# 2 81.0837 150.8339 32.7052 0.0000 0.0000 0.0000
# 3 22.6400 32.7052 73.4867 0.0000 0.0000 0.0000
# 4 0.0000 0.0000 0.0000 30.4950 0.0000 0.0000
# 5 0.0000 0.0000 0.0000 0.0000 -12.4988 0.0000
# 6 0.0000 0.0000 0.0000 0.0000 0.0000 14.9464
#
#
#
# Elastic Compliance Matrix: (Units=1/GPa)
#
#
# Indices 1 2 3 4 5 6 
#
# 1 0.009215 -0.004801 -0.000702 0.000000 0.000000 0.000000
# 2 -0.004801 0.009840 -0.002900 0.000000 0.000000 0.000000
# 3 -0.000702 -0.002900 0.015115 0.000000 0.000000 0.000000
# 4 0.000000 0.000000 0.000000 0.032792 0.000000 0.000000
# 5 0.000000 0.000000 0.000000 0.000000 -0.080008 0.000000
# 6 0.000000 0.000000 0.000000 0.000000 0.000000 0.066906
#
#
# Mechanical properties :
#
#
# Convention : Reuss Voigt Hill
#
# Bulk Modulus (GPa) = 57.59538 72.18629 64.89084
# Shear Modulus (GPa) = 65.39994 22.61452 44.00723
#
# Velocity S-wave (km/s) = 5.50420 3.23668 4.51510
# Velocity P-wave (km/s) = 8.18998 6.88535 7.56584
#
# Compressibility (1/GPa) = 0.01736250
#
# Stress axis : x y z
#
# Youngs Moduli (GPa) = 108.52457 101.63038 66.16030
#
# Poissons Ratio (x) = 0.48795 0.04645
# Poissons Ratio (y) = 0.52105 0.19186
# Poissons Ratio (z) = 0.07619 0.29472
#
# Static dielectric constant tensor:
#      x y z
#    x 3.996220 0.000000 0.000000 
#    y 0.000000 4.145580 0.000000 
#    z 0.000000 0.000000 3.793790 
# 
# 
# High freq. dielectric constant tensor:
#      x y z
#    x 1.840520 0.000000 0.000000 
#    y 0.000000 1.854270 0.000000 
#    z 0.000000 0.000000 1.850900 
# 
# From -- ./inp_files/17709.got.cif
#   From: 2010.03.12/outbox.cif.g09.slc.cpg/sg57_9_cif.got.tgz:17709.got - 2010.04.16 15:48:40.
