data_PCOD8233925
_publ_section_title
;
Structure prediction by ZEFSAII (Michael W. Deem and Ramdas Pophale) SiO2 
 PCOD8233925
Probable space group: P B C M
;
_chemical_formula_sum "Si O2"
_cell_formula_units_Z 64
_cell_length_a 25.895499
_cell_length_b 14.830436
_cell_length_c 8.709792
_cell_angle_alpha 90.000000
_cell_angle_beta 90.000000
_cell_angle_gamma 90.000000
_cell_volume 3344.921938
_symmetry_space_group_name_H-M "P B C M"
_symmetry_group_IT_number 57
_symmetry_cell_setting 'orthorhombic'
loop_
_space_group_symop_operation_xyz
x,y,z
-x,-y,1/2+z
x,1/2-y,-z
-x,1/2+y,1/2-z
-x,-y,-z
x,y,1/2-z
-x,1/2+y,z
x,1/2-y,1/2+z
loop_
_atom_site_type_symbol
_atom_site_label
_atom_site_fract_x
_atom_site_fract_y
_atom_site_fract_z
Si Si1 0.056354 0.504713 0.431294
Si Si2 0.873879 0.657238 0.568204
Si Si3 0.757500 0.657539 0.931138
Si Si4 0.686558 0.005208 0.431006
Si Si5 0.873576 0.347370 0.072382
Si Si6 0.499018 0.850378 0.568920
Si Si7 0.574917 0.009155 0.930303
Si Si8 0.757310 0.152187 0.571558
O O1 0.052301 0.502568 0.250000
O O2 0.089359 0.420917 0.495301
O O3 0.084998 0.594406 0.482315
O O4 0.000000 0.500000 0.500000
O O5 0.895529 0.750000 0.500000
O O6 0.875297 0.662177 0.750000
O O7 0.815619 0.639174 0.508595
O O8 0.757038 0.664764 0.750000
O O9 0.720686 0.578391 0.988849
O O10 0.735514 0.750000 0.000000
O O11 0.675885 0.003162 0.250000
O O12 0.717219 0.094479 0.474559
O O13 0.633704 0.999440 0.522250
O O14 0.889026 0.342995 0.250000
O O15 0.815501 0.386281 0.051473
O O16 0.876762 0.250000 0.000000
O O17 0.505559 0.750000 0.500000
O O18 0.495669 0.838636 0.750000
O O19 0.546277 0.916267 0.519515
O O20 0.447533 0.900991 0.510929
O O21 0.569415 0.024037 0.750000
O O22 0.754045 0.250000 0.500000
O O23 0.741420 0.154313 0.750000
#
# Coordination Sequence:
#
# PCOD8233925 Si02
#       8
#     8   8   8   8   8   8   8   8
#     4  11  23  38  56  80 111 144 183 231 282 337
#     4   9  19  36  57  79 105 140 180 223 271 323
#     4   9  19  35  55  80 109 143 182 222 267 322
#     4  11  22  36  56  83 118 153 185 227 277 327
#     4  10  21  38  60  84 110 144 185 229 279 335
#     4  10  21  39  63  86 111 147 189 234 282 332
#     4  10  22  39  58  84 116 148 188 233 277 328
#     4  10  21  37  58  84 113 146 186 229 276 334
#
# _framework density 19.133482000000001
#
# number of rings (size 3 to 8) (size 9 to 14) (size 15 to 20)
#    0.000    2.000    0.000    3.000    0.000    7.500 
#    0.000    8.750    0.000    0.000    0.000    0.000 
#    0.000    0.000    0.000    0.000    0.000    0.000 
#
# Total GULP energy -793702.250286 kJ/mol
# GULP energy per Si atom -12401.597661 kJ/mol
# Density = 1.908993 g / cm^3
# Si number density = 19.133482 Si / 1000 Ang^3
#
#
#
# Elastic Constant Matrix: (Units=GPa)
#
#
# Indices 1 2 3 4 5 6 
#
# 1 115.8602 60.4302 24.1650 0.0000 0.0000 0.0000
# 2 60.4302 117.7974 30.7753 0.0000 0.0000 0.0000
# 3 24.1650 30.7753 49.4649 0.0000 0.0000 0.0000
# 4 0.0000 0.0000 0.0000 37.0589 0.0000 0.0000
# 5 0.0000 0.0000 0.0000 0.0000 -20.3201 0.0000
# 6 0.0000 0.0000 0.0000 0.0000 0.0000 20.6906
#
#
#
# Elastic Compliance Matrix: (Units=1/GPa)
#
#
# Indices 1 2 3 4 5 6 
#
# 1 0.012024 -0.005533 -0.002432 0.000000 0.000000 0.000000
# 2 -0.005533 0.012683 -0.005188 0.000000 0.000000 0.000000
# 3 -0.002432 -0.005188 0.024632 0.000000 0.000000 0.000000
# 4 0.000000 0.000000 0.000000 0.026984 0.000000 0.000000
# 5 0.000000 0.000000 0.000000 0.000000 -0.049212 0.000000
# 6 0.000000 0.000000 0.000000 0.000000 0.000000 0.048331
#
#
# Mechanical properties :
#
#
# Convention : Reuss Voigt Hill
#
# Bulk Modulus (GPa) = 43.41416 57.09596 50.25506
# Shear Modulus (GPa) = 45.69334 18.66936 32.18135
#
# Velocity S-wave (km/s) = 4.89216 3.12708 4.10559
# Velocity P-wave (km/s) = 7.39259 6.55315 6.98549
#
# Compressibility (1/GPa) = 0.02303396
#
# Stress axis : x y z
#
# Youngs Moduli (GPa) = 83.16532 78.84556 40.59774
#
# Poissons Ratio (x) = 0.43627 0.09872
# Poissons Ratio (y) = 0.46017 0.21061
# Poissons Ratio (z) = 0.20223 0.40904
#
# Static dielectric constant tensor:
#      x y z
#    x 3.484710 0.000000 0.000000 
#    y 0.000000 3.518410 0.000000 
#    z 0.000000 0.000000 3.503760 
# 
# 
# High freq. dielectric constant tensor:
#      x y z
#    x 1.744190 0.000000 0.000000 
#    y 0.000000 1.752100 0.000000 
#    z 0.000000 0.000000 1.751760 
# 
# From -- ./inp_files/9301.got.cif
#   From: 2010.03.12/outbox.cif.g09.slc.cpg/sg57_5_cif.got.tgz:9301.got - 2010.04.16 15:48:40.
