data_PCOD8233068
_publ_section_title
;
Structure prediction by ZEFSAII (Michael W. Deem and Ramdas Pophale) SiO2 
 PCOD8233068
Probable space group: P B C M
;
_chemical_formula_sum "Si O2"
_cell_formula_units_Z 64
_cell_length_a 14.919173
_cell_length_b 23.902927
_cell_length_c 9.401756
_cell_angle_alpha 90.000000
_cell_angle_beta 90.000000
_cell_angle_gamma 90.000000
_cell_volume 3352.778100
_symmetry_space_group_name_H-M "P B C M"
_symmetry_group_IT_number 57
_symmetry_cell_setting 'orthorhombic'
loop_
_space_group_symop_operation_xyz
x,y,z
-x,-y,1/2+z
x,1/2-y,-z
-x,1/2+y,1/2-z
-x,-y,-z
x,y,1/2-z
-x,1/2+y,z
x,1/2-y,1/2+z
loop_
_atom_site_type_symbol
_atom_site_label
_atom_site_fract_x
_atom_site_fract_y
_atom_site_fract_z
Si Si1 0.872138 0.877930 0.413215
Si Si2 0.586323 0.517731 0.086361
Si Si3 0.444005 0.117313 0.914193
Si Si4 0.814807 0.114845 0.085454
Si Si5 0.909635 0.002719 0.085705
Si Si6 0.353807 0.898934 0.411741
Si Si7 0.017286 0.691285 0.418099
Si Si8 0.292593 0.303080 0.409734
O O1 0.902135 0.866283 0.250000
O O2 0.858922 0.944139 0.438796
O O3 0.775541 0.852505 0.448157
O O4 0.944808 0.851728 0.519481
O O5 0.562696 0.530148 0.250000
O O6 0.656361 0.466521 0.074752
O O7 0.500000 0.500000 0.000000
O O8 0.616388 0.574711 0.008943
O O9 0.441261 0.097003 0.750000
O O10 0.547483 0.121197 0.964965
O O11 0.394975 0.176759 0.933749
O O12 0.790364 0.110522 0.250000
O O13 0.885425 0.164190 0.055856
O O14 0.851291 0.054994 0.029296
O O15 0.723157 0.130261 0.004120
O O16 0.933669 0.013106 0.250000
O O17 0.000000 0.000000 0.000000
O O18 0.340078 0.879523 0.250000
O O19 0.011187 0.750000 0.500000
O O20 0.999058 0.700211 0.250000
O O21 0.267918 0.250000 0.500000
O O22 0.278515 0.283250 0.250000
#
# Coordination Sequence:
#
# PCOD8233068 Si02
#       8
#     8   8   8   8   8   8   8   8
#     4  10  21  37  60  87 115 150 188 227 285 345
#     4   9  17  30  49  77 108 140 178 221 270 326
#     4   9  19  36  56  78 109 146 187 232 279 331
#     4  10  22  37  56  84 117 151 189 231 277 335
#     4  10  20  36  57  85 118 151 187 229 284 342
#     4   9  19  34  53  80 112 146 184 226 275 329
#     4  11  23  40  60  83 111 146 190 236 282 333
#     4  10  22  39  58  82 112 149 191 237 285 340
#
# _framework density 19.088647999999999
#
# number of rings (size 3 to 8) (size 9 to 14) (size 15 to 20)
#    0.000    2.250    1.250    1.875    1.750    6.000 
#    0.000    0.625    0.000    3.000    0.000    0.000 
#    0.000    0.000    0.000    0.000    0.000    0.000 
#
# Total GULP energy -793338.745626 kJ/mol
# GULP energy per Si atom -12395.917900 kJ/mol
# Density = 1.904520 g / cm^3
# Si number density = 19.088648 Si / 1000 Ang^3
#
#
#
# Elastic Constant Matrix: (Units=GPa)
#
#
# Indices 1 2 3 4 5 6 
#
# 1 86.3100 14.0595 33.3127 0.0000 0.0000 0.0000
# 2 14.0595 69.7200 22.6935 0.0000 0.0000 0.0000
# 3 33.3127 22.6935 68.4182 0.0000 0.0000 0.0000
# 4 0.0000 0.0000 0.0000 26.3696 0.0000 0.0000
# 5 0.0000 0.0000 0.0000 0.0000 30.6636 0.0000
# 6 0.0000 0.0000 0.0000 0.0000 0.0000 16.6960
#
#
#
# Elastic Compliance Matrix: (Units=1/GPa)
#
#
# Indices 1 2 3 4 5 6 
#
# 1 0.014297 -0.000692 -0.006732 0.000000 0.000000 0.000000
# 2 -0.000692 0.016112 -0.005007 0.000000 0.000000 0.000000
# 3 -0.006732 -0.005007 0.019555 0.000000 0.000000 0.000000
# 4 0.000000 0.000000 0.000000 0.037922 0.000000 0.000000
# 5 0.000000 0.000000 0.000000 0.000000 0.032612 0.000000
# 6 0.000000 0.000000 0.000000 0.000000 0.000000 0.059895
#
#
# Mechanical properties :
#
#
# Convention : Reuss Voigt Hill
#
# Bulk Modulus (GPa) = 39.83750 40.50884 40.17317
# Shear Modulus (GPa) = 23.40576 25.03800 24.22188
#
# Velocity S-wave (km/s) = 3.50546 3.62563 3.56605
# Velocity P-wave (km/s) = 6.10732 6.22852 6.16821
#
# Compressibility (1/GPa) = 0.02510197
#
# Stress axis : x y z
#
# Youngs Moduli (GPa) = 69.94435 62.06362 51.13900
#
# Poissons Ratio (x) = 0.04295 0.34425
# Poissons Ratio (y) = 0.04840 0.25607
# Poissons Ratio (z) = 0.47085 0.31078
#
# Static dielectric constant tensor:
#      x y z
#    x 3.381610 0.000000 0.000000 
#    y 0.000000 3.977660 0.000000 
#    z 0.000000 0.000000 3.906340 
# 
# 
# High freq. dielectric constant tensor:
#      x y z
#    x 1.734900 0.000000 0.000000 
#    y 0.000000 1.733400 0.000000 
#    z 0.000000 0.000000 1.743030 
# 
# From -- ./inp_files/5737.got.cif
#   From: 2010.03.12/outbox.cif.g09.slc.cpg/sg57_3_cif.got.tgz:5737.got - 2010.04.16 15:48:40.
