data_PCOD8233004
_publ_section_title
;
Structure prediction by ZEFSAII (Michael W. Deem and Ramdas Pophale) SiO2 
 PCOD8233004
Probable space group: P B C M
;
_chemical_formula_sum "Si O2"
_cell_formula_units_Z 48
_cell_length_a 9.982057
_cell_length_b 30.420116
_cell_length_c 8.679920
_cell_angle_alpha 90.000000
_cell_angle_beta 90.000000
_cell_angle_gamma 90.000000
_cell_volume 2635.703988
_symmetry_space_group_name_H-M "P B C M"
_symmetry_group_IT_number 57
_symmetry_cell_setting 'orthorhombic'
loop_
_space_group_symop_operation_xyz
x,y,z
-x,-y,1/2+z
x,1/2-y,-z
-x,1/2+y,1/2-z
-x,-y,-z
x,y,1/2-z
-x,1/2+y,z
x,1/2-y,1/2+z
loop_
_atom_site_type_symbol
_atom_site_label
_atom_site_fract_x
_atom_site_fract_y
_atom_site_fract_z
Si Si1 0.903202 0.796037 0.932817
Si Si2 0.400642 0.204105 0.431763
Si Si3 0.897759 0.131143 0.431184
Si Si4 0.596334 0.372175 0.567499
Si Si5 0.891980 0.467315 0.566980
Si Si6 0.395777 0.534018 0.567529
O O1 0.912820 0.793883 0.750000
O O2 0.751080 0.805558 0.986596
O O3 0.997900 0.834154 0.004179
O O4 0.954501 0.750000 0.000000
O O5 0.453072 0.250000 0.500000
O O6 0.410315 0.207584 0.250000
O O7 0.494249 0.164852 0.492642
O O8 0.913471 0.133675 0.250000
O O9 0.745957 0.143160 0.479133
O O10 0.932626 0.081880 0.486630
O O11 0.585429 0.380141 0.750000
O O12 0.559684 0.417373 0.483624
O O13 0.884690 0.471019 0.750000
O O14 0.748226 0.479413 0.498770
O O15 0.000000 0.500000 0.500000
O O16 0.500000 0.500000 0.500000
O O17 0.392576 0.530867 0.750000
#
# Coordination Sequence:
#
# PCOD8233004 Si02
#       6
#     8   8   8   8   8   8
#     4   9  17  31  48  69  95 127 163 201 246 298
#     4   9  18  31  49  71  99 132 167 207 254 306
#     4   8  16  31  50  69  96 130 164 201 248 302
#     4   9  18  34  52  72  99 133 170 212 259 310
#     4  10  20  36  56  80 108 140 177 219 264 316
#     4  11  22  37  56  79 107 140 176 220 269 322
#
# _framework density 18.211452999999999
#
# number of rings (size 3 to 8) (size 9 to 14) (size 15 to 20)
#    0.000    2.667    0.000    3.000    0.000    2.667 
#    0.000    7.500    0.000    0.000    0.000    0.000 
#    0.000    0.000    0.000    0.000    0.000    0.000 
#
# Total GULP energy -595156.041320 kJ/mol
# GULP energy per Si atom -12399.084194 kJ/mol
# Density = 1.817000 g / cm^3
# Si number density = 18.211453 Si / 1000 Ang^3
#
#
#
# Elastic Constant Matrix: (Units=GPa)
#
#
# Indices 1 2 3 4 5 6 
#
# 1 136.6463 122.6643 39.9303 0.0000 0.0000 0.0000
# 2 122.6643 160.6301 43.8957 0.0000 0.0000 0.0000
# 3 39.9303 43.8957 62.8542 0.0000 0.0000 0.0000
# 4 0.0000 0.0000 0.0000 31.4469 0.0000 0.0000
# 5 0.0000 0.0000 0.0000 0.0000 23.0212 0.0000
# 6 0.0000 0.0000 0.0000 0.0000 0.0000 46.9903
#
#
#
# Elastic Compliance Matrix: (Units=1/GPa)
#
#
# Indices 1 2 3 4 5 6 
#
# 1 0.023715 -0.017293 -0.002989 0.000000 0.000000 0.000000
# 2 -0.017293 0.020304 -0.003194 0.000000 0.000000 0.000000
# 3 -0.002989 -0.003194 0.020039 0.000000 0.000000 0.000000
# 4 0.000000 0.000000 0.000000 0.031800 0.000000 0.000000
# 5 0.000000 0.000000 0.000000 0.000000 0.043438 0.000000
# 6 0.000000 0.000000 0.000000 0.000000 0.000000 0.021281
#
#
# Mechanical properties :
#
#
# Convention : Reuss Voigt Hill
#
# Bulk Modulus (GPa) = 58.45620 85.90125 72.17873
# Shear Modulus (GPa) = 23.44868 30.53435 26.99151
#
# Velocity S-wave (km/s) = 3.59218 4.09914 3.85400
# Velocity P-wave (km/s) = 7.02661 8.34716 7.71519
#
# Compressibility (1/GPa) = 0.01710682
#
# Stress axis : x y z
#
# Youngs Moduli (GPa) = 42.16664 49.25082 49.90276
#
# Poissons Ratio (x) = 0.85171 0.14915
# Poissons Ratio (y) = 0.72920 0.15937
# Poissons Ratio (z) = 0.12603 0.15729
#
# Static dielectric constant tensor:
#      x y z
#    x 3.622700 0.000000 0.000000 
#    y 0.000000 3.460360 0.000000 
#    z 0.000000 0.000000 3.182330 
# 
# 
# High freq. dielectric constant tensor:
#      x y z
#    x 1.709350 0.000000 0.000000 
#    y 0.000000 1.712520 0.000000 
#    z 0.000000 0.000000 1.689490 
# 
# From -- ./inp_files/1967.got.cif
#   From: 2010.03.12/outbox.cif.g09.slc.cpg/sg57_1_cif.got.tgz:1967.got - 2010.04.16 15:48:40.
