data_PCOD8233382
_publ_section_title
;
Structure prediction by ZEFSAII (Michael W. Deem and Ramdas Pophale) SiO2 
 PCOD8233382
Probable space group: P B C M
;
_chemical_formula_sum "Si O2"
_cell_formula_units_Z 32
_cell_length_a 19.395088
_cell_length_b 7.973038
_cell_length_c 8.555816
_cell_angle_alpha 90.000000
_cell_angle_beta 90.000000
_cell_angle_gamma 90.000000
_cell_volume 1323.052338
_symmetry_space_group_name_H-M "P B C M"
_symmetry_group_IT_number 57
_symmetry_cell_setting 'orthorhombic'
loop_
_space_group_symop_operation_xyz
x,y,z
-x,-y,1/2+z
x,1/2-y,-z
-x,1/2+y,1/2-z
-x,-y,-z
x,y,1/2-z
-x,1/2+y,z
x,1/2-y,1/2+z
loop_
_atom_site_type_symbol
_atom_site_label
_atom_site_fract_x
_atom_site_fract_y
_atom_site_fract_z
Si Si1 0.144872 0.043494 0.423898
Si Si2 0.063996 0.788444 0.250000
Si Si3 0.090468 0.104940 0.750000
Si Si4 0.570140 0.932232 0.067908
Si Si5 0.703573 0.929349 0.573613
O O1 0.137533 0.144477 0.250000
O O2 0.094780 0.882250 0.404979
O O3 0.128049 0.147560 0.582701
O O4 0.223537 0.973310 0.435322
O O5 0.084392 0.595894 0.250000
O O6 0.981967 0.799923 0.250000
O O7 0.560900 0.934271 0.250000
O O8 0.583365 0.750000 0.000000
O O9 0.640942 0.028156 0.017149
O O10 0.500000 0.000000 0.000000
O O11 0.720476 0.750000 0.500000
O O12 0.677445 0.906629 0.750000
#
# Coordination Sequence:
#
# PCOD8233382 Si02
#       5
#     8   4   4   8   8
#     4   9  23  38  59  89 118 157 203 252 306 364
#     4  10  24  42  60  94 115 166 201 256 311 378
#     4  12  22  42  66  82 129 156 205 254 317 366
#     4  11  22  39  65  95 130 169 212 259 315 374
#     4  10  20  37  61  91 123 160 209 255 304 369
#
# _framework density 24.186496000000002
#
# number of rings (size 3 to 8) (size 9 to 14) (size 15 to 20)
#    0.750    1.000    0.000    6.000    3.500    2.000 
#    0.000    2.500    0.000    0.000    0.000    0.000 
#    0.000    0.000    0.000    0.000    0.000    0.000 
#
# Total GULP energy -396482.257512 kJ/mol
# GULP energy per Si atom -12390.070547 kJ/mol
# Density = 2.413145 g / cm^3
# Si number density = 24.186496 Si / 1000 Ang^3
#
#
#
# Elastic Constant Matrix: (Units=GPa)
#
#
# Indices 1 2 3 4 5 6 
#
# 1 238.8789 16.9926 93.2454 0.0000 0.0000 0.0000
# 2 16.9926 49.3963 56.1139 0.0000 0.0000 0.0000
# 3 93.2454 56.1139 218.2330 0.0000 0.0000 0.0000
# 4 0.0000 0.0000 0.0000 36.0919 0.0000 0.0000
# 5 0.0000 0.0000 0.0000 0.0000 48.7785 0.0000
# 6 0.0000 0.0000 0.0000 0.0000 0.0000 10.8000
#
#
#
# Elastic Compliance Matrix: (Units=1/GPa)
#
#
# Indices 1 2 3 4 5 6 
#
# 1 0.005060 0.001010 -0.002422 0.000000 0.000000 0.000000
# 2 0.001010 0.028800 -0.007837 0.000000 0.000000 0.000000
# 3 -0.002422 -0.007837 0.007632 0.000000 0.000000 0.000000
# 4 0.000000 0.000000 0.000000 0.027707 0.000000 0.000000
# 5 0.000000 0.000000 0.000000 0.000000 0.020501 0.000000
# 6 0.000000 0.000000 0.000000 0.000000 0.000000 0.092593
#
#
# Mechanical properties :
#
#
# Convention : Reuss Voigt Hill
#
# Bulk Modulus (GPa) = 43.48778 93.24577 68.36678
# Shear Modulus (GPa) = 23.98621 41.81116 32.89868
#
# Velocity S-wave (km/s) = 3.15257 4.16227 3.69210
# Velocity P-wave (km/s) = 5.59203 7.85722 6.81934
#
# Compressibility (1/GPa) = 0.02299497
#
# Stress axis : x y z
#
# Youngs Moduli (GPa) = 197.64285 34.72281 131.02599
#
# Poissons Ratio (x) = -0.03509 0.31730
# Poissons Ratio (y) = -0.19971 1.02684
# Poissons Ratio (z) = 0.47863 0.27212
#
# Static dielectric constant tensor:
#      x y z
#    x 6.465240 0.000000 0.000000 
#    y 0.000000 3.806190 0.000000 
#    z 0.000000 0.000000 4.818410 
# 
# 
# High freq. dielectric constant tensor:
#      x y z
#    x 1.981930 0.000000 0.000000 
#    y 0.000000 1.929380 0.000000 
#    z 0.000000 0.000000 1.995200 
# 
# From -- ./inp_files/7566.got.cif
#   From: 2010.03.12/outbox.cif.g09.slc.cpg/sg57_4_cif.got.tgz:7566.got - 2010.04.16 15:48:40.
