data_PCOD8233067
_publ_section_title
;
Structure prediction by ZEFSAII (Michael W. Deem and Ramdas Pophale) SiO2 
 PCOD8233067
Probable space group: P B C M
;
_chemical_formula_sum "Si O2"
_cell_formula_units_Z 52
_cell_length_a 10.708037
_cell_length_b 17.631097
_cell_length_c 15.064510
_cell_angle_alpha 90.000000
_cell_angle_beta 90.000000
_cell_angle_gamma 90.000000
_cell_volume 2844.095715
_symmetry_space_group_name_H-M "P B C M"
_symmetry_group_IT_number 57
_symmetry_cell_setting 'orthorhombic'
loop_
_space_group_symop_operation_xyz
x,y,z
-x,-y,1/2+z
x,1/2-y,-z
-x,1/2+y,1/2-z
-x,-y,-z
x,y,1/2-z
-x,1/2+y,z
x,1/2-y,1/2+z
loop_
_atom_site_type_symbol
_atom_site_label
_atom_site_fract_x
_atom_site_fract_y
_atom_site_fract_z
Si Si1 0.156641 0.154952 0.750000
Si Si2 0.188137 0.323373 0.750000
Si Si3 0.260527 0.771797 0.596583
Si Si4 0.311872 0.410377 0.100848
Si Si5 0.608363 0.424755 0.855276
Si Si6 0.351197 0.138553 0.092717
Si Si7 0.934738 0.245086 0.250000
Si Si8 0.484446 0.218048 0.850426
O O1 0.235561 0.234698 0.750000
O O2 0.190967 0.108407 0.838893
O O3 0.008962 0.174183 0.750000
O O4 0.239445 0.366389 0.836387
O O5 0.036827 0.323565 0.750000
O O6 0.208806 0.750000 0.500000
O O7 0.311847 0.857222 0.601790
O O8 0.146302 0.760250 0.662350
O O9 0.372316 0.713727 0.618763
O O10 0.338098 0.499036 0.102836
O O11 0.431067 0.366560 0.141777
O O12 0.289054 0.383900 0.000406
O O13 0.625360 0.423854 0.750000
O O14 0.462844 0.418385 0.881039
O O15 0.406694 0.223725 0.088230
O O16 0.482232 0.249868 0.750000
#
# Coordination Sequence:
#
# PCOD8233067 Si02
#       8
#     4   4   8   8   8   8   4   8
#     4  10  22  35  56  91 110 152 193 242 292 327
#     4  10  20  36  57  85 112 149 200 238 292 316
#     4  11  22  38  62  83 110 152 204 246 279 339
#     4  12  21  34  59  92 124 149 183 237 300 363
#     4  11  21  38  61  85 123 161 182 228 302 362
#     4  11  19  33  56  87 120 146 190 234 284 348
#     4  10  22  39  61  84 106 149 205 252 278 319
#     4  11  17  33  56  84 117 151 185 237 295 346
#
# _framework density 18.283491999999999
#
# number of rings (size 3 to 8) (size 9 to 14) (size 15 to 20)
#    0.462    0.615    6.154    3.692    0.000    1.231 
#    0.000    0.000    0.000    9.231    0.000    0.000 
#    0.000    0.000    0.000    0.000    0.000    0.000 
#
# Total GULP energy -644811.328597 kJ/mol
# GULP energy per Si atom -12400.217858 kJ/mol
# Density = 1.824188 g / cm^3
# Si number density = 18.283492 Si / 1000 Ang^3
#
#
#
# Elastic Constant Matrix: (Units=GPa)
#
#
# Indices 1 2 3 4 5 6 
#
# 1 115.5299 29.5299 53.7539 0.0000 0.0000 0.0000
# 2 29.5299 73.2990 28.2698 0.0000 0.0000 0.0000
# 3 53.7539 28.2698 164.4903 0.0000 0.0000 0.0000
# 4 0.0000 0.0000 0.0000 22.8081 0.0000 0.0000
# 5 0.0000 0.0000 0.0000 0.0000 12.5371 0.0000
# 6 0.0000 0.0000 0.0000 0.0000 0.0000 17.9636
#
#
#
# Elastic Compliance Matrix: (Units=1/GPa)
#
#
# Indices 1 2 3 4 5 6 
#
# 1 0.010876 -0.003225 -0.003000 0.000000 0.000000 0.000000
# 2 -0.003225 0.015567 -0.001622 0.000000 0.000000 0.000000
# 3 -0.003000 -0.001622 0.007338 0.000000 0.000000 0.000000
# 4 0.000000 0.000000 0.000000 0.043844 0.000000 0.000000
# 5 0.000000 0.000000 0.000000 0.000000 0.079763 0.000000
# 6 0.000000 0.000000 0.000000 0.000000 0.000000 0.055668
#
#
# Mechanical properties :
#
#
# Convention : Reuss Voigt Hill
#
# Bulk Modulus (GPa) = 55.28156 64.04738 59.66447
# Shear Modulus (GPa) = 21.29666 26.77948 24.03807
#
# Velocity S-wave (km/s) = 3.41662 3.83127 3.62987
# Velocity P-wave (km/s) = 6.77243 7.39444 7.09026
#
# Compressibility (1/GPa) = 0.01808922
#
# Stress axis : x y z
#
# Youngs Moduli (GPa) = 91.94747 64.23736 136.26869
#
# Poissons Ratio (x) = 0.20713 0.40880
# Poissons Ratio (y) = 0.29649 0.22099
# Poissons Ratio (z) = 0.27584 0.10417
#
# Static dielectric constant tensor:
#      x y z
#    x 3.179800 0.000000 0.000000 
#    y 0.000000 3.227120 0.000000 
#    z 0.000000 0.000000 3.495830 
# 
# 
# High freq. dielectric constant tensor:
#      x y z
#    x 1.686770 0.000000 0.000000 
#    y 0.000000 1.687660 0.000000 
#    z 0.000000 0.000000 1.725610 
# 
# From -- ./inp_files/17888.got.cif
#   From: 2010.03.12/outbox.cif.g09.slc.cpg/sg57_9_cif.got.tgz:17888.got - 2010.04.16 15:48:40.
