data_PCOD8233276
_publ_section_title
;
Structure prediction by ZEFSAII (Michael W. Deem and Ramdas Pophale) SiO2 
 PCOD8233276
Probable space group: P B C M
;
_chemical_formula_sum "Si O2"
_cell_formula_units_Z 48
_cell_length_a 14.398340
_cell_length_b 20.399403
_cell_length_c 8.777446
_cell_angle_alpha 90.000000
_cell_angle_beta 90.000000
_cell_angle_gamma 90.000000
_cell_volume 2578.089848
_symmetry_space_group_name_H-M "P B C M"
_symmetry_group_IT_number 57
_symmetry_cell_setting 'orthorhombic'
loop_
_space_group_symop_operation_xyz
x,y,z
-x,-y,1/2+z
x,1/2-y,-z
-x,1/2+y,1/2-z
-x,-y,-z
x,y,1/2-z
-x,1/2+y,z
x,1/2-y,1/2+z
loop_
_atom_site_type_symbol
_atom_site_label
_atom_site_fract_x
_atom_site_fract_y
_atom_site_fract_z
Si Si1 0.746132 0.488811 0.924381
Si Si2 0.940123 0.819199 0.929709
Si Si3 0.557492 0.681323 0.569708
Si Si4 0.055300 0.940845 0.928048
Si Si5 0.258922 0.372443 0.928801
Si Si6 0.452669 0.562683 0.426317
O O1 0.752274 0.514172 0.750000
O O2 0.836032 0.446000 0.968990
O O3 0.657997 0.441817 0.946228
O O4 0.738067 0.550761 0.034461
O O5 0.943503 0.812608 0.750000
O O6 0.838344 0.842121 0.983624
O O7 0.015285 0.872027 0.990255
O O8 0.967197 0.750000 0.000000
O O9 0.525059 0.750000 0.500000
O O10 0.553534 0.684806 0.750000
O O11 0.661900 0.665562 0.519338
O O12 0.485761 0.627149 0.512121
O O13 0.036726 0.944941 0.750000
O O14 0.000000 0.000000 0.000000
O O15 0.275477 0.362904 0.750000
O O16 0.500000 0.500000 0.500000
O O17 0.482199 0.566474 0.250000
#
# Coordination Sequence:
#
# PCOD8233276 Si02
#       6
#     8   8   8   8   8   8
#     4  10  21  36  59  87 117 151 192 240 292 345
#     4  10  22  37  55  83 117 153 191 234 287 344
#     4  12  25  41  60  86 119 158 197 242 298 353
#     4  10  20  37  58  84 115 151 193 239 285 341
#     4  11  21  35  58  88 120 151 189 240 292 351
#     4  11  22  38  60  88 118 155 197 244 293 346
#
# _framework density 18.618435999999999
#
# number of rings (size 3 to 8) (size 9 to 14) (size 15 to 20)
#    0.000    1.333    3.333    3.000    0.000    4.000 
#    0.000    0.833    0.000    2.000    0.000    0.000 
#    0.000    0.000    0.000    0.000    0.000    0.000 
#
# Total GULP energy -595410.185564 kJ/mol
# GULP energy per Si atom -12404.378866 kJ/mol
# Density = 1.857606 g / cm^3
# Si number density = 18.618436 Si / 1000 Ang^3
#
#
#
# Elastic Constant Matrix: (Units=GPa)
#
#
# Indices 1 2 3 4 5 6 
#
# 1 126.6888 66.5788 44.7218 0.0000 0.0000 0.0000
# 2 66.5788 160.7131 54.2655 0.0000 0.0000 0.0000
# 3 44.7218 54.2655 95.2554 0.0000 0.0000 0.0000
# 4 0.0000 0.0000 0.0000 36.0677 0.0000 0.0000
# 5 0.0000 0.0000 0.0000 0.0000 15.3503 0.0000
# 6 0.0000 0.0000 0.0000 0.0000 0.0000 21.2719
#
#
#
# Elastic Compliance Matrix: (Units=1/GPa)
#
#
# Indices 1 2 3 4 5 6 
#
# 1 0.010790 -0.003417 -0.003119 0.000000 0.000000 0.000000
# 2 -0.003417 0.008786 -0.003401 0.000000 0.000000 0.000000
# 3 -0.003119 -0.003401 0.013900 0.000000 0.000000 0.000000
# 4 0.000000 0.000000 0.000000 0.027726 0.000000 0.000000
# 5 0.000000 0.000000 0.000000 0.000000 0.065145 0.000000
# 6 0.000000 0.000000 0.000000 0.000000 0.000000 0.047010
#
#
# Mechanical properties :
#
#
# Convention : Reuss Voigt Hill
#
# Bulk Modulus (GPa) = 73.51970 79.30994 76.41482
# Shear Modulus (GPa) = 25.28230 29.01071 27.14650
#
# Velocity S-wave (km/s) = 3.68899 3.95165 3.82258
# Velocity P-wave (km/s) = 7.59725 7.96936 7.78553
#
# Compressibility (1/GPa) = 0.01360180
#
# Stress axis : x y z
#
# Youngs Moduli (GPa) = 92.67717 113.81535 71.94117
#
# Poissons Ratio (x) = 0.38888 0.22442
# Poissons Ratio (y) = 0.31666 0.24469
# Poissons Ratio (z) = 0.28910 0.38711
#
# Static dielectric constant tensor:
#      x y z
#    x 3.657040 0.000000 0.000000 
#    y 0.000000 3.478020 0.000000 
#    z 0.000000 0.000000 3.464990 
# 
# 
# High freq. dielectric constant tensor:
#      x y z
#    x 1.727810 0.000000 0.000000 
#    y 0.000000 1.721850 0.000000 
#    z 0.000000 0.000000 1.727470 
# 
# From -- ./inp_files/4561.got.cif
#   From: 2010.03.12/outbox.cif.g09.slc.cpg/sg57_3_cif.got.tgz:4561.got - 2010.04.16 15:48:40.
