data_PCOD8233563
_publ_section_title
;
Structure prediction by ZEFSAII (Michael W. Deem and Ramdas Pophale) SiO2 
 PCOD8233563
Probable space group: P B C M
;
_chemical_formula_sum "Si O2"
_cell_formula_units_Z 40
_cell_length_a 14.887440
_cell_length_b 9.367348
_cell_length_c 13.891350
_cell_angle_alpha 90.000000
_cell_angle_beta 90.000000
_cell_angle_gamma 90.000000
_cell_volume 1937.229762
_symmetry_space_group_name_H-M "P B C M"
_symmetry_group_IT_number 57
_symmetry_cell_setting 'orthorhombic'
loop_
_space_group_symop_operation_xyz
x,y,z
-x,-y,1/2+z
x,1/2-y,-z
-x,1/2+y,1/2-z
-x,-y,-z
x,y,1/2-z
-x,1/2+y,z
x,1/2-y,1/2+z
loop_
_atom_site_type_symbol
_atom_site_label
_atom_site_fract_x
_atom_site_fract_y
_atom_site_fract_z
Si Si1 0.644905 0.864301 0.431560
Si Si2 0.274333 0.886348 0.442996
Si Si3 0.378231 0.839899 0.250000
Si Si4 0.103337 0.030077 0.484400
Si Si5 0.552966 0.011459 0.250000
Si Si6 0.829727 0.714557 0.638699
O O1 0.590039 0.750000 0.500000
O O2 0.588828 0.938616 0.347642
O O3 0.723616 0.770569 0.381502
O O4 0.682768 0.978564 0.505600
O O5 0.305946 0.750000 0.500000
O O6 0.311322 0.862685 0.337345
O O7 0.164835 0.901152 0.442573
O O8 0.448216 0.971729 0.250000
O O9 0.426685 0.682148 0.250000
O O10 0.114168 0.159544 0.409947
O O11 0.139528 0.066013 0.591254
O O12 0.000000 0.000000 0.500000
O O13 0.852395 0.711435 0.750000
#
# Coordination Sequence:
#
# PCOD8233563 Si02
#       6
#     8   8   4   8   4   8
#     4  11  22  43  72  98 133 185 223 285 347 413
#     4  11  24  45  68  96 142 181 226 285 355 403
#     4  12  30  46  70 105 137 184 234 289 349 416
#     4  10  23  40  62  96 134 174 225 285 338 416
#     4  12  28  46  70 105 141 174 244 291 335 426
#     4  10  20  38  64  93 126 171 229 274 345 410
#
# _framework density 20.648040999999999
#
# number of rings (size 3 to 8) (size 9 to 14) (size 15 to 20)
#    0.000    1.200    7.000    0.000    7.000    2.400 
#    0.000    0.000    0.000    0.000    0.000    0.000 
#    0.000    0.000    0.000    0.000    0.000    0.000 
#
# Total GULP energy -495588.367709 kJ/mol
# GULP energy per Si atom -12389.709193 kJ/mol
# Density = 2.060104 g / cm^3
# Si number density = 20.648041 Si / 1000 Ang^3
#
#
#
# Elastic Constant Matrix: (Units=GPa)
#
#
# Indices 1 2 3 4 5 6 
#
# 1 109.1554 36.8966 59.3547 0.0000 0.0000 0.0000
# 2 36.8966 90.3498 50.2388 0.0000 0.0000 0.0000
# 3 59.3547 50.2388 180.7344 0.0000 0.0000 0.0000
# 4 0.0000 0.0000 0.0000 32.9090 0.0000 0.0000
# 5 0.0000 0.0000 0.0000 0.0000 23.3593 0.0000
# 6 0.0000 0.0000 0.0000 0.0000 0.0000 25.7524
#
#
#
# Elastic Compliance Matrix: (Units=1/GPa)
#
#
# Indices 1 2 3 4 5 6 
#
# 1 0.011874 -0.003171 -0.003018 0.000000 0.000000 0.000000
# 2 -0.003171 0.013938 -0.002833 0.000000 0.000000 0.000000
# 3 -0.003018 -0.002833 0.007312 0.000000 0.000000 0.000000
# 4 0.000000 0.000000 0.000000 0.030387 0.000000 0.000000
# 5 0.000000 0.000000 0.000000 0.000000 0.042810 0.000000
# 6 0.000000 0.000000 0.000000 0.000000 0.000000 0.038831
#
#
# Mechanical properties :
#
#
# Convention : Reuss Voigt Hill
#
# Bulk Modulus (GPa) = 66.31329 74.80220 70.55775
# Shear Modulus (GPa) = 29.72243 31.98741 30.85492
#
# Velocity S-wave (km/s) = 3.79816 3.94023 3.86985
# Velocity P-wave (km/s) = 7.17081 7.55026 7.36298
#
# Compressibility (1/GPa) = 0.01507993
#
# Stress axis : x y z
#
# Youngs Moduli (GPa) = 84.21587 71.74447 136.76714
#
# Poissons Ratio (x) = 0.22749 0.41279
# Poissons Ratio (y) = 0.26704 0.38748
# Poissons Ratio (z) = 0.25418 0.20326
#
# Static dielectric constant tensor:
#      x y z
#    x 3.746930 0.000000 0.000000 
#    y 0.000000 3.769080 0.000000 
#    z 0.000000 0.000000 3.897360 
# 
# 
# High freq. dielectric constant tensor:
#      x y z
#    x 1.792430 0.000000 0.000000 
#    y 0.000000 1.813230 0.000000 
#    z 0.000000 0.000000 1.821710 
# 
# From -- ./inp_files/18281.got.cif
#   From: 2010.03.12/outbox.cif.g09.slc.cpg/sg57_10_cif.got.tgz:18281.got - 2010.04.16 15:48:40.
