data_PCOD8233756
_publ_section_title
;
Structure prediction by ZEFSAII (Michael W. Deem and Ramdas Pophale) SiO2 
 PCOD8233756
Probable space group: P B C M
;
_chemical_formula_sum "Si O2"
_cell_formula_units_Z 48
_cell_length_a 11.721259
_cell_length_b 25.196572
_cell_length_c 8.625266
_cell_angle_alpha 90.000000
_cell_angle_beta 90.000000
_cell_angle_gamma 90.000000
_cell_volume 2547.347646
_symmetry_space_group_name_H-M "P B C M"
_symmetry_group_IT_number 57
_symmetry_cell_setting 'orthorhombic'
loop_
_space_group_symop_operation_xyz
x,y,z
-x,-y,1/2+z
x,1/2-y,-z
-x,1/2+y,1/2-z
-x,-y,-z
x,y,1/2-z
-x,1/2+y,z
x,1/2-y,1/2+z
loop_
_atom_site_type_symbol
_atom_site_label
_atom_site_fract_x
_atom_site_fract_y
_atom_site_fract_z
Si Si1 0.509827 0.441496 0.069073
Si Si2 0.735320 0.398449 0.933286
Si Si3 0.875108 0.000137 0.433288
Si Si4 0.122968 0.192855 0.432288
Si Si5 0.262007 0.101579 0.930050
Si Si6 0.882616 0.192439 0.933215
O O1 0.538157 0.446662 0.250000
O O2 0.394519 0.408933 0.040785
O O3 0.500000 0.500000 0.000000
O O4 0.605377 0.407644 0.981903
O O5 0.743505 0.391175 0.750000
O O6 0.809248 0.448103 0.993418
O O7 0.781260 0.346101 0.016350
O O8 0.879697 0.000280 0.250000
O O9 0.808320 0.948694 0.493964
O O10 0.000000 0.000000 0.500000
O O11 0.155044 0.250000 0.500000
O O12 0.108413 0.197843 0.250000
O O13 0.224716 0.152943 0.473609
O O14 0.003771 0.171407 0.502252
O O15 0.235748 0.111556 0.750000
O O16 0.890270 0.195663 0.750000
O O17 0.854109 0.250000 0.000000
#
# Coordination Sequence:
#
# PCOD8233756 Si02
#       6
#     8   8   8   8   8   8
#     4  11  22  39  61  85 116 159 202 243 294 350
#     4  11  22  39  59  86 119 154 197 244 293 351
#     4  10  21  35  53  81 116 151 186 234 290 344
#     4  11  22  38  61  89 118 155 195 241 295 351
#     4  10  21  39  58  82 117 155 196 242 289 346
#     4  11  22  39  62  89 119 157 196 241 295 351
#
# _framework density 18.843129999999999
#
# number of rings (size 3 to 8) (size 9 to 14) (size 15 to 20)
#    0.000    1.333    1.667    6.000    0.000    6.000 
#    0.000    0.833    0.000    4.000    0.000    0.000 
#    0.000    0.000    0.000    0.000    0.000    0.000 
#
# Total GULP energy -595467.952052 kJ/mol
# GULP energy per Si atom -12405.582334 kJ/mol
# Density = 1.880024 g / cm^3
# Si number density = 18.843130 Si / 1000 Ang^3
#
#
#
# Elastic Constant Matrix: (Units=GPa)
#
#
# Indices 1 2 3 4 5 6 
#
# 1 115.0403 62.1299 41.6284 0.0000 0.0000 0.0000
# 2 62.1299 116.3884 52.1498 0.0000 0.0000 0.0000
# 3 41.6284 52.1498 114.6435 0.0000 0.0000 0.0000
# 4 0.0000 0.0000 0.0000 31.7655 0.0000 0.0000
# 5 0.0000 0.0000 0.0000 0.0000 35.4134 0.0000
# 6 0.0000 0.0000 0.0000 0.0000 0.0000 31.0262
#
#
#
# Elastic Compliance Matrix: (Units=1/GPa)
#
#
# Indices 1 2 3 4 5 6 
#
# 1 0.012533 -0.005842 -0.001893 0.000000 0.000000 0.000000
# 2 -0.005842 0.013514 -0.004026 0.000000 0.000000 0.000000
# 3 -0.001893 -0.004026 0.011242 0.000000 0.000000 0.000000
# 4 0.000000 0.000000 0.000000 0.031481 0.000000 0.000000
# 5 0.000000 0.000000 0.000000 0.000000 0.028238 0.000000
# 6 0.000000 0.000000 0.000000 0.000000 0.000000 0.032231
#
#
# Mechanical properties :
#
#
# Convention : Reuss Voigt Hill
#
# Bulk Modulus (GPa) = 72.64362 73.09872 72.87117
# Shear Modulus (GPa) = 31.77630 32.31863 32.04746
#
# Velocity S-wave (km/s) = 4.11099 4.14592 4.12849
# Velocity P-wave (km/s) = 7.82107 7.86102 7.84107
#
# Compressibility (1/GPa) = 0.01376583
#
# Stress axis : x y z
#
# Youngs Moduli (GPa) = 79.79103 73.99507 88.95430
#
# Poissons Ratio (x) = 0.43226 0.16843
# Poissons Ratio (y) = 0.46612 0.35816
# Poissons Ratio (z) = 0.15108 0.29793
#
# Static dielectric constant tensor:
#      x y z
#    x 3.479170 0.000000 0.000000 
#    y 0.000000 3.528250 0.000000 
#    z 0.000000 0.000000 3.489020 
# 
# 
# High freq. dielectric constant tensor:
#      x y z
#    x 1.733910 0.000000 0.000000 
#    y 0.000000 1.735740 0.000000 
#    z 0.000000 0.000000 1.741690 
# 
# From -- ./inp_files/3089.got.cif
#   From: 2010.03.12/outbox.cif.g09.slc.cpg/sg57_2_cif.got.tgz:3089.got - 2010.04.16 15:48:40.
