data_PCOD8233642
_publ_section_title
;
Structure prediction by ZEFSAII (Michael W. Deem and Ramdas Pophale) SiO2 
 PCOD8233642
Probable space group: P B C M
;
_chemical_formula_sum "Si O2"
_cell_formula_units_Z 56
_cell_length_a 11.297610
_cell_length_b 16.099486
_cell_length_c 12.255566
_cell_angle_alpha 90.000000
_cell_angle_beta 90.000000
_cell_angle_gamma 90.000000
_cell_volume 2229.112373
_symmetry_space_group_name_H-M "P B C M"
_symmetry_group_IT_number 57
_symmetry_cell_setting 'orthorhombic'
loop_
_space_group_symop_operation_xyz
x,y,z
-x,-y,1/2+z
x,1/2-y,-z
-x,1/2+y,1/2-z
-x,-y,-z
x,y,1/2-z
-x,1/2+y,z
x,1/2-y,1/2+z
loop_
_atom_site_type_symbol
_atom_site_label
_atom_site_fract_x
_atom_site_fract_y
_atom_site_fract_z
Si Si1 0.702025 0.473774 0.121450
Si Si2 0.188571 0.360965 0.930364
Si Si3 0.202873 0.701618 0.880215
Si Si4 0.314125 0.629143 0.127293
Si Si5 0.066865 0.295998 0.368745
Si Si6 0.443838 0.165493 0.044832
Si Si7 0.566250 0.525475 0.879871
O O1 0.700031 0.458614 0.250000
O O2 0.807227 0.540653 0.097360
O O3 0.728443 0.380597 0.071140
O O4 0.569488 0.507832 0.085318
O O5 0.094148 0.303753 0.865564
O O6 0.316959 0.324225 0.897379
O O7 0.157701 0.347500 0.057491
O O8 0.223498 0.706705 0.750000
O O9 0.247161 0.792427 0.930557
O O10 0.066326 0.691460 0.911170
O O11 0.264247 0.623814 0.250000
O O12 0.457423 0.638369 0.132543
O O13 0.320850 0.533907 0.076111
O O14 0.079786 0.334992 0.250000
O O15 0.496868 0.250000 0.000000
O O16 0.420483 0.114094 0.933367
O O17 0.574614 0.533583 0.750000
#
# Coordination Sequence:
#
# PCOD8233642 Si02
#       7
#     8   8   8   8   8   8   8
#     4  10  20  39  66  97 132 171 215 270 331 398
#     4  11  23  40  64  95 126 168 226 270 323 398
#     4   9  20  41  68  96 130 174 226 273 327 397
#     4  10  21  40  67  98 129 168 211 264 335 399
#     4  10  22  44  64  88 129 175 226 283 327 383
#     4  12  23  39  60  94 133 165 210 269 320 398
#     4  10  22  40  64  97 136 171 209 265 337 406
#
# _framework density 25.122107
#
# number of rings (size 3 to 8) (size 9 to 14) (size 15 to 20)
#    0.000    1.714    2.857    1.714    0.000    3.429 
#    7.714    1.429    0.000    5.143    0.000    0.000 
#    0.000    0.000    0.000    0.000    0.000    0.000 
#
# Total GULP energy -693786.716085 kJ/mol
# GULP energy per Si atom -12389.048502 kJ/mol
# Density = 2.506493 g / cm^3
# Si number density = 25.122107 Si / 1000 Ang^3
#
#
#
# Elastic Constant Matrix: (Units=GPa)
#
#
# Indices 1 2 3 4 5 6 
#
# 1 100.7328 27.8193 -0.1756 0.0000 0.0000 0.0000
# 2 27.8193 161.8072 21.2879 0.0000 0.0000 0.0000
# 3 -0.1756 21.2879 45.8896 0.0000 0.0000 0.0000
# 4 0.0000 0.0000 0.0000 33.6310 0.0000 0.0000
# 5 0.0000 0.0000 0.0000 0.0000 28.2476 0.0000
# 6 0.0000 0.0000 0.0000 0.0000 0.0000 40.6216
#
#
#
# Elastic Compliance Matrix: (Units=1/GPa)
#
#
# Indices 1 2 3 4 5 6 
#
# 1 0.010459 -0.001921 0.000931 0.000000 0.000000 0.000000
# 2 -0.001921 0.006935 -0.003224 0.000000 0.000000 0.000000
# 3 0.000931 -0.003224 0.023291 0.000000 0.000000 0.000000
# 4 0.000000 0.000000 0.000000 0.029734 0.000000 0.000000
# 5 0.000000 0.000000 0.000000 0.000000 0.035401 0.000000
# 6 0.000000 0.000000 0.000000 0.000000 0.000000 0.024617
#
#
# Mechanical properties :
#
#
# Convention : Reuss Voigt Hill
#
# Bulk Modulus (GPa) = 31.00127 45.14362 38.07245
# Shear Modulus (GPa) = 33.41842 37.79990 35.60916
#
# Velocity S-wave (km/s) = 3.65120 3.88319 3.76898
# Velocity P-wave (km/s) = 5.49018 6.17367 5.84193
#
# Compressibility (1/GPa) = 0.03225675
#
# Stress axis : x y z
#
# Youngs Moduli (GPa) = 95.60838 144.20393 42.93552
#
# Poissons Ratio (x) = 0.27698 -0.03998
# Poissons Ratio (y) = 0.18364 0.13844
# Poissons Ratio (z) = -0.08902 0.46495
#
# Static dielectric constant tensor:
#      x y z
#    x 4.344620 0.000000 0.000000 
#    y 0.000000 5.047450 0.000000 
#    z 0.000000 0.000000 4.739790 
# 
# 
# High freq. dielectric constant tensor:
#      x y z
#    x 1.971530 0.000000 0.000000 
#    y 0.000000 2.017070 0.000000 
#    z 0.000000 0.000000 2.041720 
# 
# From -- ./inp_files/17712.got.cif
#   From: 2010.03.12/outbox.cif.g09.slc.cpg/sg57_9_cif.got.tgz:17712.got - 2010.04.16 15:48:40.
