data_PCOD8233841
_publ_section_title
;
Structure prediction by ZEFSAII (Michael W. Deem and Ramdas Pophale) SiO2 
 PCOD8233841
Probable space group: P B C M
;
_chemical_formula_sum "Si O2"
_cell_formula_units_Z 48
_cell_length_a 11.832740
_cell_length_b 11.683874
_cell_length_c 17.543067
_cell_angle_alpha 90.000000
_cell_angle_beta 90.000000
_cell_angle_gamma 90.000000
_cell_volume 2425.368366
_symmetry_space_group_name_H-M "P B C M"
_symmetry_group_IT_number 57
_symmetry_cell_setting 'orthorhombic'
loop_
_space_group_symop_operation_xyz
x,y,z
-x,-y,1/2+z
x,1/2-y,-z
-x,1/2+y,1/2-z
-x,-y,-z
x,y,1/2-z
-x,1/2+y,z
x,1/2-y,1/2+z
loop_
_atom_site_type_symbol
_atom_site_label
_atom_site_fract_x
_atom_site_fract_y
_atom_site_fract_z
Si Si1 0.303451 0.636531 0.404097
Si Si2 0.855271 0.935336 0.923678
Si Si3 0.098122 0.014401 0.595636
Si Si4 0.659093 0.110279 0.921408
Si Si5 0.567139 0.935643 0.163018
Si Si6 0.221436 0.286587 0.163213
O O1 0.172074 0.601205 0.400188
O O2 0.311537 0.769065 0.381384
O O3 0.353238 0.619345 0.488249
O O4 0.374910 0.559510 0.346041
O O5 0.816985 0.812199 0.893785
O O6 0.757477 0.022595 0.899925
O O7 0.880419 0.926746 0.013493
O O8 0.970589 0.979156 0.885113
O O9 0.134519 0.107524 0.658064
O O10 0.540388 0.066315 0.890866
O O11 0.528878 0.921438 0.250000
O O12 0.654368 0.834318 0.139693
O O13 0.221895 0.241340 0.250000
#
# Coordination Sequence:
#
# PCOD8233841 Si02
#       6
#     8   8   8   8   8   8
#     4   9  20  39  58  85 116 148 186 240 291 339
#     4  10  21  36  63  90 113 146 194 244 284 341
#     4   9  20  39  62  87 115 149 189 238 294 341
#     4  10  21  36  59  89 114 146 193 239 285 337
#     4  10  22  39  58  81 117 158 193 232 285 344
#     4  10  22  39  57  83 119 155 191 233 288 348
#
# _framework density 19.790807999999998
#
# number of rings (size 3 to 8) (size 9 to 14) (size 15 to 20)
#    0.000    2.333    0.000    1.000    4.667    2.000 
#    6.000    0.000    0.000    0.000    0.000    0.000 
#    0.000    0.000    0.000    0.000    0.000    0.000 
#
# Total GULP energy -595240.603477 kJ/mol
# GULP energy per Si atom -12400.845906 kJ/mol
# Density = 1.974576 g / cm^3
# Si number density = 19.790808 Si / 1000 Ang^3
#
#
#
# Elastic Constant Matrix: (Units=GPa)
#
#
# Indices 1 2 3 4 5 6 
#
# 1 145.8411 40.8722 31.8842 0.0000 0.0000 0.0000
# 2 40.8722 101.4962 22.4007 0.0000 0.0000 0.0000
# 3 31.8842 22.4007 35.5831 0.0000 0.0000 0.0000
# 4 0.0000 0.0000 0.0000 21.8882 0.0000 0.0000
# 5 0.0000 0.0000 0.0000 0.0000 16.7049 0.0000
# 6 0.0000 0.0000 0.0000 0.0000 0.0000 24.5773
#
#
#
# Elastic Compliance Matrix: (Units=1/GPa)
#
#
# Indices 1 2 3 4 5 6 
#
# 1 0.008903 -0.002119 -0.006644 0.000000 0.000000 0.000000
# 2 -0.002119 0.011947 -0.005622 0.000000 0.000000 0.000000
# 3 -0.006644 -0.005622 0.037596 0.000000 0.000000 0.000000
# 4 0.000000 0.000000 0.000000 0.045687 0.000000 0.000000
# 5 0.000000 0.000000 0.000000 0.000000 0.059863 0.000000
# 6 0.000000 0.000000 0.000000 0.000000 0.000000 0.040688
#
#
# Mechanical properties :
#
#
# Convention : Reuss Voigt Hill
#
# Bulk Modulus (GPa) = 33.69737 52.58160 43.13949
# Shear Modulus (GPa) = 20.54700 25.15161 22.84931
#
# Velocity S-wave (km/s) = 3.22562 3.56880 3.40154
# Velocity P-wave (km/s) = 5.56207 6.60365 6.10511
#
# Compressibility (1/GPa) = 0.02967590
#
# Stress axis : x y z
#
# Youngs Moduli (GPa) = 112.32076 83.70503 26.59885
#
# Poissons Ratio (x) = 0.17737 0.17671
# Poissons Ratio (y) = 0.23800 0.14954
# Poissons Ratio (z) = 0.74622 0.47060
#
# Static dielectric constant tensor:
#      x y z
#    x 3.637530 0.000000 0.000000 
#    y 0.000000 3.614290 0.000000 
#    z 0.000000 0.000000 3.431980 
# 
# 
# High freq. dielectric constant tensor:
#      x y z
#    x 1.777360 0.000000 0.000000 
#    y 0.000000 1.774670 0.000000 
#    z 0.000000 0.000000 1.755970 
# 
# From -- ./inp_files/21784.got.cif
#   From: 2010.03.12/outbox.cif.g09.slc.cpg/sg57_11_cif.got.tgz:21784.got - 2010.04.16 15:48:40.
