data_PCOD8233696
_publ_section_title
;
Structure prediction by ZEFSAII (Michael W. Deem and Ramdas Pophale) SiO2 
 PCOD8233696
Probable space group: P B C M
;
_chemical_formula_sum "Si O2"
_cell_formula_units_Z 64
_cell_length_a 13.982092
_cell_length_b 12.052381
_cell_length_c 17.913415
_cell_angle_alpha 90.000000
_cell_angle_beta 90.000000
_cell_angle_gamma 90.000000
_cell_volume 3018.723912
_symmetry_space_group_name_H-M "P B C M"
_symmetry_group_IT_number 57
_symmetry_cell_setting 'orthorhombic'
loop_
_space_group_symop_operation_xyz
x,y,z
-x,-y,1/2+z
x,1/2-y,-z
-x,1/2+y,1/2-z
-x,-y,-z
x,y,1/2-z
-x,1/2+y,z
x,1/2-y,1/2+z
loop_
_atom_site_type_symbol
_atom_site_label
_atom_site_fract_x
_atom_site_fract_y
_atom_site_fract_z
Si Si1 0.674415 0.031203 0.968228
Si Si2 0.719306 0.179976 0.665365
Si Si3 0.919430 0.319959 0.393004
Si Si4 0.387229 0.606880 0.115344
Si Si5 0.877490 0.084124 0.039186
Si Si6 0.682879 0.628301 0.833248
Si Si7 0.099331 0.414828 0.165124
Si Si8 0.576649 0.691777 0.072801
O O1 0.666270 0.096875 0.890760
O O2 0.650069 0.904729 0.950932
O O3 0.600829 0.085872 0.026245
O O4 0.771961 0.042545 0.016405
O O5 0.683563 0.160469 0.750000
O O6 0.832004 0.149914 0.662170
O O7 0.693890 0.305316 0.640080
O O8 0.882692 0.206006 0.427014
O O9 0.933911 0.410497 0.460216
O O10 0.019287 0.318380 0.347694
O O11 0.361802 0.493796 0.157303
O O12 0.494594 0.651558 0.131396
O O13 0.922632 0.008790 0.103885
O O14 0.660579 0.667443 0.750000
O O15 0.796079 0.632887 0.848313
O O16 0.639038 0.715051 0.888601
O O17 0.089938 0.461538 0.250000
O O18 0.531069 0.750000 0.000000
#
# Coordination Sequence:
#
# PCOD8233696 Si02
#       8
#     8   8   8   8   8   8   8   8
#     4  11  22  43  70  95 133 174 229 274 332 398
#     4  11  23  39  64 101 139 173 219 281 342 398
#     4  10  21  39  65  95 129 169 219 274 329 389
#     4  12  23  43  72  97 130 179 223 279 332 400
#     4  10  20  41  65  95 129 169 220 276 322 393
#     4  11  26  46  65  97 135 172 225 272 334 405
#     4  11  22  41  65  90 130 175 216 267 326 396
#     4  12  25  43  70  98 130 176 224 282 334 398
#
# _framework density 21.20101
#
# number of rings (size 3 to 8) (size 9 to 14) (size 15 to 20)
#    0.000    1.000    3.750    2.625    1.750    3.500 
#   11.250    0.000    0.000    0.000    0.000    0.000 
#    0.000    0.000    0.000    0.000    0.000    0.000 
#
# Total GULP energy -793029.116920 kJ/mol
# GULP energy per Si atom -12391.079952 kJ/mol
# Density = 2.115276 g / cm^3
# Si number density = 21.201010 Si / 1000 Ang^3
#
#
#
# Elastic Constant Matrix: (Units=GPa)
#
#
# Indices 1 2 3 4 5 6 
#
# 1 96.8794 38.1342 23.6257 0.0000 0.0000 0.0000
# 2 38.1342 88.1099 34.2369 0.0000 0.0000 0.0000
# 3 23.6257 34.2369 113.2121 0.0000 0.0000 0.0000
# 4 0.0000 0.0000 0.0000 14.5904 0.0000 0.0000
# 5 0.0000 0.0000 0.0000 0.0000 20.5026 0.0000
# 6 0.0000 0.0000 0.0000 0.0000 0.0000 26.5287
#
#
#
# Elastic Compliance Matrix: (Units=1/GPa)
#
#
# Indices 1 2 3 4 5 6 
#
# 1 0.012563 -0.005007 -0.001108 0.000000 0.000000 0.000000
# 2 -0.005007 0.014856 -0.003448 0.000000 0.000000 0.000000
# 3 -0.001108 -0.003448 0.010107 0.000000 0.000000 0.000000
# 4 0.000000 0.000000 0.000000 0.068538 0.000000 0.000000
# 5 0.000000 0.000000 0.000000 0.000000 0.048774 0.000000
# 6 0.000000 0.000000 0.000000 0.000000 0.000000 0.037695
#
#
# Mechanical properties :
#
#
# Convention : Reuss Voigt Hill
#
# Bulk Modulus (GPa) = 54.34386 54.46613 54.40500
# Shear Modulus (GPa) = 22.95767 25.80465 24.38116
#
# Velocity S-wave (km/s) = 3.29425 3.49254 3.39484
# Velocity P-wave (km/s) = 6.33702 6.48151 6.40967
#
# Compressibility (1/GPa) = 0.01840134
#
# Stress axis : x y z
#
# Youngs Moduli (GPa) = 79.59834 67.31188 98.94340
#
# Poissons Ratio (x) = 0.33703 0.10959
# Poissons Ratio (y) = 0.39855 0.34114
# Poissons Ratio (z) = 0.08816 0.23208
#
# Static dielectric constant tensor:
#      x y z
#    x 3.776220 0.000000 0.000000 
#    y 0.000000 3.729530 0.000000 
#    z 0.000000 0.000000 4.113740 
# 
# 
# High freq. dielectric constant tensor:
#      x y z
#    x 1.831890 0.000000 0.000000 
#    y 0.000000 1.818580 0.000000 
#    z 0.000000 0.000000 1.843000 
# 
# From -- ./inp_files/22672.got.cif
#   From: 2010.03.12/outbox.cif.g09.slc.cpg/sg57_12_cif.got.tgz:22672.got - 2010.04.16 15:48:40.
