data_PCOD8233789
_publ_section_title
;
Structure prediction by ZEFSAII (Michael W. Deem and Ramdas Pophale) SiO2 
 PCOD8233789
Probable space group: P B C M
;
_chemical_formula_sum "Si O2"
_cell_formula_units_Z 64
_cell_length_a 26.208303
_cell_length_b 14.786287
_cell_length_c 9.016490
_cell_angle_alpha 90.000000
_cell_angle_beta 90.000000
_cell_angle_gamma 90.000000
_cell_volume 3494.101672
_symmetry_space_group_name_H-M "P B C M"
_symmetry_group_IT_number 57
_symmetry_cell_setting 'orthorhombic'
loop_
_space_group_symop_operation_xyz
x,y,z
-x,-y,1/2+z
x,1/2-y,-z
-x,1/2+y,1/2-z
-x,-y,-z
x,y,1/2-z
-x,1/2+y,z
x,1/2-y,1/2+z
loop_
_atom_site_type_symbol
_atom_site_label
_atom_site_fract_x
_atom_site_fract_y
_atom_site_fract_z
Si Si1 0.004237 0.404164 0.075056
Si Si2 0.366743 0.848341 0.074970
Si Si3 0.824292 0.499329 0.425706
Si Si4 0.892725 0.338975 0.076872
Si Si5 0.895120 0.662038 0.426022
Si Si6 0.633331 0.848359 0.574941
Si Si7 0.445856 0.000010 0.424033
Si Si8 0.710250 0.500023 0.426527
O O1 0.013683 0.414550 0.250000
O O2 0.951959 0.352716 0.039932
O O3 0.049682 0.350515 0.998822
O O4 0.000000 0.500000 0.000000
O O5 0.365142 0.832364 0.250000
O O6 0.415866 0.908537 0.029181
O O7 0.317885 0.907686 0.021386
O O8 0.367765 0.750000 0.000000
O O9 0.820764 0.493226 0.250000
O O10 0.857428 0.417416 0.490769
O O11 0.854966 0.587171 0.474611
O O12 0.767375 0.499936 0.493581
O O13 0.883736 0.331507 0.250000
O O14 0.872187 0.250000 0.000000
O O15 0.870736 0.750000 0.500000
O O16 0.901976 0.669286 0.250000
O O17 0.632277 0.750000 0.500000
O O18 0.635270 0.832433 0.750000
O O19 0.584025 0.908298 0.529862
O O20 0.681975 0.907962 0.520333
O O21 0.453936 0.999677 0.250000
O O22 0.500000 0.000000 0.500000
O O23 0.709958 0.500914 0.250000
#
# Coordination Sequence:
#
# PCOD8233789 Si02
#       8
#     8   8   8   8   8   8   8   8
#     4  11  21  36  57  79 105 138 174 213 260 315
#     4   9  18  33  53  77 103 135 176 215 256 307
#     4   9  18  35  55  75 104 137 171 211 261 315
#     4  10  21  36  53  77 103 133 169 206 252 307
#     4  11  22  37  55  79 107 138 176 215 259 316
#     4   9  18  33  53  77 102 134 175 214 256 306
#     4   9  19  34  50  73 107 141 175 211 253 306
#     4   8  16  33  55  74  99 138 173 209 260 313
#
# _framework density 18.316580999999999
#
# number of rings (size 3 to 8) (size 9 to 14) (size 15 to 20)
#    0.000    2.500    1.250    2.625    0.000    4.500 
#    0.000    4.375    0.000    3.000    0.000    0.000 
#    0.000    0.000    0.000    0.000    0.000    0.000 
#
# Total GULP energy -793267.812926 kJ/mol
# GULP energy per Si atom -12394.809577 kJ/mol
# Density = 1.827489 g / cm^3
# Si number density = 18.316581 Si / 1000 Ang^3
#
#
#
# Elastic Constant Matrix: (Units=GPa)
#
#
# Indices 1 2 3 4 5 6 
#
# 1 168.6011 88.8814 44.8358 0.0000 0.0000 0.0000
# 2 88.8814 191.7454 50.5297 0.0000 0.0000 0.0000
# 3 44.8358 50.5297 40.9775 0.0000 0.0000 0.0000
# 4 0.0000 0.0000 0.0000 37.3749 0.0000 0.0000
# 5 0.0000 0.0000 0.0000 0.0000 19.9305 0.0000
# 6 0.0000 0.0000 0.0000 0.0000 0.0000 47.7662
#
#
#
# Elastic Compliance Matrix: (Units=1/GPa)
#
#
# Indices 1 2 3 4 5 6 
#
# 1 0.009023 -0.002342 -0.006985 0.000000 0.000000 0.000000
# 2 -0.002342 0.008334 -0.007714 0.000000 0.000000 0.000000
# 3 -0.006985 -0.007714 0.041558 0.000000 0.000000 0.000000
# 4 0.000000 0.000000 0.000000 0.026756 0.000000 0.000000
# 5 0.000000 0.000000 0.000000 0.000000 0.050174 0.000000
# 6 0.000000 0.000000 0.000000 0.000000 0.000000 0.020935
#
#
# Mechanical properties :
#
#
# Convention : Reuss Voigt Hill
#
# Bulk Modulus (GPa) = 40.26793 85.53530 62.90162
# Shear Modulus (GPa) = 25.10794 35.48612 30.29703
#
# Velocity S-wave (km/s) = 3.70642 4.40634 4.07145
# Velocity P-wave (km/s) = 6.35207 8.52569 7.51785
#
# Compressibility (1/GPa) = 0.02483366
#
# Stress axis : x y z
#
# Youngs Moduli (GPa) = 110.82476 119.99633 24.06258
#
# Poissons Ratio (x) = 0.28102 0.16808
# Poissons Ratio (y) = 0.25954 0.18561
# Poissons Ratio (z) = 0.77412 0.92563
#
# Static dielectric constant tensor:
#      x y z
#    x 5.988280 0.000000 0.000000 
#    y 0.000000 3.532580 0.000000 
#    z 0.000000 0.000000 3.072330 
# 
# 
# High freq. dielectric constant tensor:
#      x y z
#    x 1.713090 0.000000 0.000000 
#    y 0.000000 1.723830 0.000000 
#    z 0.000000 0.000000 1.683040 
# 
# From -- ./inp_files/9349.got.cif
#   From: 2010.03.12/outbox.cif.g09.slc.cpg/sg57_5_cif.got.tgz:9349.got - 2010.04.16 15:48:40.
