data_PCOD8233930
_publ_section_title
;
Structure prediction by ZEFSAII (Michael W. Deem and Ramdas Pophale) SiO2 
 PCOD8233930
Probable space group: P B C M
;
_chemical_formula_sum "Si O2"
_cell_formula_units_Z 48
_cell_length_a 30.128101
_cell_length_b 9.015355
_cell_length_c 8.914224
_cell_angle_alpha 90.000000
_cell_angle_beta 90.000000
_cell_angle_gamma 90.000000
_cell_volume 2421.241641
_symmetry_space_group_name_H-M "P B C M"
_symmetry_group_IT_number 57
_symmetry_cell_setting 'orthorhombic'
loop_
_space_group_symop_operation_xyz
x,y,z
-x,-y,1/2+z
x,1/2-y,-z
-x,1/2+y,1/2-z
-x,-y,-z
x,y,1/2-z
-x,1/2+y,z
x,1/2-y,1/2+z
loop_
_atom_site_type_symbol
_atom_site_label
_atom_site_fract_x
_atom_site_fract_y
_atom_site_fract_z
Si Si1 0.710414 0.404480 0.924329
Si Si2 0.797329 0.590604 0.924405
Si Si3 0.873478 0.094813 0.923603
Si Si4 0.536739 0.904556 0.578994
Si Si5 0.636616 0.590978 0.422857
Si Si6 0.038418 0.407537 0.576689
O O1 0.701785 0.375083 0.750000
O O2 0.748585 0.525358 0.950298
O O3 0.724400 0.250000 0.000000
O O4 0.665882 0.466370 0.998261
O O5 0.808885 0.608011 0.750000
O O6 0.800669 0.750000 0.000000
O O7 0.831434 0.477590 0.997837
O O8 0.862230 0.121452 0.750000
O O9 0.915303 0.989445 0.945261
O O10 0.884973 0.250000 0.000000
O O11 0.536883 0.750000 0.500000
O O12 0.522610 0.884397 0.750000
O O13 0.586318 0.970676 0.564058
O O14 0.500000 0.000000 0.500000
O O15 0.643047 0.750000 0.500000
O O16 0.650855 0.609388 0.250000
O O17 0.042842 0.250000 0.500000
O O18 0.026207 0.385735 0.750000
O O19 0.000000 0.500000 0.500000
#
# Coordination Sequence:
#
# PCOD8233930 Si02
#       6
#     8   8   8   8   8   8
#     4  11  24  40  60  87 118 153 193 239 290 344
#     4  11  24  41  63  90 120 156 197 241 291 348
#     4  11  24  41  63  91 123 159 199 245 296 350
#     4  10  21  37  58  84 114 150 191 236 287 343
#     4  10  21  38  60  85 114 150 192 237 287 344
#     4  11  24  41  63  91 123 160 202 248 298 353
#
# _framework density 19.824539000000001
#
# number of rings (size 3 to 8) (size 9 to 14) (size 15 to 20)
#    0.000    1.333    0.000    5.000    0.000   13.333 
#    0.000    0.000    0.000    0.000    0.000    0.000 
#    0.000    0.000    0.000    0.000    0.000    0.000 
#
# Total GULP energy -595440.407375 kJ/mol
# GULP energy per Si atom -12405.008487 kJ/mol
# Density = 1.977942 g / cm^3
# Si number density = 19.824539 Si / 1000 Ang^3
#
#
#
# Elastic Constant Matrix: (Units=GPa)
#
#
# Indices 1 2 3 4 5 6 
#
# 1 92.1710 32.7326 72.6302 0.0000 0.0000 0.0000
# 2 32.7326 112.6138 70.2897 0.0000 0.0000 0.0000
# 3 72.6302 70.2897 177.8756 0.0000 0.0000 0.0000
# 4 0.0000 0.0000 0.0000 43.0339 0.0000 0.0000
# 5 0.0000 0.0000 0.0000 0.0000 34.7406 0.0000
# 6 0.0000 0.0000 0.0000 0.0000 0.0000 35.3181
#
#
#
# Elastic Compliance Matrix: (Units=1/GPa)
#
#
# Indices 1 2 3 4 5 6 
#
# 1 0.016045 -0.000763 -0.006250 0.000000 0.000000 0.000000
# 2 -0.000763 0.011823 -0.004361 0.000000 0.000000 0.000000
# 3 -0.006250 -0.004361 0.009897 0.000000 0.000000 0.000000
# 4 0.000000 0.000000 0.000000 0.023237 0.000000 0.000000
# 5 0.000000 0.000000 0.000000 0.000000 0.028785 0.000000
# 6 0.000000 0.000000 0.000000 0.000000 0.000000 0.028314
#
#
# Mechanical properties :
#
#
# Convention : Reuss Voigt Hill
#
# Bulk Modulus (GPa) = 66.58357 81.55174 74.06765
# Shear Modulus (GPa) = 34.28036 36.41905 35.34971
#
# Velocity S-wave (km/s) = 4.16286 4.29075 4.22729
# Velocity P-wave (km/s) = 7.53427 8.11009 7.82748
#
# Compressibility (1/GPa) = 0.01501872
#
# Stress axis : x y z
#
# Youngs Moduli (GPa) = 62.32302 84.57796 101.03795
#
# Poissons Ratio (x) = 0.06450 0.63152
# Poissons Ratio (y) = 0.04752 0.44061
# Poissons Ratio (z) = 0.38954 0.36883
#
# Static dielectric constant tensor:
#      x y z
#    x 3.472260 0.000000 0.000000 
#    y 0.000000 3.603810 0.000000 
#    z 0.000000 0.000000 3.902590 
# 
# 
# High freq. dielectric constant tensor:
#      x y z
#    x 1.786990 0.000000 0.000000 
#    y 0.000000 1.780180 0.000000 
#    z 0.000000 0.000000 1.795990 
# 
# From -- ./inp_files/9998.got.cif
#   From: 2010.03.12/outbox.cif.g09.slc.cpg/sg57_5_cif.got.tgz:9998.got - 2010.04.16 15:48:40.
