data_PCOD8233228
_publ_section_title
;
Structure prediction by ZEFSAII (Michael W. Deem and Ramdas Pophale) SiO2 
 PCOD8233228
Probable space group: P B C M
;
_chemical_formula_sum "Si O2"
_cell_formula_units_Z 40
_cell_length_a 12.406933
_cell_length_b 8.623912
_cell_length_c 17.575761
_cell_angle_alpha 90.000000
_cell_angle_beta 90.000000
_cell_angle_gamma 90.000000
_cell_volume 1880.541368
_symmetry_space_group_name_H-M "P B C M"
_symmetry_group_IT_number 57
_symmetry_cell_setting 'orthorhombic'
loop_
_space_group_symop_operation_xyz
x,y,z
-x,-y,1/2+z
x,1/2-y,-z
-x,1/2+y,1/2-z
-x,-y,-z
x,y,1/2-z
-x,1/2+y,z
x,1/2-y,1/2+z
loop_
_atom_site_type_symbol
_atom_site_label
_atom_site_fract_x
_atom_site_fract_y
_atom_site_fract_z
Si Si1 0.135501 0.180492 0.419551
Si Si2 0.081438 0.674942 0.581455
Si Si3 0.344677 0.403037 0.662755
Si Si4 0.707925 0.241522 0.162612
Si Si5 0.461787 0.626922 0.058810
O O1 0.176001 0.250000 0.500000
O O2 0.233390 0.179502 0.360349
O O3 0.037972 0.285427 0.386778
O O4 0.091379 0.007631 0.429522
O O5 0.098494 0.750000 0.500000
O O6 0.167673 0.749065 0.638850
O O7 0.367631 0.362325 0.750000
O O8 0.344735 0.588373 0.649568
O O9 0.438248 0.325725 0.612273
O O10 0.702056 0.190995 0.250000
O O11 0.642480 0.109323 0.114563
O O12 0.419109 0.750000 0.000000
O O13 0.500000 0.500000 0.000000
#
# Coordination Sequence:
#
# PCOD8233228 Si02
#       5
#     8   8   8   8   8
#     4  10  20  37  61  90 121 159 202 249 296 354
#     4  10  20  36  62  87 121 160 202 247 295 354
#     4  10  22  40  61  88 125 161 199 252 307 360
#     4  10  22  40  61  88 124 161 198 248 310 365
#     4  12  23  41  66  89 116 157 205 252 303 369
#
# _framework density 21.270472999999999
#
# number of rings (size 3 to 8) (size 9 to 14) (size 15 to 20)
#    0.000    1.600    2.000    4.200    2.800    0.800 
#    3.600    0.000    0.000    0.000    0.000    0.000 
#    0.000    0.000    0.000    0.000    0.000    0.000 
#
# Total GULP energy -495679.767058 kJ/mol
# GULP energy per Si atom -12391.994176 kJ/mol
# Density = 2.122206 g / cm^3
# Si number density = 21.270473 Si / 1000 Ang^3
#
#
#
# Elastic Constant Matrix: (Units=GPa)
#
#
# Indices 1 2 3 4 5 6 
#
# 1 107.6456 13.1478 66.7864 0.0000 0.0000 0.0000
# 2 13.1478 50.0000 25.0186 0.0000 0.0000 0.0000
# 3 66.7864 25.0186 147.8490 0.0000 0.0000 0.0000
# 4 0.0000 0.0000 0.0000 24.1355 0.0000 0.0000
# 5 0.0000 0.0000 0.0000 0.0000 34.7476 0.0000
# 6 0.0000 0.0000 0.0000 0.0000 0.0000 29.7479
#
#
#
# Elastic Compliance Matrix: (Units=1/GPa)
#
#
# Indices 1 2 3 4 5 6 
#
# 1 0.012920 -0.000521 -0.005748 0.000000 0.000000 0.000000
# 2 -0.000521 0.021871 -0.003466 0.000000 0.000000 0.000000
# 3 -0.005748 -0.003466 0.009946 0.000000 0.000000 0.000000
# 4 0.000000 0.000000 0.000000 0.041433 0.000000 0.000000
# 5 0.000000 0.000000 0.000000 0.000000 0.028779 0.000000
# 6 0.000000 0.000000 0.000000 0.000000 0.000000 0.033616
#
#
# Mechanical properties :
#
#
# Convention : Reuss Voigt Hill
#
# Bulk Modulus (GPa) = 39.57576 57.26670 48.42123
# Shear Modulus (GPa) = 28.33563 31.09567 29.71565
#
# Velocity S-wave (km/s) = 3.65383 3.82765 3.74175
# Velocity P-wave (km/s) = 6.03714 6.82027 6.44062
#
# Compressibility (1/GPa) = 0.02526799
#
# Stress axis : x y z
#
# Youngs Moduli (GPa) = 77.40238 45.72245 100.53812
#
# Poissons Ratio (x) = 0.02383 0.57787
# Poissons Ratio (y) = 0.04034 0.34842
# Poissons Ratio (z) = 0.44489 0.15845
#
# Static dielectric constant tensor:
#      x y z
#    x 4.067540 0.000000 0.000000 
#    y 0.000000 3.688270 0.000000 
#    z 0.000000 0.000000 3.950260 
# 
# 
# High freq. dielectric constant tensor:
#      x y z
#    x 1.844930 0.000000 0.000000 
#    y 0.000000 1.814360 0.000000 
#    z 0.000000 0.000000 1.839190 
# 
# From -- ./inp_files/21583.got.cif
#   From: 2010.03.12/outbox.cif.g09.slc.cpg/sg57_11_cif.got.tgz:21583.got - 2010.04.16 15:48:40.
