data_PCOD8233223
_publ_section_title
;
Structure prediction by ZEFSAII (Michael W. Deem and Ramdas Pophale) SiO2 
 PCOD8233223
Probable space group: P B C M
;
_chemical_formula_sum "Si O2"
_cell_formula_units_Z 64
_cell_length_a 23.978835
_cell_length_b 14.746550
_cell_length_c 9.120273
_cell_angle_alpha 90.000000
_cell_angle_beta 90.000000
_cell_angle_gamma 90.000000
_cell_volume 3224.974948
_symmetry_space_group_name_H-M "P B C M"
_symmetry_group_IT_number 57
_symmetry_cell_setting 'orthorhombic'
loop_
_space_group_symop_operation_xyz
x,y,z
-x,-y,1/2+z
x,1/2-y,-z
-x,1/2+y,1/2-z
-x,-y,-z
x,y,1/2-z
-x,1/2+y,z
x,1/2-y,1/2+z
loop_
_atom_site_type_symbol
_atom_site_label
_atom_site_fract_x
_atom_site_fract_y
_atom_site_fract_z
Si Si1 0.114063 0.389022 0.913887
Si Si2 0.294076 0.505143 0.418949
Si Si3 0.422739 0.996829 0.918576
Si Si4 0.780082 0.836197 0.420640
Si Si5 0.887679 0.104101 0.916637
Si Si6 0.490869 0.650915 0.923838
Si Si7 0.992673 0.405706 0.919709
Si Si8 0.233625 0.660156 0.923445
O O1 0.134535 0.363414 0.750000
O O2 0.113800 0.496614 0.931999
O O3 0.051024 0.351123 0.940091
O O4 0.155561 0.346223 0.031114
O O5 0.282443 0.531730 0.250000
O O6 0.358270 0.481260 0.445132
O O7 0.256872 0.420708 0.468187
O O8 0.276816 0.584693 0.526457
O O9 0.435505 0.971882 0.750000
O O10 0.454786 0.089755 0.962081
O O11 0.439233 0.908842 0.015158
O O12 0.752986 0.750000 0.500000
O O13 0.778596 0.819120 0.250000
O O14 0.896719 0.135051 0.750000
O O15 0.829252 0.140945 0.979191
O O16 0.939196 0.145809 0.010492
O O17 0.483753 0.665903 0.750000
O O18 0.494691 0.750000 0.000000
O O19 0.980498 0.424442 0.750000
O O20 0.000000 0.500000 0.000000
O O21 0.235876 0.668760 0.750000
O O22 0.255728 0.750000 0.000000
#
# Coordination Sequence:
#
# PCOD8233223 Si02
#       8
#     8   8   8   8   8   8   8   8
#     4   9  17  33  53  76 107 141 182 230 283 342
#     4  10  22  41  62  86 116 153 197 242 287 335
#     4   9  20  39  61  87 121 157 198 243 282 333
#     4  11  23  37  57  83 111 147 190 235 287 345
#     4   9  18  33  53  77 107 142 181 229 286 345
#     4  10  20  36  61  92 125 161 197 236 285 335
#     4   9  17  28  48  77 106 138 178 226 283 347
#     4  11  23  39  59  84 114 150 192 240 292 348
#
# _framework density 19.845115
#
# number of rings (size 3 to 8) (size 9 to 14) (size 15 to 20)
#    0.000    2.250    1.250    2.250    0.000    6.000 
#    0.000    0.625    0.000    1.500    0.000    0.000 
#    0.000    0.000    0.000    0.000    0.000    0.000 
#
# Total GULP energy -793439.768666 kJ/mol
# GULP energy per Si atom -12397.496385 kJ/mol
# Density = 1.979995 g / cm^3
# Si number density = 19.845115 Si / 1000 Ang^3
#
#
#
# Elastic Constant Matrix: (Units=GPa)
#
#
# Indices 1 2 3 4 5 6 
#
# 1 96.3275 32.0031 34.1599 0.0000 0.0000 0.0000
# 2 32.0031 101.5926 44.6388 0.0000 0.0000 0.0000
# 3 34.1599 44.6388 80.0806 0.0000 0.0000 0.0000
# 4 0.0000 0.0000 0.0000 31.2233 0.0000 0.0000
# 5 0.0000 0.0000 0.0000 0.0000 30.7715 0.0000
# 6 0.0000 0.0000 0.0000 0.0000 0.0000 -13.9152
#
#
#
# Elastic Compliance Matrix: (Units=1/GPa)
#
#
# Indices 1 2 3 4 5 6 
#
# 1 0.012568 -0.002124 -0.004177 0.000000 0.000000 0.000000
# 2 -0.002124 0.013395 -0.006561 0.000000 0.000000 0.000000
# 3 -0.004177 -0.006561 0.017927 0.000000 0.000000 0.000000
# 4 0.000000 0.000000 0.000000 0.032027 0.000000 0.000000
# 5 0.000000 0.000000 0.000000 0.000000 0.032498 0.000000
# 6 0.000000 0.000000 0.000000 0.000000 0.000000 -0.071864
#
#
# Mechanical properties :
#
#
# Convention : Reuss Voigt Hill
#
# Bulk Modulus (GPa) = 55.04802 55.51159 55.27980
# Shear Modulus (GPa) = 73.17471 20.76252 46.96861
#
# Velocity S-wave (km/s) = 6.07889 3.23805 4.87021
# Velocity P-wave (km/s) = 8.77893 6.48175 7.71631
#
# Compressibility (1/GPa) = 0.01816596
#
# Stress axis : x y z
#
# Youngs Moduli (GPa) = 79.56585 74.65494 55.78326
#
# Poissons Ratio (x) = 0.15854 0.23303
# Poissons Ratio (y) = 0.16897 0.36598
# Poissons Ratio (z) = 0.33238 0.48980
#
# Static dielectric constant tensor:
#      x y z
#    x 3.857440 0.000000 0.000000 
#    y 0.000000 3.639390 0.000000 
#    z 0.000000 0.000000 3.675300 
# 
# 
# High freq. dielectric constant tensor:
#      x y z
#    x 1.774160 0.000000 0.000000 
#    y 0.000000 1.763520 0.000000 
#    z 0.000000 0.000000 1.776740 
# 
# From -- ./inp_files/9333.got.cif
#   From: 2010.03.12/outbox.cif.g09.slc.cpg/sg57_5_cif.got.tgz:9333.got - 2010.04.16 15:48:40.
