data_PCOD8233171
_publ_section_title
;
Structure prediction by ZEFSAII (Michael W. Deem and Ramdas Pophale) SiO2 
 PCOD8233171
Probable space group: P B C M
;
_chemical_formula_sum "Si O2"
_cell_formula_units_Z 48
_cell_length_a 12.601908
_cell_length_b 23.163048
_cell_length_c 8.751535
_cell_angle_alpha 90.000000
_cell_angle_beta 90.000000
_cell_angle_gamma 90.000000
_cell_volume 2554.560813
_symmetry_space_group_name_H-M "P B C M"
_symmetry_group_IT_number 57
_symmetry_cell_setting 'orthorhombic'
loop_
_space_group_symop_operation_xyz
x,y,z
-x,-y,1/2+z
x,1/2-y,-z
-x,1/2+y,1/2-z
-x,-y,-z
x,y,1/2-z
-x,1/2+y,z
x,1/2-y,1/2+z
loop_
_atom_site_type_symbol
_atom_site_label
_atom_site_fract_x
_atom_site_fract_y
_atom_site_fract_z
Si Si1 0.988872 0.311742 0.073685
Si Si2 0.601585 0.688887 0.570328
Si Si3 0.814108 0.391015 0.930168
Si Si4 0.194130 0.382193 0.075221
Si Si5 0.884051 0.995966 0.570928
Si Si6 0.380359 0.811557 0.930606
O O1 0.955849 0.308397 0.250000
O O2 0.110503 0.330483 0.051883
O O3 0.969526 0.250000 0.000000
O O4 0.917519 0.358863 0.990890
O O5 0.635330 0.750000 0.500000
O O6 0.586944 0.697188 0.750000
O O7 0.690792 0.642013 0.530989
O O8 0.491884 0.666516 0.497871
O O9 0.823993 0.396800 0.750000
O O10 0.708229 0.357462 0.979318
O O11 0.808580 0.454377 0.003210
O O12 0.190515 0.404176 0.250000
O O13 0.169624 0.434900 0.963944
O O14 0.895229 0.004663 0.750000
O O15 0.000000 0.000000 0.500000
O O16 0.389673 0.804989 0.750000
O O17 0.347693 0.750000 0.000000
#
# Coordination Sequence:
#
# PCOD8233171 Si02
#       6
#     8   8   8   8   8   8
#     4  11  22  35  55  83 117 151 186 234 290 346
#     4  10  20  36  60  87 118 154 192 237 287 343
#     4  11  23  39  59  84 115 151 195 241 289 343
#     4  10  22  39  58  84 116 152 194 238 286 340
#     4  12  24  39  61  85 114 154 195 237 288 346
#     4  10  21  37  59  86 117 153 192 238 288 343
#
# _framework density 18.789922000000001
#
# number of rings (size 3 to 8) (size 9 to 14) (size 15 to 20)
#    0.000    1.333    1.667    5.500    0.000    6.000 
#    0.000    0.833    0.000    0.000    0.000    0.000 
#    0.000    0.000    0.000    0.000    0.000    0.000 
#
# Total GULP energy -595467.694672 kJ/mol
# GULP energy per Si atom -12405.576972 kJ/mol
# Density = 1.874716 g / cm^3
# Si number density = 18.789922 Si / 1000 Ang^3
#
#
#
# Elastic Constant Matrix: (Units=GPa)
#
#
# Indices 1 2 3 4 5 6 
#
# 1 112.1737 44.6314 52.0127 0.0000 0.0000 0.0000
# 2 44.6314 93.7876 40.9178 0.0000 0.0000 0.0000
# 3 52.0127 40.9178 108.4183 0.0000 0.0000 0.0000
# 4 0.0000 0.0000 0.0000 35.7870 0.0000 0.0000
# 5 0.0000 0.0000 0.0000 0.0000 28.9175 0.0000
# 6 0.0000 0.0000 0.0000 0.0000 0.0000 31.1069
#
#
#
# Elastic Compliance Matrix: (Units=1/GPa)
#
#
# Indices 1 2 3 4 5 6 
#
# 1 0.012619 -0.004027 -0.004534 0.000000 0.000000 0.000000
# 2 -0.004027 0.014049 -0.003370 0.000000 0.000000 0.000000
# 3 -0.004534 -0.003370 0.012671 0.000000 0.000000 0.000000
# 4 0.000000 0.000000 0.000000 0.027943 0.000000 0.000000
# 5 0.000000 0.000000 0.000000 0.000000 0.034581 0.000000
# 6 0.000000 0.000000 0.000000 0.000000 0.000000 0.032147
#
#
# Mechanical properties :
#
#
# Convention : Reuss Voigt Hill
#
# Bulk Modulus (GPa) = 64.61545 65.50037 65.05791
# Shear Modulus (GPa) = 30.66865 30.95011 30.80938
#
# Velocity S-wave (km/s) = 4.04442 4.06293 4.05368
# Velocity P-wave (km/s) = 7.50152 7.54618 7.52388
#
# Compressibility (1/GPa) = 0.01547618
#
# Stress axis : x y z
#
# Youngs Moduli (GPa) = 79.24261 71.17840 78.92191
#
# Poissons Ratio (x) = 0.28664 0.35785
# Poissons Ratio (y) = 0.31912 0.26599
# Poissons Ratio (z) = 0.35930 0.23989
#
# Static dielectric constant tensor:
#      x y z
#    x 3.589400 0.000000 0.000000 
#    y 0.000000 3.492540 0.000000 
#    z 0.000000 0.000000 3.589670 
# 
# 
# High freq. dielectric constant tensor:
#      x y z
#    x 1.731780 0.000000 0.000000 
#    y 0.000000 1.728970 0.000000 
#    z 0.000000 0.000000 1.745680 
# 
# From -- ./inp_files/3180.got.cif
#   From: 2010.03.12/outbox.cif.g09.slc.cpg/sg57_2_cif.got.tgz:3180.got - 2010.04.16 15:48:40.
