data_PCOD8233674
_publ_section_title
;
Structure prediction by ZEFSAII (Michael W. Deem and Ramdas Pophale) SiO2 
 PCOD8233674
Probable space group: P B C M
;
_chemical_formula_sum "Si O2"
_cell_formula_units_Z 56
_cell_length_a 15.746170
_cell_length_b 12.111581
_cell_length_c 14.571890
_cell_angle_alpha 90.000000
_cell_angle_beta 90.000000
_cell_angle_gamma 90.000000
_cell_volume 2779.019909
_symmetry_space_group_name_H-M "P B C M"
_symmetry_group_IT_number 57
_symmetry_cell_setting 'orthorhombic'
loop_
_space_group_symop_operation_xyz
x,y,z
-x,-y,1/2+z
x,1/2-y,-z
-x,1/2+y,1/2-z
-x,-y,-z
x,y,1/2-z
-x,1/2+y,z
x,1/2-y,1/2+z
loop_
_atom_site_type_symbol
_atom_site_label
_atom_site_fract_x
_atom_site_fract_y
_atom_site_fract_z
Si Si1 0.549838 0.356573 0.645979
Si Si2 0.743007 0.977810 0.961851
Si Si3 0.293353 0.709139 0.594533
Si Si4 0.882467 0.264491 0.646966
Si Si5 0.336737 0.441990 0.352069
Si Si6 0.365766 0.186928 0.355588
Si Si7 0.082243 0.573613 0.988224
O O1 0.538248 0.318463 0.750000
O O2 0.617226 0.269940 0.605692
O O3 0.579922 0.482288 0.636210
O O4 0.456420 0.349789 0.600776
O O5 0.710355 0.865598 0.914908
O O6 0.691332 0.077488 0.912085
O O7 0.729869 0.978156 0.071503
O O8 0.843407 0.992854 0.950971
O O9 0.250338 0.750000 0.500000
O O10 0.218539 0.740163 0.664948
O O11 0.921714 0.276369 0.750000
O O12 0.896242 0.375604 0.588142
O O13 0.929248 0.165999 0.591039
O O14 0.297257 0.460488 0.250000
O O15 0.364011 0.317315 0.366544
O O16 0.354554 0.149608 0.250000
O O17 0.000000 0.500000 0.000000
#
# Coordination Sequence:
#
# PCOD8233674 Si02
#       7
#     8   8   8   8   8   8   8
#     4  10  21  36  58  84 118 166 210 258 304 350
#     4  11  22  39  63  87 117 162 201 247 323 367
#     4  11  19  36  60  93 119 153 207 260 309 358
#     4  10  20  40  65  94 127 160 203 255 312 376
#     4  10  21  40  57  80 120 160 204 250 298 366
#     4  10  24  40  55  85 127 166 210 254 301 367
#     4  10  22  42  65  94 126 157 201 262 316 379
#
# _framework density 20.15099
#
# number of rings (size 3 to 8) (size 9 to 14) (size 15 to 20)
#    0.000    1.714    4.286    0.857    2.000    6.857 
#    5.143    0.000    0.000    0.000    0.000    0.000 
#    0.000    0.000    0.000    0.000    0.000    0.000 
#
# Total GULP energy -694089.032529 kJ/mol
# GULP energy per Si atom -12394.447009 kJ/mol
# Density = 2.010513 g / cm^3
# Si number density = 20.150990 Si / 1000 Ang^3
#
#
#
# Elastic Constant Matrix: (Units=GPa)
#
#
# Indices 1 2 3 4 5 6 
#
# 1 113.6681 62.1636 37.5287 0.0000 0.0000 0.0000
# 2 62.1636 113.6150 39.1113 0.0000 0.0000 0.0000
# 3 37.5287 39.1113 107.1612 0.0000 0.0000 0.0000
# 4 0.0000 0.0000 0.0000 21.1520 0.0000 0.0000
# 5 0.0000 0.0000 0.0000 0.0000 18.1724 0.0000
# 6 0.0000 0.0000 0.0000 0.0000 0.0000 30.6066
#
#
#
# Elastic Compliance Matrix: (Units=1/GPa)
#
#
# Indices 1 2 3 4 5 6 
#
# 1 0.013007 -0.006346 -0.002239 0.000000 0.000000 0.000000
# 2 -0.006346 0.013163 -0.002582 0.000000 0.000000 0.000000
# 3 -0.002239 -0.002582 0.011058 0.000000 0.000000 0.000000
# 4 0.000000 0.000000 0.000000 0.047277 0.000000 0.000000
# 5 0.000000 0.000000 0.000000 0.000000 0.055029 0.000000
# 6 0.000000 0.000000 0.000000 0.000000 0.000000 0.032673
#
#
# Mechanical properties :
#
#
# Convention : Reuss Voigt Hill
#
# Bulk Modulus (GPa) = 67.13890 68.00573 67.57232
# Shear Modulus (GPa) = 25.06208 27.02891 26.04549
#
# Velocity S-wave (km/s) = 3.53046 3.66638 3.59906
# Velocity P-wave (km/s) = 7.07171 7.19336 7.13280
#
# Compressibility (1/GPa) = 0.01489449
#
# Stress axis : x y z
#
# Youngs Moduli (GPa) = 76.87931 75.97308 90.43137
#
# Poissons Ratio (x) = 0.48213 0.20249
# Poissons Ratio (y) = 0.48788 0.23346
# Poissons Ratio (z) = 0.17214 0.19613
#
# Static dielectric constant tensor:
#      x y z
#    x 3.393510 0.000000 0.000000 
#    y 0.000000 3.642500 0.000000 
#    z 0.000000 0.000000 3.790800 
# 
# 
# High freq. dielectric constant tensor:
#      x y z
#    x 1.756700 0.000000 0.000000 
#    y 0.000000 1.790630 0.000000 
#    z 0.000000 0.000000 1.792260 
# 
# From -- ./inp_files/18481.got.cif
#   From: 2010.03.12/outbox.cif.g09.slc.cpg/sg57_10_cif.got.tgz:18481.got - 2010.04.16 15:48:40.
