data_PCOD8233321
_publ_section_title
;
Structure prediction by ZEFSAII (Michael W. Deem and Ramdas Pophale) SiO2 
 PCOD8233321
Probable space group: P B C M
;
_chemical_formula_sum "Si O2"
_cell_formula_units_Z 40
_cell_length_a 7.740399
_cell_length_b 15.328840
_cell_length_c 17.081291
_cell_angle_alpha 90.000000
_cell_angle_beta 90.000000
_cell_angle_gamma 90.000000
_cell_volume 2026.718029
_symmetry_space_group_name_H-M "P B C M"
_symmetry_group_IT_number 57
_symmetry_cell_setting 'orthorhombic'
loop_
_space_group_symop_operation_xyz
x,y,z
-x,-y,1/2+z
x,1/2-y,-z
-x,1/2+y,1/2-z
-x,-y,-z
x,y,1/2-z
-x,1/2+y,z
x,1/2-y,1/2+z
loop_
_atom_site_type_symbol
_atom_site_label
_atom_site_fract_x
_atom_site_fract_y
_atom_site_fract_z
Si Si1 0.875887 0.030635 0.162859
Si Si2 0.664392 0.614552 0.028836
Si Si3 0.860575 0.813409 0.662785
Si Si4 0.709833 0.078598 0.005888
Si Si5 0.969110 0.643997 0.914094
O O1 0.791403 0.028164 0.250000
O O2 0.026617 0.100317 0.159991
O O3 0.960898 0.937086 0.144766
O O4 0.734511 0.054878 0.097625
O O5 0.693844 0.668469 0.108756
O O6 0.696892 0.511409 0.042722
O O7 0.469094 0.631721 0.999010
O O8 0.796140 0.651031 0.964936
O O9 0.793074 0.793295 0.750000
O O10 0.980631 0.733241 0.634350
O O11 0.866060 0.135966 0.971654
#
# Coordination Sequence:
#
# PCOD8233321 Si02
#       5
#     8   8   8   8   8
#     4  10  20  37  60  85 118 154 190 240 295 353
#     4  10  20  38  61  89 112 151 203 249 298 353
#     4  11  22  37  59  87 119 158 196 242 302 353
#     4  10  20  37  65  86 113 155 201 244 302 358
#     4  11  20  40  60  85 117 157 196 243 296 357
#
# _framework density 19.736340999999999
#
# number of rings (size 3 to 8) (size 9 to 14) (size 15 to 20)
#    0.000    1.600    4.000    2.400    0.000    0.800 
#    7.200    0.000    0.000    2.400    0.000    0.000 
#    0.000    0.000    0.000    0.000    0.000    0.000 
#
# Total GULP energy -495959.708100 kJ/mol
# GULP energy per Si atom -12398.992702 kJ/mol
# Density = 1.969142 g / cm^3
# Si number density = 19.736341 Si / 1000 Ang^3
#
#
#
# Elastic Constant Matrix: (Units=GPa)
#
#
# Indices 1 2 3 4 5 6 
#
# 1 116.6802 33.5645 53.4184 0.0000 0.0000 0.0000
# 2 33.5645 101.3158 61.5372 0.0000 0.0000 0.0000
# 3 53.4184 61.5372 131.1374 0.0000 0.0000 0.0000
# 4 0.0000 0.0000 0.0000 25.7609 0.0000 0.0000
# 5 0.0000 0.0000 0.0000 0.0000 14.2812 0.0000
# 6 0.0000 0.0000 0.0000 0.0000 0.0000 18.9359
#
#
#
# Elastic Compliance Matrix: (Units=1/GPa)
#
#
# Indices 1 2 3 4 5 6 
#
# 1 0.010647 -0.001249 -0.003751 0.000000 0.000000 0.000000
# 2 -0.001249 0.013951 -0.006038 0.000000 0.000000 0.000000
# 3 -0.003751 -0.006038 0.011987 0.000000 0.000000 0.000000
# 4 0.000000 0.000000 0.000000 0.038818 0.000000 0.000000
# 5 0.000000 0.000000 0.000000 0.000000 0.070022 0.000000
# 6 0.000000 0.000000 0.000000 0.000000 0.000000 0.052810
#
#
# Mechanical properties :
#
#
# Convention : Reuss Voigt Hill
#
# Bulk Modulus (GPa) = 68.92088 71.79704 70.35896
# Shear Modulus (GPa) = 22.20764 25.16982 23.68873
#
# Velocity S-wave (km/s) = 3.35806 3.57501 3.46823
# Velocity P-wave (km/s) = 7.07333 7.31423 7.19479
#
# Compressibility (1/GPa) = 0.01450939
#
# Stress axis : x y z
#
# Youngs Moduli (GPa) = 93.92357 71.67829 83.42458
#
# Poissons Ratio (x) = 0.08952 0.31292
# Poissons Ratio (y) = 0.11731 0.50371
# Poissons Ratio (z) = 0.35230 0.43279
#
# Static dielectric constant tensor:
#      x y z
#    x 3.378380 0.000000 0.000000 
#    y 0.000000 3.667540 0.000000 
#    z 0.000000 0.000000 3.882260 
# 
# 
# High freq. dielectric constant tensor:
#      x y z
#    x 1.744740 0.000000 0.000000 
#    y 0.000000 1.778910 0.000000 
#    z 0.000000 0.000000 1.766760 
# 
# From -- ./inp_files/15939.got.cif
#   From: 2010.03.12/outbox.cif.g09.slc.cpg/sg57_8_cif.got.tgz:15939.got - 2010.04.16 15:48:40.
