data_PCOD8233454
_publ_section_title
;
Structure prediction by ZEFSAII (Michael W. Deem and Ramdas Pophale) SiO2 
 PCOD8233454
Probable space group: P B C M
;
_chemical_formula_sum "Si O2"
_cell_formula_units_Z 40
_cell_length_a 23.629057
_cell_length_b 8.775811
_cell_length_c 9.525008
_cell_angle_alpha 90.000000
_cell_angle_beta 90.000000
_cell_angle_gamma 90.000000
_cell_volume 1975.145077
_symmetry_space_group_name_H-M "P B C M"
_symmetry_group_IT_number 57
_symmetry_cell_setting 'orthorhombic'
loop_
_space_group_symop_operation_xyz
x,y,z
-x,-y,1/2+z
x,1/2-y,-z
-x,1/2+y,1/2-z
-x,-y,-z
x,y,1/2-z
-x,1/2+y,z
x,1/2-y,1/2+z
loop_
_atom_site_type_symbol
_atom_site_label
_atom_site_fract_x
_atom_site_fract_y
_atom_site_fract_z
Si Si1 0.541838 0.143452 0.750000
Si Si2 0.045951 0.095064 0.085177
Si Si3 0.738786 0.898826 0.592537
Si Si4 0.574166 0.488870 0.750000
Si Si5 0.629692 0.076742 0.975541
Si Si6 0.841641 0.100311 0.589920
O O1 0.545749 0.324257 0.750000
O O2 0.572252 0.073368 0.885546
O O3 0.475367 0.112110 0.750000
O O4 0.028414 0.121911 0.250000
O O5 0.104504 0.006968 0.078103
O O6 0.053959 0.250000 0.000000
O O7 0.000000 0.000000 0.000000
O O8 0.733115 0.750000 0.500000
O O9 0.755367 0.848937 0.750000
O O10 0.679929 0.988855 0.599800
O O11 0.787460 0.008618 0.530510
O O12 0.615250 0.511659 0.618187
O O13 0.649927 0.250000 0.000000
O O14 0.852248 0.250000 0.500000
O O15 0.830805 0.151024 0.750000
#
# Coordination Sequence:
#
# PCOD8233454 Si02
#       6
#     4   8   8   4   8   8
#     4  10  20  38  56  86 114 152 189 244 287 354
#     4  11  23  40  64  94 132 171 215 263 313 367
#     4  11  24  41  61  88 120 153 198 249 300 357
#     4  10  22  34  60  84 116 150 193 232 299 352
#     4  10  21  39  60  83 116 154 195 241 294 353
#     4  10  23  42  64  92 124 163 206 254 305 364
#
# _framework density 20.251678999999999
#
# number of rings (size 3 to 8) (size 9 to 14) (size 15 to 20)
#    0.000    1.600    1.000    3.000    1.400    5.600 
#    0.000    0.000    0.000    0.000    0.000    0.000 
#    0.000    0.000    0.000    0.000    0.000    0.000 
#
# Total GULP energy -496102.294073 kJ/mol
# GULP energy per Si atom -12402.557352 kJ/mol
# Density = 2.020559 g / cm^3
# Si number density = 20.251679 Si / 1000 Ang^3
#
#
#
# Elastic Constant Matrix: (Units=GPa)
#
#
# Indices 1 2 3 4 5 6 
#
# 1 88.3383 29.6193 22.3817 0.0000 0.0000 0.0000
# 2 29.6193 97.1422 45.3855 0.0000 0.0000 0.0000
# 3 22.3817 45.3855 114.2443 0.0000 0.0000 0.0000
# 4 0.0000 0.0000 0.0000 32.7976 0.0000 0.0000
# 5 0.0000 0.0000 0.0000 0.0000 2569.9931 0.0000
# 6 0.0000 0.0000 0.0000 0.0000 0.0000 33.8717
#
#
#
# Elastic Compliance Matrix: (Units=1/GPa)
#
#
# Indices 1 2 3 4 5 6 
#
# 1 0.012735 -0.003337 -0.001169 0.000000 0.000000 0.000000
# 2 -0.003337 0.013515 -0.004715 0.000000 0.000000 0.000000
# 3 -0.001169 -0.004715 0.010855 0.000000 0.000000 0.000000
# 4 0.000000 0.000000 0.000000 0.030490 0.000000 0.000000
# 5 0.000000 0.000000 0.000000 0.000000 0.000389 0.000000
# 6 0.000000 0.000000 0.000000 0.000000 0.000000 0.029523
#
#
# Mechanical properties :
#
#
# Convention : Reuss Voigt Hill
#
# Bulk Modulus (GPa) = 53.58305 54.94418 54.26361
# Shear Modulus (GPa) = 40.92628 540.82171 290.87399
#
# Velocity S-wave (km/s) = 4.50030 16.35940 11.99756
# Velocity P-wave (km/s) = 7.31571 19.59667 14.79103
#
# Compressibility (1/GPa) = 0.01866262
#
# Stress axis : x y z
#
# Youngs Moduli (GPa) = 78.52272 73.99442 92.11953
#
# Poissons Ratio (x) = 0.24690 0.10773
# Poissons Ratio (y) = 0.26201 0.43436
# Poissons Ratio (z) = 0.09183 0.34890
#
# Static dielectric constant tensor:
#      x y z
#    x 3.665940 0.000000 0.000000 
#    y 0.000000 3.649000 0.000000 
#    z 0.000000 0.000000 3.897660 
# 
# 
# High freq. dielectric constant tensor:
#      x y z
#    x 1.799000 0.000000 0.000000 
#    y 0.000000 1.788990 0.000000 
#    z 0.000000 0.000000 1.803630 
# 
# From -- ./inp_files/8938.got.cif
#   From: 2010.03.12/outbox.cif.g09.slc.cpg/sg57_5_cif.got.tgz:8938.got - 2010.04.16 15:48:40.
