data_PCOD8233011
_publ_section_title
;
Structure prediction by ZEFSAII (Michael W. Deem and Ramdas Pophale) SiO2 
 PCOD8233011
Probable space group: P B C M
;
_chemical_formula_sum "Si O2"
_cell_formula_units_Z 40
_cell_length_a 13.315289
_cell_length_b 9.420597
_cell_length_c 14.334903
_cell_angle_alpha 90.000000
_cell_angle_beta 90.000000
_cell_angle_gamma 90.000000
_cell_volume 1798.141156
_symmetry_space_group_name_H-M "P B C M"
_symmetry_group_IT_number 57
_symmetry_cell_setting 'orthorhombic'
loop_
_space_group_symop_operation_xyz
x,y,z
-x,-y,1/2+z
x,1/2-y,-z
-x,1/2+y,1/2-z
-x,-y,-z
x,y,1/2-z
-x,1/2+y,z
x,1/2-y,1/2+z
loop_
_atom_site_type_symbol
_atom_site_label
_atom_site_fract_x
_atom_site_fract_y
_atom_site_fract_z
Si Si1 0.394541 0.011190 0.349504
Si Si2 0.251578 0.541771 0.497941
Si Si3 0.571419 0.298199 0.904508
Si Si4 0.904524 0.507605 0.644254
Si Si5 0.896207 0.323800 0.143808
O O1 0.346080 0.056215 0.250000
O O2 0.322951 0.055798 0.435986
O O3 0.411747 0.841765 0.343381
O O4 0.502572 0.086419 0.354898
O O5 0.319638 0.636360 0.429110
O O6 0.181142 0.446711 0.430600
O O7 0.189665 0.639650 0.570069
O O8 0.516870 0.250000 0.000000
O O9 0.870876 0.546642 0.750000
O O10 0.923928 0.340516 0.633628
O O11 0.005697 0.587168 0.616917
O O12 0.861498 0.358980 0.250000
#
# Coordination Sequence:
#
# PCOD8233011 Si02
#       5
#     8   8   8   8   8
#     4  11  22  38  60  86 115 150 190 236 285 337
#     4  11  21  36  60  85 109 146 192 233 277 335
#     4  10  21  38  58  83 115 150 190 235 283 337
#     4  10  21  36  56  81 111 146 186 230 278 330
#     4  10  20  36  56  81 111 144 183 228 277 333
#
# _framework density 22.245194999999999
#
# number of rings (size 3 to 8) (size 9 to 14) (size 15 to 20)
#    0.000    1.600    0.000    8.400    0.000    3.200 
#    0.000    6.000    0.000    7.200    0.000    0.000 
#    0.000    0.000    0.000    0.000    0.000    0.000 
#
# Total GULP energy -495720.182892 kJ/mol
# GULP energy per Si atom -12393.004572 kJ/mol
# Density = 2.219456 g / cm^3
# Si number density = 22.245195 Si / 1000 Ang^3
#
#
#
# Elastic Constant Matrix: (Units=GPa)
#
#
# Indices 1 2 3 4 5 6 
#
# 1 123.0262 31.7377 56.1309 0.0000 0.0000 0.0000
# 2 31.7377 19.3368 14.5356 0.0000 0.0000 0.0000
# 3 56.1309 14.5356 113.5273 0.0000 0.0000 0.0000
# 4 0.0000 0.0000 0.0000 17.2858 0.0000 0.0000
# 5 0.0000 0.0000 0.0000 0.0000 30.0312 0.0000
# 6 0.0000 0.0000 0.0000 0.0000 0.0000 24.0626
#
#
#
# Elastic Compliance Matrix: (Units=1/GPa)
#
#
# Indices 1 2 3 4 5 6 
#
# 1 0.016452 -0.023113 -0.005175 0.000000 0.000000 0.000000
# 2 -0.023113 0.089692 -0.000056 0.000000 0.000000 0.000000
# 3 -0.005175 -0.000056 0.011374 0.000000 0.000000 0.000000
# 4 0.000000 0.000000 0.000000 0.057851 0.000000 0.000000
# 5 0.000000 0.000000 0.000000 0.000000 0.033299 0.000000
# 6 0.000000 0.000000 0.000000 0.000000 0.000000 0.041558
#
#
# Mechanical properties :
#
#
# Convention : Reuss Voigt Hill
#
# Bulk Modulus (GPa) = 16.43919 51.18873 33.81396
# Shear Modulus (GPa) = 15.28162 24.50833 19.89498
#
# Velocity S-wave (km/s) = 2.62384 3.32284 2.99381
# Velocity P-wave (km/s) = 4.07252 6.14677 5.21384
#
# Compressibility (1/GPa) = 0.06083026
#
# Stress axis : x y z
#
# Youngs Moduli (GPa) = 60.78318 11.14930 87.91722
#
# Poissons Ratio (x) = 0.25769 0.45497
# Poissons Ratio (y) = 1.40485 0.00495
# Poissons Ratio (z) = 0.31455 0.00063
#
# Static dielectric constant tensor:
#      x y z
#    x 4.029280 0.000000 0.000000 
#    y 0.000000 3.716030 0.000000 
#    z 0.000000 0.000000 4.458160 
# 
# 
# High freq. dielectric constant tensor:
#      x y z
#    x 1.872110 0.000000 0.000000 
#    y 0.000000 1.842870 0.000000 
#    z 0.000000 0.000000 1.898770 
# 
# From -- ./inp_files/17381.got.cif
#   From: 2010.03.12/outbox.cif.g09.slc.cpg/sg57_9_cif.got.tgz:17381.got - 2010.04.16 15:48:40.
