data_PCOD8233283
_publ_section_title
;
Structure prediction by ZEFSAII (Michael W. Deem and Ramdas Pophale) SiO2 
 PCOD8233283
Probable space group: P B C M
;
_chemical_formula_sum "Si O2"
_cell_formula_units_Z 56
_cell_length_a 21.590847
_cell_length_b 13.852063
_cell_length_c 9.375788
_cell_angle_alpha 90.000000
_cell_angle_beta 90.000000
_cell_angle_gamma 90.000000
_cell_volume 2804.089794
_symmetry_space_group_name_H-M "P B C M"
_symmetry_group_IT_number 57
_symmetry_cell_setting 'orthorhombic'
loop_
_space_group_symop_operation_xyz
x,y,z
-x,-y,1/2+z
x,1/2-y,-z
-x,1/2+y,1/2-z
-x,-y,-z
x,y,1/2-z
-x,1/2+y,z
x,1/2-y,1/2+z
loop_
_atom_site_type_symbol
_atom_site_label
_atom_site_fract_x
_atom_site_fract_y
_atom_site_fract_z
Si Si1 0.864853 0.169721 0.406422
Si Si2 0.584068 0.552867 0.083106
Si Si3 0.726471 0.334729 0.910781
Si Si4 0.701285 0.949541 0.412812
Si Si5 0.940421 0.976872 0.408571
Si Si6 0.171177 0.348677 0.081469
Si Si7 0.473173 0.651494 0.918950
O O1 0.900357 0.250000 0.500000
O O2 0.859991 0.214283 0.250000
O O3 0.796461 0.150532 0.468673
O O4 0.901066 0.072174 0.403390
O O5 0.578347 0.579477 0.250000
O O6 0.575272 0.437145 0.060526
O O7 0.650597 0.589689 0.023948
O O8 0.536217 0.615695 0.991973
O O9 0.725697 0.298079 0.750000
O O10 0.692807 0.435866 0.925915
O O11 0.692537 0.250000 0.000000
O O12 0.687085 0.916618 0.250000
O O13 0.770303 0.916426 0.456525
O O14 0.962319 0.947309 0.250000
O O15 0.893981 0.895526 0.471574
O O16 0.000000 0.000000 0.500000
O O17 0.167801 0.331113 0.250000
O O18 0.181054 0.250000 0.000000
O O19 0.482988 0.672590 0.750000
O O20 0.450807 0.750000 0.000000
#
# Coordination Sequence:
#
# PCOD8233283 Si02
#       7
#     8   8   8   8   8   8   8
#     4   9  17  32  53  76 103 135 172 217 269 328
#     4  10  22  38  58  88 121 153 196 244 289 342
#     4   9  17  31  52  77 105 140 178 220 274 335
#     4  10  20  37  59  81 114 156 192 232 288 346
#     4  10  21  38  58  80 110 145 185 231 283 339
#     4  10  22  41  61  82 112 151 193 237 284 338
#     4  10  21  39  62  86 117 157 198 242 290 341
#
# _framework density 19.970831
#
# number of rings (size 3 to 8) (size 9 to 14) (size 15 to 20)
#    0.000    2.286    1.429    0.857    0.000    5.714 
#    0.000    7.143    0.000    0.000    0.000    0.000 
#    0.000    0.000    0.000    0.000    0.000    0.000 
#
# Total GULP energy -693936.142491 kJ/mol
# GULP energy per Si atom -12391.716830 kJ/mol
# Density = 1.992538 g / cm^3
# Si number density = 19.970831 Si / 1000 Ang^3
#
#
#
# Elastic Constant Matrix: (Units=GPa)
#
#
# Indices 1 2 3 4 5 6 
#
# 1 90.1055 8.2648 46.4017 0.0000 0.0000 0.0000
# 2 8.2648 71.4314 37.3244 0.0000 0.0000 0.0000
# 3 46.4017 37.3244 93.8032 0.0000 0.0000 0.0000
# 4 0.0000 0.0000 0.0000 37.1431 0.0000 0.0000
# 5 0.0000 0.0000 0.0000 0.0000 41.2153 0.0000
# 6 0.0000 0.0000 0.0000 0.0000 0.0000 7.3845
#
#
#
# Elastic Compliance Matrix: (Units=1/GPa)
#
#
# Indices 1 2 3 4 5 6 
#
# 1 0.015311 0.002760 -0.008672 0.000000 0.000000 0.000000
# 2 0.002760 0.018172 -0.008596 0.000000 0.000000 0.000000
# 3 -0.008672 -0.008596 0.018371 0.000000 0.000000 0.000000
# 4 0.000000 0.000000 0.000000 0.026923 0.000000 0.000000
# 5 0.000000 0.000000 0.000000 0.000000 0.024263 0.000000
# 6 0.000000 0.000000 0.000000 0.000000 0.000000 0.135419
#
#
# Mechanical properties :
#
#
# Convention : Reuss Voigt Hill
#
# Bulk Modulus (GPa) = 43.78803 48.81354 46.30079
# Shear Modulus (GPa) = 18.17617 28.03852 23.10734
#
# Velocity S-wave (km/s) = 3.02012 3.75103 3.40524
# Velocity P-wave (km/s) = 5.84252 6.57691 6.22056
#
# Compressibility (1/GPa) = 0.02283729
#
# Stress axis : x y z
#
# Youngs Moduli (GPa) = 65.31365 55.03110 54.43489
#
# Poissons Ratio (x) = -0.15187 0.47205
# Poissons Ratio (y) = -0.18025 0.46790
# Poissons Ratio (z) = 0.56639 0.47303
#
# Static dielectric constant tensor:
#      x y z
#    x 2.707810 0.000000 0.000000 
#    y 0.000000 3.678730 0.000000 
#    z 0.000000 0.000000 3.680480 
# 
# 
# High freq. dielectric constant tensor:
#      x y z
#    x 1.772270 0.000000 0.000000 
#    y 0.000000 1.776390 0.000000 
#    z 0.000000 0.000000 1.776080 
# 
# From -- ./inp_files/8005.got.cif
#   From: 2010.03.12/outbox.cif.g09.slc.cpg/sg57_5_cif.got.tgz:8005.got - 2010.04.16 15:48:40.
