data_PCOD8233401
_publ_section_title
;
Structure prediction by ZEFSAII (Michael W. Deem and Ramdas Pophale) SiO2 
 PCOD8233401
Probable space group: P B C M
;
_chemical_formula_sum "Si O2"
_cell_formula_units_Z 40
_cell_length_a 7.142625
_cell_length_b 13.289441
_cell_length_c 18.651228
_cell_angle_alpha 90.000000
_cell_angle_beta 90.000000
_cell_angle_gamma 90.000000
_cell_volume 1770.402418
_symmetry_space_group_name_H-M "P B C M"
_symmetry_group_IT_number 57
_symmetry_cell_setting 'orthorhombic'
loop_
_space_group_symop_operation_xyz
x,y,z
-x,-y,1/2+z
x,1/2-y,-z
-x,1/2+y,1/2-z
-x,-y,-z
x,y,1/2-z
-x,1/2+y,z
x,1/2-y,1/2+z
loop_
_atom_site_type_symbol
_atom_site_label
_atom_site_fract_x
_atom_site_fract_y
_atom_site_fract_z
Si Si1 0.676076 0.051449 0.917675
Si Si2 0.911226 0.403797 0.538851
Si Si3 0.951818 0.519854 0.830570
Si Si4 0.629506 0.829915 0.330774
Si Si5 0.298541 0.174661 0.058980
O O1 0.840164 0.040824 0.859108
O O2 0.501151 0.100544 0.879377
O O3 0.738950 0.123805 0.985393
O O4 0.377539 0.060708 0.052664
O O5 0.000000 0.500000 0.500000
O O6 0.847835 0.436791 0.619094
O O7 0.072843 0.320629 0.547128
O O8 0.962179 0.476348 0.750000
O O9 0.836309 0.623087 0.832185
O O10 0.550445 0.822365 0.250000
O O11 0.646300 0.717924 0.362971
O O12 0.387477 0.250000 0.000000
#
# Coordination Sequence:
#
# PCOD8233401 Si02
#       5
#     8   8   8   8   8
#     4  10  21  40  63  84 122 170 210 254 316 388
#     4   8  17  34  59  84 112 157 210 255 309 378
#     4   9  18  35  57  81 115 157 201 258 321 376
#     4  11  23  38  61  95 129 164 211 261 312 378
#     4  10  20  37  62  91 123 159 208 263 314 370
#
# _framework density 22.593734999999999
#
# number of rings (size 3 to 8) (size 9 to 14) (size 15 to 20)
#    0.000    2.800    0.000    4.200    0.000    7.200 
#    0.000   11.000    0.000    4.800    0.000    0.000 
#    0.000    0.000    0.000    0.000    0.000    0.000 
#
# Total GULP energy -495607.633109 kJ/mol
# GULP energy per Si atom -12390.190828 kJ/mol
# Density = 2.254231 g / cm^3
# Si number density = 22.593735 Si / 1000 Ang^3
#
#
#
# Elastic Constant Matrix: (Units=GPa)
#
#
# Indices 1 2 3 4 5 6 
#
# 1 56.7125 30.6991 23.4315 0.0000 0.0000 0.0000
# 2 30.6991 86.0956 44.9600 0.0000 0.0000 0.0000
# 3 23.4315 44.9600 163.9543 0.0000 0.0000 0.0000
# 4 0.0000 0.0000 0.0000 35.9241 0.0000 0.0000
# 5 0.0000 0.0000 0.0000 0.0000 36.3518 0.0000
# 6 0.0000 0.0000 0.0000 0.0000 0.0000 28.7378
#
#
#
# Elastic Compliance Matrix: (Units=1/GPa)
#
#
# Indices 1 2 3 4 5 6 
#
# 1 0.022038 -0.007252 -0.001161 0.000000 0.000000 0.000000
# 2 -0.007252 0.015943 -0.003335 0.000000 0.000000 0.000000
# 3 -0.001161 -0.003335 0.007180 0.000000 0.000000 0.000000
# 4 0.000000 0.000000 0.000000 0.027836 0.000000 0.000000
# 5 0.000000 0.000000 0.000000 0.000000 0.027509 0.000000
# 6 0.000000 0.000000 0.000000 0.000000 0.000000 0.034797
#
#
# Mechanical properties :
#
#
# Convention : Reuss Voigt Hill
#
# Bulk Modulus (GPa) = 46.15956 56.10484 51.13220
# Shear Modulus (GPa) = 30.11671 34.04752 32.08211
#
# Velocity S-wave (km/s) = 3.65494 3.88615 3.77232
# Velocity P-wave (km/s) = 6.18757 6.70986 6.45400
#
# Compressibility (1/GPa) = 0.02166398
#
# Stress axis : x y z
#
# Youngs Moduli (GPa) = 45.37635 62.72521 139.27914
#
# Poissons Ratio (x) = 0.45487 0.16169
# Poissons Ratio (y) = 0.32906 0.46455
# Poissons Ratio (z) = 0.05268 0.20922
#
# Static dielectric constant tensor:
#      x y z
#    x 4.173760 0.000000 0.000000 
#    y 0.000000 3.775090 0.000000 
#    z 0.000000 0.000000 4.771580 
# 
# 
# High freq. dielectric constant tensor:
#      x y z
#    x 1.880740 0.000000 0.000000 
#    y 0.000000 1.863170 0.000000 
#    z 0.000000 0.000000 1.905870 
# 
# From -- ./inp_files/19983.got.cif
#   From: 2010.03.12/outbox.cif.g09.slc.cpg/sg57_10_cif.got.tgz:19983.got - 2010.04.16 15:48:40.
