data_PCOD8233827
_publ_section_title
;
Structure prediction by ZEFSAII (Michael W. Deem and Ramdas Pophale) SiO2 
 PCOD8233827
Probable space group: P B C M
;
_chemical_formula_sum "Si O2"
_cell_formula_units_Z 48
_cell_length_a 14.900470
_cell_length_b 9.294351
_cell_length_c 16.998845
_cell_angle_alpha 90.000000
_cell_angle_beta 90.000000
_cell_angle_gamma 90.000000
_cell_volume 2354.173414
_symmetry_space_group_name_H-M "P B C M"
_symmetry_group_IT_number 57
_symmetry_cell_setting 'orthorhombic'
loop_
_space_group_symop_operation_xyz
x,y,z
-x,-y,1/2+z
x,1/2-y,-z
-x,1/2+y,1/2-z
-x,-y,-z
x,y,1/2-z
-x,1/2+y,z
x,1/2-y,1/2+z
loop_
_atom_site_type_symbol
_atom_site_label
_atom_site_fract_x
_atom_site_fract_y
_atom_site_fract_z
Si Si1 0.736551 0.761636 0.408627
Si Si2 0.588416 0.573437 0.159162
Si Si3 0.076866 0.919657 0.838847
Si Si4 0.057482 0.213977 0.588055
Si Si5 0.280656 0.925201 0.658632
Si Si6 0.565445 0.263283 0.408755
O O1 0.711549 0.750000 0.500000
O O2 0.685707 0.636955 0.361755
O O3 0.841742 0.733126 0.394110
O O4 0.705825 0.916184 0.376581
O O5 0.586282 0.531029 0.250000
O O6 0.513803 0.692641 0.141246
O O7 0.569911 0.431360 0.109479
O O8 0.067153 0.977912 0.750000
O O9 0.179088 0.870614 0.853387
O O10 0.011046 0.786616 0.851644
O O11 0.050042 0.043761 0.899769
O O12 0.027502 0.250000 0.500000
O O13 0.308715 0.928023 0.750000
O O14 0.340943 0.812966 0.611387
O O15 0.542740 0.250000 0.500000
#
# Coordination Sequence:
#
# PCOD8233827 Si02
#       6
#     8   8   8   8   8   8
#     4  10  21  39  61  87 117 153 194 239 289 343
#     4  12  24  39  61  89 118 152 193 238 286 342
#     4  10  21  36  57  84 117 154 194 239 290 342
#     4  10  21  37  59  85 117 154 195 240 289 343
#     4  10  21  39  59  83 117 156 193 237 290 342
#     4  12  25  42  63  88 118 153 192 237 286 342
#
# _framework density 20.389320999999999
#
# number of rings (size 3 to 8) (size 9 to 14) (size 15 to 20)
#    0.000    1.333    0.000    6.000    0.000    4.000 
#    0.000    0.000    0.000    0.000    0.000    0.000 
#    0.000    0.000    0.000    0.000    0.000    0.000 
#
# Total GULP energy -595546.182863 kJ/mol
# GULP energy per Si atom -12407.212143 kJ/mol
# Density = 2.034291 g / cm^3
# Si number density = 20.389321 Si / 1000 Ang^3
#
#
#
# Elastic Constant Matrix: (Units=GPa)
#
#
# Indices 1 2 3 4 5 6 
#
# 1 85.1428 37.2571 21.2936 0.0000 0.0000 0.0000
# 2 37.2571 78.5907 5.0289 0.0000 0.0000 0.0000
# 3 21.2936 5.0289 77.8566 0.0000 0.0000 0.0000
# 4 0.0000 0.0000 0.0000 37.6502 0.0000 0.0000
# 5 0.0000 0.0000 0.0000 0.0000 26.3131 0.0000
# 6 0.0000 0.0000 0.0000 0.0000 0.0000 29.7335
#
#
#
# Elastic Compliance Matrix: (Units=1/GPa)
#
#
# Indices 1 2 3 4 5 6 
#
# 1 0.015906 -0.007292 -0.003879 0.000000 0.000000 0.000000
# 2 -0.007292 0.016120 0.000953 0.000000 0.000000 0.000000
# 3 -0.003879 0.000953 0.013844 0.000000 0.000000 0.000000
# 4 0.000000 0.000000 0.000000 0.026560 0.000000 0.000000
# 5 0.000000 0.000000 0.000000 0.000000 0.038004 0.000000
# 6 0.000000 0.000000 0.000000 0.000000 0.000000 0.033632
#
#
# Mechanical properties :
#
#
# Convention : Reuss Voigt Hill
#
# Bulk Modulus (GPa) = 39.31886 40.97215 40.14550
# Shear Modulus (GPa) = 28.90496 30.60672 29.75584
#
# Velocity S-wave (km/s) = 3.76926 3.87863 3.82433
# Velocity P-wave (km/s) = 6.18619 6.34010 6.26362
#
# Compressibility (1/GPa) = 0.02543309
#
# Stress axis : x y z
#
# Youngs Moduli (GPa) = 62.86871 62.03394 72.23587
#
# Poissons Ratio (x) = 0.45237 0.28022
# Poissons Ratio (y) = 0.45846 -0.06886
# Poissons Ratio (z) = 0.24389 -0.05913
#
# Static dielectric constant tensor:
#      x y z
#    x 3.793930 0.000000 0.000000 
#    y 0.000000 3.554930 0.000000 
#    z 0.000000 0.000000 3.812500 
# 
# 
# High freq. dielectric constant tensor:
#      x y z
#    x 1.807520 0.000000 0.000000 
#    y 0.000000 1.794160 0.000000 
#    z 0.000000 0.000000 1.809440 
# 
# From -- ./inp_files/22391.got.cif
#   From: 2010.03.12/outbox.cif.g09.slc.cpg/sg57_12_cif.got.tgz:22391.got - 2010.04.16 15:48:40.
