data_PCOD8233053
_publ_section_title
;
Structure prediction by ZEFSAII (Michael W. Deem and Ramdas Pophale) SiO2 
 PCOD8233053
Probable space group: P B C M
;
_chemical_formula_sum "Si O2"
_cell_formula_units_Z 48
_cell_length_a 15.647145
_cell_length_b 8.611769
_cell_length_c 16.027319
_cell_angle_alpha 90.000000
_cell_angle_beta 90.000000
_cell_angle_gamma 90.000000
_cell_volume 2159.674796
_symmetry_space_group_name_H-M "P B C M"
_symmetry_group_IT_number 57
_symmetry_cell_setting 'orthorhombic'
loop_
_space_group_symop_operation_xyz
x,y,z
-x,-y,1/2+z
x,1/2-y,-z
-x,1/2+y,1/2-z
-x,-y,-z
x,y,1/2-z
-x,1/2+y,z
x,1/2-y,1/2+z
loop_
_atom_site_type_symbol
_atom_site_label
_atom_site_fract_x
_atom_site_fract_y
_atom_site_fract_z
Si Si1 0.449130 0.176208 0.408494
Si Si2 0.398896 0.647645 0.845977
Si Si3 0.057517 0.579844 0.155033
Si Si4 0.244089 0.859612 0.848255
Si Si5 0.898960 0.754031 0.903202
Si Si6 0.280696 0.195015 0.594339
O O1 0.461870 0.250000 0.500000
O O2 0.534653 0.210120 0.356028
O O3 0.367937 0.253546 0.360034
O O4 0.429497 0.990790 0.407597
O O5 0.397838 0.591509 0.750000
O O6 0.304329 0.712985 0.871277
O O7 0.037668 0.615855 0.250000
O O8 0.143934 0.673538 0.128080
O O9 0.970885 0.617593 0.106589
O O10 0.066438 0.399509 0.139130
O O11 0.250881 0.899751 0.750000
O O12 0.272301 0.009240 0.901055
O O13 0.803282 0.780299 0.865015
O O14 0.879437 0.750000 0.000000
O O15 0.294806 0.250000 0.500000
#
# Coordination Sequence:
#
# PCOD8233053 Si02
#       6
#     8   8   8   8   8   8
#     4  11  23  40  60  87 120 154 192 239 291 345
#     4  11  23  40  63  91 118 153 196 239 287 347
#     4  10  20  36  57  85 117 152 191 237 290 343
#     4   9  20  38  59  83 118 156 193 239 294 347
#     4  10  20  36  57  82 114 152 194 239 284 340
#     4   9  20  38  58  82 114 153 195 237 289 346
#
# _framework density 22.225570000000001
#
# number of rings (size 3 to 8) (size 9 to 14) (size 15 to 20)
#    0.000    2.000    0.000    3.000    0.000    6.000 
#    0.000    5.833    0.000    0.000    0.000    0.000 
#    0.000    0.000    0.000    0.000    0.000    0.000 
#
# Total GULP energy -594640.180072 kJ/mol
# GULP energy per Si atom -12388.337085 kJ/mol
# Density = 2.217498 g / cm^3
# Si number density = 22.225570 Si / 1000 Ang^3
#
#
#
# Elastic Constant Matrix: (Units=GPa)
#
#
# Indices 1 2 3 4 5 6 
#
# 1 111.5459 6.5158 5.1058 0.0000 0.0000 0.0000
# 2 6.5158 57.4926 17.2977 0.0000 0.0000 0.0000
# 3 5.1058 17.2977 48.5446 0.0000 0.0000 0.0000
# 4 0.0000 0.0000 0.0000 30.3822 0.0000 0.0000
# 5 0.0000 0.0000 0.0000 0.0000 22.4918 0.0000
# 6 0.0000 0.0000 0.0000 0.0000 0.0000 43.2235
#
#
#
# Elastic Compliance Matrix: (Units=1/GPa)
#
#
# Indices 1 2 3 4 5 6 
#
# 1 0.009043 -0.000827 -0.000656 0.000000 0.000000 0.000000
# 2 -0.000827 0.019558 -0.006882 0.000000 0.000000 0.000000
# 3 -0.000656 -0.006882 0.023121 0.000000 0.000000 0.000000
# 4 0.000000 0.000000 0.000000 0.032914 0.000000 0.000000
# 5 0.000000 0.000000 0.000000 0.000000 0.044461 0.000000
# 6 0.000000 0.000000 0.000000 0.000000 0.000000 0.023136
#
#
# Mechanical properties :
#
#
# Convention : Reuss Voigt Hill
#
# Bulk Modulus (GPa) = 28.57910 30.60242 29.59076
# Shear Modulus (GPa) = 27.68131 31.79708 29.73920
#
# Velocity S-wave (km/s) = 3.53295 3.78650 3.66192
# Velocity P-wave (km/s) = 5.43405 5.73722 5.58769
#
# Compressibility (1/GPa) = 0.03499061
#
# Stress axis : x y z
#
# Youngs Moduli (GPa) = 110.57917 51.13031 43.25101
#
# Poissons Ratio (x) = 0.04231 0.02839
# Poissons Ratio (y) = 0.09150 0.29765
# Poissons Ratio (z) = 0.07257 0.35188
#
# Static dielectric constant tensor:
#      x y z
#    x 4.804190 0.000000 0.000000 
#    y 0.000000 3.636250 0.000000 
#    z 0.000000 0.000000 3.793200 
# 
# 
# High freq. dielectric constant tensor:
#      x y z
#    x 1.911850 0.000000 0.000000 
#    y 0.000000 1.851690 0.000000 
#    z 0.000000 0.000000 1.851530 
# 
# From -- ./inp_files/22447.got.cif
#   From: 2010.03.12/outbox.cif.g09.slc.cpg/sg57_12_cif.got.tgz:22447.got - 2010.04.16 15:48:40.
