data_PCOD8233924
_publ_section_title
;
Structure prediction by ZEFSAII (Michael W. Deem and Ramdas Pophale) SiO2 
 PCOD8233924
Probable space group: P B C M
;
_chemical_formula_sum "Si O2"
_cell_formula_units_Z 40
_cell_length_a 11.290186
_cell_length_b 7.229584
_cell_length_c 22.787256
_cell_angle_alpha 90.000000
_cell_angle_beta 90.000000
_cell_angle_gamma 90.000000
_cell_volume 1859.972128
_symmetry_space_group_name_H-M "P B C M"
_symmetry_group_IT_number 57
_symmetry_cell_setting 'orthorhombic'
loop_
_space_group_symop_operation_xyz
x,y,z
-x,-y,1/2+z
x,1/2-y,-z
-x,1/2+y,1/2-z
-x,-y,-z
x,y,1/2-z
-x,1/2+y,z
x,1/2-y,1/2+z
loop_
_atom_site_type_symbol
_atom_site_label
_atom_site_fract_x
_atom_site_fract_y
_atom_site_fract_z
Si Si1 0.771857 0.682301 0.315146
Si Si2 0.096790 0.394761 0.925387
Si Si3 0.432687 0.596320 0.684100
Si Si4 0.843391 0.485086 0.955973
Si Si5 0.335358 0.965237 0.862863
O O1 0.826063 0.662638 0.250000
O O2 0.857542 0.569347 0.359487
O O3 0.642819 0.590538 0.318691
O O4 0.759244 0.900385 0.330521
O O5 0.148641 0.202032 0.945872
O O6 0.954364 0.385548 0.924440
O O7 0.146669 0.548319 0.972943
O O8 0.485950 0.618877 0.750000
O O9 0.537937 0.570715 0.636516
O O10 0.350255 0.772080 0.670753
O O11 0.717847 0.420371 0.927920
#
# Coordination Sequence:
#
# PCOD8233924 Si02
#       5
#     8   8   8   8   8
#     4  10  21  37  58  83 116 153 191 238 288 346
#     4   9  19  39  60  84 115 148 193 240 297 345
#     4  11  21  35  57  83 116 157 194 230 286 350
#     4   9  20  37  63  84 112 151 195 242 289 352
#     4  11  21  36  60  86 113 152 198 236 283 344
#
# _framework density 21.505700000000001
#
# number of rings (size 3 to 8) (size 9 to 14) (size 15 to 20)
#    0.000    2.000    2.000    1.800    2.800    0.000 
#    0.000    7.000    4.400    0.000    0.000    0.000 
#    0.000    0.000    0.000    0.000    0.000    0.000 
#
# Total GULP energy -495682.205277 kJ/mol
# GULP energy per Si atom -12392.055132 kJ/mol
# Density = 2.145675 g / cm^3
# Si number density = 21.505700 Si / 1000 Ang^3
#
#
#
# Elastic Constant Matrix: (Units=GPa)
#
#
# Indices 1 2 3 4 5 6 
#
# 1 92.8335 12.8126 76.2907 0.0000 0.0000 0.0000
# 2 12.8126 46.2445 18.7562 0.0000 0.0000 0.0000
# 3 76.2907 18.7562 161.6654 0.0000 0.0000 0.0000
# 4 0.0000 0.0000 0.0000 22.0171 0.0000 0.0000
# 5 0.0000 0.0000 0.0000 0.0000 90.5914 0.0000
# 6 0.0000 0.0000 0.0000 0.0000 0.0000 31.2188
#
#
#
# Elastic Compliance Matrix: (Units=1/GPa)
#
#
# Indices 1 2 3 4 5 6 
#
# 1 0.017707 -0.001592 -0.008171 0.000000 0.000000 0.000000
# 2 -0.001592 0.022835 -0.001898 0.000000 0.000000 0.000000
# 3 -0.008171 -0.001898 0.010262 0.000000 0.000000 0.000000
# 4 0.000000 0.000000 0.000000 0.045419 0.000000 0.000000
# 5 0.000000 0.000000 0.000000 0.000000 0.011039 0.000000
# 6 0.000000 0.000000 0.000000 0.000000 0.000000 0.032032
#
#
# Mechanical properties :
#
#
# Convention : Reuss Voigt Hill
#
# Bulk Modulus (GPa) = 36.38816 57.38473 46.88644
# Shear Modulus (GPa) = 29.10765 41.62440 35.36603
#
# Velocity S-wave (km/s) = 3.68297 4.40421 4.05964
# Velocity P-wave (km/s) = 5.91968 7.25287 6.61992
#
# Compressibility (1/GPa) = 0.02748147
#
# Stress axis : x y z
#
# Youngs Moduli (GPa) = 56.47552 43.79232 97.44802
#
# Poissons Ratio (x) = 0.06971 0.79627
# Poissons Ratio (y) = 0.08989 0.18497
# Poissons Ratio (z) = 0.46148 0.08312
#
# Static dielectric constant tensor:
#      x y z
#    x 3.669590 0.000000 0.000000 
#    y 0.000000 3.915560 0.000000 
#    z 0.000000 0.000000 4.576140 
# 
# 
# High freq. dielectric constant tensor:
#      x y z
#    x 1.816820 0.000000 0.000000 
#    y 0.000000 1.855570 0.000000 
#    z 0.000000 0.000000 1.831990 
# 
# From -- ./inp_files/24856.got.cif
#   From: 2010.03.12/outbox.cif.g09.slc.cpg/sg57_13_cif.got.tgz:24856.got - 2010.04.16 15:48:40.
