data_PCOD8233492
_publ_section_title
;
Structure prediction by ZEFSAII (Michael W. Deem and Ramdas Pophale) SiO2 
 PCOD8233492
Probable space group: P B C M
;
_chemical_formula_sum "Si O2"
_cell_formula_units_Z 36
_cell_length_a 20.004576
_cell_length_b 8.495950
_cell_length_c 10.217763
_cell_angle_alpha 90.000000
_cell_angle_beta 90.000000
_cell_angle_gamma 90.000000
_cell_volume 1736.589312
_symmetry_space_group_name_H-M "P B C M"
_symmetry_group_IT_number 57
_symmetry_cell_setting 'orthorhombic'
loop_
_space_group_symop_operation_xyz
x,y,z
-x,-y,1/2+z
x,1/2-y,-z
-x,1/2+y,1/2-z
-x,-y,-z
x,y,1/2-z
-x,1/2+y,z
x,1/2-y,1/2+z
loop_
_atom_site_type_symbol
_atom_site_label
_atom_site_fract_x
_atom_site_fract_y
_atom_site_fract_z
Si Si1 0.991317 0.750000 0.500000
Si Si2 0.411685 0.941016 0.250000
Si Si3 0.237672 0.885683 0.903586
Si Si4 0.360750 0.434370 0.017054
Si Si5 0.555898 0.426163 0.750000
Si Si6 0.091554 0.533445 0.393743
O O1 0.042885 0.686756 0.389257
O O2 0.943552 0.606998 0.531546
O O3 0.429022 0.757946 0.250000
O O4 0.368371 0.979338 0.378138
O O5 0.476791 0.050531 0.250000
O O6 0.237258 0.833314 0.750000
O O7 0.287231 0.032526 0.923402
O O8 0.163631 0.929511 0.955866
O O9 0.264701 0.750000 0.000000
O O10 0.415683 0.495882 0.118795
O O11 0.370400 0.250000 0.000000
O O12 0.105202 0.471007 0.250000
#
# Coordination Sequence:
#
# PCOD8233492 Si02
#       6
#     4   4   8   8   4   8
#     4  10  20  38  60  92 122 164 214 272 328 396
#     4  12  26  44  76 100 138 175 222 271 336 390
#     4  11  24  44  66  95 132 177 223 273 335 401
#     4  12  26  44  67  99 137 178 225 276 329 394
#     4  12  24  48  70 104 134 175 220 275 330 398
#     4  10  21  38  62  88 127 166 218 270 333 388
#
# _framework density 20.730291000000001
#
# number of rings (size 3 to 8) (size 9 to 14) (size 15 to 20)
#    0.000    0.889    2.222    5.333    3.111    0.000 
#    0.000    1.111    0.000    0.000    0.000    0.000 
#    0.000    0.000    0.000    0.000    0.000    0.000 
#
# Total GULP energy -446316.583309 kJ/mol
# GULP energy per Si atom -12397.682870 kJ/mol
# Density = 2.068311 g / cm^3
# Si number density = 20.730291 Si / 1000 Ang^3
#
#
#
# Elastic Constant Matrix: (Units=GPa)
#
#
# Indices 1 2 3 4 5 6 
#
# 1 111.9408 28.7373 31.2847 0.0000 0.0000 0.0000
# 2 28.7373 122.2985 36.4753 0.0000 0.0000 0.0000
# 3 31.2847 36.4753 117.1317 0.0000 0.0000 0.0000
# 4 0.0000 0.0000 0.0000 26.7476 0.0000 0.0000
# 5 0.0000 0.0000 0.0000 0.0000 30.0603 0.0000
# 6 0.0000 0.0000 0.0000 0.0000 0.0000 28.4793
#
#
#
# Elastic Compliance Matrix: (Units=1/GPa)
#
#
# Indices 1 2 3 4 5 6 
#
# 1 0.009967 -0.001707 -0.002131 0.000000 0.000000 0.000000
# 2 -0.001707 0.009306 -0.002442 0.000000 0.000000 0.000000
# 3 -0.002131 -0.002442 0.009867 0.000000 0.000000 0.000000
# 4 0.000000 0.000000 0.000000 0.037387 0.000000 0.000000
# 5 0.000000 0.000000 0.000000 0.000000 0.033266 0.000000
# 6 0.000000 0.000000 0.000000 0.000000 0.000000 0.035113
#
#
# Mechanical properties :
#
#
# Convention : Reuss Voigt Hill
#
# Bulk Modulus (GPa) = 60.30900 60.48509 60.39705
# Shear Modulus (GPa) = 32.68150 34.04903 33.36527
#
# Velocity S-wave (km/s) = 3.97484 4.05715 4.01620
# Velocity P-wave (km/s) = 7.08669 7.15456 7.12070
#
# Compressibility (1/GPa) = 0.01658127
#
# Stress axis : x y z
#
# Youngs Moduli (GPa) = 100.33265 107.45670 101.34827
#
# Poissons Ratio (x) = 0.18338 0.21594
# Poissons Ratio (y) = 0.17122 0.24751
# Poissons Ratio (z) = 0.21377 0.26243
#
# Static dielectric constant tensor:
#      x y z
#    x 4.068300 0.000000 0.000000 
#    y 0.000000 3.814170 0.000000 
#    z 0.000000 0.000000 3.985240 
# 
# 
# High freq. dielectric constant tensor:
#      x y z
#    x 1.829680 0.000000 0.000000 
#    y 0.000000 1.812260 0.000000 
#    z 0.000000 0.000000 1.813020 
# 
# From -- ./inp_files/7718.got.cif
#   From: 2010.03.12/outbox.cif.g09.slc.cpg/sg57_4_cif.got.tgz:7718.got - 2010.04.16 15:48:40.
