data_PCOD8233749
_publ_section_title
;
Structure prediction by ZEFSAII (Michael W. Deem and Ramdas Pophale) SiO2 
 PCOD8233749
Probable space group: P B C M
;
_chemical_formula_sum "Si O2"
_cell_formula_units_Z 56
_cell_length_a 8.890650
_cell_length_b 20.508940
_cell_length_c 15.347449
_cell_angle_alpha 90.000000
_cell_angle_beta 90.000000
_cell_angle_gamma 90.000000
_cell_volume 2798.420200
_symmetry_space_group_name_H-M "P B C M"
_symmetry_group_IT_number 57
_symmetry_cell_setting 'orthorhombic'
loop_
_space_group_symop_operation_xyz
x,y,z
-x,-y,1/2+z
x,1/2-y,-z
-x,1/2+y,1/2-z
-x,-y,-z
x,y,1/2-z
-x,1/2+y,z
x,1/2-y,1/2+z
loop_
_atom_site_type_symbol
_atom_site_label
_atom_site_fract_x
_atom_site_fract_y
_atom_site_fract_z
Si Si1 0.039983 0.142666 0.152637
Si Si2 0.473580 0.113096 0.469225
Si Si3 0.723633 0.964511 0.649456
Si Si4 0.713774 0.768929 0.594093
Si Si5 0.218596 0.615009 0.655619
Si Si6 0.206641 0.673939 0.487745
Si Si7 0.442471 0.357913 0.344430
O O1 0.977652 0.131797 0.250000
O O2 0.900877 0.159323 0.091982
O O3 0.132253 0.078777 0.120464
O O4 0.151702 0.204104 0.152828
O O5 0.422570 0.051692 0.410359
O O6 0.411982 0.177221 0.422733
O O7 0.651398 0.125750 0.474146
O O8 0.405183 0.101224 0.567509
O O9 0.682085 0.949954 0.750000
O O10 0.762127 0.039135 0.634223
O O11 0.782866 0.750000 0.500000
O O12 0.636039 0.711727 0.647644
O O13 0.137543 0.623499 0.750000
O O14 0.125536 0.649786 0.577999
O O15 0.378523 0.651799 0.658906
O O16 0.249547 0.750000 0.500000
O O17 0.392367 0.389572 0.250000
#
# Coordination Sequence:
#
# PCOD8233749 Si02
#       7
#     8   8   8   8   8   8   8
#     4  10  21  35  52  75 107 145 182 223 269 323
#     4   9  18  32  53  78 104 134 173 224 272 318
#     4   9  19  37  59  81 104 139 186 228 275 331
#     4   9  16  31  52  74 102 137 177 217 264 319
#     4   9  19  36  58  82 109 141 180 229 279 326
#     4  11  22  35  52  81 115 145 182 224 271 326
#     4   9  16  27  48  77 105 134 170 214 266 322
#
# _framework density 20.011292000000001
#
# number of rings (size 3 to 8) (size 9 to 14) (size 15 to 20)
#    0.000    2.571    0.000    3.000    0.000    4.571 
#    0.000    1.429    0.000    6.000    0.000    8.000 
#    0.000    0.000    0.000    0.000    0.000    0.000 
#
# Total GULP energy -693761.099611 kJ/mol
# GULP energy per Si atom -12388.591064 kJ/mol
# Density = 1.996575 g / cm^3
# Si number density = 20.011292 Si / 1000 Ang^3
#
#
#
# Elastic Constant Matrix: (Units=GPa)
#
#
# Indices 1 2 3 4 5 6 
#
# 1 47.4280 19.5919 33.3560 0.0000 0.0000 0.0000
# 2 19.5919 67.2215 34.7079 0.0000 0.0000 0.0000
# 3 33.3560 34.7079 125.1154 0.0000 0.0000 0.0000
# 4 0.0000 0.0000 0.0000 24.8607 0.0000 0.0000
# 5 0.0000 0.0000 0.0000 0.0000 26.0818 0.0000
# 6 0.0000 0.0000 0.0000 0.0000 0.0000 9.6412
#
#
#
# Elastic Compliance Matrix: (Units=1/GPa)
#
#
# Indices 1 2 3 4 5 6 
#
# 1 0.027263 -0.004894 -0.005911 0.000000 0.000000 0.000000
# 2 -0.004894 0.018242 -0.003756 0.000000 0.000000 0.000000
# 3 -0.005911 -0.003756 0.010610 0.000000 0.000000 0.000000
# 4 0.000000 0.000000 0.000000 0.040224 0.000000 0.000000
# 5 0.000000 0.000000 0.000000 0.000000 0.038341 0.000000
# 6 0.000000 0.000000 0.000000 0.000000 0.000000 0.103722
#
#
# Mechanical properties :
#
#
# Convention : Reuss Voigt Hill
#
# Bulk Modulus (GPa) = 37.04483 46.11962 41.58223
# Shear Modulus (GPa) = 18.08181 22.25734 20.16958
#
# Velocity S-wave (km/s) = 3.00922 3.33864 3.17820
# Velocity P-wave (km/s) = 5.53408 6.16108 5.85598
#
# Compressibility (1/GPa) = 0.02699432
#
# Stress axis : x y z
#
# Youngs Moduli (GPa) = 36.67928 54.81946 94.24821
#
# Poissons Ratio (x) = 0.26829 0.55708
# Poissons Ratio (y) = 0.17951 0.35396
# Poissons Ratio (z) = 0.21680 0.20588
#
# Static dielectric constant tensor:
#      x y z
#    x 3.328420 0.000000 0.000000 
#    y 0.000000 3.607360 0.000000 
#    z 0.000000 0.000000 4.226830 
# 
# 
# High freq. dielectric constant tensor:
#      x y z
#    x 1.740110 0.000000 0.000000 
#    y 0.000000 1.769820 0.000000 
#    z 0.000000 0.000000 1.805000 
# 
# From -- ./inp_files/16729.got.cif
#   From: 2010.03.12/outbox.cif.g09.slc.cpg/sg57_9_cif.got.tgz:16729.got - 2010.04.16 15:48:40.
