data_PCOD8233338
_publ_section_title
;
Structure prediction by ZEFSAII (Michael W. Deem and Ramdas Pophale) SiO2 
 PCOD8233338
Probable space group: P B C M
;
_chemical_formula_sum "Si O2"
_cell_formula_units_Z 48
_cell_length_a 12.534516
_cell_length_b 23.408012
_cell_length_c 8.684067
_cell_angle_alpha 90.000000
_cell_angle_beta 90.000000
_cell_angle_gamma 90.000000
_cell_volume 2547.975607
_symmetry_space_group_name_H-M "P B C M"
_symmetry_group_IT_number 57
_symmetry_cell_setting 'orthorhombic'
loop_
_space_group_symop_operation_xyz
x,y,z
-x,-y,1/2+z
x,1/2-y,-z
-x,1/2+y,1/2-z
-x,-y,-z
x,y,1/2-z
-x,1/2+y,z
x,1/2-y,1/2+z
loop_
_atom_site_type_symbol
_atom_site_label
_atom_site_fract_x
_atom_site_fract_y
_atom_site_fract_z
Si Si1 0.005513 0.310397 0.930559
Si Si2 0.615789 0.689180 0.432202
Si Si3 0.809932 0.392988 0.930236
Si Si4 0.197581 0.377577 0.067772
Si Si5 0.883300 0.993934 0.568855
Si Si6 0.372778 0.809639 0.930283
O O1 0.025152 0.304012 0.750000
O O2 0.913760 0.355712 0.967995
O O3 0.970171 0.250000 0.000000
O O4 0.114031 0.330753 0.009200
O O5 0.651238 0.750000 0.500000
O O6 0.633151 0.689606 0.250000
O O7 0.685394 0.640011 0.510373
O O8 0.493624 0.675721 0.478320
O O9 0.804218 0.407882 0.750000
O O10 0.704742 0.359824 0.988274
O O11 0.813442 0.450878 0.027543
O O12 0.193737 0.380490 0.250000
O O13 0.174622 0.439364 0.999913
O O14 0.893627 0.986166 0.750000
O O15 0.000000 0.000000 0.500000
O O16 0.360783 0.802499 0.750000
O O17 0.334127 0.750000 0.000000
#
# Coordination Sequence:
#
# PCOD8233338 Si02
#       6
#     8   8   8   8   8   8
#     4  11  22  35  55  83 118 151 187 234 288 346
#     4  10  20  37  60  87 119 154 195 239 289 344
#     4  10  21  38  59  85 117 153 193 237 286 341
#     4  12  24  39  59  83 114 151 196 241 290 344
#     4  12  24  40  61  85 114 153 195 237 289 346
#     4   9  19  36  60  88 119 155 193 237 287 342
#
# _framework density 18.838484999999999
#
# number of rings (size 3 to 8) (size 9 to 14) (size 15 to 20)
#    0.000    1.333    1.667    5.000    0.000    2.000 
#    0.000    0.833    0.000    0.000    0.000    0.000 
#    0.000    0.000    0.000    0.000    0.000    0.000 
#
# Total GULP energy -595476.332007 kJ/mol
# GULP energy per Si atom -12405.756917 kJ/mol
# Density = 1.879561 g / cm^3
# Si number density = 18.838485 Si / 1000 Ang^3
#
#
#
# Elastic Constant Matrix: (Units=GPa)
#
#
# Indices 1 2 3 4 5 6 
#
# 1 106.6069 58.1500 43.3495 0.0000 0.0000 0.0000
# 2 58.1500 128.4299 53.4668 0.0000 0.0000 0.0000
# 3 43.3495 53.4668 113.2897 0.0000 0.0000 0.0000
# 4 0.0000 0.0000 0.0000 37.2615 0.0000 0.0000
# 5 0.0000 0.0000 0.0000 0.0000 23.6144 0.0000
# 6 0.0000 0.0000 0.0000 0.0000 0.0000 31.0254
#
#
#
# Elastic Compliance Matrix: (Units=1/GPa)
#
#
# Indices 1 2 3 4 5 6 
#
# 1 0.013114 -0.004790 -0.002758 0.000000 0.000000 0.000000
# 2 -0.004790 0.011440 -0.003566 0.000000 0.000000 0.000000
# 3 -0.002758 -0.003566 0.011565 0.000000 0.000000 0.000000
# 4 0.000000 0.000000 0.000000 0.026837 0.000000 0.000000
# 5 0.000000 0.000000 0.000000 0.000000 0.042347 0.000000
# 6 0.000000 0.000000 0.000000 0.000000 0.000000 0.032232
#
#
# Mechanical properties :
#
#
# Convention : Reuss Voigt Hill
#
# Bulk Modulus (GPa) = 71.98361 73.13989 72.56175
# Shear Modulus (GPa) = 30.41496 31.27093 30.84295
#
# Velocity S-wave (km/s) = 4.02246 4.07867 4.05066
# Velocity P-wave (km/s) = 7.73741 7.81599 7.77680
#
# Compressibility (1/GPa) = 0.01389205
#
# Stress axis : x y z
#
# Youngs Moduli (GPa) = 76.25314 87.41498 86.46707
#
# Poissons Ratio (x) = 0.41870 0.23843
# Poissons Ratio (y) = 0.36524 0.30835
# Poissons Ratio (z) = 0.21027 0.31173
#
# Static dielectric constant tensor:
#      x y z
#    x 3.616900 0.000000 0.000000 
#    y 0.000000 3.639310 0.000000 
#    z 0.000000 0.000000 3.459290 
# 
# 
# High freq. dielectric constant tensor:
#      x y z
#    x 1.734120 0.000000 0.000000 
#    y 0.000000 1.735510 0.000000 
#    z 0.000000 0.000000 1.741620 
# 
# From -- ./inp_files/3179.got.cif
#   From: 2010.03.12/outbox.cif.g09.slc.cpg/sg57_2_cif.got.tgz:3179.got - 2010.04.16 15:48:40.
