data_PCOD8233600
_publ_section_title
;
Structure prediction by ZEFSAII (Michael W. Deem and Ramdas Pophale) SiO2 
 PCOD8233600
Probable space group: P B C M
;
_chemical_formula_sum "Si O2"
_cell_formula_units_Z 64
_cell_length_a 9.673773
_cell_length_b 10.487002
_cell_length_c 30.421297
_cell_angle_alpha 90.000000
_cell_angle_beta 90.000000
_cell_angle_gamma 90.000000
_cell_volume 3086.206411
_symmetry_space_group_name_H-M "P B C M"
_symmetry_group_IT_number 57
_symmetry_cell_setting 'orthorhombic'
loop_
_space_group_symop_operation_xyz
x,y,z
-x,-y,1/2+z
x,1/2-y,-z
-x,1/2+y,1/2-z
-x,-y,-z
x,y,1/2-z
-x,1/2+y,z
x,1/2-y,1/2+z
loop_
_atom_site_type_symbol
_atom_site_label
_atom_site_fract_x
_atom_site_fract_y
_atom_site_fract_z
Si Si1 0.425395 0.158213 0.142051
Si Si2 0.036212 0.915520 0.089121
Si Si3 0.794326 0.782013 0.198331
Si Si4 0.706013 0.039425 0.150169
Si Si5 0.980064 0.168838 0.358182
Si Si6 0.172921 0.126118 0.981432
Si Si7 0.314573 0.511002 0.937369
Si Si8 0.589895 0.622479 0.578887
O O1 0.321921 0.184105 0.181886
O O2 0.467477 0.290751 0.118605
O O3 0.557145 0.092857 0.165851
O O4 0.349494 0.079990 0.103657
O O5 0.981969 0.781348 0.107653
O O6 0.196339 0.891349 0.078156
O O7 0.940245 0.952518 0.046953
O O8 0.029776 0.032410 0.123445
O O9 0.788647 0.796965 0.250000
O O10 0.767643 0.922265 0.178168
O O11 0.939988 0.715419 0.185518
O O12 0.675593 0.996428 0.099875
O O13 0.816794 0.154872 0.151937
O O14 0.298108 0.187595 0.952484
O O15 0.093228 0.250000 0.000000
O O16 0.246512 0.046514 0.019172
O O17 0.457097 0.581177 0.950011
#
# Coordination Sequence:
#
# PCOD8233600 Si02
#       8
#     8   8   8   8   8   8   8   8
#     4  10  20  41  67  90 127 173 215 270 335 401
#     4  12  24  41  66  93 130 176 228 271 330 397
#     4  11  24  43  69 100 132 167 212 274 342 407
#     4  10  22  41  69  94 130 169 224 267 330 397
#     4  12  22  45  69  95 132 178 220 273 333 408
#     4  12  22  39  59  89 134 173 221 286 327 377
#     4  11  22  36  60  88 126 169 223 265 328 387
#     4  10  20  39  60  93 123 174 219 273 328 388
#
# _framework density 20.737431999999998
#
# number of rings (size 3 to 8) (size 9 to 14) (size 15 to 20)
#    0.000    1.000    5.000    3.000    0.000    1.000 
#    0.000    0.625    0.000    0.000    0.000    0.000 
#    0.000    0.000    0.000    0.000    0.000    0.000 
#
# Total GULP energy -792959.152336 kJ/mol
# GULP energy per Si atom -12389.986755 kJ/mol
# Density = 2.069023 g / cm^3
# Si number density = 20.737432 Si / 1000 Ang^3
#
#
#
# Elastic Constant Matrix: (Units=GPa)
#
#
# Indices 1 2 3 4 5 6 
#
# 1 145.0419 40.8429 55.2447 0.0000 0.0000 0.0000
# 2 40.8429 75.2227 20.8362 0.0000 0.0000 0.0000
# 3 55.2447 20.8362 84.5895 0.0000 0.0000 0.0000
# 4 0.0000 0.0000 0.0000 19.8827 0.0000 0.0000
# 5 0.0000 0.0000 0.0000 0.0000 16.6198 0.0000
# 6 0.0000 0.0000 0.0000 0.0000 0.0000 37.6659
#
#
#
# Elastic Compliance Matrix: (Units=1/GPa)
#
#
# Indices 1 2 3 4 5 6 
#
# 1 0.010165 -0.003950 -0.005666 0.000000 0.000000 0.000000
# 2 -0.003950 0.015802 -0.001313 0.000000 0.000000 0.000000
# 3 -0.005666 -0.001313 0.015845 0.000000 0.000000 0.000000
# 4 0.000000 0.000000 0.000000 0.050295 0.000000 0.000000
# 5 0.000000 0.000000 0.000000 0.000000 0.060169 0.000000
# 6 0.000000 0.000000 0.000000 0.000000 0.000000 0.026549
#
#
# Mechanical properties :
#
#
# Convention : Reuss Voigt Hill
#
# Bulk Modulus (GPa) = 50.11079 59.85574 54.98327
# Shear Modulus (GPa) = 24.11570 27.36235 25.73903
#
# Velocity S-wave (km/s) = 3.41384 3.63639 3.52687
# Velocity P-wave (km/s) = 6.30523 6.82330 6.56937
#
# Compressibility (1/GPa) = 0.01995578
#
# Stress axis : x y z
#
# Youngs Moduli (GPa) = 98.37931 63.28287 63.11001
#
# Poissons Ratio (x) = 0.24995 0.35756
# Poissons Ratio (y) = 0.38857 0.08285
# Poissons Ratio (z) = 0.55738 0.08308
#
# Static dielectric constant tensor:
#      x y z
#    x 4.134320 0.000000 0.000000 
#    y 0.000000 3.674230 0.000000 
#    z 0.000000 0.000000 3.484740 
# 
# 
# High freq. dielectric constant tensor:
#      x y z
#    x 1.831250 0.000000 0.000000 
#    y 0.000000 1.805350 0.000000 
#    z 0.000000 0.000000 1.782600 
# 
# From -- ./inp_files/29624.got.cif
#   From: 2010.03.12/outbox.cif.g09.slc.cpg/sg57_15_cif.got.tgz:29624.got - 2010.04.16 15:48:40.
