data_PCOD8233712
_publ_section_title
;
Structure prediction by ZEFSAII (Michael W. Deem and Ramdas Pophale) SiO2 
 PCOD8233712
Probable space group: P B C M
;
_chemical_formula_sum "Si O2"
_cell_formula_units_Z 48
_cell_length_a 13.259235
_cell_length_b 19.972554
_cell_length_c 9.784105
_cell_angle_alpha 90.000000
_cell_angle_beta 90.000000
_cell_angle_gamma 90.000000
_cell_volume 2591.034387
_symmetry_space_group_name_H-M "P B C M"
_symmetry_group_IT_number 57
_symmetry_cell_setting 'orthorhombic'
loop_
_space_group_symop_operation_xyz
x,y,z
-x,-y,1/2+z
x,1/2-y,-z
-x,1/2+y,1/2-z
-x,-y,-z
x,y,1/2-z
-x,1/2+y,z
x,1/2-y,1/2+z
loop_
_atom_site_type_symbol
_atom_site_label
_atom_site_fract_x
_atom_site_fract_y
_atom_site_fract_z
Si Si1 0.889247 0.047933 0.250000
Si Si2 0.029883 0.397332 0.250000
Si Si3 0.151147 0.172599 0.978769
Si Si4 0.894763 0.597918 0.250000
Si Si5 0.490578 0.566517 0.408459
Si Si6 0.186214 0.550968 0.750000
Si Si7 0.345697 0.104296 0.594918
Si Si8 0.275484 0.544449 0.035257
O O1 0.824164 0.065380 0.383245
O O2 0.983975 0.097602 0.250000
O O3 0.921857 0.970807 0.250000
O O4 0.064561 0.357712 0.383601
O O5 0.908761 0.398962 0.250000
O O6 0.149572 0.135467 0.121499
O O7 0.128710 0.250000 0.000000
O O8 0.262131 0.162428 0.913896
O O9 0.855367 0.523326 0.250000
O O10 0.500000 0.500000 0.500000
O O11 0.524726 0.556817 0.250000
O O12 0.564003 0.619381 0.485798
O O13 0.372697 0.587047 0.412873
O O14 0.257783 0.563185 0.621256
O O15 0.388517 0.101473 0.750000
O O16 0.292558 0.034264 0.558557
#
# Coordination Sequence:
#
# PCOD8233712 Si02
#       8
#     4   4   8   4   8   4   8   8
#     4  11  18  36  58  76 118 151 180 229 293 341
#     4  11  21  40  51  81 116 151 187 229 286 335
#     4  12  23  38  57  79 114 150 190 236 280 337
#     4  11  23  34  55  87 106 151 195 231 278 345
#     4  10  21  31  51  78 115 147 179 220 272 334
#     4  11  22  30  58  82 116 149 184 233 281 353
#     4  11  21  36  52  77 115 151 185 227 279 341
#     4  11  18  33  51  82 114 148 176 222 285 340
#
# _framework density 18.525418999999999
#
# number of rings (size 3 to 8) (size 9 to 14) (size 15 to 20)
#    0.000    1.000    5.833    3.000    7.000    2.667 
#    0.000    0.000    0.000    0.000    0.000    7.000 
#    0.000    0.000    0.000    0.000    0.000    0.000 
#
# Total GULP energy -595146.027277 kJ/mol
# GULP energy per Si atom -12398.875568 kJ/mol
# Density = 1.848325 g / cm^3
# Si number density = 18.525419 Si / 1000 Ang^3
#
#
#
# Elastic Constant Matrix: (Units=GPa)
#
#
# Indices 1 2 3 4 5 6 
#
# 1 89.9316 15.6966 36.8161 0.0000 0.0000 0.0000
# 2 15.6966 46.7468 16.2825 0.0000 0.0000 0.0000
# 3 36.8161 16.2825 164.2248 0.0000 0.0000 0.0000
# 4 0.0000 0.0000 0.0000 7.4313 0.0000 0.0000
# 5 0.0000 0.0000 0.0000 0.0000 -54.7936 0.0000
# 6 0.0000 0.0000 0.0000 0.0000 0.0000 8.6139
#
#
#
# Elastic Compliance Matrix: (Units=1/GPa)
#
#
# Indices 1 2 3 4 5 6 
#
# 1 0.012745 -0.003402 -0.002520 0.000000 0.000000 0.000000
# 2 -0.003402 0.023065 -0.001524 0.000000 0.000000 0.000000
# 3 -0.002520 -0.001524 0.006805 0.000000 0.000000 0.000000
# 4 0.000000 0.000000 0.000000 0.134565 0.000000 0.000000
# 5 0.000000 0.000000 0.000000 0.000000 -0.018250 0.000000
# 6 0.000000 0.000000 0.000000 0.000000 0.000000 0.116092
#
#
# Mechanical properties :
#
#
# Convention : Reuss Voigt Hill
#
# Bulk Modulus (GPa) = 36.07063 48.72151 42.39607
# Shear Modulus (GPa) = 16.71376 7.72418 12.21897
#
# Velocity S-wave (km/s) = 3.00693 2.04415 2.57101
# Velocity P-wave (km/s) = 5.61860 5.65052 5.63458
#
# Compressibility (1/GPa) = 0.02772339
#
# Stress axis : x y z
#
# Youngs Moduli (GPa) = 78.46280 43.35574 146.94537
#
# Poissons Ratio (x) = 0.14749 0.37029
# Poissons Ratio (y) = 0.26691 0.22398
# Poissons Ratio (z) = 0.19772 0.06608
#
# Static dielectric constant tensor:
#      x y z
#    x 4.002730 0.000000 0.000000 
#    y 0.000000 2.973640 0.000000 
#    z 0.000000 0.000000 3.850880 
# 
# 
# High freq. dielectric constant tensor:
#      x y z
#    x 1.732400 0.000000 0.000000 
#    y 0.000000 1.647130 0.000000 
#    z 0.000000 0.000000 1.745760 
# 
# From -- ./inp_files/4789.got.cif
#   From: 2010.03.12/outbox.cif.g09.slc.cpg/sg57_3_cif.got.tgz:4789.got - 2010.04.16 15:48:40.
