data_PCOD8233574
_publ_section_title
;
Structure prediction by ZEFSAII (Michael W. Deem and Ramdas Pophale) SiO2 
 PCOD8233574
Probable space group: P B C M
;
_chemical_formula_sum "Si O2"
_cell_formula_units_Z 56
_cell_length_a 19.064454
_cell_length_b 9.407999
_cell_length_c 15.462791
_cell_angle_alpha 90.000000
_cell_angle_beta 90.000000
_cell_angle_gamma 90.000000
_cell_volume 2773.380899
_symmetry_space_group_name_H-M "P B C M"
_symmetry_group_IT_number 57
_symmetry_cell_setting 'orthorhombic'
loop_
_space_group_symop_operation_xyz
x,y,z
-x,-y,1/2+z
x,1/2-y,-z
-x,1/2+y,1/2-z
-x,-y,-z
x,y,1/2-z
-x,1/2+y,z
x,1/2-y,1/2+z
loop_
_atom_site_type_symbol
_atom_site_label
_atom_site_fract_x
_atom_site_fract_y
_atom_site_fract_z
Si Si1 0.684787 0.609697 0.049711
Si Si2 0.428052 0.755788 0.898718
Si Si3 0.181332 0.374888 0.651308
Si Si4 0.071205 0.414896 0.504110
Si Si5 0.284237 0.860363 0.930862
Si Si6 0.447259 0.440739 0.845838
Si Si7 0.832757 0.956647 0.347183
O O1 0.745092 0.562237 0.117766
O O2 0.609786 0.635420 0.093264
O O3 0.710235 0.750000 0.000000
O O4 0.675185 0.482992 0.982666
O O5 0.345850 0.783263 0.876239
O O6 0.451403 0.609157 0.856382
O O7 0.475264 0.881544 0.861394
O O8 0.439843 0.750000 0.000000
O O9 0.166214 0.423950 0.750000
O O10 0.118753 0.436164 0.590398
O O11 0.192340 0.205571 0.645988
O O12 0.052464 0.250000 0.500000
O O13 0.108633 0.476886 0.419318
O O14 0.000000 0.500000 0.500000
O O15 0.228126 0.929271 0.866309
O O16 0.249293 0.750000 0.000000
O O17 0.422662 0.403410 0.750000
O O18 0.861331 0.987195 0.250000
#
# Coordination Sequence:
#
# PCOD8233574 Si02
#       7
#     8   8   8   8   8   8   8
#     4  12  21  40  66  89 120 163 209 255 314 381
#     4  11  24  43  62  84 117 166 208 257 322 386
#     4  10  20  38  65  95 126 164 213 256 305 369
#     4  10  21  40  64  91 128 169 205 253 302 361
#     4  11  22  41  64  89 123 160 206 263 323 376
#     4  12  26  41  59  89 123 158 208 269 321 380
#     4  10  21  39  65  94 124 166 212 256 308 375
#
# _framework density 20.191960999999999
#
# number of rings (size 3 to 8) (size 9 to 14) (size 15 to 20)
#    0.000    1.143    5.714    2.143    2.000    2.286 
#    0.000    0.000    0.000    0.000    0.000    0.000 
#    0.000    0.000    0.000    0.000    0.000    0.000 
#
# Total GULP energy -694280.385633 kJ/mol
# GULP energy per Si atom -12397.864029 kJ/mol
# Density = 2.014600 g / cm^3
# Si number density = 20.191961 Si / 1000 Ang^3
#
#
#
# Elastic Constant Matrix: (Units=GPa)
#
#
# Indices 1 2 3 4 5 6 
#
# 1 120.5947 42.3606 53.8030 0.0000 0.0000 0.0000
# 2 42.3606 77.7081 32.5955 0.0000 0.0000 0.0000
# 3 53.8030 32.5955 135.9572 0.0000 0.0000 0.0000
# 4 0.0000 0.0000 0.0000 25.4859 0.0000 0.0000
# 5 0.0000 0.0000 0.0000 0.0000 -0.1307 0.0000
# 6 0.0000 0.0000 0.0000 0.0000 0.0000 14.7517
#
#
#
# Elastic Compliance Matrix: (Units=1/GPa)
#
#
# Indices 1 2 3 4 5 6 
#
# 1 0.011510 -0.004851 -0.003392 0.000000 0.000000 0.000000
# 2 -0.004851 0.016352 -0.002001 0.000000 0.000000 0.000000
# 3 -0.003392 -0.002001 0.009177 0.000000 0.000000 0.000000
# 4 0.000000 0.000000 0.000000 0.039237 0.000000 0.000000
# 5 0.000000 0.000000 0.000000 0.000000 -7.651565 0.000000
# 6 0.000000 0.000000 0.000000 0.000000 0.000000 0.067789
#
#
# Mechanical properties :
#
#
# Convention : Reuss Voigt Hill
#
# Bulk Modulus (GPa) = 60.41647 65.75314 63.08481
# Shear Modulus (GPa) = -0.66832 21.72144 10.52656
#
# Velocity S-wave (km/s) = -0.57593 3.28342 2.28573
# Velocity P-wave (km/s) = 5.43542 6.85632 6.18680
#
# Compressibility (1/GPa) = 0.01655178
#
# Stress axis : x y z
#
# Youngs Moduli (GPa) = 86.88443 61.15275 108.96731
#
# Poissons Ratio (x) = 0.29668 0.36957
# Poissons Ratio (y) = 0.42152 0.21800
# Poissons Ratio (z) = 0.29468 0.12234
#
# Static dielectric constant tensor:
#      x y z
#    x 3.523260 0.000000 0.000000 
#    y 0.000000 2.352550 0.000000 
#    z 0.000000 0.000000 3.934670 
# 
# 
# High freq. dielectric constant tensor:
#      x y z
#    x 1.778310 0.000000 0.000000 
#    y 0.000000 1.785830 0.000000 
#    z 0.000000 0.000000 1.792590 
# 
# From -- ./inp_files/19331.got.cif
#   From: 2010.03.12/outbox.cif.g09.slc.cpg/sg57_10_cif.got.tgz:19331.got - 2010.04.16 15:48:40.
