data_PCOD8233926
_publ_section_title
;
Structure prediction by ZEFSAII (Michael W. Deem and Ramdas Pophale) SiO2 
 PCOD8233926
Probable space group: P B C M
;
_chemical_formula_sum "Si O2"
_cell_formula_units_Z 48
_cell_length_a 30.064232
_cell_length_b 9.475527
_cell_length_c 8.828216
_cell_angle_alpha 90.000000
_cell_angle_beta 90.000000
_cell_angle_gamma 90.000000
_cell_volume 2514.933107
_symmetry_space_group_name_H-M "P B C M"
_symmetry_group_IT_number 57
_symmetry_cell_setting 'orthorhombic'
loop_
_space_group_symop_operation_xyz
x,y,z
-x,-y,1/2+z
x,1/2-y,-z
-x,1/2+y,1/2-z
-x,-y,-z
x,y,1/2-z
-x,1/2+y,z
x,1/2-y,1/2+z
loop_
_atom_site_type_symbol
_atom_site_label
_atom_site_fract_x
_atom_site_fract_y
_atom_site_fract_z
Si Si1 0.136067 0.400489 0.073868
Si Si2 0.618963 0.603057 0.572592
Si Si3 0.462396 0.903963 0.927492
Si Si4 0.712036 0.896691 0.928028
Si Si5 0.207233 0.901833 0.072203
Si Si6 0.034525 0.102364 0.575053
O O1 0.147875 0.388356 0.250000
O O2 0.085133 0.446793 0.047263
O O3 0.146797 0.250000 0.000000
O O4 0.164830 0.521253 0.997233
O O5 0.601930 0.750000 0.500000
O O6 0.625416 0.629019 0.750000
O O7 0.584528 0.478369 0.539036
O O8 0.665424 0.555037 0.499765
O O9 0.471809 0.889190 0.750000
O O10 0.462227 0.750000 0.000000
O O11 0.500000 0.000000 0.000000
O O12 0.705881 0.875640 0.750000
O O13 0.748143 0.013931 0.967956
O O14 0.728412 0.750000 0.000000
O O15 0.199781 0.887684 0.250000
O O16 0.212424 0.750000 0.000000
O O17 0.025846 0.250000 0.500000
O O18 0.023400 0.114836 0.750000
O O19 0.000000 0.000000 0.500000
#
# Coordination Sequence:
#
# PCOD8233926 Si02
#       6
#     8   8   8   8   8   8
#     4  10  21  38  60  84 111 146 188 231 277 333
#     4  10  21  37  59  86 114 147 187 231 279 332
#     4  11  24  40  60  86 116 152 192 235 284 337
#     4  10  21  37  59  85 112 147 188 229 277 334
#     4  11  24  39  57  83 114 149 188 233 284 334
#     4  10  21  37  58  84 113 147 186 229 278 332
#
# _framework density 19.085996000000002
#
# number of rings (size 3 to 8) (size 9 to 14) (size 15 to 20)
#    0.000    1.667    0.000    5.000    0.000   11.333 
#    0.000    3.333    0.000    0.000    0.000    0.000 
#    0.000    0.000    0.000    0.000    0.000    0.000 
#
# Total GULP energy -595382.913990 kJ/mol
# GULP energy per Si atom -12403.810708 kJ/mol
# Density = 1.904256 g / cm^3
# Si number density = 19.085996 Si / 1000 Ang^3
#
#
#
# Elastic Constant Matrix: (Units=GPa)
#
#
# Indices 1 2 3 4 5 6 
#
# 1 129.3746 103.9396 95.0235 0.0000 0.0000 0.0000
# 2 103.9396 162.3109 102.0437 0.0000 0.0000 0.0000
# 3 95.0235 102.0437 150.3637 0.0000 0.0000 0.0000
# 4 0.0000 0.0000 0.0000 39.8896 0.0000 0.0000
# 5 0.0000 0.0000 0.0000 0.0000 28.4688 0.0000
# 6 0.0000 0.0000 0.0000 0.0000 0.0000 37.6077
#
#
#
# Elastic Compliance Matrix: (Units=1/GPa)
#
#
# Indices 1 2 3 4 5 6 
#
# 1 0.019012 -0.008060 -0.006545 0.000000 0.000000 0.000000
# 2 -0.008060 0.014163 -0.004518 0.000000 0.000000 0.000000
# 3 -0.006545 -0.004518 0.013853 0.000000 0.000000 0.000000
# 4 0.000000 0.000000 0.000000 0.025069 0.000000 0.000000
# 5 0.000000 0.000000 0.000000 0.000000 0.035126 0.000000
# 6 0.000000 0.000000 0.000000 0.000000 0.000000 0.026590
#
#
# Mechanical properties :
#
#
# Convention : Reuss Voigt Hill
#
# Bulk Modulus (GPa) = 113.87144 116.00699 114.93922
# Shear Modulus (GPa) = 28.57364 30.59605 29.58484
#
# Velocity S-wave (km/s) = 3.87343 4.00817 3.94138
# Velocity P-wave (km/s) = 8.93289 9.07379 9.00362
#
# Compressibility (1/GPa) = 0.00878183
#
# Stress axis : x y z
#
# Youngs Moduli (GPa) = 52.59808 70.60698 72.18810
#
# Poissons Ratio (x) = 0.56910 0.47246
# Poissons Ratio (y) = 0.42395 0.32614
# Poissons Ratio (z) = 0.34425 0.31900
#
# Static dielectric constant tensor:
#      x y z
#    x 3.704850 0.000000 0.000000 
#    y 0.000000 3.365700 0.000000 
#    z 0.000000 0.000000 3.735120 
# 
# 
# High freq. dielectric constant tensor:
#      x y z
#    x 1.754930 0.000000 0.000000 
#    y 0.000000 1.743590 0.000000 
#    z 0.000000 0.000000 1.764210 
# 
# From -- ./inp_files/10004.got.cif
#   From: 2010.03.12/outbox.cif.g09.slc.cpg/sg57_6_cif.got.tgz:10004.got - 2010.04.16 15:48:40.
