data_PCOD8233353
_publ_section_title
;
Structure prediction by ZEFSAII (Michael W. Deem and Ramdas Pophale) SiO2 
 PCOD8233353
Probable space group: P B C M
;
_chemical_formula_sum "Si O2"
_cell_formula_units_Z 64
_cell_length_a 11.336945
_cell_length_b 16.416941
_cell_length_c 16.218807
_cell_angle_alpha 90.000000
_cell_angle_beta 90.000000
_cell_angle_gamma 90.000000
_cell_volume 3018.611227
_symmetry_space_group_name_H-M "P B C M"
_symmetry_group_IT_number 57
_symmetry_cell_setting 'orthorhombic'
loop_
_space_group_symop_operation_xyz
x,y,z
-x,-y,1/2+z
x,1/2-y,-z
-x,1/2+y,1/2-z
-x,-y,-z
x,y,1/2-z
-x,1/2+y,z
x,1/2-y,1/2+z
loop_
_atom_site_type_symbol
_atom_site_label
_atom_site_fract_x
_atom_site_fract_y
_atom_site_fract_z
Si Si1 0.295436 0.742374 0.655848
Si Si2 0.323688 0.582668 0.091863
Si Si3 0.822209 0.551952 0.154888
Si Si4 0.287924 0.091570 0.909085
Si Si5 0.595963 0.895378 0.918339
Si Si6 0.168960 0.608690 0.559589
Si Si7 0.561957 0.769700 0.343398
Si Si8 0.923669 0.846245 0.991789
O O1 0.269497 0.722844 0.750000
O O2 0.276589 0.838458 0.640087
O O3 0.199029 0.693470 0.603903
O O4 0.426538 0.711809 0.630364
O O5 0.277293 0.498176 0.132414
O O6 0.463764 0.578200 0.098319
O O7 0.279104 0.583899 0.997533
O O8 0.860127 0.564710 0.250000
O O9 0.680525 0.557803 0.145954
O O10 0.859665 0.462037 0.125275
O O11 0.880572 0.622230 0.097760
O O12 0.352828 0.152397 0.846549
O O13 0.371261 0.084078 0.988654
O O14 0.157659 0.119413 0.934645
O O15 0.612701 0.798440 0.904620
O O16 0.055112 0.621066 0.503023
O O17 0.561115 0.735911 0.250000
O O18 0.917871 0.750000 0.000000
#
# Coordination Sequence:
#
# PCOD8233353 Si02
#       8
#     8   8   8   8   8   8   8   8
#     4  10  23  41  62  92 130 170 214 263 328 388
#     4  11  22  37  64  95 128 167 209 261 320 383
#     4  11  24  42  69  98 129 166 213 271 323 377
#     4  11  21  36  62  92 123 163 215 262 316 382
#     4  10  20  37  60  93 128 161 212 253 313 385
#     4  12  23  44  67  93 125 171 222 267 313 382
#     4  10  21  37  59  90 131 171 208 264 325 382
#     4  11  24  44  70  93 127 171 220 270 316 381
#
# _framework density 21.201803000000002
#
# number of rings (size 3 to 8) (size 9 to 14) (size 15 to 20)
#    0.000    1.250    2.500    5.250    1.750    3.000 
#    0.000    4.375    0.000    0.000    0.000    0.000 
#    0.000    0.000    0.000    0.000    0.000    0.000 
#
# Total GULP energy -793665.025977 kJ/mol
# GULP energy per Si atom -12401.016031 kJ/mol
# Density = 2.115355 g / cm^3
# Si number density = 21.201803 Si / 1000 Ang^3
#
#
#
# Elastic Constant Matrix: (Units=GPa)
#
#
# Indices 1 2 3 4 5 6 
#
# 1 98.5173 52.7058 42.2464 0.0000 0.0000 0.0000
# 2 52.7058 148.4559 26.8957 0.0000 0.0000 0.0000
# 3 42.2464 26.8957 71.8052 0.0000 0.0000 0.0000
# 4 0.0000 0.0000 0.0000 28.4900 0.0000 0.0000
# 5 0.0000 0.0000 0.0000 0.0000 21.1435 0.0000
# 6 0.0000 0.0000 0.0000 0.0000 0.0000 28.0093
#
#
#
# Elastic Compliance Matrix: (Units=1/GPa)
#
#
# Indices 1 2 3 4 5 6 
#
# 1 0.015666 -0.004175 -0.007653 0.000000 0.000000 0.000000
# 2 -0.004175 0.008339 -0.000667 0.000000 0.000000 0.000000
# 3 -0.007653 -0.000667 0.018679 0.000000 0.000000 0.000000
# 4 0.000000 0.000000 0.000000 0.035100 0.000000 0.000000
# 5 0.000000 0.000000 0.000000 0.000000 0.047296 0.000000
# 6 0.000000 0.000000 0.000000 0.000000 0.000000 0.035702
#
#
# Mechanical properties :
#
#
# Convention : Reuss Voigt Hill
#
# Bulk Modulus (GPa) = 56.51837 62.49713 59.50775
# Shear Modulus (GPa) = 26.08626 28.65725 27.37176
#
# Velocity S-wave (km/s) = 3.51148 3.68046 3.59696
# Velocity P-wave (km/s) = 6.56931 6.89944 6.73640
#
# Compressibility (1/GPa) = 0.01769336
#
# Stress axis : x y z
#
# Youngs Moduli (GPa) = 63.83190 119.91526 53.53570
#
# Poissons Ratio (x) = 0.50069 0.40972
# Poissons Ratio (y) = 0.26652 0.03571
# Poissons Ratio (z) = 0.48852 0.07998
#
# Static dielectric constant tensor:
#      x y z
#    x 3.826520 0.000000 0.000000 
#    y 0.000000 4.028910 0.000000 
#    z 0.000000 0.000000 3.590200 
# 
# 
# High freq. dielectric constant tensor:
#      x y z
#    x 1.826960 0.000000 0.000000 
#    y 0.000000 1.846580 0.000000 
#    z 0.000000 0.000000 1.809710 
# 
# From -- ./inp_files/22005.got.cif
#   From: 2010.03.12/outbox.cif.g09.slc.cpg/sg57_12_cif.got.tgz:22005.got - 2010.04.16 15:48:40.
