data_PCOD8233720
_publ_section_title
;
Structure prediction by ZEFSAII (Michael W. Deem and Ramdas Pophale) SiO2 
 PCOD8233720
Probable space group: P B C M
;
_chemical_formula_sum "Si O2"
_cell_formula_units_Z 64
_cell_length_a 20.196868
_cell_length_b 18.243421
_cell_length_c 9.644932
_cell_angle_alpha 90.000000
_cell_angle_beta 90.000000
_cell_angle_gamma 90.000000
_cell_volume 3553.771315
_symmetry_space_group_name_H-M "P B C M"
_symmetry_group_IT_number 57
_symmetry_cell_setting 'orthorhombic'
loop_
_space_group_symop_operation_xyz
x,y,z
-x,-y,1/2+z
x,1/2-y,-z
-x,1/2+y,1/2-z
-x,-y,-z
x,y,1/2-z
-x,1/2+y,z
x,1/2-y,1/2+z
loop_
_atom_site_type_symbol
_atom_site_label
_atom_site_fract_x
_atom_site_fract_y
_atom_site_fract_z
Si Si1 0.123978 0.823010 0.411186
Si Si2 0.611564 0.062668 0.590186
Si Si3 0.497866 0.679144 0.909996
Si Si4 0.997442 0.073263 0.911121
Si Si5 0.234360 0.071578 0.910127
Si Si6 0.118887 0.177848 0.910578
Si Si7 0.762519 0.432282 0.409777
Si Si8 0.385019 0.074784 0.590849
O O1 0.116409 0.750000 0.500000
O O2 0.118795 0.801206 0.250000
O O3 0.194028 0.861149 0.446334
O O4 0.066787 0.879904 0.452467
O O5 0.602795 0.040849 0.750000
O O6 0.562272 0.126738 0.547202
O O7 0.686480 0.088160 0.557611
O O8 0.591367 0.992566 0.501516
O O9 0.493253 0.701211 0.750000
O O10 0.568705 0.643357 0.944729
O O11 0.489318 0.750000 0.000000
O O12 0.995726 0.051064 0.750000
O O13 0.061420 0.121031 0.947311
O O14 0.000000 0.000000 0.000000
O O15 0.224504 0.049595 0.750000
O O16 0.188441 0.140048 0.949903
O O17 0.309371 0.096509 0.942325
O O18 0.213880 0.001060 0.999390
O O19 0.116375 0.200734 0.750000
O O20 0.109159 0.250000 0.000000
O O21 0.772671 0.454908 0.250000
O O22 0.393927 0.050864 0.750000
#
# Coordination Sequence:
#
# PCOD8233720 Si02
#       8
#     8   8   8   8   8   8   8   8
#     4  10  21  35  51  74 103 132 163 200 242 289
#     4   9  18  33  52  73  97 126 162 203 243 286
#     4  10  21  34  48  70 100 130 161 200 244 290
#     4  10  21  36  54  76 100 128 165 206 244 286
#     4   9  18  33  52  74  99 127 162 202 242 287
#     4  10  21  35  51  74 103 132 163 200 242 289
#     4   9  18  33  52  74  99 127 162 202 242 287
#     4   9  18  33  52  73  97 126 162 203 243 286
#
# _framework density 18.009038
#
# number of rings (size 3 to 8) (size 9 to 14) (size 15 to 20)
#    0.000    2.500    0.000    1.500    0.000    4.000 
#    0.000    0.000    0.000    0.000    0.000    0.000 
#    0.000    0.000    0.000    0.000    0.000    0.000 
#
# Total GULP energy -793779.304023 kJ/mol
# GULP energy per Si atom -12402.801625 kJ/mol
# Density = 1.796805 g / cm^3
# Si number density = 18.009038 Si / 1000 Ang^3
#
#
#
# Elastic Constant Matrix: (Units=GPa)
#
#
# Indices 1 2 3 4 5 6 
#
# 1 83.7377 39.3254 31.3115 0.0000 0.0000 0.0000
# 2 39.3254 99.6953 54.5764 0.0000 0.0000 0.0000
# 3 31.3115 54.5764 59.1042 0.0000 0.0000 0.0000
# 4 0.0000 0.0000 0.0000 -380.9084 0.0000 0.0000
# 5 0.0000 0.0000 0.0000 0.0000 18.2237 0.0000
# 6 0.0000 0.0000 0.0000 0.0000 0.0000 18.0975
#
#
#
# Elastic Compliance Matrix: (Units=1/GPa)
#
#
# Indices 1 2 3 4 5 6 
#
# 1 0.015396 -0.003252 -0.005154 0.000000 0.000000 0.000000
# 2 -0.003252 0.020971 -0.017642 0.000000 0.000000 0.000000
# 3 -0.005154 -0.017642 0.035940 0.000000 0.000000 0.000000
# 4 0.000000 0.000000 0.000000 -0.002625 0.000000 0.000000
# 5 0.000000 0.000000 0.000000 0.000000 0.054874 0.000000
# 6 0.000000 0.000000 0.000000 0.000000 0.000000 0.055256
#
#
# Mechanical properties :
#
#
# Convention : Reuss Voigt Hill
#
# Bulk Modulus (GPa) = 49.47444 54.77377 52.12411
# Shear Modulus (GPa) = 20.95177 -61.09585 -20.07204
#
# Velocity S-wave (km/s) = 3.41457 -5.83084 -3.34211
# Velocity P-wave (km/s) = 6.56333 3.85370 3.75675
#
# Compressibility (1/GPa) = 0.02021246
#
# Stress axis : x y z
#
# Youngs Moduli (GPa) = 64.95067 47.68520 27.82441
#
# Poissons Ratio (x) = 0.15507 0.14340
# Poissons Ratio (y) = 0.21121 0.49087
# Poissons Ratio (z) = 0.33474 0.84124
#
# Static dielectric constant tensor:
#      x y z
#    x 3.636200 0.000000 0.000000 
#    y 0.000000 3.106280 0.000000 
#    z 0.000000 0.000000 3.312330 
# 
# 
# High freq. dielectric constant tensor:
#      x y z
#    x 1.717150 0.000000 0.000000 
#    y 0.000000 1.685430 0.000000 
#    z 0.000000 0.000000 1.695930 
# 
# From -- ./inp_files/8506.got.cif
#   From: 2010.03.12/outbox.cif.g09.slc.cpg/sg57_5_cif.got.tgz:8506.got - 2010.04.16 15:48:40.
