data_PCOD8233510
_publ_section_title
;
Structure prediction by ZEFSAII (Michael W. Deem and Ramdas Pophale) SiO2 
 PCOD8233510
Probable space group: P B C M
;
_chemical_formula_sum "Si O2"
_cell_formula_units_Z 48
_cell_length_a 29.955463
_cell_length_b 9.556223
_cell_length_c 8.693817
_cell_angle_alpha 90.000000
_cell_angle_beta 90.000000
_cell_angle_gamma 90.000000
_cell_volume 2488.701483
_symmetry_space_group_name_H-M "P B C M"
_symmetry_group_IT_number 57
_symmetry_cell_setting 'orthorhombic'
loop_
_space_group_symop_operation_xyz
x,y,z
-x,-y,1/2+z
x,1/2-y,-z
-x,1/2+y,1/2-z
-x,-y,-z
x,y,1/2-z
-x,1/2+y,z
x,1/2-y,1/2+z
loop_
_atom_site_type_symbol
_atom_site_label
_atom_site_fract_x
_atom_site_fract_y
_atom_site_fract_z
Si Si1 0.111807 0.899065 0.432860
Si Si2 0.363225 0.899759 0.930701
Si Si3 0.464892 0.896795 0.570513
Si Si4 0.709464 0.597239 0.068035
Si Si5 0.960668 0.905608 0.066364
Si Si6 0.786292 0.105590 0.930103
O O1 0.095288 0.750000 0.500000
O O2 0.104173 0.899886 0.250000
O O3 0.163048 0.925797 0.480844
O O4 0.085541 0.025599 0.511990
O O5 0.354534 0.893826 0.750000
O O6 0.414223 0.939142 0.971032
O O7 0.349883 0.750000 0.000000
O O8 0.334050 0.020097 0.006238
O O9 0.477243 0.750000 0.500000
O O10 0.472035 0.889307 0.750000
O O11 0.500000 0.000000 0.500000
O O12 0.706620 0.605244 0.250000
O O13 0.754231 0.518006 0.011818
O O14 0.711576 0.750000 0.000000
O O15 0.963393 0.900075 0.250000
O O16 0.964540 0.750000 0.000000
O O17 0.000000 0.000000 0.000000
O O18 0.783311 0.123200 0.750000
O O19 0.768615 0.250000 0.000000
#
# Coordination Sequence:
#
# PCOD8233510 Si02
#       6
#     8   8   8   8   8   8
#     4  10  20  38  61  88 119 152 190 234 281 334
#     4  10  21  38  59  83 110 145 186 230 277 333
#     4  10  21  37  58  83 112 145 184 227 277 332
#     4  11  23  38  56  82 114 150 189 234 283 333
#     4  12  25  42  62  87 117 153 193 236 285 338
#     4   9  20  37  59  85 114 149 190 231 278 334
#
# _framework density 19.287168000000001
#
# number of rings (size 3 to 8) (size 9 to 14) (size 15 to 20)
#    0.000    1.667    0.000    4.500    0.000    6.667 
#    0.000    1.667    0.000    0.000    0.000    0.000 
#    0.000    0.000    0.000    0.000    0.000    0.000 
#
# Total GULP energy -595357.480255 kJ/mol
# GULP energy per Si atom -12403.280839 kJ/mol
# Density = 1.924327 g / cm^3
# Si number density = 19.287168 Si / 1000 Ang^3
#
#
#
# Elastic Constant Matrix: (Units=GPa)
#
#
# Indices 1 2 3 4 5 6 
#
# 1 123.9185 104.4955 55.7937 0.0000 0.0000 0.0000
# 2 104.4955 188.0538 76.8180 0.0000 0.0000 0.0000
# 3 55.7937 76.8180 94.4650 0.0000 0.0000 0.0000
# 4 0.0000 0.0000 0.0000 41.0357 0.0000 0.0000
# 5 0.0000 0.0000 0.0000 0.0000 24.7201 0.0000
# 6 0.0000 0.0000 0.0000 0.0000 0.0000 52.4763
#
#
#
# Elastic Compliance Matrix: (Units=1/GPa)
#
#
# Indices 1 2 3 4 5 6 
#
# 1 0.015840 -0.007457 -0.003291 0.000000 0.000000 0.000000
# 2 -0.007457 0.011474 -0.004926 0.000000 0.000000 0.000000
# 3 -0.003291 -0.004926 0.016535 0.000000 0.000000 0.000000
# 4 0.000000 0.000000 0.000000 0.024369 0.000000 0.000000
# 5 0.000000 0.000000 0.000000 0.000000 0.040453 0.000000
# 6 0.000000 0.000000 0.000000 0.000000 0.000000 0.019056
#
#
# Mechanical properties :
#
#
# Convention : Reuss Voigt Hill
#
# Bulk Modulus (GPa) = 79.99791 97.85021 88.92406
# Shear Modulus (GPa) = 30.62915 34.93508 32.78211
#
# Velocity S-wave (km/s) = 3.98937 4.26057 4.12720
# Velocity P-wave (km/s) = 7.92385 8.66295 8.30163
#
# Compressibility (1/GPa) = 0.01250033
#
# Stress axis : x y z
#
# Youngs Moduli (GPa) = 63.12988 87.15694 60.47638
#
# Poissons Ratio (x) = 0.64997 0.19905
# Poissons Ratio (y) = 0.47079 0.29788
# Poissons Ratio (z) = 0.20779 0.42930
#
# Static dielectric constant tensor:
#      x y z
#    x 3.810860 0.000000 0.000000 
#    y 0.000000 3.860590 0.000000 
#    z 0.000000 0.000000 3.664180 
# 
# 
# High freq. dielectric constant tensor:
#      x y z
#    x 1.764080 0.000000 0.000000 
#    y 0.000000 1.753360 0.000000 
#    z 0.000000 0.000000 1.765370 
# 
# From -- ./inp_files/9919.got.cif
#   From: 2010.03.12/outbox.cif.g09.slc.cpg/sg57_5_cif.got.tgz:9919.got - 2010.04.16 15:48:40.
