data_PCOD8233734
_publ_section_title
;
Structure prediction by ZEFSAII (Michael W. Deem and Ramdas Pophale) SiO2 
 PCOD8233734
Probable space group: P B C M
;
_chemical_formula_sum "Si O2"
_cell_formula_units_Z 56
_cell_length_a 13.661141
_cell_length_b 28.246044
_cell_length_c 8.912619
_cell_angle_alpha 90.000000
_cell_angle_beta 90.000000
_cell_angle_gamma 90.000000
_cell_volume 3439.140723
_symmetry_space_group_name_H-M "P B C M"
_symmetry_group_IT_number 57
_symmetry_cell_setting 'orthorhombic'
loop_
_space_group_symop_operation_xyz
x,y,z
-x,-y,1/2+z
x,1/2-y,-z
-x,1/2+y,1/2-z
-x,-y,-z
x,y,1/2-z
-x,1/2+y,z
x,1/2-y,1/2+z
loop_
_atom_site_type_symbol
_atom_site_label
_atom_site_fract_x
_atom_site_fract_y
_atom_site_fract_z
Si Si1 0.930201 0.103547 0.072163
Si Si2 0.203801 0.962674 0.428269
Si Si3 0.237264 0.296221 0.923042
Si Si4 0.279139 0.101524 0.075898
Si Si5 0.399984 0.486786 0.923318
Si Si6 0.014689 0.202726 0.074170
Si Si7 0.107030 0.050285 0.572504
O O1 0.940470 0.096427 0.250000
O O2 0.948416 0.158044 0.026460
O O3 0.823346 0.086855 0.011363
O O4 0.004955 0.070300 0.984164
O O5 0.196133 0.957427 0.250000
O O6 0.312658 0.978745 0.478384
O O7 0.126842 0.001659 0.485319
O O8 0.235027 0.284184 0.750000
O O9 0.302808 0.343105 0.955493
O O10 0.126433 0.305467 0.981396
O O11 0.284659 0.250000 0.000000
O O12 0.245887 0.094469 0.250000
O O13 0.372413 0.068130 0.041526
O O14 0.190541 0.088014 0.968037
O O15 0.417391 0.494551 0.750000
O O16 0.500000 0.500000 0.000000
O O17 0.011601 0.209918 0.250000
O O18 0.970211 0.250000 0.000000
O O19 0.104356 0.041300 0.750000
#
# Coordination Sequence:
#
# PCOD8233734 Si02
#       7
#     8   8   8   8   8   8   8
#     4  11  20  32  47  66  94 128 161 195 231 271
#     4  10  21  35  48  67  93 123 155 192 234 279
#     4   9  16  28  44  64  93 126 159 192 227 270
#     4   9  17  32  48  66  95 130 158 190 235 281
#     4   9  19  34  53  71  93 120 151 192 240 288
#     4   9  18  30  45  64  91 127 162 196 229 267
#     4  11  20  29  44  67  94 127 161 194 227 270
#
# _framework density 16.283135999999999
#
# number of rings (size 3 to 8) (size 9 to 14) (size 15 to 20)
#    0.000    2.286    1.429    3.429    0.000    4.571 
#    0.000    0.000    0.000    0.000    0.000    1.000 
#    0.000    2.286    0.000    0.000    0.000    0.000 
#
# Total GULP energy -694145.668849 kJ/mol
# GULP energy per Si atom -12395.458372 kJ/mol
# Density = 1.624608 g / cm^3
# Si number density = 16.283136 Si / 1000 Ang^3
#
#
#
# Elastic Constant Matrix: (Units=GPa)
#
#
# Indices 1 2 3 4 5 6 
#
# 1 73.7203 60.5412 27.8095 0.0000 0.0000 0.0000
# 2 60.5412 131.0186 37.3775 0.0000 0.0000 0.0000
# 3 27.8095 37.3775 49.1122 0.0000 0.0000 0.0000
# 4 0.0000 0.0000 0.0000 29.3530 0.0000 0.0000
# 5 0.0000 0.0000 0.0000 0.0000 24.4164 0.0000
# 6 0.0000 0.0000 0.0000 0.0000 0.0000 16.4884
#
#
#
# Elastic Compliance Matrix: (Units=1/GPa)
#
#
# Indices 1 2 3 4 5 6 
#
# 1 0.023333 -0.008957 -0.006395 0.000000 0.000000 0.000000
# 2 -0.008957 0.013188 -0.004965 0.000000 0.000000 0.000000
# 3 -0.006395 -0.004965 0.027761 0.000000 0.000000 0.000000
# 4 0.000000 0.000000 0.000000 0.034068 0.000000 0.000000
# 5 0.000000 0.000000 0.000000 0.000000 0.040956 0.000000
# 6 0.000000 0.000000 0.000000 0.000000 0.000000 0.060649
#
#
# Mechanical properties :
#
#
# Convention : Reuss Voigt Hill
#
# Bulk Modulus (GPa) = 42.28726 56.14526 49.21626
# Shear Modulus (GPa) = 20.12293 22.59309 21.35801
#
# Velocity S-wave (km/s) = 3.51923 3.72898 3.62562
# Velocity P-wave (km/s) = 6.52224 7.28669 6.91504
#
# Compressibility (1/GPa) = 0.02364779
#
# Stress axis : x y z
#
# Youngs Moduli (GPa) = 42.85708 75.82688 36.02143
#
# Poissons Ratio (x) = 0.67922 0.23036
# Poissons Ratio (y) = 0.38389 0.17884
# Poissons Ratio (z) = 0.27408 0.37646
#
# Static dielectric constant tensor:
#      x y z
#    x 2.842950 0.000000 0.000000 
#    y 0.000000 3.304980 0.000000 
#    z 0.000000 0.000000 3.087130 
# 
# 
# High freq. dielectric constant tensor:
#      x y z
#    x 1.577630 0.000000 0.000000 
#    y 0.000000 1.630670 0.000000 
#    z 0.000000 0.000000 1.630640 
# 
# From -- ./inp_files/5921.got.cif
#   From: 2010.03.12/outbox.cif.g09.slc.cpg/sg57_3_cif.got.tgz:5921.got - 2010.04.16 15:48:40.
