data_PCOD8233525
_publ_section_title
;
Structure prediction by ZEFSAII (Michael W. Deem and Ramdas Pophale) SiO2 
 PCOD8233525
Probable space group: P B C M
;
_chemical_formula_sum "Si O2"
_cell_formula_units_Z 64
_cell_length_a 12.871465
_cell_length_b 13.914693
_cell_length_c 17.529915
_cell_angle_alpha 90.000000
_cell_angle_beta 90.000000
_cell_angle_gamma 90.000000
_cell_volume 3139.651320
_symmetry_space_group_name_H-M "P B C M"
_symmetry_group_IT_number 57
_symmetry_cell_setting 'orthorhombic'
loop_
_space_group_symop_operation_xyz
x,y,z
-x,-y,1/2+z
x,1/2-y,-z
-x,1/2+y,1/2-z
-x,-y,-z
x,y,1/2-z
-x,1/2+y,z
x,1/2-y,1/2+z
loop_
_atom_site_type_symbol
_atom_site_label
_atom_site_fract_x
_atom_site_fract_y
_atom_site_fract_z
Si Si1 0.015691 0.562195 0.839110
Si Si2 0.052725 0.783715 0.838987
Si Si3 0.209725 0.997634 0.424406
Si Si4 0.595142 0.552577 0.339487
Si Si5 0.828554 0.055774 0.088258
Si Si6 0.860362 0.801809 0.926829
Si Si7 0.674455 0.761316 0.162668
Si Si8 0.623410 0.528219 0.661471
O O1 0.988578 0.548724 0.750000
O O2 0.034500 0.673358 0.861256
O O3 0.125890 0.514828 0.857509
O O4 0.921929 0.517223 0.888732
O O5 0.066476 0.799875 0.750000
O O6 0.950200 0.837715 0.869454
O O7 0.150417 0.836760 0.879023
O O8 0.323534 0.986223 0.386612
O O9 0.184049 0.930554 0.496892
O O10 0.202769 0.106079 0.455668
O O11 0.610530 0.530382 0.250000
O O12 0.608338 0.666100 0.357193
O O13 0.480917 0.523282 0.367551
O O14 0.720018 0.016196 0.117816
O O15 0.780667 0.730782 0.884688
O O16 0.910130 0.750000 0.000000
O O17 0.709956 0.757977 0.250000
O O18 0.609397 0.857733 0.145195
O O19 0.642248 0.508003 0.750000
#
# Coordination Sequence:
#
# PCOD8233525 Si02
#       8
#     8   8   8   8   8   8   8   8
#     4  11  23  40  61  87 121 161 206 247 298 370
#     4  11  24  38  58  86 119 160 199 243 301 363
#     4  11  23  38  59  87 121 160 199 250 308 359
#     4   9  20  39  62  88 118 156 207 256 304 365
#     4  12  24  39  61  90 126 158 202 253 312 365
#     4  11  21  34  59  87 120 157 201 250 298 358
#     4   9  18  35  60  87 114 153 205 255 303 358
#     4  10  20  38  62  87 119 158 205 259 307 359
#
# _framework density 20.384429000000001
#
# number of rings (size 3 to 8) (size 9 to 14) (size 15 to 20)
#    0.000    1.500    1.250    4.500    1.750    3.500 
#    2.250    0.000    0.000    0.000    0.000    0.000 
#    0.000    0.000    0.000    0.000    0.000    0.000 
#
# Total GULP energy -793389.700393 kJ/mol
# GULP energy per Si atom -12396.714069 kJ/mol
# Density = 2.033803 g / cm^3
# Si number density = 20.384429 Si / 1000 Ang^3
#
#
#
# Elastic Constant Matrix: (Units=GPa)
#
#
# Indices 1 2 3 4 5 6 
#
# 1 141.6031 42.8285 43.0976 0.0000 0.0000 0.0000
# 2 42.8285 73.8411 31.8154 0.0000 0.0000 0.0000
# 3 43.0976 31.8154 69.6235 0.0000 0.0000 0.0000
# 4 0.0000 0.0000 0.0000 25.1809 0.0000 0.0000
# 5 0.0000 0.0000 0.0000 0.0000 26.0818 0.0000
# 6 0.0000 0.0000 0.0000 0.0000 0.0000 32.0021
#
#
#
# Elastic Compliance Matrix: (Units=1/GPa)
#
#
# Indices 1 2 3 4 5 6 
#
# 1 0.009443 -0.003684 -0.004162 0.000000 0.000000 0.000000
# 2 -0.003684 0.018300 -0.006082 0.000000 0.000000 0.000000
# 3 -0.004162 -0.006082 0.019718 0.000000 0.000000 0.000000
# 4 0.000000 0.000000 0.000000 0.039713 0.000000 0.000000
# 5 0.000000 0.000000 0.000000 0.000000 0.038341 0.000000
# 6 0.000000 0.000000 0.000000 0.000000 0.000000 0.031248
#
#
# Mechanical properties :
#
#
# Convention : Reuss Voigt Hill
#
# Bulk Modulus (GPa) = 51.00548 57.83897 54.42222
# Shear Modulus (GPa) = 26.15703 27.80803 26.98253
#
# Velocity S-wave (km/s) = 3.58605 3.69749 3.64219
# Velocity P-wave (km/s) = 6.49788 6.83112 6.66658
#
# Compressibility (1/GPa) = 0.01960574
#
# Stress axis : x y z
#
# Youngs Moduli (GPa) = 105.90038 54.64561 50.71380
#
# Poissons Ratio (x) = 0.20130 0.21106
# Poissons Ratio (y) = 0.39011 0.30844
# Poissons Ratio (z) = 0.44074 0.33236
#
# Static dielectric constant tensor:
#      x y z
#    x 3.576920 0.000000 0.000000 
#    y 0.000000 3.881950 0.000000 
#    z 0.000000 0.000000 3.674140 
# 
# 
# High freq. dielectric constant tensor:
#      x y z
#    x 1.782410 0.000000 0.000000 
#    y 0.000000 1.798810 0.000000 
#    z 0.000000 0.000000 1.798750 
# 
# From -- ./inp_files/22102.got.cif
#   From: 2010.03.12/outbox.cif.g09.slc.cpg/sg57_12_cif.got.tgz:22102.got - 2010.04.16 15:48:40.
