data_PCOD8233412
_publ_section_title
;
Structure prediction by ZEFSAII (Michael W. Deem and Ramdas Pophale) SiO2 
 PCOD8233412
Probable space group: P B C M
;
_chemical_formula_sum "Si O2"
_cell_formula_units_Z 48
_cell_length_a 9.832869
_cell_length_b 18.222658
_cell_length_c 13.780264
_cell_angle_alpha 90.000000
_cell_angle_beta 90.000000
_cell_angle_gamma 90.000000
_cell_volume 2469.161607
_symmetry_space_group_name_H-M "P B C M"
_symmetry_group_IT_number 57
_symmetry_cell_setting 'orthorhombic'
loop_
_space_group_symop_operation_xyz
x,y,z
-x,-y,1/2+z
x,1/2-y,-z
-x,1/2+y,1/2-z
-x,-y,-z
x,y,1/2-z
-x,1/2+y,z
x,1/2-y,1/2+z
loop_
_atom_site_type_symbol
_atom_site_label
_atom_site_fract_x
_atom_site_fract_y
_atom_site_fract_z
Si Si1 0.297821 0.419082 0.363078
Si Si2 0.980839 0.916222 0.471761
Si Si3 0.091843 0.668963 0.358629
Si Si4 0.481632 0.669213 0.970174
Si Si5 0.372972 0.583912 0.140310
Si Si6 0.803705 0.329057 0.137481
O O1 0.264718 0.410882 0.250000
O O2 0.161852 0.401862 0.421297
O O3 0.411465 0.360859 0.392845
O O4 0.352056 0.499713 0.387971
O O5 0.983151 0.865101 0.567494
O O6 0.102245 0.895493 0.398346
O O7 0.000000 0.000000 0.500000
O O8 0.033823 0.659571 0.250000
O O9 0.231927 0.625976 0.370718
O O10 0.116485 0.753782 0.383193
O O11 0.334484 0.670589 0.921847
O O12 0.528388 0.750000 0.000000
O O13 0.481722 0.618554 0.066520
O O14 0.429518 0.591952 0.250000
O O15 0.768704 0.339063 0.250000
#
# Coordination Sequence:
#
# PCOD8233412 Si02
#       6
#     8   8   8   8   8   8
#     4  11  25  41  60  89 130 165 198 252 322 375
#     4  12  22  39  61  90 121 163 205 255 311 372
#     4  10  20  37  63  89 114 154 209 261 301 352
#     4  12  22  39  62  95 125 165 205 257 309 372
#     4  10  20  39  63  87 119 162 206 251 303 361
#     4  11  22  38  64  92 120 159 217 261 297 361
#
# _framework density 19.439796999999999
#
# number of rings (size 3 to 8) (size 9 to 14) (size 15 to 20)
#    0.000    1.000    5.000    2.000    0.000    2.667 
#    0.000    0.833    0.000    0.000    0.000    0.000 
#    0.000    0.000    0.000    0.000    0.000    0.000 
#
# Total GULP energy -595433.762739 kJ/mol
# GULP energy per Si atom -12404.870057 kJ/mol
# Density = 1.939555 g / cm^3
# Si number density = 19.439797 Si / 1000 Ang^3
#
#
#
# Elastic Constant Matrix: (Units=GPa)
#
#
# Indices 1 2 3 4 5 6 
#
# 1 54.5535 30.4221 30.3686 0.0000 0.0000 0.0000
# 2 30.4221 107.8697 31.1928 0.0000 0.0000 0.0000
# 3 30.3686 31.1928 103.2212 0.0000 0.0000 0.0000
# 4 0.0000 0.0000 0.0000 33.8333 0.0000 0.0000
# 5 0.0000 0.0000 0.0000 0.0000 25.8717 0.0000
# 6 0.0000 0.0000 0.0000 0.0000 0.0000 13.7092
#
#
#
# Elastic Compliance Matrix: (Units=1/GPa)
#
#
# Indices 1 2 3 4 5 6 
#
# 1 0.024370 -0.005259 -0.005581 0.000000 0.000000 0.000000
# 2 -0.005259 0.011293 -0.001865 0.000000 0.000000 0.000000
# 3 -0.005581 -0.001865 0.011893 0.000000 0.000000 0.000000
# 4 0.000000 0.000000 0.000000 0.029557 0.000000 0.000000
# 5 0.000000 0.000000 0.000000 0.000000 0.038652 0.000000
# 6 0.000000 0.000000 0.000000 0.000000 0.000000 0.072944
#
#
# Mechanical properties :
#
#
# Convention : Reuss Voigt Hill
#
# Bulk Modulus (GPa) = 45.15440 49.95681 47.55561
# Shear Modulus (GPa) = 22.57317 26.26023 24.41670
#
# Velocity S-wave (km/s) = 3.41131 3.67938 3.54788
# Velocity P-wave (km/s) = 6.22851 6.61849 6.42646
#
# Compressibility (1/GPa) = 0.02214624
#
# Stress axis : x y z
#
# Youngs Moduli (GPa) = 41.03395 88.54959 84.07955
#
# Poissons Ratio (x) = 0.46570 0.46921
# Poissons Ratio (y) = 0.21581 0.15684
# Poissons Ratio (z) = 0.22899 0.16518
#
# Static dielectric constant tensor:
#      x y z
#    x 3.301160 0.000000 0.000000 
#    y 0.000000 3.601640 0.000000 
#    z 0.000000 0.000000 3.860960 
# 
# 
# High freq. dielectric constant tensor:
#      x y z
#    x 1.728870 0.000000 0.000000 
#    y 0.000000 1.769090 0.000000 
#    z 0.000000 0.000000 1.780350 
# 
# From -- ./inp_files/16293.got.cif
#   From: 2010.03.12/outbox.cif.g09.slc.cpg/sg57_9_cif.got.tgz:16293.got - 2010.04.16 15:48:40.
