data_PCOD8233232
_publ_section_title
;
Structure prediction by ZEFSAII (Michael W. Deem and Ramdas Pophale) SiO2 
 PCOD8233232
Probable space group: P B C M
;
_chemical_formula_sum "Si O2"
_cell_formula_units_Z 64
_cell_length_a 18.496615
_cell_length_b 9.908605
_cell_length_c 16.932945
_cell_angle_alpha 90.000000
_cell_angle_beta 90.000000
_cell_angle_gamma 90.000000
_cell_volume 3103.396533
_symmetry_space_group_name_H-M "P B C M"
_symmetry_group_IT_number 57
_symmetry_cell_setting 'orthorhombic'
loop_
_space_group_symop_operation_xyz
x,y,z
-x,-y,1/2+z
x,1/2-y,-z
-x,1/2+y,1/2-z
-x,-y,-z
x,y,1/2-z
-x,1/2+y,z
x,1/2-y,1/2+z
loop_
_atom_site_type_symbol
_atom_site_label
_atom_site_fract_x
_atom_site_fract_y
_atom_site_fract_z
Si Si1 0.706567 0.239221 0.659525
Si Si2 0.930277 0.730642 0.839973
Si Si3 0.951336 0.471532 0.157945
Si Si4 0.769276 0.775944 0.156217
Si Si5 0.437213 0.101142 0.021882
Si Si6 0.652797 0.558228 0.339854
Si Si7 0.175686 0.863104 0.442233
Si Si8 0.705369 0.487092 0.556859
O O1 0.705391 0.287065 0.750000
O O2 0.788538 0.214095 0.632007
O O3 0.674586 0.355594 0.602844
O O4 0.662842 0.101118 0.647290
O O5 0.917717 0.689788 0.750000
O O6 0.972728 0.871817 0.847630
O O7 0.850636 0.740561 0.878685
O O8 0.981443 0.614682 0.876351
O O9 0.931708 0.434468 0.250000
O O10 0.885124 0.454364 0.097588
O O11 0.769129 0.788447 0.250000
O O12 0.722740 0.644360 0.130330
O O13 0.738763 0.913159 0.120889
O O14 0.420421 0.099970 0.115216
O O15 0.463197 0.250000 0.000000
O O16 0.500000 0.000000 0.000000
O O17 0.362118 0.061013 0.981611
O O18 0.637901 0.595046 0.250000
O O19 0.141220 0.750000 0.500000
O O20 0.235995 0.949156 0.489897
#
# Coordination Sequence:
#
# PCOD8233232 Si02
#       8
#     8   8   8   8   8   8   8   8
#     4  10  20  36  62  93 122 161 206 266 317 363
#     4   9  20  36  60  87 118 160 212 265 317 377
#     4  10  20  38  59  84 117 162 209 261 323 381
#     4  10  20  39  65  94 123 165 221 274 314 369
#     4  12  27  45  70  98 133 176 210 257 329 383
#     4  10  21  41  68  97 128 165 218 264 310 380
#     4  10  21  35  58  88 126 161 209 260 311 381
#     4  11  23  40  63  94 128 161 217 262 315 386
#
# _framework density 20.622567
#
# number of rings (size 3 to 8) (size 9 to 14) (size 15 to 20)
#    0.000    1.750    2.500    1.500    1.750    4.000 
#    0.000    8.125    0.000    0.000    0.000    0.000 
#    0.000    0.000    0.000    0.000    0.000    0.000 
#
# Total GULP energy -793329.973666 kJ/mol
# GULP energy per Si atom -12395.780839 kJ/mol
# Density = 2.057563 g / cm^3
# Si number density = 20.622567 Si / 1000 Ang^3
#
#
#
# Elastic Constant Matrix: (Units=GPa)
#
#
# Indices 1 2 3 4 5 6 
#
# 1 112.6995 57.3697 37.7387 0.0000 0.0000 0.0000
# 2 57.3697 135.8474 37.1707 0.0000 0.0000 0.0000
# 3 37.7387 37.1707 75.4586 0.0000 0.0000 0.0000
# 4 0.0000 0.0000 0.0000 25.0566 0.0000 0.0000
# 5 0.0000 0.0000 0.0000 0.0000 25.9794 0.0000
# 6 0.0000 0.0000 0.0000 0.0000 0.0000 35.2433
#
#
#
# Elastic Compliance Matrix: (Units=1/GPa)
#
#
# Indices 1 2 3 4 5 6 
#
# 1 0.012341 -0.004072 -0.004166 0.000000 0.000000 0.000000
# 2 -0.004072 0.009851 -0.002816 0.000000 0.000000 0.000000
# 3 -0.004166 -0.002816 0.016723 0.000000 0.000000 0.000000
# 4 0.000000 0.000000 0.000000 0.039910 0.000000 0.000000
# 5 0.000000 0.000000 0.000000 0.000000 0.038492 0.000000
# 6 0.000000 0.000000 0.000000 0.000000 0.000000 0.028374
#
#
# Mechanical properties :
#
#
# Convention : Reuss Voigt Hill
#
# Bulk Modulus (GPa) = 59.49961 65.39595 62.44778
# Shear Modulus (GPa) = 28.83461 30.03761 29.43611
#
# Velocity S-wave (km/s) = 3.74332 3.82061 3.78216
# Velocity P-wave (km/s) = 6.89910 7.15838 7.02994
#
# Compressibility (1/GPa) = 0.01680683
#
# Stress axis : x y z
#
# Youngs Moduli (GPa) = 81.03064 101.50885 59.79674
#
# Poissons Ratio (x) = 0.41332 0.24913
# Poissons Ratio (y) = 0.32994 0.16841
# Poissons Ratio (z) = 0.33760 0.28589
#
# Static dielectric constant tensor:
#      x y z
#    x 3.594440 0.000000 0.000000 
#    y 0.000000 3.834600 0.000000 
#    z 0.000000 0.000000 3.855860 
# 
# 
# High freq. dielectric constant tensor:
#      x y z
#    x 1.779930 0.000000 0.000000 
#    y 0.000000 1.820160 0.000000 
#    z 0.000000 0.000000 1.806960 
# 
# From -- ./inp_files/23043.got.cif
#   From: 2010.03.12/outbox.cif.g09.slc.cpg/sg57_12_cif.got.tgz:23043.got - 2010.04.16 15:48:40.
