data_PCOD8233860
_publ_section_title
;
Structure prediction by ZEFSAII (Michael W. Deem and Ramdas Pophale) SiO2 
 PCOD8233860
Probable space group: P B C M
;
_chemical_formula_sum "Si O2"
_cell_formula_units_Z 64
_cell_length_a 23.716666
_cell_length_b 9.216914
_cell_length_c 14.702787
_cell_angle_alpha 90.000000
_cell_angle_beta 90.000000
_cell_angle_gamma 90.000000
_cell_volume 3213.947945
_symmetry_space_group_name_H-M "P B C M"
_symmetry_group_IT_number 57
_symmetry_cell_setting 'orthorhombic'
loop_
_space_group_symop_operation_xyz
x,y,z
-x,-y,1/2+z
x,1/2-y,-z
-x,1/2+y,1/2-z
-x,-y,-z
x,y,1/2-z
-x,1/2+y,z
x,1/2-y,1/2+z
loop_
_atom_site_type_symbol
_atom_site_label
_atom_site_fract_x
_atom_site_fract_y
_atom_site_fract_z
Si Si1 0.143104 0.417720 0.010549
Si Si2 0.315318 0.420096 0.644765
Si Si3 0.541008 0.646635 0.858144
Si Si4 0.664399 0.916712 0.355712
Si Si5 0.440008 0.039215 0.142355
Si Si6 0.744652 0.422768 0.989646
Si Si7 0.954913 0.872190 0.146429
Si Si8 0.935642 0.539676 0.146623
O O1 0.194802 0.517662 0.041997
O O2 0.095277 0.436268 0.086476
O O3 0.162158 0.250000 0.000000
O O4 0.119440 0.480274 0.915390
O O5 0.300246 0.444020 0.750000
O O6 0.317397 0.248728 0.622466
O O7 0.375085 0.496408 0.619284
O O8 0.268218 0.499900 0.585750
O O9 0.536984 0.658490 0.750000
O O10 0.598566 0.560378 0.882252
O O11 0.484790 0.573520 0.899403
O O12 0.544291 0.806088 0.901280
O O13 0.674748 0.951295 0.250000
O O14 0.699302 0.031467 0.414105
O O15 0.447023 0.047360 0.250000
O O16 0.745218 0.250000 0.000000
O O17 0.942729 0.919235 0.250000
O O18 0.959614 0.700824 0.134896
O O19 0.014808 0.933760 0.113489
O O20 0.917274 0.506872 0.250000
#
# Coordination Sequence:
#
# PCOD8233860 Si02
#       8
#     8   8   8   8   8   8   8   8
#     4  10  21  37  55  75 105 146 187 222 260 316
#     4   9  19  38  61  80 104 144 188 227 273 333
#     4   8  14  26  48  78 106 133 169 215 270 330
#     4   9  19  38  61  80 104 144 188 227 273 333
#     4   8  14  26  48  78 106 133 169 215 270 330
#     4  12  26  39  54  81 113 144 186 238 285 326
#     4   9  18  33  55  83 111 139 173 214 262 315
#     4   9  18  33  55  83 111 139 173 214 262 315
#
# _framework density 19.913204
#
# number of rings (size 3 to 8) (size 9 to 14) (size 15 to 20)
#    0.000    2.750    0.000    3.000    0.000    3.500 
#    0.000    5.625    0.000    0.000    0.000    0.000 
#    0.000    0.000    0.000    0.000    0.000    0.000 
#
# Total GULP energy -793450.883325 kJ/mol
# GULP energy per Si atom -12397.670052 kJ/mol
# Density = 1.986788 g / cm^3
# Si number density = 19.913204 Si / 1000 Ang^3
#
#
#
# Elastic Constant Matrix: (Units=GPa)
#
#
# Indices 1 2 3 4 5 6 
#
# 1 60.2737 16.0008 3.2465 0.0000 0.0000 0.0000
# 2 16.0008 54.3368 7.9704 0.0000 0.0000 0.0000
# 3 3.2465 7.9704 43.7924 0.0000 0.0000 0.0000
# 4 0.0000 0.0000 0.0000 22.3608 0.0000 0.0000
# 5 0.0000 0.0000 0.0000 0.0000 24.0765 0.0000
# 6 0.0000 0.0000 0.0000 0.0000 0.0000 37.3606
#
#
#
# Elastic Compliance Matrix: (Units=1/GPa)
#
#
# Indices 1 2 3 4 5 6 
#
# 1 0.018004 -0.005246 -0.000380 0.000000 0.000000 0.000000
# 2 -0.005246 0.020437 -0.003331 0.000000 0.000000 0.000000
# 3 -0.000380 -0.003331 0.023469 0.000000 0.000000 0.000000
# 4 0.000000 0.000000 0.000000 0.044721 0.000000 0.000000
# 5 0.000000 0.000000 0.000000 0.000000 0.041534 0.000000
# 6 0.000000 0.000000 0.000000 0.000000 0.000000 0.026766
#
#
# Mechanical properties :
#
#
# Convention : Reuss Voigt Hill
#
# Bulk Modulus (GPa) = 22.72870 23.64871 23.18870
# Shear Modulus (GPa) = 24.09507 25.50525 24.80016
#
# Velocity S-wave (km/s) = 3.48229 3.58274 3.53287
# Velocity P-wave (km/s) = 5.25424 5.38668 5.32088
#
# Compressibility (1/GPa) = 0.04399724
#
# Stress axis : x y z
#
# Youngs Moduli (GPa) = 55.54287 48.93057 42.60871
#
# Poissons Ratio (x) = 0.25669 0.01619
# Poissons Ratio (y) = 0.29138 0.14192
# Poissons Ratio (z) = 0.02110 0.16298
#
# Static dielectric constant tensor:
#      x y z
#    x 3.621350 0.000000 0.000000 
#    y 0.000000 3.615820 0.000000 
#    z 0.000000 0.000000 3.577830 
# 
# 
# High freq. dielectric constant tensor:
#      x y z
#    x 1.773770 0.000000 0.000000 
#    y 0.000000 1.757860 0.000000 
#    z 0.000000 0.000000 1.774940 
# 
# From -- ./inp_files/19523.got.cif
#   From: 2010.03.12/outbox.cif.g09.slc.cpg/sg57_10_cif.got.tgz:19523.got - 2010.04.16 15:48:40.
