data_PCOD8233093
_publ_section_title
;
Structure prediction by ZEFSAII (Michael W. Deem and Ramdas Pophale) SiO2 
 PCOD8233093
Probable space group: P B C M
;
_chemical_formula_sum "Si O2"
_cell_formula_units_Z 64
_cell_length_a 25.968941
_cell_length_b 14.705509
_cell_length_c 8.717467
_cell_angle_alpha 90.000000
_cell_angle_beta 90.000000
_cell_angle_gamma 90.000000
_cell_volume 3329.082923
_symmetry_space_group_name_H-M "P B C M"
_symmetry_group_IT_number 57
_symmetry_cell_setting 'orthorhombic'
loop_
_space_group_symop_operation_xyz
x,y,z
-x,-y,1/2+z
x,1/2-y,-z
-x,1/2+y,1/2-z
-x,-y,-z
x,y,1/2-z
-x,1/2+y,z
x,1/2-y,1/2+z
loop_
_atom_site_type_symbol
_atom_site_label
_atom_site_fract_x
_atom_site_fract_y
_atom_site_fract_z
Si Si1 0.634921 0.649051 0.430713
Si Si2 0.113783 0.343366 0.067991
Si Si3 0.708604 0.992441 0.429609
Si Si4 0.892642 0.159581 0.930695
Si Si5 0.001596 0.097897 0.569547
Si Si6 0.819740 0.999364 0.930945
Si Si7 0.369582 0.850514 0.569035
Si Si8 0.556100 0.492325 0.431326
O O1 0.628530 0.750000 0.500000
O O2 0.638885 0.660660 0.250000
O O3 0.686151 0.597832 0.489052
O O4 0.587138 0.583926 0.478256
O O5 0.121236 0.351585 0.250000
O O6 0.054133 0.353789 0.018097
O O7 0.133698 0.250000 0.000000
O O8 0.150351 0.410487 0.978492
O O9 0.705295 0.974069 0.250000
O O10 0.766535 0.007217 0.480947
O O11 0.678736 0.085155 0.474550
O O12 0.892399 0.164107 0.750000
O O13 0.951213 0.149909 0.993633
O O14 0.856254 0.079871 0.989654
O O15 0.868273 0.250000 0.000000
O O16 0.998494 0.088165 0.750000
O O17 0.000000 0.000000 0.500000
O O18 0.809633 0.001601 0.750000
O O19 0.361771 0.750000 0.500000
O O20 0.376550 0.840614 0.750000
O O21 0.419523 0.900305 0.500118
O O22 0.500000 0.500000 0.500000
O O23 0.553915 0.481420 0.250000
#
# Coordination Sequence:
#
# PCOD8233093 Si02
#       8
#     8   8   8   8   8   8   8   8
#     4  10  21  38  61  88 117 154 197 240 289 341
#     4  11  23  38  59  85 113 147 186 230 281 340
#     4  10  22  40  61  85 114 148 191 240 290 344
#     4  10  22  38  57  83 113 146 184 226 277 335
#     4  10  20  36  58  83 111 146 184 225 277 335
#     4  11  23  40  60  83 115 148 186 236 286 340
#     4  10  21  38  61  87 117 155 198 244 292 345
#     4  10  21  37  58  87 125 163 201 244 289 340
#
# _framework density 19.224513999999999
#
# number of rings (size 3 to 8) (size 9 to 14) (size 15 to 20)
#    0.000    1.750    1.250    2.625    0.000    6.500 
#    0.000    6.250    0.000    0.000    0.000    0.000 
#    0.000    0.000    0.000    0.000    0.000    0.000 
#
# Total GULP energy -793570.765042 kJ/mol
# GULP energy per Si atom -12399.543204 kJ/mol
# Density = 1.918076 g / cm^3
# Si number density = 19.224514 Si / 1000 Ang^3
#
#
#
# Elastic Constant Matrix: (Units=GPa)
#
#
# Indices 1 2 3 4 5 6 
#
# 1 127.0104 55.6017 24.9218 0.0000 0.0000 0.0000
# 2 55.6017 162.7402 39.1104 0.0000 0.0000 0.0000
# 3 24.9218 39.1104 42.7816 0.0000 0.0000 0.0000
# 4 0.0000 0.0000 0.0000 38.2864 0.0000 0.0000
# 5 0.0000 0.0000 0.0000 0.0000 37.8635 0.0000
# 6 0.0000 0.0000 0.0000 0.0000 0.0000 -54.9537
#
#
#
# Elastic Compliance Matrix: (Units=1/GPa)
#
#
# Indices 1 2 3 4 5 6 
#
# 1 0.009614 -0.002485 -0.003329 0.000000 0.000000 0.000000
# 2 -0.002485 0.008517 -0.006339 0.000000 0.000000 0.000000
# 3 -0.003329 -0.006339 0.031109 0.000000 0.000000 0.000000
# 4 0.000000 0.000000 0.000000 0.026119 0.000000 0.000000
# 5 0.000000 0.000000 0.000000 0.000000 0.026411 0.000000
# 6 0.000000 0.000000 0.000000 0.000000 0.000000 -0.018197
#
#
# Mechanical properties :
#
#
# Convention : Reuss Voigt Hill
#
# Bulk Modulus (GPa) = 40.10464 63.53335 51.81899
# Shear Modulus (GPa) = 43.03317 18.43246 30.73281
#
# Velocity S-wave (km/s) = 4.73636 3.09981 4.00262
# Velocity P-wave (km/s) = 7.12863 6.77728 6.95517
#
# Compressibility (1/GPa) = 0.02493477
#
# Stress axis : x y z
#
# Youngs Moduli (GPa) = 104.01091 117.41153 32.14541
#
# Poissons Ratio (x) = 0.29174 0.10702
# Poissons Ratio (y) = 0.25844 0.20376
# Poissons Ratio (z) = 0.34627 0.74424
#
# Static dielectric constant tensor:
#      x y z
#    x 3.666570 0.000000 0.000000 
#    y 0.000000 3.716500 0.000000 
#    z 0.000000 0.000000 3.533880 
# 
# 
# High freq. dielectric constant tensor:
#      x y z
#    x 1.749790 0.000000 0.000000 
#    y 0.000000 1.758770 0.000000 
#    z 0.000000 0.000000 1.755940 
# 
# From -- ./inp_files/9423.got.cif
#   From: 2010.03.12/outbox.cif.g09.slc.cpg/sg57_5_cif.got.tgz:9423.got - 2010.04.16 15:48:40.
