data_PCOD8233410
_publ_section_title
;
Structure prediction by ZEFSAII (Michael W. Deem and Ramdas Pophale) SiO2 
 PCOD8233410
Probable space group: P B C M
;
_chemical_formula_sum "Si O2"
_cell_formula_units_Z 40
_cell_length_a 18.860643
_cell_length_b 10.553297
_cell_length_c 10.161242
_cell_angle_alpha 90.000000
_cell_angle_beta 90.000000
_cell_angle_gamma 90.000000
_cell_volume 2022.513597
_symmetry_space_group_name_H-M "P B C M"
_symmetry_group_IT_number 57
_symmetry_cell_setting 'orthorhombic'
loop_
_space_group_symop_operation_xyz
x,y,z
-x,-y,1/2+z
x,1/2-y,-z
-x,1/2+y,1/2-z
-x,-y,-z
x,y,1/2-z
-x,1/2+y,z
x,1/2-y,1/2+z
loop_
_atom_site_type_symbol
_atom_site_label
_atom_site_fract_x
_atom_site_fract_y
_atom_site_fract_z
Si Si1 0.623105 0.250000 0.000000
Si Si2 0.952784 0.860575 0.750000
Si Si3 0.652950 0.918139 0.250000
Si Si4 0.387109 0.363381 0.750000
Si Si5 0.848346 0.892984 0.985520
Si Si6 0.450044 0.851485 0.750000
Si Si7 0.701343 0.991547 0.524744
Si Si8 0.072497 0.069604 0.750000
O O1 0.570804 0.270173 0.877561
O O2 0.676493 0.135704 0.972260
O O3 0.910542 0.898775 0.879811
O O4 0.967957 0.707506 0.750000
O O5 0.022459 0.946675 0.750000
O O6 0.614222 0.786024 0.250000
O O7 0.701036 0.933297 0.378552
O O8 0.590854 0.018279 0.250000
O O9 0.469455 0.398197 0.750000
O O10 0.350172 0.414425 0.880511
O O11 0.783443 0.979629 0.932315
O O12 0.819459 0.750000 0.000000
O O13 0.877923 0.944161 0.123030
#
# Coordination Sequence:
#
# PCOD8233410 Si02
#       8
#     4   4   4   4   8   4   8   4
#     4  10  24  44  60  84 132 154 196 252 314 366
#     4  10  21  38  59  92 123 163 198 246 294 354
#     4  10  23  38  58  88 114 151 202 251 296 358
#     4  12  24  36  64  87 113 153 207 249 299 366
#     4  10  20  37  63  87 122 158 200 246 297 342
#     4  10  25  39  61  83 120 162 192 248 315 358
#     4  11  23  41  61  91 119 160 202 253 304 363
#     4  10  21  39  60  90 126 161 199 248 294 354
#
# _framework density 19.777369
#
# number of rings (size 3 to 8) (size 9 to 14) (size 15 to 20)
#    0.000    1.600    0.000    4.200    5.600    3.200 
#    3.600    0.000    0.000    0.000    0.000    0.000 
#    0.000    0.000    0.000    0.000    0.000    0.000 
#
# Total GULP energy -496073.084555 kJ/mol
# GULP energy per Si atom -12401.827114 kJ/mol
# Density = 1.973235 g / cm^3
# Si number density = 19.777369 Si / 1000 Ang^3
#
#
#
# Elastic Constant Matrix: (Units=GPa)
#
#
# Indices 1 2 3 4 5 6 
#
# 1 118.9889 44.6089 31.3061 0.0000 0.0000 0.0000
# 2 44.6089 71.8707 40.5035 0.0000 0.0000 0.0000
# 3 31.3061 40.5035 120.4027 0.0000 0.0000 0.0000
# 4 0.0000 0.0000 0.0000 15.4749 0.0000 0.0000
# 5 0.0000 0.0000 0.0000 0.0000 27.2849 0.0000
# 6 0.0000 0.0000 0.0000 0.0000 0.0000 10.0130
#
#
#
# Elastic Compliance Matrix: (Units=1/GPa)
#
#
# Indices 1 2 3 4 5 6 
#
# 1 0.011000 -0.006436 -0.000695 0.000000 0.000000 0.000000
# 2 -0.006436 0.020934 -0.005369 0.000000 0.000000 0.000000
# 3 -0.000695 -0.005369 0.010292 0.000000 0.000000 0.000000
# 4 0.000000 0.000000 0.000000 0.064621 0.000000 0.000000
# 5 0.000000 0.000000 0.000000 0.000000 0.036650 0.000000
# 6 0.000000 0.000000 0.000000 0.000000 0.000000 0.099871
#
#
# Mechanical properties :
#
#
# Convention : Reuss Voigt Hill
#
# Bulk Modulus (GPa) = 58.04891 60.45548 59.25220
# Shear Modulus (GPa) = 18.24090 23.54415 20.89252
#
# Velocity S-wave (km/s) = 3.04025 3.45405 3.25373
# Velocity P-wave (km/s) = 6.46058 6.82214 6.64382
#
# Compressibility (1/GPa) = 0.01722685
#
# Stress axis : x y z
#
# Youngs Moduli (GPa) = 90.91131 47.76915 97.16011
#
# Poissons Ratio (x) = 0.30742 0.06754
# Poissons Ratio (y) = 0.58507 0.52164
# Poissons Ratio (z) = 0.06319 0.25647
#
# Static dielectric constant tensor:
#      x y z
#    x 3.413210 0.000000 0.000000 
#    y 0.000000 3.654490 0.000000 
#    z 0.000000 0.000000 4.011730 
# 
# 
# High freq. dielectric constant tensor:
#      x y z
#    x 1.767100 0.000000 0.000000 
#    y 0.000000 1.770860 0.000000 
#    z 0.000000 0.000000 1.792970 
# 
# From -- ./inp_files/6342.got.cif
#   From: 2010.03.12/outbox.cif.g09.slc.cpg/sg57_4_cif.got.tgz:6342.got - 2010.04.16 15:48:40.
