data_PCOD8233045
_publ_section_title
;
Structure prediction by ZEFSAII (Michael W. Deem and Ramdas Pophale) SiO2 
 PCOD8233045
Probable space group: P B C M
;
_chemical_formula_sum "Si O2"
_cell_formula_units_Z 64
_cell_length_a 25.942517
_cell_length_b 14.926048
_cell_length_c 8.672513
_cell_angle_alpha 90.000000
_cell_angle_beta 90.000000
_cell_angle_gamma 90.000000
_cell_volume 3358.164014
_symmetry_space_group_name_H-M "P B C M"
_symmetry_group_IT_number 57
_symmetry_cell_setting 'orthorhombic'
loop_
_space_group_symop_operation_xyz
x,y,z
-x,-y,1/2+z
x,1/2-y,-z
-x,1/2+y,1/2-z
-x,-y,-z
x,y,1/2-z
-x,1/2+y,z
x,1/2-y,1/2+z
loop_
_atom_site_type_symbol
_atom_site_label
_atom_site_fract_x
_atom_site_fract_y
_atom_site_fract_z
Si Si1 0.501739 0.649606 0.931860
Si Si2 0.056538 0.002078 0.067405
Si Si3 0.241209 0.156176 0.568764
Si Si4 0.314044 0.997717 0.568099
Si Si5 0.875023 0.845235 0.067300
Si Si6 0.872040 0.344025 0.069215
Si Si7 0.245143 0.654061 0.567206
Si Si8 0.425676 0.492468 0.569004
O O1 0.504333 0.661240 0.750000
O O2 0.454503 0.584442 0.983005
O O3 0.496190 0.750000 0.000000
O O4 0.552920 0.597727 0.988221
O O5 0.053724 0.000969 0.250000
O O6 0.088960 0.917856 0.003180
O O7 0.084983 0.089666 0.011183
O O8 0.000000 0.000000 0.000000
O O9 0.259342 0.250000 0.500000
O O10 0.242698 0.165304 0.750000
O O11 0.183344 0.130111 0.515762
O O12 0.280932 0.082109 0.509470
O O13 0.324653 0.000527 0.750000
O O14 0.282453 0.910574 0.524579
O O15 0.366824 0.996776 0.476039
O O16 0.881574 0.846951 0.250000
O O17 0.890178 0.750000 0.000000
O O18 0.876775 0.335282 0.250000
O O19 0.813710 0.370475 0.023399
O O20 0.889081 0.250000 0.000000
O O21 0.259218 0.750000 0.500000
O O22 0.254903 0.649850 0.750000
O O23 0.432079 0.478544 0.750000
#
# Coordination Sequence:
#
# PCOD8233045 Si02
#       8
#     8   8   8   8   8   8   8   8
#     4  10  21  39  63  86 110 145 189 235 283 333
#     4  11  23  38  55  80 110 142 181 227 278 332
#     4   9  20  36  56  82 111 145 185 226 272 327
#     4  11  22  36  55  83 119 153 185 228 276 325
#     4  10  20  37  59  82 108 142 183 227 275 329
#     4   9  20  37  58  81 107 140 181 226 274 329
#     4  10  20  36  57  82 110 144 184 226 274 330
#     4  10  22  39  58  84 116 150 190 233 278 329
#
# _framework density 19.058032999999998
#
# number of rings (size 3 to 8) (size 9 to 14) (size 15 to 20)
#    0.000    2.000    0.000    3.000    0.000    6.000 
#    0.000    3.750    0.000    0.000    0.000    0.000 
#    0.000    0.000    0.000    0.000    0.000    0.000 
#
# Total GULP energy -793664.952984 kJ/mol
# GULP energy per Si atom -12401.014890 kJ/mol
# Density = 1.901466 g / cm^3
# Si number density = 19.058033 Si / 1000 Ang^3
#
#
#
# Elastic Constant Matrix: (Units=GPa)
#
#
# Indices 1 2 3 4 5 6 
#
# 1 125.5498 84.3142 23.2624 0.0000 0.0000 0.0000
# 2 84.3142 146.7009 34.6556 0.0000 0.0000 0.0000
# 3 23.2624 34.6556 44.9441 0.0000 0.0000 0.0000
# 4 0.0000 0.0000 0.0000 36.2413 0.0000 0.0000
# 5 0.0000 0.0000 0.0000 0.0000 35.0638 0.0000
# 6 0.0000 0.0000 0.0000 0.0000 0.0000 121.3762
#
#
#
# Elastic Compliance Matrix: (Units=1/GPa)
#
#
# Indices 1 2 3 4 5 6 
#
# 1 0.013023 -0.007205 -0.001185 0.000000 0.000000 0.000000
# 2 -0.007205 0.012321 -0.005771 0.000000 0.000000 0.000000
# 3 -0.001185 -0.005771 0.027313 0.000000 0.000000 0.000000
# 4 0.000000 0.000000 0.000000 0.027593 0.000000 0.000000
# 5 0.000000 0.000000 0.000000 0.000000 0.028519 0.000000
# 6 0.000000 0.000000 0.000000 0.000000 0.000000 0.008239
#
#
# Mechanical properties :
#
#
# Convention : Reuss Voigt Hill
#
# Bulk Modulus (GPa) = 41.09310 66.85101 53.97206
# Shear Modulus (GPa) = 32.58558 50.20043 41.39300
#
# Velocity S-wave (km/s) = 4.13947 5.13790 4.66547
# Velocity P-wave (km/s) = 6.66752 8.38756 7.57651
#
# Compressibility (1/GPa) = 0.02433498
#
# Stress axis : x y z
#
# Youngs Moduli (GPa) = 76.78715 81.16336 36.61215
#
# Poissons Ratio (x) = 0.58477 0.04339
# Poissons Ratio (y) = 0.55324 0.21130
# Poissons Ratio (z) = 0.09099 0.46841
#
# Static dielectric constant tensor:
#      x y z
#    x 3.595410 0.000000 0.000000 
#    y 0.000000 3.646150 0.000000 
#    z 0.000000 0.000000 3.357330 
# 
# 
# High freq. dielectric constant tensor:
#      x y z
#    x 1.742280 0.000000 0.000000 
#    y 0.000000 1.751660 0.000000 
#    z 0.000000 0.000000 1.748510 
# 
# From -- ./inp_files/9303.got.cif
#   From: 2010.03.12/outbox.cif.g09.slc.cpg/sg57_5_cif.got.tgz:9303.got - 2010.04.16 15:48:40.
