data_PCOD8233998
_publ_section_title
;
Structure prediction by ZEFSAII (Michael W. Deem and Ramdas Pophale) SiO2 
 PCOD8233998
Probable space group: P B C M
;
_chemical_formula_sum "Si O2"
_cell_formula_units_Z 64
_cell_length_a 23.599621
_cell_length_b 8.497937
_cell_length_c 15.513777
_cell_angle_alpha 90.000000
_cell_angle_beta 90.000000
_cell_angle_gamma 90.000000
_cell_volume 3111.258385
_symmetry_space_group_name_H-M "P B C M"
_symmetry_group_IT_number 57
_symmetry_cell_setting 'orthorhombic'
loop_
_space_group_symop_operation_xyz
x,y,z
-x,-y,1/2+z
x,1/2-y,-z
-x,1/2+y,1/2-z
-x,-y,-z
x,y,1/2-z
-x,1/2+y,z
x,1/2-y,1/2+z
loop_
_atom_site_type_symbol
_atom_site_label
_atom_site_fract_x
_atom_site_fract_y
_atom_site_fract_z
Si Si1 0.328884 0.027669 0.653540
Si Si2 0.650438 0.652510 0.085079
Si Si3 0.562273 0.160120 0.090440
Si Si4 0.261989 0.568025 0.499899
Si Si5 0.541349 0.016230 0.653436
Si Si6 0.130649 0.569083 0.505551
Si Si7 0.054224 0.073046 0.347343
Si Si8 0.933377 0.942391 0.347305
O O1 0.319500 0.964655 0.750000
O O2 0.337752 0.216671 0.658227
O O3 0.380363 0.933819 0.609402
O O4 0.273212 0.995777 0.596584
O O5 0.597176 0.549963 0.109703
O O6 0.635876 0.750000 0.000000
O O7 0.702698 0.532682 0.070128
O O8 0.512131 0.031749 0.094654
O O9 0.547879 0.295232 0.159677
O O10 0.566546 0.250000 0.000000
O O11 0.280145 0.750000 0.500000
O O12 0.196773 0.543855 0.522876
O O13 0.533383 0.950962 0.750000
O O14 0.113901 0.750000 0.500000
O O15 0.099415 0.497438 0.587508
O O16 0.115009 0.488188 0.415030
O O17 0.066659 0.011217 0.250000
O O18 0.991353 0.025383 0.376293
O O19 0.057384 0.258434 0.351380
O O20 0.915828 0.994544 0.250000
#
# Coordination Sequence:
#
# PCOD8233998 Si02
#       8
#     8   8   8   8   8   8   8   8
#     4  11  22  39  62  89 118 152 195 249 301 353
#     4  10  21  39  61  84 114 152 190 235 292 353
#     4  12  24  40  61  86 119 157 195 237 296 364
#     4  10  23  43  62  83 115 157 203 244 293 355
#     4  12  23  37  58  87 117 148 189 241 293 351
#     4  11  23  39  61  87 120 161 203 250 301 357
#     4  10  21  38  60  90 124 161 201 247 298 355
#     4  10  21  37  61  90 124 160 200 247 301 360
#
# _framework density 20.570454999999999
#
# number of rings (size 3 to 8) (size 9 to 14) (size 15 to 20)
#    0.000    1.250    0.000    7.125    0.000    5.000 
#    0.000    5.000    0.000    0.000    0.000    0.000 
#    0.000    0.000    0.000    0.000    0.000    0.000 
#
# Total GULP energy -793669.482179 kJ/mol
# GULP energy per Si atom -12401.085659 kJ/mol
# Density = 2.052364 g / cm^3
# Si number density = 20.570455 Si / 1000 Ang^3
#
#
#
# Elastic Constant Matrix: (Units=GPa)
#
#
# Indices 1 2 3 4 5 6 
#
# 1 59.3896 29.4375 27.0680 0.0000 0.0000 0.0000
# 2 29.4375 101.2932 15.3182 0.0000 0.0000 0.0000
# 3 27.0680 15.3182 96.4896 0.0000 0.0000 0.0000
# 4 0.0000 0.0000 0.0000 30.2283 0.0000 0.0000
# 5 0.0000 0.0000 0.0000 0.0000 13.2491 0.0000
# 6 0.0000 0.0000 0.0000 0.0000 0.0000 33.9903
#
#
#
# Elastic Compliance Matrix: (Units=1/GPa)
#
#
# Indices 1 2 3 4 5 6 
#
# 1 0.022025 -0.005601 -0.005289 0.000000 0.000000 0.000000
# 2 -0.005601 0.011539 -0.000261 0.000000 0.000000 0.000000
# 3 -0.005289 -0.000261 0.011889 0.000000 0.000000 0.000000
# 4 0.000000 0.000000 0.000000 0.033082 0.000000 0.000000
# 5 0.000000 0.000000 0.000000 0.000000 0.075477 0.000000
# 6 0.000000 0.000000 0.000000 0.000000 0.000000 0.029420
#
#
# Mechanical properties :
#
#
# Convention : Reuss Voigt Hill
#
# Bulk Modulus (GPa) = 43.19416 44.53555 43.86485
# Shear Modulus (GPa) = 23.42456 27.85013 25.63734
#
# Velocity S-wave (km/s) = 3.37819 3.68352 3.53415
# Velocity P-wave (km/s) = 6.02163 6.30780 6.16637
#
# Compressibility (1/GPa) = 0.02315128
#
# Stress axis : x y z
#
# Youngs Moduli (GPa) = 45.40312 86.65900 84.11118
#
# Poissons Ratio (x) = 0.48537 0.44490
# Poissons Ratio (y) = 0.25430 0.02193
# Poissons Ratio (z) = 0.24016 0.02260
#
# Static dielectric constant tensor:
#      x y z
#    x 3.550680 0.000000 0.000000 
#    y 0.000000 4.249040 0.000000 
#    z 0.000000 0.000000 3.989540 
# 
# 
# High freq. dielectric constant tensor:
#      x y z
#    x 1.794340 0.000000 0.000000 
#    y 0.000000 1.825030 0.000000 
#    z 0.000000 0.000000 1.809840 
# 
# From -- ./inp_files/19520.got.cif
#   From: 2010.03.12/outbox.cif.g09.slc.cpg/sg57_10_cif.got.tgz:19520.got - 2010.04.16 15:48:40.
