data_PCOD8233260
_publ_section_title
;
Structure prediction by ZEFSAII (Michael W. Deem and Ramdas Pophale) SiO2 
 PCOD8233260
Probable space group: P B C M
;
_chemical_formula_sum "Si O2"
_cell_formula_units_Z 64
_cell_length_a 20.419460
_cell_length_b 17.640929
_cell_length_c 8.856712
_cell_angle_alpha 90.000000
_cell_angle_beta 90.000000
_cell_angle_gamma 90.000000
_cell_volume 3190.349245
_symmetry_space_group_name_H-M "P B C M"
_symmetry_group_IT_number 57
_symmetry_cell_setting 'orthorhombic'
loop_
_space_group_symop_operation_xyz
x,y,z
-x,-y,1/2+z
x,1/2-y,-z
-x,1/2+y,1/2-z
-x,-y,-z
x,y,1/2-z
-x,1/2+y,z
x,1/2-y,1/2+z
loop_
_atom_site_type_symbol
_atom_site_label
_atom_site_fract_x
_atom_site_fract_y
_atom_site_fract_z
Si Si1 0.508554 0.670548 0.426312
Si Si2 0.630221 0.569399 0.072231
Si Si3 0.625072 0.092853 0.071497
Si Si4 0.125031 0.396259 0.071253
Si Si5 0.241224 0.829535 0.926316
Si Si6 0.119966 0.568151 0.071430
Si Si7 0.260923 0.329627 0.429170
Si Si8 0.011516 0.670297 0.570985
O O1 0.525804 0.750000 0.500000
O O2 0.509318 0.683891 0.250000
O O3 0.563128 0.610268 0.475937
O O4 0.437885 0.640919 0.478955
O O5 0.643346 0.575837 0.250000
O O6 0.623998 0.483173 0.023783
O O7 0.689997 0.605671 0.982143
O O8 0.625469 0.074366 0.250000
O O9 0.688115 0.140893 0.020940
O O10 0.126784 0.399181 0.250000
O O11 0.124900 0.482304 0.011201
O O12 0.188757 0.352121 0.010797
O O13 0.061052 0.351812 0.013657
O O14 0.240378 0.815932 0.750000
O O15 0.187232 0.890889 0.974730
O O16 0.223598 0.750000 0.000000
O O17 0.107041 0.572640 0.250000
O O18 0.060007 0.605635 0.984650
O O19 0.282316 0.250000 0.500000
O O20 0.263399 0.323196 0.250000
O O21 0.032596 0.750000 0.500000
O O22 0.015119 0.676669 0.750000
#
# Coordination Sequence:
#
# PCOD8233260 Si02
#       8
#     8   8   8   8   8   8   8   8
#     4  10  22  38  58  84 115 149 189 232 281 335
#     4  11  23  38  57  86 117 149 189 234 281 335
#     4  10  21  39  60  83 111 149 190 232 282 334
#     4   9  20  38  60  83 111 146 186 230 279 329
#     4  10  21  36  57  82 111 146 186 228 277 332
#     4  10  20  37  58  82 111 145 183 227 276 330
#     4  11  22  39  61  85 114 150 188 231 280 333
#     4  11  22  37  57  83 112 146 185 228 276 330
#
# _framework density 20.060500999999999
#
# number of rings (size 3 to 8) (size 9 to 14) (size 15 to 20)
#    0.000    1.750    0.000    4.125    0.000    6.500 
#    0.000    5.000    0.000    0.000    0.000    0.000 
#    0.000    0.000    0.000    0.000    0.000    0.000 
#
# Total GULP energy -793947.594467 kJ/mol
# GULP energy per Si atom -12405.431164 kJ/mol
# Density = 2.001484 g / cm^3
# Si number density = 20.060501 Si / 1000 Ang^3
#
#
#
# Elastic Constant Matrix: (Units=GPa)
#
#
# Indices 1 2 3 4 5 6 
#
# 1 95.4487 2.3403 26.3842 0.0000 0.0000 0.0000
# 2 2.3403 97.2871 25.4019 0.0000 0.0000 0.0000
# 3 26.3842 25.4019 47.5348 0.0000 0.0000 0.0000
# 4 0.0000 0.0000 0.0000 34.7442 0.0000 0.0000
# 5 0.0000 0.0000 0.0000 0.0000 28.1704 0.0000
# 6 0.0000 0.0000 0.0000 0.0000 0.0000 45.4474
#
#
#
# Elastic Compliance Matrix: (Units=1/GPa)
#
#
# Indices 1 2 3 4 5 6 
#
# 1 0.012634 0.001775 -0.007961 0.000000 0.000000 0.000000
# 2 0.001775 0.012195 -0.007502 0.000000 0.000000 0.000000
# 3 -0.007961 -0.007502 0.029465 0.000000 0.000000 0.000000
# 4 0.000000 0.000000 0.000000 0.028782 0.000000 0.000000
# 5 0.000000 0.000000 0.000000 0.000000 0.035498 0.000000
# 6 0.000000 0.000000 0.000000 0.000000 0.000000 0.022003
#
#
# Mechanical properties :
#
#
# Convention : Reuss Voigt Hill
#
# Bulk Modulus (GPa) = 37.15037 38.72482 37.93759
# Shear Modulus (GPa) = 28.26052 34.08203 31.17128
#
# Velocity S-wave (km/s) = 3.75742 4.12632 3.94618
# Velocity P-wave (km/s) = 6.11422 6.48444 6.30205
#
# Compressibility (1/GPa) = 0.02691763
#
# Stress axis : x y z
#
# Youngs Moduli (GPa) = 79.15239 82.00146 33.93889
#
# Poissons Ratio (x) = -0.14552 0.27018
# Poissons Ratio (y) = -0.14047 0.25460
# Poissons Ratio (z) = 0.63011 0.61516
#
# Static dielectric constant tensor:
#      x y z
#    x 4.020410 0.000000 0.000000 
#    y 0.000000 3.897390 0.000000 
#    z 0.000000 0.000000 3.443300 
# 
# 
# High freq. dielectric constant tensor:
#      x y z
#    x 1.801660 0.000000 0.000000 
#    y 0.000000 1.797650 0.000000 
#    z 0.000000 0.000000 1.766540 
# 
# From -- ./inp_files/8405.got.cif
#   From: 2010.03.12/outbox.cif.g09.slc.cpg/sg57_5_cif.got.tgz:8405.got - 2010.04.16 15:48:40.
