data_PCOD8233032
_publ_section_title
;
Structure prediction by ZEFSAII (Michael W. Deem and Ramdas Pophale) SiO2 
 PCOD8233032
Probable space group: P B C M
;
_chemical_formula_sum "Si O2"
_cell_formula_units_Z 64
_cell_length_a 19.581002
_cell_length_b 19.870163
_cell_length_c 9.053170
_cell_angle_alpha 90.000000
_cell_angle_beta 90.000000
_cell_angle_gamma 90.000000
_cell_volume 3522.386574
_symmetry_space_group_name_H-M "P B C M"
_symmetry_group_IT_number 57
_symmetry_cell_setting 'orthorhombic'
loop_
_space_group_symop_operation_xyz
x,y,z
-x,-y,1/2+z
x,1/2-y,-z
-x,1/2+y,1/2-z
-x,-y,-z
x,y,1/2-z
-x,1/2+y,z
x,1/2-y,1/2+z
loop_
_atom_site_type_symbol
_atom_site_label
_atom_site_fract_x
_atom_site_fract_y
_atom_site_fract_z
Si Si1 0.155251 0.410129 0.924692
Si Si2 0.483517 0.930904 0.920496
Si Si3 0.394971 0.108105 0.918949
Si Si4 0.337637 0.965550 0.920106
Si Si5 0.199060 0.941992 0.077176
Si Si6 0.047596 0.319210 0.424488
Si Si7 0.110133 0.682110 0.577202
Si Si8 0.261440 0.181410 0.921655
O O1 0.152846 0.395940 0.750000
O O2 0.159367 0.489269 0.961082
O O3 0.088112 0.380979 0.003188
O O4 0.222427 0.378030 0.995966
O O5 0.501364 0.938116 0.750000
O O6 0.402812 0.915159 0.942637
O O7 0.535239 0.875648 0.990587
O O8 0.500000 0.000000 0.000000
O O9 0.416489 0.097640 0.750000
O O10 0.342504 0.169553 0.938881
O O11 0.358352 0.039955 0.976772
O O12 0.315724 0.969706 0.750000
O O13 0.274080 0.937008 0.008984
O O14 0.209301 0.935099 0.250000
O O15 0.153695 0.880497 0.015443
O O16 0.072901 0.250000 0.500000
O O17 0.062191 0.315339 0.250000
O O18 0.968663 0.332144 0.460946
O O19 0.136178 0.750000 0.500000
O O20 0.120582 0.691883 0.750000
O O21 0.239718 0.183543 0.750000
O O22 0.240331 0.250000 0.000000
#
# Coordination Sequence:
#
# PCOD8233032 Si02
#       8
#     8   8   8   8   8   8   8   8
#     4  11  22  35  52  78 109 140 177 218 263 314
#     4   9  17  28  46  72 101 132 169 212 256 306
#     4   9  18  32  49  71 101 134 173 220 261 307
#     4   9  17  31  49  75 106 135 169 211 260 310
#     4  10  21  35  54  80 110 139 171 218 266 314
#     4  10  20  36  57  77 104 141 178 219 262 309
#     4   9  20  39  59  81 105 133 173 216 264 321
#     4  11  22  36  52  73 105 144 185 224 266 319
#
# _framework density 18.169498999999998
#
# number of rings (size 3 to 8) (size 9 to 14) (size 15 to 20)
#    0.000    2.250    1.250    2.625    0.000    5.500 
#    0.000    0.000    0.000    0.750    0.000    0.000 
#    0.000    0.000    0.000    0.000    0.000    0.000 
#
# Total GULP energy -793465.489008 kJ/mol
# GULP energy per Si atom -12397.898266 kJ/mol
# Density = 1.812814 g / cm^3
# Si number density = 18.169499 Si / 1000 Ang^3
#
#
#
# Elastic Constant Matrix: (Units=GPa)
#
#
# Indices 1 2 3 4 5 6 
#
# 1 112.1484 58.4792 52.9435 0.0000 0.0000 0.0000
# 2 58.4792 100.0600 49.8598 0.0000 0.0000 0.0000
# 3 52.9435 49.8598 88.5495 0.0000 0.0000 0.0000
# 4 0.0000 0.0000 0.0000 23.3255 0.0000 0.0000
# 5 0.0000 0.0000 0.0000 0.0000 35.0627 0.0000
# 6 0.0000 0.0000 0.0000 0.0000 0.0000 18.6280
#
#
#
# Elastic Compliance Matrix: (Units=1/GPa)
#
#
# Indices 1 2 3 4 5 6 
#
# 1 0.014477 -0.005765 -0.005409 0.000000 0.000000 0.000000
# 2 -0.005765 0.016188 -0.005668 0.000000 0.000000 0.000000
# 3 -0.005409 -0.005668 0.017719 0.000000 0.000000 0.000000
# 4 0.000000 0.000000 0.000000 0.042872 0.000000 0.000000
# 5 0.000000 0.000000 0.000000 0.000000 0.028520 0.000000
# 6 0.000000 0.000000 0.000000 0.000000 0.000000 0.053683
#
#
# Mechanical properties :
#
#
# Convention : Reuss Voigt Hill
#
# Bulk Modulus (GPa) = 68.03500 69.25810 68.64655
# Shear Modulus (GPa) = 23.58023 24.70159 24.14091
#
# Velocity S-wave (km/s) = 3.60640 3.69115 3.64902
# Velocity P-wave (km/s) = 7.40725 7.50777 7.45768
#
# Compressibility (1/GPa) = 0.01469832
#
# Stress axis : x y z
#
# Youngs Moduli (GPa) = 69.07654 61.77499 56.43751
#
# Poissons Ratio (x) = 0.35615 0.30529
# Poissons Ratio (y) = 0.39825 0.31988
# Poissons Ratio (z) = 0.37365 0.35013
#
# Static dielectric constant tensor:
#      x y z
#    x 3.697050 0.000000 0.000000 
#    y 0.000000 3.319350 0.000000 
#    z 0.000000 0.000000 3.451250 
# 
# 
# High freq. dielectric constant tensor:
#      x y z
#    x 1.711810 0.000000 0.000000 
#    y 0.000000 1.672760 0.000000 
#    z 0.000000 0.000000 1.710300 
# 
# From -- ./inp_files/8503.got.cif
#   From: 2010.03.12/outbox.cif.g09.slc.cpg/sg57_5_cif.got.tgz:8503.got - 2010.04.16 15:48:40.
