data_PCOD8233043
_publ_section_title
;
Structure prediction by ZEFSAII (Michael W. Deem and Ramdas Pophale) SiO2 
 PCOD8233043
Probable space group: P B C M
;
_chemical_formula_sum "Si O2"
_cell_formula_units_Z 56
_cell_length_a 12.431677
_cell_length_b 16.294524
_cell_length_c 14.485055
_cell_angle_alpha 90.000000
_cell_angle_beta 90.000000
_cell_angle_gamma 90.000000
_cell_volume 2934.212376
_symmetry_space_group_name_H-M "P B C M"
_symmetry_group_IT_number 57
_symmetry_cell_setting 'orthorhombic'
loop_
_space_group_symop_operation_xyz
x,y,z
-x,-y,1/2+z
x,1/2-y,-z
-x,1/2+y,1/2-z
-x,-y,-z
x,y,1/2-z
-x,1/2+y,z
x,1/2-y,1/2+z
loop_
_atom_site_type_symbol
_atom_site_label
_atom_site_fract_x
_atom_site_fract_y
_atom_site_fract_z
Si Si1 0.578139 0.620462 0.147672
Si Si2 0.065851 0.346903 0.645230
Si Si3 0.658562 0.079480 0.144524
Si Si4 0.111515 0.998704 0.049003
Si Si5 0.690988 0.926756 0.033897
Si Si6 0.732942 0.733808 0.853363
Si Si7 0.847925 0.339230 0.968720
O O1 0.599390 0.579796 0.250000
O O2 0.450792 0.631169 0.131695
O O3 0.627640 0.710543 0.147531
O O4 0.631422 0.568185 0.065253
O O5 0.033687 0.329061 0.750000
O O6 0.106506 0.442798 0.639378
O O7 0.163076 0.286772 0.613744
O O8 0.962874 0.331238 0.581746
O O9 0.691124 0.067386 0.250000
O O10 0.756423 0.127616 0.098536
O O11 0.632246 0.989380 0.102997
O O12 0.144054 0.901816 0.057944
O O13 0.188899 0.040945 0.975343
O O14 0.000000 0.000000 0.000000
O O15 0.701900 0.836076 0.074475
O O16 0.754346 0.698623 0.750000
O O17 0.810829 0.250000 0.000000
#
# Coordination Sequence:
#
# PCOD8233043 Si02
#       7
#     8   8   8   8   8   8   8
#     4  10  21  36  57  84 118 154 194 245 299 350
#     4  10  20  36  57  81 117 151 187 244 303 347
#     4  10  22  41  59  82 119 159 199 244 294 355
#     4   9  20  34  54  82 111 148 188 234 288 354
#     4  11  20  35  61  87 116 153 199 243 300 352
#     4  10  21  34  57  92 117 149 197 248 297 350
#     4  10  22  37  59  81 114 156 201 239 289 357
#
# _framework density 19.085189
#
# number of rings (size 3 to 8) (size 9 to 14) (size 15 to 20)
#    0.000    2.000    1.429    1.714    4.000    1.143 
#    0.000    2.143    0.000    3.429    0.000    0.000 
#    0.000    0.000    0.000    0.000    0.000    0.000 
#
# Total GULP energy -693802.127645 kJ/mol
# GULP energy per Si atom -12389.323708 kJ/mol
# Density = 1.904175 g / cm^3
# Si number density = 19.085189 Si / 1000 Ang^3
#
#
#
# Elastic Constant Matrix: (Units=GPa)
#
#
# Indices 1 2 3 4 5 6 
#
# 1 116.0124 41.7139 41.6399 0.0000 0.0000 0.0000
# 2 41.7139 121.4251 52.8795 0.0000 0.0000 0.0000
# 3 41.6399 52.8795 99.5022 0.0000 0.0000 0.0000
# 4 0.0000 0.0000 0.0000 24.5871 0.0000 0.0000
# 5 0.0000 0.0000 0.0000 0.0000 19.9877 0.0000
# 6 0.0000 0.0000 0.0000 0.0000 0.0000 20.4135
#
#
#
# Elastic Compliance Matrix: (Units=1/GPa)
#
#
# Indices 1 2 3 4 5 6 
#
# 1 0.010585 -0.002221 -0.003249 0.000000 0.000000 0.000000
# 2 -0.002221 0.011182 -0.005013 0.000000 0.000000 0.000000
# 3 -0.003249 -0.005013 0.014074 0.000000 0.000000 0.000000
# 4 0.000000 0.000000 0.000000 0.040672 0.000000 0.000000
# 5 0.000000 0.000000 0.000000 0.000000 0.050031 0.000000
# 6 0.000000 0.000000 0.000000 0.000000 0.000000 0.048987
#
#
# Mechanical properties :
#
#
# Convention : Reuss Voigt Hill
#
# Bulk Modulus (GPa) = 67.23247 67.71181 67.47214
# Shear Modulus (GPa) = 24.81958 26.37808 25.59883
#
# Velocity S-wave (km/s) = 3.61011 3.72172 3.66634
# Velocity P-wave (km/s) = 7.25818 7.35011 7.30429
#
# Compressibility (1/GPa) = 0.01487377
#
# Stress axis : x y z
#
# Youngs Moduli (GPa) = 94.47673 89.43216 71.05463
#
# Poissons Ratio (x) = 0.19866 0.23086
# Poissons Ratio (y) = 0.20986 0.35618
# Poissons Ratio (z) = 0.30695 0.44831
#
# Static dielectric constant tensor:
#      x y z
#    x 3.585550 0.000000 0.000000 
#    y 0.000000 3.719840 0.000000 
#    z 0.000000 0.000000 3.938290 
# 
# 
# High freq. dielectric constant tensor:
#      x y z
#    x 1.753250 0.000000 0.000000 
#    y 0.000000 1.733990 0.000000 
#    z 0.000000 0.000000 1.734780 
# 
# From -- ./inp_files/17769.got.cif
#   From: 2010.03.12/outbox.cif.g09.slc.cpg/sg57_9_cif.got.tgz:17769.got - 2010.04.16 15:48:40.
