data_PCOD8233189
_publ_section_title
;
Structure prediction by ZEFSAII (Michael W. Deem and Ramdas Pophale) SiO2 
 PCOD8233189
Probable space group: P B C M
;
_chemical_formula_sum "Si O2"
_cell_formula_units_Z 64
_cell_length_a 23.636301
_cell_length_b 15.425430
_cell_length_c 8.902849
_cell_angle_alpha 90.000000
_cell_angle_beta 90.000000
_cell_angle_gamma 90.000000
_cell_volume 3245.979694
_symmetry_space_group_name_H-M "P B C M"
_symmetry_group_IT_number 57
_symmetry_cell_setting 'orthorhombic'
loop_
_space_group_symop_operation_xyz
x,y,z
-x,-y,1/2+z
x,1/2-y,-z
-x,1/2+y,1/2-z
-x,-y,-z
x,y,1/2-z
-x,1/2+y,z
x,1/2-y,1/2+z
loop_
_atom_site_type_symbol
_atom_site_label
_atom_site_fract_x
_atom_site_fract_y
_atom_site_fract_z
Si Si1 0.623354 0.160295 0.927746
Si Si2 0.311890 0.996760 0.572747
Si Si3 0.884851 0.837620 0.575113
Si Si4 0.502533 0.092815 0.926450
Si Si5 0.807414 0.996438 0.925361
Si Si6 0.994151 0.093214 0.072589
Si Si7 0.383440 0.337765 0.426333
Si Si8 0.117637 0.837118 0.073900
O O1 0.629214 0.166307 0.750000
O O2 0.558923 0.142168 0.979014
O O3 0.643563 0.250000 0.000000
O O4 0.664118 0.085792 0.986684
O O5 0.318255 0.982223 0.750000
O O6 0.247241 0.009497 0.528679
O O7 0.346130 0.081360 0.518448
O O8 0.862087 0.750000 0.500000
O O9 0.876920 0.825927 0.750000
O O10 0.848242 0.919367 0.520251
O O11 0.949958 0.852729 0.531899
O O12 0.501820 0.077606 0.750000
O O13 0.448250 0.147973 0.978445
O O14 0.500000 0.000000 0.000000
O O15 0.791364 0.988473 0.750000
O O16 0.838377 0.086680 0.958425
O O17 0.986453 0.082232 0.250000
O O18 0.942066 0.144235 0.003051
O O19 0.000000 0.000000 0.000000
O O20 0.359922 0.250000 0.500000
O O21 0.378427 0.326673 0.250000
O O22 0.107505 0.824113 0.250000
O O23 0.143069 0.750000 0.000000
#
# Coordination Sequence:
#
# PCOD8233189 Si02
#       8
#     8   8   8   8   8   8   8   8
#     4  11  23  39  63  92 122 161 200 244 302 361
#     4  11  24  42  63  88 120 157 205 256 302 356
#     4  10  22  40  61  89 122 159 198 244 298 354
#     4  10  20  36  60  90 123 158 196 240 298 358
#     4  10  23  44  63  83 120 161 204 253 303 358
#     4  11  21  37  62  92 126 162 199 244 301 363
#     4  10  22  39  60  89 123 157 197 246 296 355
#     4  11  23  41  63  91 124 159 200 249 303 363
#
# _framework density 19.716697
#
# number of rings (size 3 to 8) (size 9 to 14) (size 15 to 20)
#    0.000    1.500    2.500    2.250    0.000    6.500 
#    0.000    3.750    0.000    0.000    0.000    0.000 
#    0.000    0.000    0.000    0.000    0.000    0.000 
#
# Total GULP energy -793906.702198 kJ/mol
# GULP energy per Si atom -12404.792222 kJ/mol
# Density = 1.967182 g / cm^3
# Si number density = 19.716697 Si / 1000 Ang^3
#
#
#
# Elastic Constant Matrix: (Units=GPa)
#
#
# Indices 1 2 3 4 5 6 
#
# 1 81.9062 20.5983 30.5973 0.0000 0.0000 0.0000
# 2 20.5983 140.8178 41.0758 0.0000 0.0000 0.0000
# 3 30.5973 41.0758 58.0888 0.0000 0.0000 0.0000
# 4 0.0000 0.0000 0.0000 41.3826 0.0000 0.0000
# 5 0.0000 0.0000 0.0000 0.0000 31.4351 0.0000
# 6 0.0000 0.0000 0.0000 0.0000 0.0000 7.1392
#
#
#
# Elastic Compliance Matrix: (Units=1/GPa)
#
#
# Indices 1 2 3 4 5 6 
#
# 1 0.015202 0.000141 -0.008107 0.000000 0.000000 0.000000
# 2 0.000141 0.008948 -0.006402 0.000000 0.000000 0.000000
# 3 -0.008107 -0.006402 0.026012 0.000000 0.000000 0.000000
# 4 0.000000 0.000000 0.000000 0.024165 0.000000 0.000000
# 5 0.000000 0.000000 0.000000 0.000000 0.031812 0.000000
# 6 0.000000 0.000000 0.000000 0.000000 0.000000 0.140071
#
#
# Mechanical properties :
#
#
# Convention : Reuss Voigt Hill
#
# Bulk Modulus (GPa) = 46.67073 51.70618 49.18846
# Shear Modulus (GPa) = 17.72497 28.56082 23.14289
#
# Velocity S-wave (km/s) = 3.00156 3.81012 3.42975
# Velocity P-wave (km/s) = 5.97783 6.75556 6.37856
#
# Compressibility (1/GPa) = 0.02142671
#
# Stress axis : x y z
#
# Youngs Moduli (GPa) = 65.77989 111.75582 38.44341
#
# Poissons Ratio (x) = -0.01577 0.31167
# Poissons Ratio (y) = -0.00929 0.24610
# Poissons Ratio (z) = 0.53330 0.71543
#
# Static dielectric constant tensor:
#      x y z
#    x 3.791780 0.000000 0.000000 
#    y 0.000000 3.742050 0.000000 
#    z 0.000000 0.000000 3.433050 
# 
# 
# High freq. dielectric constant tensor:
#      x y z
#    x 1.768050 0.000000 0.000000 
#    y 0.000000 1.784650 0.000000 
#    z 0.000000 0.000000 1.769010 
# 
# From -- ./inp_files/9361.got.cif
#   From: 2010.03.12/outbox.cif.g09.slc.cpg/sg57_5_cif.got.tgz:9361.got - 2010.04.16 15:48:40.
