data_PCOD8233774
_publ_section_title
;
Structure prediction by ZEFSAII (Michael W. Deem and Ramdas Pophale) SiO2 
 PCOD8233774
Probable space group: P B C M
;
_chemical_formula_sum "Si O2"
_cell_formula_units_Z 48
_cell_length_a 11.916330
_cell_length_b 11.897649
_cell_length_c 17.169193
_cell_angle_alpha 90.000000
_cell_angle_beta 90.000000
_cell_angle_gamma 90.000000
_cell_volume 2434.184859
_symmetry_space_group_name_H-M "P B C M"
_symmetry_group_IT_number 57
_symmetry_cell_setting 'orthorhombic'
loop_
_space_group_symop_operation_xyz
x,y,z
-x,-y,1/2+z
x,1/2-y,-z
-x,1/2+y,1/2-z
-x,-y,-z
x,y,1/2-z
-x,1/2+y,z
x,1/2-y,1/2+z
loop_
_atom_site_type_symbol
_atom_site_label
_atom_site_fract_x
_atom_site_fract_y
_atom_site_fract_z
Si Si1 0.725389 0.698341 0.158043
Si Si2 0.408420 0.984605 0.342277
Si Si3 0.797338 0.133996 0.903008
Si Si4 0.834032 0.111012 0.416337
Si Si5 0.661433 0.941868 0.342534
Si Si6 0.936798 0.939381 0.660400
O O1 0.718667 0.706128 0.250000
O O2 0.632708 0.607962 0.129734
O O3 0.698889 0.820765 0.122594
O O4 0.849694 0.657731 0.133068
O O5 0.395487 0.970363 0.250000
O O6 0.332603 0.890071 0.383592
O O7 0.535160 0.966572 0.370005
O O8 0.821742 0.263154 0.884410
O O9 0.877271 0.060108 0.847836
O O10 0.822303 0.103302 0.991702
O O11 0.955503 0.064271 0.394079
O O12 0.738979 0.037145 0.377126
O O13 0.671851 0.944322 0.250000
O O14 0.972655 0.923379 0.750000
#
# Coordination Sequence:
#
# PCOD8233774 Si02
#       6
#     8   8   8   8   8   8
#     4   8  17  35  55  84 116 145 186 238 295 340
#     4   9  19  37  62  85 114 155 195 243 295 343
#     4  10  23  42  58  83 121 160 193 237 296 357
#     4  11  24  38  58  88 120 156 195 241 291 351
#     4  10  21  35  59  91 117 147 198 250 285 341
#     4  10  21  39  63  85 115 155 197 243 291 347
#
# _framework density 19.719127
#
# number of rings (size 3 to 8) (size 9 to 14) (size 15 to 20)
#    0.000    2.333    0.000    2.500    4.667    3.333 
#    0.000    2.500    0.000    0.000    0.000    0.000 
#    0.000    0.000    0.000    0.000    0.000    0.000 
#
# Total GULP energy -595290.442610 kJ/mol
# GULP energy per Si atom -12401.884221 kJ/mol
# Density = 1.967425 g / cm^3
# Si number density = 19.719127 Si / 1000 Ang^3
#
#
#
# Elastic Constant Matrix: (Units=GPa)
#
#
# Indices 1 2 3 4 5 6 
#
# 1 147.8161 53.9669 37.8943 0.0000 0.0000 0.0000
# 2 53.9669 99.3873 24.1714 0.0000 0.0000 0.0000
# 3 37.8943 24.1714 39.0881 0.0000 0.0000 0.0000
# 4 0.0000 0.0000 0.0000 34.4692 0.0000 0.0000
# 5 0.0000 0.0000 0.0000 0.0000 28.8006 0.0000
# 6 0.0000 0.0000 0.0000 0.0000 0.0000 23.4089
#
#
#
# Elastic Compliance Matrix: (Units=1/GPa)
#
#
# Indices 1 2 3 4 5 6 
#
# 1 0.009996 -0.003615 -0.007456 0.000000 0.000000 0.000000
# 2 -0.003615 0.013150 -0.004627 0.000000 0.000000 0.000000
# 3 -0.007456 -0.004627 0.035673 0.000000 0.000000 0.000000
# 4 0.000000 0.000000 0.000000 0.029011 0.000000 0.000000
# 5 0.000000 0.000000 0.000000 0.000000 0.034721 0.000000
# 6 0.000000 0.000000 0.000000 0.000000 0.000000 0.042719
#
#
# Mechanical properties :
#
#
# Convention : Reuss Voigt Hill
#
# Bulk Modulus (GPa) = 36.46532 57.59520 47.03026
# Shear Modulus (GPa) = 24.29466 28.68635 26.49051
#
# Velocity S-wave (km/s) = 3.51384 3.81825 3.66921
# Velocity P-wave (km/s) = 5.91568 6.97925 6.46936
#
# Compressibility (1/GPa) = 0.02742331
#
# Stress axis : x y z
#
# Youngs Moduli (GPa) = 100.03806 76.04694 28.03272
#
# Poissons Ratio (x) = 0.27488 0.20900
# Poissons Ratio (y) = 0.36160 0.12972
# Poissons Ratio (z) = 0.74585 0.35189
#
# Static dielectric constant tensor:
#      x y z
#    x 3.686630 0.000000 0.000000 
#    y 0.000000 3.904350 0.000000 
#    z 0.000000 0.000000 3.362480 
# 
# 
# High freq. dielectric constant tensor:
#      x y z
#    x 1.777750 0.000000 0.000000 
#    y 0.000000 1.776800 0.000000 
#    z 0.000000 0.000000 1.748630 
# 
# From -- ./inp_files/21797.got.cif
#   From: 2010.03.12/outbox.cif.g09.slc.cpg/sg57_11_cif.got.tgz:21797.got - 2010.04.16 15:48:40.
