data_PCOD8233115
_publ_section_title
;
Structure prediction by ZEFSAII (Michael W. Deem and Ramdas Pophale) SiO2 
 PCOD8233115
Probable space group: P B C M
;
_chemical_formula_sum "Si O2"
_cell_formula_units_Z 64
_cell_length_a 18.592734
_cell_length_b 19.414888
_cell_length_c 9.028798
_cell_angle_alpha 90.000000
_cell_angle_beta 90.000000
_cell_angle_gamma 90.000000
_cell_volume 3259.178016
_symmetry_space_group_name_H-M "P B C M"
_symmetry_group_IT_number 57
_symmetry_cell_setting 'orthorhombic'
loop_
_space_group_symop_operation_xyz
x,y,z
-x,-y,1/2+z
x,1/2-y,-z
-x,1/2+y,1/2-z
-x,-y,-z
x,y,1/2-z
-x,1/2+y,z
x,1/2-y,1/2+z
loop_
_atom_site_type_symbol
_atom_site_label
_atom_site_fract_x
_atom_site_fract_y
_atom_site_fract_z
Si Si1 0.943039 0.951109 0.418544
Si Si2 0.801249 0.510491 0.074032
Si Si3 0.029655 0.815466 0.081548
Si Si4 0.547833 0.824489 0.577437
Si Si5 0.643173 0.552353 0.077425
Si Si6 0.317145 0.685477 0.085872
Si Si7 0.578266 0.426942 0.923527
Si Si8 0.832227 0.370381 0.918983
O O1 0.934648 0.977791 0.250000
O O2 0.866400 0.948026 0.499308
O O3 0.970073 0.873683 0.421188
O O4 0.000000 0.000000 0.500000
O O5 0.809533 0.514768 0.250000
O O6 0.724774 0.541514 0.019422
O O7 0.808116 0.432484 0.022495
O O8 0.053037 0.798534 0.250000
O O9 0.994613 0.750000 0.000000
O O10 0.098215 0.835796 0.985825
O O11 0.549309 0.750000 0.500000
O O12 0.538080 0.809220 0.750000
O O13 0.620935 0.868145 0.545267
O O14 0.484647 0.875623 0.520729
O O15 0.639045 0.535765 0.250000
O O16 0.584260 0.500779 0.004101
O O17 0.346457 0.696870 0.250000
O O18 0.347910 0.612318 0.031637
O O19 0.231082 0.685607 0.077240
O O20 0.349735 0.750000 0.000000
O O21 0.569954 0.442455 0.750000
O O22 0.846500 0.395080 0.750000
#
# Coordination Sequence:
#
# PCOD8233115 Si02
#       8
#     8   8   8   8   8   8   8   8
#     4  11  23  39  62  89 118 153 196 240 290 349
#     4  11  22  37  59  87 118 154 198 247 297 350
#     4  11  24  40  59  86 118 153 194 238 292 353
#     4  10  22  40  61  87 119 155 199 247 300 357
#     4  10  22  39  60  88 119 154 198 247 296 351
#     4  10  21  33  48  77 114 154 193 232 281 342
#     4  10  20  36  58  86 118 152 194 242 292 353
#     4  11  21  35  56  81 116 156 196 240 289 349
#
# _framework density 19.636854
#
# number of rings (size 3 to 8) (size 9 to 14) (size 15 to 20)
#    0.000    1.500    2.500    2.625    0.000    5.500 
#    0.000    0.625    0.000    3.000    0.000    0.000 
#    0.000    0.000    0.000    0.000    0.000    0.000 
#
# Total GULP energy -793381.420334 kJ/mol
# GULP energy per Si atom -12396.584693 kJ/mol
# Density = 1.959216 g / cm^3
# Si number density = 19.636854 Si / 1000 Ang^3
#
#
#
# Elastic Constant Matrix: (Units=GPa)
#
#
# Indices 1 2 3 4 5 6 
#
# 1 87.8069 43.4541 37.9112 0.0000 0.0000 0.0000
# 2 43.4541 120.0691 46.4357 0.0000 0.0000 0.0000
# 3 37.9112 46.4357 86.2010 0.0000 0.0000 0.0000
# 4 0.0000 0.0000 0.0000 35.6746 0.0000 0.0000
# 5 0.0000 0.0000 0.0000 0.0000 25.4983 0.0000
# 6 0.0000 0.0000 0.0000 0.0000 0.0000 18.6295
#
#
#
# Elastic Compliance Matrix: (Units=1/GPa)
#
#
# Indices 1 2 3 4 5 6 
#
# 1 0.015255 -0.003696 -0.004718 0.000000 0.000000 0.000000
# 2 -0.003696 0.011416 -0.004524 0.000000 0.000000 0.000000
# 3 -0.004718 -0.004524 0.016113 0.000000 0.000000 0.000000
# 4 0.000000 0.000000 0.000000 0.028031 0.000000 0.000000
# 5 0.000000 0.000000 0.000000 0.000000 0.039218 0.000000
# 6 0.000000 0.000000 0.000000 0.000000 0.000000 0.053678
#
#
# Mechanical properties :
#
#
# Convention : Reuss Voigt Hill
#
# Bulk Modulus (GPa) = 59.14678 61.07544 60.11111
# Shear Modulus (GPa) = 25.61169 27.04554 26.32861
#
# Velocity S-wave (km/s) = 3.61538 3.71520 3.66563
# Velocity P-wave (km/s) = 6.90026 7.04085 6.97091
#
# Compressibility (1/GPa) = 0.01690709
#
# Stress axis : x y z
#
# Youngs Moduli (GPa) = 65.55305 87.59733 62.06248
#
# Poissons Ratio (x) = 0.32378 0.29281
# Poissons Ratio (y) = 0.24230 0.28077
# Poissons Ratio (z) = 0.30927 0.39629
#
# Static dielectric constant tensor:
#      x y z
#    x 3.748290 0.000000 0.000000 
#    y 0.000000 3.654580 0.000000 
#    z 0.000000 0.000000 3.653510 
# 
# 
# High freq. dielectric constant tensor:
#      x y z
#    x 1.766920 0.000000 0.000000 
#    y 0.000000 1.762910 0.000000 
#    z 0.000000 0.000000 1.767080 
# 
# From -- ./inp_files/8398.got.cif
#   From: 2010.03.12/outbox.cif.g09.slc.cpg/sg57_5_cif.got.tgz:8398.got - 2010.04.16 15:48:40.
