data_PCOD8233693
_publ_section_title
;
Structure prediction by ZEFSAII (Michael W. Deem and Ramdas Pophale) SiO2 
 PCOD8233693
Probable space group: P B C M
;
_chemical_formula_sum "Si O2"
_cell_formula_units_Z 48
_cell_length_a 13.750277
_cell_length_b 9.438845
_cell_length_c 18.898673
_cell_angle_alpha 90.000000
_cell_angle_beta 90.000000
_cell_angle_gamma 90.000000
_cell_volume 2452.797033
_symmetry_space_group_name_H-M "P B C M"
_symmetry_group_IT_number 57
_symmetry_cell_setting 'orthorhombic'
loop_
_space_group_symop_operation_xyz
x,y,z
-x,-y,1/2+z
x,1/2-y,-z
-x,1/2+y,1/2-z
-x,-y,-z
x,y,1/2-z
-x,1/2+y,z
x,1/2-y,1/2+z
loop_
_atom_site_type_symbol
_atom_site_label
_atom_site_fract_x
_atom_site_fract_y
_atom_site_fract_z
Si Si1 0.075727 0.036622 0.667846
Si Si2 0.230189 0.803817 0.828886
Si Si3 0.414272 0.340368 0.071838
Si Si4 0.145439 0.496419 0.669880
Si Si5 0.587685 0.168111 0.427136
Si Si6 0.794117 0.756789 0.083951
O O1 0.080924 0.083331 0.750000
O O2 0.135579 0.894972 0.651876
O O3 0.965566 0.009356 0.644580
O O4 0.116699 0.161270 0.619268
O O5 0.266205 0.841136 0.750000
O O6 0.199912 0.643264 0.835098
O O7 0.316542 0.837891 0.881145
O O8 0.443159 0.504356 0.059514
O O9 0.501429 0.256968 0.113405
O O10 0.308169 0.329010 0.107870
O O11 0.407956 0.250000 0.000000
O O12 0.149136 0.436028 0.750000
O O13 0.204914 0.400061 0.615562
O O14 0.611149 0.250000 0.500000
O O15 0.807852 0.750000 0.000000
#
# Coordination Sequence:
#
# PCOD8233693 Si02
#       6
#     8   8   8   8   8   8
#     4  10  20  41  63  84 117 162 203 238 290 354
#     4  10  22  38  59  89 119 150 199 249 294 342
#     4  10  22  38  61  91 116 155 196 238 293 358
#     4  10  22  39  63  86 115 162 204 237 287 358
#     4  11  22  39  65  86 117 158 196 241 291 357
#     4  11  23  37  59  92 124 149 195 249 296 345
#
# _framework density 19.569495
#
# number of rings (size 3 to 8) (size 9 to 14) (size 15 to 20)
#    0.000    1.667    1.667    3.500    7.000    3.333 
#    0.000    4.167    0.000    0.000    0.000    0.000 
#    0.000    0.000    0.000    0.000    0.000    0.000 
#
# Total GULP energy -595032.582517 kJ/mol
# GULP energy per Si atom -12396.512136 kJ/mol
# Density = 1.952495 g / cm^3
# Si number density = 19.569495 Si / 1000 Ang^3
#
#
#
# Elastic Constant Matrix: (Units=GPa)
#
#
# Indices 1 2 3 4 5 6 
#
# 1 87.1932 32.3015 31.9460 0.0000 0.0000 0.0000
# 2 32.3015 120.9582 29.4147 0.0000 0.0000 0.0000
# 3 31.9460 29.4147 61.1108 0.0000 0.0000 0.0000
# 4 0.0000 0.0000 0.0000 29.8040 0.0000 0.0000
# 5 0.0000 0.0000 0.0000 0.0000 0.1786 0.0000
# 6 0.0000 0.0000 0.0000 0.0000 0.0000 16.9918
#
#
#
# Elastic Compliance Matrix: (Units=1/GPa)
#
#
# Indices 1 2 3 4 5 6 
#
# 1 0.014747 -0.002337 -0.006584 0.000000 0.000000 0.000000
# 2 -0.002337 0.009734 -0.003463 0.000000 0.000000 0.000000
# 3 -0.006584 -0.003463 0.021473 0.000000 0.000000 0.000000
# 4 0.000000 0.000000 0.000000 0.033553 0.000000 0.000000
# 5 0.000000 0.000000 0.000000 0.000000 5.597924 0.000000
# 6 0.000000 0.000000 0.000000 0.000000 0.000000 0.058852
#
#
# Mechanical properties :
#
#
# Convention : Reuss Voigt Hill
#
# Bulk Modulus (GPa) = 47.20536 50.73186 48.96861
# Shear Modulus (GPa) = 0.86683 21.10155 10.98419
#
# Velocity S-wave (km/s) = 0.66627 3.28729 2.37173
# Velocity P-wave (km/s) = 4.97656 6.35520 5.70766
#
# Compressibility (1/GPa) = 0.02118404
#
# Stress axis : x y z
#
# Youngs Moduli (GPa) = 67.81112 102.73642 46.57080
#
# Poissons Ratio (x) = 0.24009 0.30663
# Poissons Ratio (y) = 0.15847 0.16130
# Poissons Ratio (z) = 0.44648 0.35582
#
# Static dielectric constant tensor:
#      x y z
#    x 4.117410 0.000000 0.000000 
#    y 0.000000 3.754870 0.000000 
#    z 0.000000 0.000000 3.425010 
# 
# 
# High freq. dielectric constant tensor:
#      x y z
#    x 1.776590 0.000000 0.000000 
#    y 0.000000 1.781880 0.000000 
#    z 0.000000 0.000000 1.733670 
# 
# From -- ./inp_files/22399.got.cif
#   From: 2010.03.12/outbox.cif.g09.slc.cpg/sg57_12_cif.got.tgz:22399.got - 2010.04.16 15:48:40.
