data_PCOD8233146
_publ_section_title
;
Structure prediction by ZEFSAII (Michael W. Deem and Ramdas Pophale) SiO2 
 PCOD8233146
Probable space group: P B C M
;
_chemical_formula_sum "Si O2"
_cell_formula_units_Z 40
_cell_length_a 25.825646
_cell_length_b 9.121335
_cell_length_c 8.575271
_cell_angle_alpha 90.000000
_cell_angle_beta 90.000000
_cell_angle_gamma 90.000000
_cell_volume 2020.028300
_symmetry_space_group_name_H-M "P B C M"
_symmetry_group_IT_number 57
_symmetry_cell_setting 'orthorhombic'
loop_
_space_group_symop_operation_xyz
x,y,z
-x,-y,1/2+z
x,1/2-y,-z
-x,1/2+y,1/2-z
-x,-y,-z
x,y,1/2-z
-x,1/2+y,z
x,1/2-y,1/2+z
loop_
_atom_site_type_symbol
_atom_site_label
_atom_site_fract_x
_atom_site_fract_y
_atom_site_fract_z
Si Si1 0.047665 0.912644 0.067157
Si Si2 0.735195 0.087063 0.431925
Si Si3 0.356860 0.088153 0.066011
Si Si4 0.451907 0.588123 0.065467
Si Si5 0.849864 0.409175 0.929840
O O1 0.042486 0.908585 0.250000
O O2 0.046876 0.750000 0.000000
O O3 0.102396 0.990408 0.017920
O O4 0.000000 0.000000 0.000000
O O5 0.729382 0.250000 0.500000
O O6 0.719965 0.092683 0.250000
O O7 0.793208 0.019067 0.453063
O O8 0.699296 0.975151 0.525020
O O9 0.365317 0.090911 0.250000
O O10 0.363080 0.250000 0.000000
O O11 0.398788 0.984651 0.986966
O O12 0.454980 0.592189 0.250000
O O13 0.454385 0.750000 0.000000
O O14 0.500000 0.500000 0.000000
O O15 0.865300 0.398628 0.750000
O O16 0.843987 0.250000 0.000000
#
# Coordination Sequence:
#
# PCOD8233146 Si02
#       5
#     8   8   8   8   8
#     4  11  21  35  55  80 111 146 187 233 285 341
#     4  10  20  36  59  87 116 149 190 237 285 339
#     4  12  25  42  62  87 120 158 197 240 290 344
#     4  12  25  44  67  94 125 159 199 242 290 342
#     4   9  17  31  53  80 110 144 186 232 282 338
#
# _framework density 19.801701999999999
#
# number of rings (size 3 to 8) (size 9 to 14) (size 15 to 20)
#    0.000    1.200    0.000    9.000    0.000    2.400 
#    0.000    1.000    0.000    4.800    0.000    0.000 
#    0.000    0.000    0.000    0.000    0.000    0.000 
#
# Total GULP energy -495943.536752 kJ/mol
# GULP energy per Si atom -12398.588419 kJ/mol
# Density = 1.975663 g / cm^3
# Si number density = 19.801702 Si / 1000 Ang^3
#
#
#
# Elastic Constant Matrix: (Units=GPa)
#
#
# Indices 1 2 3 4 5 6 
#
# 1 153.9009 59.9953 67.7407 0.0000 0.0000 0.0000
# 2 59.9953 107.2183 55.0239 0.0000 0.0000 0.0000
# 3 67.7407 55.0239 191.2888 0.0000 0.0000 0.0000
# 4 0.0000 0.0000 0.0000 34.2163 0.0000 0.0000
# 5 0.0000 0.0000 0.0000 0.0000 41.1434 0.0000
# 6 0.0000 0.0000 0.0000 0.0000 0.0000 34.2043
#
#
#
# Elastic Compliance Matrix: (Units=1/GPa)
#
#
# Indices 1 2 3 4 5 6 
#
# 1 0.008932 -0.003959 -0.002024 0.000000 0.000000 0.000000
# 2 -0.003959 0.012697 -0.002250 0.000000 0.000000 0.000000
# 3 -0.002024 -0.002250 0.006592 0.000000 0.000000 0.000000
# 4 0.000000 0.000000 0.000000 0.029226 0.000000 0.000000
# 5 0.000000 0.000000 0.000000 0.000000 0.024305 0.000000
# 6 0.000000 0.000000 0.000000 0.000000 0.000000 0.029236
#
#
# Mechanical properties :
#
#
# Convention : Reuss Voigt Hill
#
# Bulk Modulus (GPa) = 85.08057 90.88085 87.98071
# Shear Modulus (GPa) = 38.05949 39.88933 38.97441
#
# Velocity S-wave (km/s) = 4.38885 4.49312 4.44129
# Velocity P-wave (km/s) = 8.29110 8.53889 8.41590
#
# Compressibility (1/GPa) = 0.01175357
#
# Stress axis : x y z
#
# Youngs Moduli (GPa) = 111.95566 78.75880 151.70356
#
# Poissons Ratio (x) = 0.31182 0.30708
# Poissons Ratio (y) = 0.44326 0.34136
# Poissons Ratio (z) = 0.22663 0.17722
#
# Static dielectric constant tensor:
#      x y z
#    x 4.717950 0.000000 0.000000 
#    y 0.000000 3.387420 0.000000 
#    z 0.000000 0.000000 3.892090 
# 
# 
# High freq. dielectric constant tensor:
#      x y z
#    x 1.802080 0.000000 0.000000 
#    y 0.000000 1.742930 0.000000 
#    z 0.000000 0.000000 1.797610 
# 
# From -- ./inp_files/8922.got.cif
#   From: 2010.03.12/outbox.cif.g09.slc.cpg/sg57_5_cif.got.tgz:8922.got - 2010.04.16 15:48:40.
