data_PCOD8233113
_publ_section_title
;
Structure prediction by ZEFSAII (Michael W. Deem and Ramdas Pophale) SiO2 
 PCOD8233113
Probable space group: P B C M
;
_chemical_formula_sum "Si O2"
_cell_formula_units_Z 56
_cell_length_a 21.246668
_cell_length_b 15.454011
_cell_length_c 8.749895
_cell_angle_alpha 90.000000
_cell_angle_beta 90.000000
_cell_angle_gamma 90.000000
_cell_volume 2872.995132
_symmetry_space_group_name_H-M "P B C M"
_symmetry_group_IT_number 57
_symmetry_cell_setting 'orthorhombic'
loop_
_space_group_symop_operation_xyz
x,y,z
-x,-y,1/2+z
x,1/2-y,-z
-x,1/2+y,1/2-z
-x,-y,-z
x,y,1/2-z
-x,1/2+y,z
x,1/2-y,1/2+z
loop_
_atom_site_type_symbol
_atom_site_label
_atom_site_fract_x
_atom_site_fract_y
_atom_site_fract_z
Si Si1 0.437440 0.159834 0.069034
Si Si2 0.874014 0.661576 0.568341
Si Si3 0.864471 0.339807 0.570178
Si Si4 0.210936 0.496330 0.430767
Si Si5 0.000649 0.094707 0.430929
Si Si6 0.572493 0.339964 0.069196
Si Si7 0.346561 0.004605 0.428900
O O1 0.443653 0.168503 0.250000
O O2 0.390067 0.084355 0.020264
O O3 0.412091 0.250000 0.000000
O O4 0.505124 0.136230 0.000693
O O5 0.845674 0.750000 0.500000
O O6 0.876590 0.665988 0.750000
O O7 0.829745 0.584386 0.508371
O O8 0.943979 0.650217 0.504142
O O9 0.841038 0.250000 0.500000
O O10 0.857210 0.334200 0.750000
O O11 0.819898 0.415756 0.503857
O O12 0.936111 0.358328 0.522666
O O13 0.208373 0.497298 0.250000
O O14 0.281826 0.486423 0.483402
O O15 0.008876 0.088405 0.250000
O O16 0.000000 0.000000 0.500000
O O17 0.565215 0.331037 0.250000
O O18 0.620733 0.415024 0.022780
O O19 0.598225 0.250000 0.000000
O O20 0.333132 0.007083 0.250000
#
# Coordination Sequence:
#
# PCOD8233113 Si02
#       7
#     8   8   8   8   8   8   8
#     4  10  20  36  58  86 117 147 185 233 281 336
#     4  11  23  41  61  87 118 151 196 243 293 353
#     4  10  22  40  59  85 115 148 190 236 286 343
#     4  10  23  42  59  79 115 155 193 239 285 341
#     4  11  21  37  62  89 120 152 189 241 296 349
#     4  10  20  36  58  86 117 148 186 233 281 335
#     4  10  23  39  57  83 115 150 193 235 279 339
#
# _framework density 19.491855000000001
#
# number of rings (size 3 to 8) (size 9 to 14) (size 15 to 20)
#    0.000    1.714    1.429    3.429    0.000    7.429 
#    0.000    5.714    0.000    0.000    0.000    0.000 
#    0.000    0.000    0.000    0.000    0.000    0.000 
#
# Total GULP energy -694614.006381 kJ/mol
# GULP energy per Si atom -12403.821543 kJ/mol
# Density = 1.944749 g / cm^3
# Si number density = 19.491855 Si / 1000 Ang^3
#
#
#
# Elastic Constant Matrix: (Units=GPa)
#
#
# Indices 1 2 3 4 5 6 
#
# 1 94.0404 49.4616 27.5776 0.0000 0.0000 0.0000
# 2 49.4616 141.3870 33.3927 0.0000 0.0000 0.0000
# 3 27.5776 33.3927 59.2152 0.0000 0.0000 0.0000
# 4 0.0000 0.0000 0.0000 33.0135 0.0000 0.0000
# 5 0.0000 0.0000 0.0000 0.0000 32.6760 0.0000
# 6 0.0000 0.0000 0.0000 0.0000 0.0000 16.2903
#
#
#
# Elastic Compliance Matrix: (Units=1/GPa)
#
#
# Indices 1 2 3 4 5 6 
#
# 1 0.013925 -0.003853 -0.004312 0.000000 0.000000 0.000000
# 2 -0.003853 0.009226 -0.003408 0.000000 0.000000 0.000000
# 3 -0.004312 -0.003408 0.020818 0.000000 0.000000 0.000000
# 4 0.000000 0.000000 0.000000 0.030291 0.000000 0.000000
# 5 0.000000 0.000000 0.000000 0.000000 0.030604 0.000000
# 6 0.000000 0.000000 0.000000 0.000000 0.000000 0.061386
#
#
# Mechanical properties :
#
#
# Convention : Reuss Voigt Hill
#
# Bulk Modulus (GPa) = 48.02726 57.27851 52.65288
# Shear Modulus (GPa) = 25.46660 28.67667 27.07164
#
# Velocity S-wave (km/s) = 3.61851 3.83980 3.73080
# Velocity P-wave (km/s) = 6.49240 7.00774 6.75499
#
# Compressibility (1/GPa) = 0.02082151
#
# Stress axis : x y z
#
# Youngs Moduli (GPa) = 71.81450 108.39438 48.03581
#
# Poissons Ratio (x) = 0.41763 0.20715
# Poissons Ratio (y) = 0.27669 0.16371
# Poissons Ratio (z) = 0.30969 0.36943
#
# Static dielectric constant tensor:
#      x y z
#    x 3.552680 0.000000 0.000000 
#    y 0.000000 3.064060 0.000000 
#    z 0.000000 0.000000 3.497160 
# 
# 
# High freq. dielectric constant tensor:
#      x y z
#    x 1.754250 0.000000 0.000000 
#    y 0.000000 1.779090 0.000000 
#    z 0.000000 0.000000 1.759950 
# 
# From -- ./inp_files/8184.got.cif
#   From: 2010.03.12/outbox.cif.g09.slc.cpg/sg57_5_cif.got.tgz:8184.got - 2010.04.16 15:48:40.
