data_PCOD8233037
_publ_section_title
;
Structure prediction by ZEFSAII (Michael W. Deem and Ramdas Pophale) SiO2 
 PCOD8233037
Probable space group: P B C M
;
_chemical_formula_sum "Si O2"
_cell_formula_units_Z 48
_cell_length_a 9.680554
_cell_length_b 29.275805
_cell_length_c 9.318967
_cell_angle_alpha 90.000000
_cell_angle_beta 90.000000
_cell_angle_gamma 90.000000
_cell_volume 2641.051266
_symmetry_space_group_name_H-M "P B C M"
_symmetry_group_IT_number 57
_symmetry_cell_setting 'orthorhombic'
loop_
_space_group_symop_operation_xyz
x,y,z
-x,-y,1/2+z
x,1/2-y,-z
-x,1/2+y,1/2-z
-x,-y,-z
x,y,1/2-z
-x,1/2+y,z
x,1/2-y,1/2+z
loop_
_atom_site_type_symbol
_atom_site_label
_atom_site_fract_x
_atom_site_fract_y
_atom_site_fract_z
Si Si1 0.222484 0.705670 0.584298
Si Si2 0.379915 0.476857 0.087620
Si Si3 0.721527 0.879874 0.420152
Si Si4 0.461483 0.295719 0.418664
Si Si5 0.037056 0.620061 0.918935
Si Si6 0.101810 0.532059 0.413807
O O1 0.172456 0.750000 0.500000
O O2 0.210109 0.717840 0.750000
O O3 0.379734 0.692267 0.544904
O O4 0.120553 0.665262 0.541050
O O5 0.431722 0.469932 0.250000
O O6 0.339384 0.427598 0.019620
O O7 0.251811 0.510545 0.082215
O O8 0.500000 0.500000 0.000000
O O9 0.716482 0.881594 0.250000
O O10 0.630975 0.837534 0.477591
O O11 0.879359 0.873830 0.470736
O O12 0.414112 0.250000 0.500000
O O13 0.438627 0.287950 0.250000
O O14 0.045735 0.608440 0.750000
O O15 0.109873 0.580519 0.008609
O O16 0.049903 0.537303 0.250000
O O17 0.000000 0.500000 0.500000
#
# Coordination Sequence:
#
# PCOD8233037 Si02
#       6
#     8   8   8   8   8   8
#     4   9  19  34  55  79 105 140 179 221 271 326
#     4  10  22  38  56  81 111 145 183 226 272 323
#     4   9  18  35  55  76 107 141 177 219 265 321
#     4   9  18  34  54  76 103 139 178 219 269 321
#     4  10  20  36  57  81 109 145 183 224 276 329
#     4  11  22  38  58  82 113 148 185 227 275 328
#
# _framework density 18.174582999999998
#
# number of rings (size 3 to 8) (size 9 to 14) (size 15 to 20)
#    0.000    2.333    1.667    0.500    2.333    2.667 
#    0.000    1.667    0.000    0.000    0.000    0.000 
#    0.000    0.000    0.000    0.000    0.000    0.000 
#
# Total GULP energy -595259.543395 kJ/mol
# GULP energy per Si atom -12401.240487 kJ/mol
# Density = 1.813322 g / cm^3
# Si number density = 18.174583 Si / 1000 Ang^3
#
#
#
# Elastic Constant Matrix: (Units=GPa)
#
#
# Indices 1 2 3 4 5 6 
#
# 1 94.1763 80.4135 38.2629 0.0000 0.0000 0.0000
# 2 80.4135 176.5284 59.6432 0.0000 0.0000 0.0000
# 3 38.2629 59.6432 63.7656 0.0000 0.0000 0.0000
# 4 0.0000 0.0000 0.0000 35.7969 0.0000 0.0000
# 5 0.0000 0.0000 0.0000 0.0000 25.4655 0.0000
# 6 0.0000 0.0000 0.0000 0.0000 0.0000 39.0469
#
#
#
# Elastic Compliance Matrix: (Units=1/GPa)
#
#
# Indices 1 2 3 4 5 6 
#
# 1 0.018274 -0.006754 -0.004648 0.000000 0.000000 0.000000
# 2 -0.006754 0.010778 -0.006029 0.000000 0.000000 0.000000
# 3 -0.004648 -0.006029 0.024111 0.000000 0.000000 0.000000
# 4 0.000000 0.000000 0.000000 0.027935 0.000000 0.000000
# 5 0.000000 0.000000 0.000000 0.000000 0.039269 0.000000
# 6 0.000000 0.000000 0.000000 0.000000 0.000000 0.025610
#
#
# Mechanical properties :
#
#
# Convention : Reuss Voigt Hill
#
# Bulk Modulus (GPa) = 54.64126 76.78995 65.71561
# Shear Modulus (GPa) = 26.74675 30.47191 28.60933
#
# Velocity S-wave (km/s) = 3.84038 4.09910 3.97185
# Velocity P-wave (km/s) = 7.05653 8.04652 7.56773
#
# Compressibility (1/GPa) = 0.01830119
#
# Stress axis : x y z
#
# Youngs Moduli (GPa) = 54.72390 92.77948 41.47540
#
# Poissons Ratio (x) = 0.62660 0.19278
# Poissons Ratio (y) = 0.36959 0.25005
# Poissons Ratio (z) = 0.25436 0.55936
#
# Static dielectric constant tensor:
#      x y z
#    x 3.339070 0.000000 0.000000 
#    y 0.000000 3.591020 0.000000 
#    z 0.000000 0.000000 2.592290 
# 
# 
# High freq. dielectric constant tensor:
#      x y z
#    x 1.708450 0.000000 0.000000 
#    y 0.000000 1.715260 0.000000 
#    z 0.000000 0.000000 1.684990 
# 
# From -- ./inp_files/2012.got.cif
#   From: 2010.03.12/outbox.cif.g09.slc.cpg/sg57_2_cif.got.tgz:2012.got - 2010.04.16 15:48:40.
