data_PCOD8233547
_publ_section_title
;
Structure prediction by ZEFSAII (Michael W. Deem and Ramdas Pophale) SiO2 
 PCOD8233547
Probable space group: P B C M
;
_chemical_formula_sum "Si O2"
_cell_formula_units_Z 48
_cell_length_a 9.445086
_cell_length_b 14.148776
_cell_length_c 16.205669
_cell_angle_alpha 90.000000
_cell_angle_beta 90.000000
_cell_angle_gamma 90.000000
_cell_volume 2165.667364
_symmetry_space_group_name_H-M "P B C M"
_symmetry_group_IT_number 57
_symmetry_cell_setting 'orthorhombic'
loop_
_space_group_symop_operation_xyz
x,y,z
-x,-y,1/2+z
x,1/2-y,-z
-x,1/2+y,1/2-z
-x,-y,-z
x,y,1/2-z
-x,1/2+y,z
x,1/2-y,1/2+z
loop_
_atom_site_type_symbol
_atom_site_label
_atom_site_fract_x
_atom_site_fract_y
_atom_site_fract_z
Si Si1 0.889283 0.855917 0.906283
Si Si2 0.683751 0.008334 0.914204
Si Si3 0.798677 0.841274 0.091832
Si Si4 0.490167 0.670862 0.654178
Si Si5 0.819851 0.456794 0.907729
Si Si6 0.546540 0.114800 0.343048
O O1 0.862058 0.752990 0.862069
O O2 0.053610 0.881414 0.911158
O O3 0.802582 0.943950 0.866063
O O4 0.821835 0.836717 0.994722
O O5 0.644927 0.106264 0.869358
O O6 0.541738 0.944110 0.910967
O O7 0.742846 0.033820 0.003949
O O8 0.631973 0.857334 0.106110
O O9 0.874818 0.939057 0.121670
O O10 0.522207 0.658465 0.750000
O O11 0.452730 0.776970 0.629559
O O12 0.708630 0.418425 0.841926
O O13 0.486055 0.100611 0.250000
#
# Coordination Sequence:
#
# PCOD8233547 Si02
#       6
#     8   8   8   8   8   8
#     4  10  23  39  64  96 128 163 211 266 321 380
#     4  11  21  40  66  95 123 165 218 266 314 376
#     4  10  20  38  63  87 131 165 206 263 322 383
#     4  11  24  39  63  95 127 170 219 265 321 380
#     4  11  24  40  65 100 130 167 213 266 325 380
#     4  11  24  41  62  94 131 169 214 264 318 380
#
# _framework density 22.164069999999999
#
# number of rings (size 3 to 8) (size 9 to 14) (size 15 to 20)
#    0.000    1.333    3.333    3.000    2.333    4.667 
#    0.000    2.500    0.000    6.000    0.000    0.000 
#    0.000    0.000    0.000    0.000    0.000    0.000 
#
# Total GULP energy -594671.589715 kJ/mol
# GULP energy per Si atom -12388.991452 kJ/mol
# Density = 2.211362 g / cm^3
# Si number density = 22.164070 Si / 1000 Ang^3
#
#
#
# Elastic Constant Matrix: (Units=GPa)
#
#
# Indices 1 2 3 4 5 6 
#
# 1 124.6606 47.4958 29.8740 0.0000 0.0000 0.0000
# 2 47.4958 149.5367 23.6979 0.0000 0.0000 0.0000
# 3 29.8740 23.6979 21.7934 0.0000 0.0000 0.0000
# 4 0.0000 0.0000 0.0000 9.0828 0.0000 0.0000
# 5 0.0000 0.0000 0.0000 0.0000 -9.5707 0.0000
# 6 0.0000 0.0000 0.0000 0.0000 0.0000 46.5522
#
#
#
# Elastic Compliance Matrix: (Units=1/GPa)
#
#
# Indices 1 2 3 4 5 6 
#
# 1 0.012212 -0.001481 -0.015129 0.000000 0.000000 0.000000
# 2 -0.001481 0.008259 -0.006951 0.000000 0.000000 0.000000
# 3 -0.015129 -0.006951 0.074183 0.000000 0.000000 0.000000
# 4 0.000000 0.000000 0.000000 0.110098 0.000000 0.000000
# 5 0.000000 0.000000 0.000000 0.000000 -0.104485 0.000000
# 6 0.000000 0.000000 0.000000 0.000000 0.000000 0.021481
#
#
# Mechanical properties :
#
#
# Convention : Reuss Voigt Hill
#
# Bulk Modulus (GPa) = 21.03866 55.34733 38.19300
# Shear Modulus (GPa) = 27.06902 22.20773 24.63838
#
# Velocity S-wave (km/s) = 3.49850 3.16882 3.33774
# Velocity P-wave (km/s) = 5.08254 6.19794 5.66775
#
# Compressibility (1/GPa) = 0.04753154
#
# Stress axis : x y z
#
# Youngs Moduli (GPa) = 81.88900 121.07603 13.48026
#
# Poissons Ratio (x) = 0.17932 0.20394
# Poissons Ratio (y) = 0.12128 0.09370
# Poissons Ratio (z) = 1.23890 0.84158
#
# Static dielectric constant tensor:
#      x y z
#    x 3.846150 0.000000 0.000000 
#    y 0.000000 5.121470 0.000000 
#    z 0.000000 0.000000 3.525150 
# 
# 
# High freq. dielectric constant tensor:
#      x y z
#    x 1.858840 0.000000 0.000000 
#    y 0.000000 1.908330 0.000000 
#    z 0.000000 0.000000 1.830690 
# 
# From -- ./inp_files/20924.got.cif
#   From: 2010.03.12/outbox.cif.g09.slc.cpg/sg57_11_cif.got.tgz:20924.got - 2010.04.16 15:48:40.
