data_PCOD8233128
_publ_section_title
;
Structure prediction by ZEFSAII (Michael W. Deem and Ramdas Pophale) SiO2 
 PCOD8233128
Probable space group: P B C M
;
_chemical_formula_sum "Si O2"
_cell_formula_units_Z 40
_cell_length_a 12.700263
_cell_length_b 18.044070
_cell_length_c 9.011941
_cell_angle_alpha 90.000000
_cell_angle_beta 90.000000
_cell_angle_gamma 90.000000
_cell_volume 2065.216364
_symmetry_space_group_name_H-M "P B C M"
_symmetry_group_IT_number 57
_symmetry_cell_setting 'orthorhombic'
loop_
_space_group_symop_operation_xyz
x,y,z
-x,-y,1/2+z
x,1/2-y,-z
-x,1/2+y,1/2-z
-x,-y,-z
x,y,1/2-z
-x,1/2+y,z
x,1/2-y,1/2+z
loop_
_atom_site_type_symbol
_atom_site_label
_atom_site_fract_x
_atom_site_fract_y
_atom_site_fract_z
Si Si1 0.887895 0.922710 0.921871
Si Si2 0.686046 0.828206 0.924213
Si Si3 0.488755 0.578407 0.423883
Si Si4 0.711831 0.173466 0.075224
Si Si5 0.100272 0.906527 0.077240
O O1 0.917189 0.910886 0.750000
O O2 0.783299 0.880049 0.969274
O O3 0.867741 0.008948 0.955789
O O4 0.982321 0.891041 0.021214
O O5 0.680696 0.815104 0.750000
O O6 0.579841 0.866906 0.982931
O O7 0.701250 0.750000 0.000000
O O8 0.500000 0.500000 0.500000
O O9 0.502183 0.565938 0.250000
O O10 0.376394 0.613051 0.465316
O O11 0.721186 0.185702 0.250000
O O12 0.677866 0.250000 0.000000
O O13 0.822972 0.147017 0.012133
O O14 0.107497 0.886871 0.250000
#
# Coordination Sequence:
#
# PCOD8233128 Si02
#       5
#     8   8   8   8   8
#     4   9  19  36  57  81 112 148 187 231 276 329
#     4  10  21  37  56  81 113 146 181 224 274 326
#     4  10  22  39  60  85 112 144 183 227 274 327
#     4  11  23  38  57  83 115 149 186 229 278 333
#     4  10  20  36  59  83 110 147 189 234 281 328
#
# _framework density 19.368431000000001
#
# number of rings (size 3 to 8) (size 9 to 14) (size 15 to 20)
#    0.000    2.000    0.000    3.000    0.000    6.400 
#    0.000    2.000    0.000    0.000    0.000    0.000 
#    0.000    0.000    0.000    0.000    0.000    0.000 
#
# Total GULP energy -496220.816018 kJ/mol
# GULP energy per Si atom -12405.520400 kJ/mol
# Density = 1.932435 g / cm^3
# Si number density = 19.368431 Si / 1000 Ang^3
#
#
#
# Elastic Constant Matrix: (Units=GPa)
#
#
# Indices 1 2 3 4 5 6 
#
# 1 94.6980 25.6171 42.9302 0.0000 0.0000 0.0000
# 2 25.6171 76.9454 40.1039 0.0000 0.0000 0.0000
# 3 42.9302 40.1039 71.0700 0.0000 0.0000 0.0000
# 4 0.0000 0.0000 0.0000 38.6983 0.0000 0.0000
# 5 0.0000 0.0000 0.0000 0.0000 23.7802 0.0000
# 6 0.0000 0.0000 0.0000 0.0000 0.0000 23.6540
#
#
#
# Elastic Compliance Matrix: (Units=1/GPa)
#
#
# Indices 1 2 3 4 5 6 
#
# 1 0.014550 -0.000373 -0.008578 0.000000 0.000000 0.000000
# 2 -0.000373 0.018421 -0.010169 0.000000 0.000000 0.000000
# 3 -0.008578 -0.010169 0.024991 0.000000 0.000000 0.000000
# 4 0.000000 0.000000 0.000000 0.025841 0.000000 0.000000
# 5 0.000000 0.000000 0.000000 0.000000 0.042052 0.000000
# 6 0.000000 0.000000 0.000000 0.000000 0.000000 0.042276
#
#
# Mechanical properties :
#
#
# Convention : Reuss Voigt Hill
#
# Bulk Modulus (GPa) = 50.70990 51.11287 50.91138
# Shear Modulus (GPa) = 23.48032 26.16399 24.82215
#
# Velocity S-wave (km/s) = 3.48559 3.67939 3.58380
# Velocity P-wave (km/s) = 6.51442 6.67065 6.59300
#
# Compressibility (1/GPa) = 0.01972002
#
# Stress axis : x y z
#
# Youngs Moduli (GPa) = 68.73008 54.28712 40.01470
#
# Poissons Ratio (x) = 0.02024 0.34326
# Poissons Ratio (y) = 0.02563 0.40692
# Poissons Ratio (z) = 0.58959 0.55206
#
# Static dielectric constant tensor:
#      x y z
#    x 3.772130 0.000000 0.000000 
#    y 0.000000 3.510860 0.000000 
#    z 0.000000 0.000000 3.561400 
# 
# 
# High freq. dielectric constant tensor:
#      x y z
#    x 1.767660 0.000000 0.000000 
#    y 0.000000 1.757500 0.000000 
#    z 0.000000 0.000000 1.752600 
# 
# From -- ./inp_files/2631.got.cif
#   From: 2010.03.12/outbox.cif.g09.slc.cpg/sg57_2_cif.got.tgz:2631.got - 2010.04.16 15:48:40.
