data_PCOD8233819
_publ_section_title
;
Structure prediction by ZEFSAII (Michael W. Deem and Ramdas Pophale) SiO2 
 PCOD8233819
Probable space group: P B C M
;
_chemical_formula_sum "Si O2"
_cell_formula_units_Z 36
_cell_length_a 8.973099
_cell_length_b 19.723978
_cell_length_c 10.041499
_cell_angle_alpha 90.000000
_cell_angle_beta 90.000000
_cell_angle_gamma 90.000000
_cell_volume 1777.196782
_symmetry_space_group_name_H-M "P B C M"
_symmetry_group_IT_number 57
_symmetry_cell_setting 'orthorhombic'
loop_
_space_group_symop_operation_xyz
x,y,z
-x,-y,1/2+z
x,1/2-y,-z
-x,1/2+y,1/2-z
-x,-y,-z
x,y,1/2-z
-x,1/2+y,z
x,1/2-y,1/2+z
loop_
_atom_site_type_symbol
_atom_site_label
_atom_site_fract_x
_atom_site_fract_y
_atom_site_fract_z
Si Si1 0.739482 0.383961 0.597727
Si Si2 0.270819 0.250000 0.500000
Si Si3 0.924915 0.632364 0.399772
Si Si4 0.506080 0.854677 0.397598
Si Si5 0.751694 0.959432 0.403293
O O1 0.686503 0.375074 0.750000
O O2 0.623735 0.343789 0.505031
O O3 0.740602 0.462536 0.556440
O O4 0.901590 0.351672 0.574329
O O5 0.166827 0.298297 0.588344
O O6 0.374077 0.205764 0.596836
O O7 0.904034 0.603619 0.250000
O O8 0.874262 0.575186 0.503074
O O9 0.435462 0.855145 0.250000
O O10 0.590662 0.925364 0.426654
O O11 0.803315 0.950621 0.250000
#
# Coordination Sequence:
#
# PCOD8233819 Si02
#       5
#     8   4   8   8   8
#     4  10  21  36  56  86 117 143 178 226 277 327
#     4  10  22  40  56  76 106 144 188 234 276 324
#     4  10  21  37  59  83 109 145 185 226 273 326
#     4  10  21  36  56  80 108 146 186 225 271 325
#     4   9  19  36  57  84 117 147 178 220 272 329
#
# _framework density 20.256620999999999
#
# number of rings (size 3 to 8) (size 9 to 14) (size 15 to 20)
#    0.000    2.222    0.000    2.000    0.000    8.000 
#    0.000    2.222    0.000    0.000    0.000    0.000 
#    0.000    0.000    0.000    0.000    0.000    0.000 
#
# Total GULP energy -446484.941154 kJ/mol
# GULP energy per Si atom -12402.359477 kJ/mol
# Density = 2.021052 g / cm^3
# Si number density = 20.256621 Si / 1000 Ang^3
#
#
#
# Elastic Constant Matrix: (Units=GPa)
#
#
# Indices 1 2 3 4 5 6 
#
# 1 127.4465 45.8769 74.7238 0.0000 0.0000 0.0000
# 2 45.8769 78.8821 26.8445 0.0000 0.0000 0.0000
# 3 74.7238 26.8445 116.1147 0.0000 0.0000 0.0000
# 4 0.0000 0.0000 0.0000 17.8171 0.0000 0.0000
# 5 0.0000 0.0000 0.0000 0.0000 38.8160 0.0000
# 6 0.0000 0.0000 0.0000 0.0000 0.0000 18.1744
#
#
#
# Elastic Compliance Matrix: (Units=1/GPa)
#
#
# Indices 1 2 3 4 5 6 
#
# 1 0.014684 -0.005779 -0.008113 0.000000 0.000000 0.000000
# 2 -0.005779 0.016034 0.000012 0.000000 0.000000 0.000000
# 3 -0.008113 0.000012 0.013831 0.000000 0.000000 0.000000
# 4 0.000000 0.000000 0.000000 0.056126 0.000000 0.000000
# 5 0.000000 0.000000 0.000000 0.000000 0.025763 0.000000
# 6 0.000000 0.000000 0.000000 0.000000 0.000000 0.055023
#
#
# Mechanical properties :
#
#
# Convention : Reuss Voigt Hill
#
# Bulk Modulus (GPa) = 59.56714 68.59264 64.07989
# Shear Modulus (GPa) = 23.27576 26.62803 24.95190
#
# Velocity S-wave (km/s) = 3.39343 3.62958 3.51349
# Velocity P-wave (km/s) = 6.69507 7.17639 6.93990
#
# Compressibility (1/GPa) = 0.01678778
#
# Stress axis : x y z
#
# Youngs Moduli (GPa) = 68.10305 62.36777 72.30293
#
# Poissons Ratio (x) = 0.36041 0.58663
# Poissons Ratio (y) = 0.39355 -0.00086
# Poissons Ratio (z) = 0.55255 -0.00074
#
# Static dielectric constant tensor:
#      x y z
#    x 3.605690 0.000000 0.000000 
#    y 0.000000 3.623940 0.000000 
#    z 0.000000 0.000000 3.644270 
# 
# 
# High freq. dielectric constant tensor:
#      x y z
#    x 1.787870 0.000000 0.000000 
#    y 0.000000 1.785580 0.000000 
#    z 0.000000 0.000000 1.793980 
# 
# From -- ./inp_files/1322.got.cif
#   From: 2010.03.12/outbox.cif.g09.slc.cpg/sg57_1_cif.got.tgz:1322.got - 2010.04.16 15:48:40.
