data_PCOD8233801
_publ_section_title
;
Structure prediction by ZEFSAII (Michael W. Deem and Ramdas Pophale) SiO2 
 PCOD8233801
Probable space group: P B C M
;
_chemical_formula_sum "Si O2"
_cell_formula_units_Z 64
_cell_length_a 6.657525
_cell_length_b 27.869049
_cell_length_c 17.355868
_cell_angle_alpha 90.000000
_cell_angle_beta 90.000000
_cell_angle_gamma 90.000000
_cell_volume 3220.188491
_symmetry_space_group_name_H-M "P B C M"
_symmetry_group_IT_number 57
_symmetry_cell_setting 'orthorhombic'
loop_
_space_group_symop_operation_xyz
x,y,z
-x,-y,1/2+z
x,1/2-y,-z
-x,1/2+y,1/2-z
-x,-y,-z
x,y,1/2-z
-x,1/2+y,z
x,1/2-y,1/2+z
loop_
_atom_site_type_symbol
_atom_site_label
_atom_site_fract_x
_atom_site_fract_y
_atom_site_fract_z
Si Si1 0.871299 0.906484 0.162961
Si Si2 0.264218 0.582186 0.933127
Si Si3 0.381640 0.585719 0.398094
Si Si4 0.554090 0.264244 0.660507
Si Si5 0.465593 0.482490 0.162477
Si Si6 0.577084 0.664655 0.595816
Si Si7 0.103813 0.834994 0.662662
Si Si8 0.294126 0.338505 0.571823
O O1 0.958449 0.907286 0.250000
O O2 0.736674 0.953013 0.145856
O O3 0.738536 0.858194 0.154334
O O4 0.044315 0.907360 0.099494
O O5 0.355556 0.535072 0.892678
O O6 0.396538 0.628448 0.917335
O O7 0.256663 0.573097 0.024633
O O8 0.424316 0.537996 0.351012
O O9 0.256450 0.620671 0.343085
O O10 0.594397 0.610596 0.417796
O O11 0.507827 0.264888 0.750000
O O12 0.533718 0.210773 0.629531
O O13 0.776402 0.285618 0.643462
O O14 0.386669 0.296461 0.621741
O O15 0.536618 0.474328 0.250000
O O16 0.694390 0.676981 0.517204
O O17 0.017697 0.833593 0.750000
O O18 0.934632 0.843246 0.598864
#
# Coordination Sequence:
#
# PCOD8233801 Si02
#       8
#     8   8   8   8   8   8   8   8
#     4  10  21  36  55  81 112 146 187 233 280 334
#     4  10  21  37  57  81 111 146 187 235 284 332
#     4  10  21  37  58  83 112 149 189 230 281 339
#     4  10  21  37  57  82 112 146 184 227 276 329
#     4  10  21  36  54  80 113 147 187 235 284 336
#     4  10  21  38  58  81 111 148 186 229 279 332
#     4  10  21  37  58  85 116 148 186 232 278 331
#     4  10  21  38  58  83 114 146 184 231 279 329
#
# _framework density 19.874614000000001
#
# number of rings (size 3 to 8) (size 9 to 14) (size 15 to 20)
#    0.000    2.000    0.000    3.000    0.000    5.500 
#    0.000    5.000    0.000    0.000    0.000    0.000 
#    0.000    0.000    0.000    0.000    0.000    0.000 
#
# Total GULP energy -793752.607744 kJ/mol
# GULP energy per Si atom -12402.384496 kJ/mol
# Density = 1.982938 g / cm^3
# Si number density = 19.874614 Si / 1000 Ang^3
#
#
#
# Elastic Constant Matrix: (Units=GPa)
#
#
# Indices 1 2 3 4 5 6 
#
# 1 89.4552 42.0739 51.9071 0.0000 0.0000 0.0000
# 2 42.0739 118.7814 50.1169 0.0000 0.0000 0.0000
# 3 51.9071 50.1169 121.1888 0.0000 0.0000 0.0000
# 4 0.0000 0.0000 0.0000 30.4758 0.0000 0.0000
# 5 0.0000 0.0000 0.0000 0.0000 21.7175 0.0000
# 6 0.0000 0.0000 0.0000 0.0000 0.0000 14.8296
#
#
#
# Elastic Compliance Matrix: (Units=1/GPa)
#
#
# Indices 1 2 3 4 5 6 
#
# 1 0.015900 -0.003342 -0.005428 0.000000 0.000000 0.000000
# 2 -0.003342 0.010901 -0.003077 0.000000 0.000000 0.000000
# 3 -0.005428 -0.003077 0.011849 0.000000 0.000000 0.000000
# 4 0.000000 0.000000 0.000000 0.032813 0.000000 0.000000
# 5 0.000000 0.000000 0.000000 0.000000 0.046046 0.000000
# 6 0.000000 0.000000 0.000000 0.000000 0.000000 0.067433
#
#
# Mechanical properties :
#
#
# Convention : Reuss Voigt Hill
#
# Bulk Modulus (GPa) = 66.86055 68.62457 67.74256
# Shear Modulus (GPa) = 23.40600 25.75975 24.58287
#
# Velocity S-wave (km/s) = 3.43546 3.60406 3.52077
# Velocity P-wave (km/s) = 7.03212 7.20574 7.11946
#
# Compressibility (1/GPa) = 0.01495650
#
# Stress axis : x y z
#
# Youngs Moduli (GPa) = 62.89147 91.73819 84.39553
#
# Poissons Ratio (x) = 0.30656 0.45814
# Poissons Ratio (y) = 0.21017 0.25965
# Poissons Ratio (z) = 0.34140 0.28224
#
# Static dielectric constant tensor:
#      x y z
#    x 3.479400 0.000000 0.000000 
#    y 0.000000 3.593710 0.000000 
#    z 0.000000 0.000000 3.811980 
# 
# 
# High freq. dielectric constant tensor:
#      x y z
#    x 1.765540 0.000000 0.000000 
#    y 0.000000 1.775790 0.000000 
#    z 0.000000 0.000000 1.789930 
# 
# From -- ./inp_files/20344.got.cif
#   From: 2010.03.12/outbox.cif.g09.slc.cpg/sg57_11_cif.got.tgz:20344.got - 2010.04.16 15:48:40.
