data_PCOD8233608
_publ_section_title
;
Structure prediction by ZEFSAII (Michael W. Deem and Ramdas Pophale) SiO2 
 PCOD8233608
Probable space group: P B C M
;
_chemical_formula_sum "Si O2"
_cell_formula_units_Z 48
_cell_length_a 14.838389
_cell_length_b 8.666360
_cell_length_c 17.494492
_cell_angle_alpha 90.000000
_cell_angle_beta 90.000000
_cell_angle_gamma 90.000000
_cell_volume 2249.701065
_symmetry_space_group_name_H-M "P B C M"
_symmetry_group_IT_number 57
_symmetry_cell_setting 'orthorhombic'
loop_
_space_group_symop_operation_xyz
x,y,z
-x,-y,1/2+z
x,1/2-y,-z
-x,1/2+y,1/2-z
-x,-y,-z
x,y,1/2-z
-x,1/2+y,z
x,1/2-y,1/2+z
loop_
_atom_site_type_symbol
_atom_site_label
_atom_site_fract_x
_atom_site_fract_y
_atom_site_fract_z
Si Si1 0.062222 0.493804 0.425552
Si Si2 0.760213 0.043991 0.838282
Si Si3 0.075494 0.321261 0.839054
Si Si4 0.407049 0.058172 0.587848
Si Si5 0.412871 0.098495 0.408267
Si Si6 0.755493 0.339672 0.574344
O O1 0.081132 0.322731 0.395651
O O2 0.156975 0.565261 0.450494
O O3 0.000000 0.500000 0.500000
O O4 0.016617 0.587798 0.356310
O O5 0.739092 0.032887 0.750000
O O6 0.784958 0.219340 0.860132
O O7 0.841301 0.931047 0.860870
O O8 0.670374 0.004035 0.883309
O O9 0.076538 0.272079 0.750000
O O10 0.417813 0.089691 0.498822
O O11 0.399392 0.228515 0.625077
O O12 0.493581 0.971526 0.623591
O O13 0.319602 0.955960 0.607053
O O14 0.717505 0.250000 0.500000
#
# Coordination Sequence:
#
# PCOD8233608 Si02
#       6
#     8   8   8   8   8   8
#     4  12  25  41  65  96 129 163 219 280 327 377
#     4  11  24  42  65  93 131 173 217 270 326 385
#     4  11  24  43  65  90 126 175 215 260 330 403
#     4  10  21  36  67  92 125 165 210 262 321 380
#     4  10  20  39  62  96 124 163 215 261 313 389
#     4  12  23  40  63  94 128 168 213 266 326 386
#
# _framework density 21.336169000000002
#
# number of rings (size 3 to 8) (size 9 to 14) (size 15 to 20)
#    0.000    1.000    1.667    6.000    2.333    2.667 
#    0.000    4.167    0.000    0.000    0.000    0.000 
#    0.000    0.000    0.000    0.000    0.000    0.000 
#
# Total GULP energy -595373.460746 kJ/mol
# GULP energy per Si atom -12403.613766 kJ/mol
# Density = 2.128761 g / cm^3
# Si number density = 21.336169 Si / 1000 Ang^3
#
#
#
# Elastic Constant Matrix: (Units=GPa)
#
#
# Indices 1 2 3 4 5 6 
#
# 1 118.2090 46.6278 8.5898 0.0000 0.0000 0.0000
# 2 46.6278 153.0399 27.0113 0.0000 0.0000 0.0000
# 3 8.5898 27.0113 39.1603 0.0000 0.0000 0.0000
# 4 0.0000 0.0000 0.0000 30.2162 0.0000 0.0000
# 5 0.0000 0.0000 0.0000 0.0000 19.3448 0.0000
# 6 0.0000 0.0000 0.0000 0.0000 0.0000 56.2509
#
#
#
# Elastic Compliance Matrix: (Units=1/GPa)
#
#
# Indices 1 2 3 4 5 6 
#
# 1 0.009616 -0.002912 -0.000101 0.000000 0.000000 0.000000
# 2 -0.002912 0.008322 -0.005101 0.000000 0.000000 0.000000
# 3 -0.000101 -0.005101 0.029077 0.000000 0.000000 0.000000
# 4 0.000000 0.000000 0.000000 0.033095 0.000000 0.000000
# 5 0.000000 0.000000 0.000000 0.000000 0.051694 0.000000
# 6 0.000000 0.000000 0.000000 0.000000 0.000000 0.017777
#
#
# Mechanical properties :
#
#
# Convention : Reuss Voigt Hill
#
# Bulk Modulus (GPa) = 32.48187 52.76302 42.62245
# Shear Modulus (GPa) = 28.39779 36.37438 32.38609
#
# Velocity S-wave (km/s) = 3.65220 4.13343 3.90025
# Velocity P-wave (km/s) = 5.74819 6.89662 6.34843
#
# Compressibility (1/GPa) = 0.03078640
#
# Stress axis : x y z
#
# Youngs Moduli (GPa) = 103.99874 120.16629 34.39160
#
# Poissons Ratio (x) = 0.34991 0.00346
# Poissons Ratio (y) = 0.30283 0.17544
# Poissons Ratio (z) = 0.01047 0.61301
#
# Static dielectric constant tensor:
#      x y z
#    x 3.918220 0.000000 0.000000 
#    y 0.000000 4.248280 0.000000 
#    z 0.000000 0.000000 3.732220 
# 
# 
# High freq. dielectric constant tensor:
#      x y z
#    x 1.848550 0.000000 0.000000 
#    y 0.000000 1.856960 0.000000 
#    z 0.000000 0.000000 1.809340 
# 
# From -- ./inp_files/22452.got.cif
#   From: 2010.03.12/outbox.cif.g09.slc.cpg/sg57_12_cif.got.tgz:22452.got - 2010.04.16 15:48:40.
