data_PCOD8233309
_publ_section_title
;
Structure prediction by ZEFSAII (Michael W. Deem and Ramdas Pophale) SiO2 
 PCOD8233309
Probable space group: P B C M
;
_chemical_formula_sum "Si O2"
_cell_formula_units_Z 48
_cell_length_a 14.689001
_cell_length_b 9.326661
_cell_length_c 17.122999
_cell_angle_alpha 90.000000
_cell_angle_beta 90.000000
_cell_angle_gamma 90.000000
_cell_volume 2345.839438
_symmetry_space_group_name_H-M "P B C M"
_symmetry_group_IT_number 57
_symmetry_cell_setting 'orthorhombic'
loop_
_space_group_symop_operation_xyz
x,y,z
-x,-y,1/2+z
x,1/2-y,-z
-x,1/2+y,1/2-z
-x,-y,-z
x,y,1/2-z
-x,1/2+y,z
x,1/2-y,1/2+z
loop_
_atom_site_type_symbol
_atom_site_label
_atom_site_fract_x
_atom_site_fract_y
_atom_site_fract_z
Si Si1 0.077226 0.688638 0.159131
Si Si2 0.429413 0.189869 0.412626
Si Si3 0.434337 0.479703 0.340171
Si Si4 0.772217 0.684549 0.082855
Si Si5 0.771766 0.524808 0.658503
Si Si6 0.056323 0.990980 0.080690
O O1 0.086152 0.731598 0.250000
O O2 0.164801 0.602503 0.125670
O O3 0.992046 0.582843 0.148098
O O4 0.063539 0.826873 0.105700
O O5 0.437955 0.250000 0.500000
O O6 0.455691 0.312466 0.350486
O O7 0.500746 0.063918 0.398954
O O8 0.328037 0.130505 0.390567
O O9 0.448574 0.524127 0.250000
O O10 0.330826 0.504947 0.369957
O O11 0.841740 0.553215 0.075580
O O12 0.808501 0.816935 0.135410
O O13 0.754531 0.750000 0.000000
O O14 0.778364 0.518810 0.750000
O O15 0.000000 0.000000 0.000000
#
# Coordination Sequence:
#
# PCOD8233309 Si02
#       6
#     8   8   8   8   8   8
#     4  11  23  39  58  84 114 149 189 235 286 341
#     4  10  21  37  58  85 116 152 192 235 284 338
#     4  10  20  37  59  86 118 155 193 236 285 337
#     4  10  21  38  59  83 113 149 189 233 285 341
#     4   9  20  38  59  82 116 155 192 233 284 338
#     4  12  24  39  60  86 114 148 191 238 288 345
#
# _framework density 20.461756999999999
#
# number of rings (size 3 to 8) (size 9 to 14) (size 15 to 20)
#    0.000    1.667    0.000    5.000    0.000    4.667 
#    0.000    3.333    0.000    0.000    0.000    0.000 
#    0.000    0.000    0.000    0.000    0.000    0.000 
#
# Total GULP energy -595080.053983 kJ/mol
# GULP energy per Si atom -12397.501125 kJ/mol
# Density = 2.041518 g / cm^3
# Si number density = 20.461757 Si / 1000 Ang^3
#
#
#
# Elastic Constant Matrix: (Units=GPa)
#
#
# Indices 1 2 3 4 5 6 
#
# 1 113.0918 65.2650 29.7549 0.0000 0.0000 0.0000
# 2 65.2650 104.9066 20.1209 0.0000 0.0000 0.0000
# 3 29.7549 20.1209 48.6299 0.0000 0.0000 0.0000
# 4 0.0000 0.0000 0.0000 34.2970 0.0000 0.0000
# 5 0.0000 0.0000 0.0000 0.0000 34.7582 0.0000
# 6 0.0000 0.0000 0.0000 0.0000 0.0000 44.6384
#
#
#
# Elastic Compliance Matrix: (Units=1/GPa)
#
#
# Indices 1 2 3 4 5 6 
#
# 1 0.015185 -0.008326 -0.005847 0.000000 0.000000 0.000000
# 2 -0.008326 0.014919 -0.001078 0.000000 0.000000 0.000000
# 3 -0.005847 -0.001078 0.024587 0.000000 0.000000 0.000000
# 4 0.000000 0.000000 0.000000 0.029157 0.000000 0.000000
# 5 0.000000 0.000000 0.000000 0.000000 0.028770 0.000000
# 6 0.000000 0.000000 0.000000 0.000000 0.000000 0.022402
#
#
# Mechanical properties :
#
#
# Convention : Reuss Voigt Hill
#
# Bulk Modulus (GPa) = 41.34020 55.21220 48.27620
# Shear Modulus (GPa) = 28.80419 32.83789 30.82104
#
# Velocity S-wave (km/s) = 3.75601 4.01039 3.88529
# Velocity P-wave (km/s) = 6.24962 6.96319 6.61603
#
# Compressibility (1/GPa) = 0.02418953
#
# Stress axis : x y z
#
# Youngs Moduli (GPa) = 65.85236 67.02910 40.67191
#
# Poissons Ratio (x) = 0.55808 0.23779
# Poissons Ratio (y) = 0.54828 0.04386
# Poissons Ratio (z) = 0.38501 0.07229
#
# Static dielectric constant tensor:
#      x y z
#    x 4.277950 0.000000 0.000000 
#    y 0.000000 3.583080 0.000000 
#    z 0.000000 0.000000 3.652200 
# 
# 
# High freq. dielectric constant tensor:
#      x y z
#    x 1.809600 0.000000 0.000000 
#    y 0.000000 1.793020 0.000000 
#    z 0.000000 0.000000 1.801970 
# 
# From -- ./inp_files/22428.got.cif
#   From: 2010.03.12/outbox.cif.g09.slc.cpg/sg57_12_cif.got.tgz:22428.got - 2010.04.16 15:48:40.
