data_PCOD8233778
_publ_section_title
;
Structure prediction by ZEFSAII (Michael W. Deem and Ramdas Pophale) SiO2 
 PCOD8233778
Probable space group: P B C M
;
_chemical_formula_sum "Si O2"
_cell_formula_units_Z 32
_cell_length_a 9.455359
_cell_length_b 29.979749
_cell_length_c 5.253793
_cell_angle_alpha 90.000000
_cell_angle_beta 90.000000
_cell_angle_gamma 90.000000
_cell_volume 1489.288969
_symmetry_space_group_name_H-M "P B C M"
_symmetry_group_IT_number 57
_symmetry_cell_setting 'orthorhombic'
loop_
_space_group_symop_operation_xyz
x,y,z
-x,-y,1/2+z
x,1/2-y,-z
-x,1/2+y,1/2-z
-x,-y,-z
x,y,1/2-z
-x,1/2+y,z
x,1/2-y,1/2+z
loop_
_atom_site_type_symbol
_atom_site_label
_atom_site_fract_x
_atom_site_fract_y
_atom_site_fract_z
Si Si1 0.091294 0.452561 0.750000
Si Si2 0.254091 0.476876 0.250000
Si Si3 0.183793 0.727576 0.750000
Si Si4 0.717174 0.126526 0.750000
Si Si5 0.776046 0.860784 0.750000
Si Si6 0.221956 0.929566 0.750000
Si Si7 0.611647 0.883301 0.250000
Si Si8 0.132195 0.265506 0.750000
O O1 0.158023 0.473829 0.500272
O O2 0.112624 0.399851 0.750000
O O3 0.923644 0.457451 0.750000
O O4 0.327830 0.526746 0.250000
O O5 0.371078 0.437334 0.250000
O O6 0.254307 0.750000 0.500000
O O7 0.207850 0.674617 0.750000
O O8 0.017056 0.739112 0.750000
O O9 0.764197 0.100312 0.499131
O O10 0.549876 0.131124 0.750000
O O11 0.678932 0.861720 0.500421
O O12 0.880196 0.818530 0.750000
O O13 0.218276 0.250000 0.500000
#
# Coordination Sequence:
#
# PCOD8233778 Si02
#       8
#     4   4   4   4   4   4   4   4
#     4  10  21  36  63  91 128 160 208 269 318 374
#     4  10  21  41  61  92 131 173 209 263 319 351
#     4  10  23  42  62  88 126 159 195 267 319 373
#     4  12  26  41  63  95 127 172 214 251 315 372
#     4  10  21  39  63  88 115 164 199 255 316 365
#     4  12  24  37  65  96 129 168 217 262 306 389
#     4  10  23  43  62  87 132 169 210 250 299 383
#     4  10  21  35  61  91 120 141 198 261 312 375
#
# _framework density 21.486761999999999
#
# number of rings (size 3 to 8) (size 9 to 14) (size 15 to 20)
#    0.000    1.500    0.000    4.500    7.000    1.000 
#    0.000    3.750    0.000    0.000    0.000    0.000 
#    0.000    0.000    0.000    0.000    0.000    0.000 
#
# Total GULP energy -396603.450824 kJ/mol
# GULP energy per Si atom -12393.857838 kJ/mol
# Density = 2.143786 g / cm^3
# Si number density = 21.486762 Si / 1000 Ang^3
#
#
#
# Elastic Constant Matrix: (Units=GPa)
#
#
# Indices 1 2 3 4 5 6 
#
# 1 57.8546 29.4068 23.7705 0.0000 0.0000 0.0000
# 2 29.4068 207.0229 77.8179 0.0000 0.0000 0.0000
# 3 23.7705 77.8179 222.7281 0.0000 0.0000 0.0000
# 4 0.0000 0.0000 0.0000 13.9019 0.0000 0.0000
# 5 0.0000 0.0000 0.0000 0.0000 -30.4374 0.0000
# 6 0.0000 0.0000 0.0000 0.0000 0.0000 16.3439
#
#
#
# Elastic Compliance Matrix: (Units=1/GPa)
#
#
# Indices 1 2 3 4 5 6 
#
# 1 0.018924 -0.002221 -0.001244 0.000000 0.000000 0.000000
# 2 -0.002221 0.005821 -0.001797 0.000000 0.000000 0.000000
# 3 -0.001244 -0.001797 0.005250 0.000000 0.000000 0.000000
# 4 0.000000 0.000000 0.000000 0.071933 0.000000 0.000000
# 5 0.000000 0.000000 0.000000 0.000000 -0.032854 0.000000
# 6 0.000000 0.000000 0.000000 0.000000 0.000000 0.061185
#
#
# Mechanical properties :
#
#
# Convention : Reuss Voigt Hill
#
# Bulk Modulus (GPa) = 51.35207 83.28844 67.32026
# Shear Modulus (GPa) = 33.95053 23.73569 28.84311
#
# Velocity S-wave (km/s) = 3.97932 3.32726 3.66781
# Velocity P-wave (km/s) = 6.71302 7.32173 7.02397
#
# Compressibility (1/GPa) = 0.01947341
#
# Stress axis : x y z
#
# Youngs Moduli (GPa) = 52.84158 171.78486 190.46431
#
# Poissons Ratio (x) = 0.38147 0.23691
# Poissons Ratio (y) = 0.11734 0.34224
# Poissons Ratio (z) = 0.06573 0.30867
#
# Static dielectric constant tensor:
#      x y z
#    x 3.437640 0.000000 0.000000 
#    y 0.000000 4.044110 0.000000 
#    z 0.000000 0.000000 5.026250 
# 
# 
# High freq. dielectric constant tensor:
#      x y z
#    x 1.799190 0.000000 0.000000 
#    y 0.000000 1.864570 0.000000 
#    z 0.000000 0.000000 1.880930 
# 
# From -- ./inp_files/204.got.cif
#   From: 2010.03.12/outbox.cif.g09.slc.cpg/sg57_1_cif.got.tgz:204.got - 2010.04.16 15:48:40.
