data_PCOD8233770
_publ_section_title
;
Structure prediction by ZEFSAII (Michael W. Deem and Ramdas Pophale) SiO2 
 PCOD8233770
Probable space group: P B C M
;
_chemical_formula_sum "Si O2"
_cell_formula_units_Z 40
_cell_length_a 11.666775
_cell_length_b 12.981762
_cell_length_c 13.339607
_cell_angle_alpha 90.000000
_cell_angle_beta 90.000000
_cell_angle_gamma 90.000000
_cell_volume 2020.354131
_symmetry_space_group_name_H-M "P B C M"
_symmetry_group_IT_number 57
_symmetry_cell_setting 'orthorhombic'
loop_
_space_group_symop_operation_xyz
x,y,z
-x,-y,1/2+z
x,1/2-y,-z
-x,1/2+y,1/2-z
-x,-y,-z
x,y,1/2-z
-x,1/2+y,z
x,1/2-y,1/2+z
loop_
_atom_site_type_symbol
_atom_site_label
_atom_site_fract_x
_atom_site_fract_y
_atom_site_fract_z
Si Si1 0.564257 0.848691 0.543030
Si Si2 0.397529 0.997322 0.637507
Si Si3 0.918357 0.953780 0.639755
Si Si4 0.792821 0.752897 0.637136
Si Si5 0.839518 0.976016 0.429196
O O1 0.496719 0.750000 0.500000
O O2 0.485919 0.903592 0.625297
O O3 0.684831 0.813493 0.589994
O O4 0.582115 0.916289 0.444481
O O5 0.412881 0.040878 0.750000
O O6 0.266320 0.961922 0.619522
O O7 0.874899 0.992843 0.750000
O O8 0.901743 0.829854 0.634830
O O9 0.050762 0.983424 0.630004
O O10 0.848142 0.005085 0.547753
O O11 0.760883 0.720504 0.750000
O O12 0.825182 0.648591 0.578429
#
# Coordination Sequence:
#
# PCOD8233770 Si02
#       5
#     8   8   8   8   8
#     4  11  22  39  60  89 121 156 209 254 304 365
#     4  11  23  38  61  89 121 158 201 256 309 360
#     4  10  21  35  58  88 119 153 197 252 299 354
#     4  11  20  37  64  89 117 158 204 248 302 365
#     4  11  21  39  60  87 121 157 203 247 302 363
#
# _framework density 19.79851
#
# number of rings (size 3 to 8) (size 9 to 14) (size 15 to 20)
#    0.000    1.200    4.000    3.000    0.000    0.800 
#    0.000    4.000    0.000    2.400    0.000    0.000 
#    0.000    0.000    0.000    0.000    0.000    0.000 
#
# Total GULP energy -495584.862672 kJ/mol
# GULP energy per Si atom -12389.621567 kJ/mol
# Density = 1.975345 g / cm^3
# Si number density = 19.798510 Si / 1000 Ang^3
#
#
#
# Elastic Constant Matrix: (Units=GPa)
#
#
# Indices 1 2 3 4 5 6 
#
# 1 116.5773 65.4684 35.0410 0.0000 0.0000 0.0000
# 2 65.4684 79.8199 18.8651 0.0000 0.0000 0.0000
# 3 35.0410 18.8651 159.3453 0.0000 0.0000 0.0000
# 4 0.0000 0.0000 0.0000 20.9062 0.0000 0.0000
# 5 0.0000 0.0000 0.0000 0.0000 21.3177 0.0000
# 6 0.0000 0.0000 0.0000 0.0000 0.0000 30.7129
#
#
#
# Elastic Compliance Matrix: (Units=1/GPa)
#
#
# Indices 1 2 3 4 5 6 
#
# 1 0.016554 -0.013083 -0.002091 0.000000 0.000000 0.000000
# 2 -0.013083 0.023229 0.000127 0.000000 0.000000 0.000000
# 3 -0.002091 0.000127 0.006721 0.000000 0.000000 0.000000
# 4 0.000000 0.000000 0.000000 0.047833 0.000000 0.000000
# 5 0.000000 0.000000 0.000000 0.000000 0.046909 0.000000
# 6 0.000000 0.000000 0.000000 0.000000 0.000000 0.032560
#
#
# Mechanical properties :
#
#
# Convention : Reuss Voigt Hill
#
# Bulk Modulus (GPa) = 60.94496 66.05464 63.49980
# Shear Modulus (GPa) = 23.88108 30.34522 27.11315
#
# Velocity S-wave (km/s) = 3.47682 3.91922 3.70463
# Velocity P-wave (km/s) = 6.85325 7.34277 7.10223
#
# Compressibility (1/GPa) = 0.01640825
#
# Stress axis : x y z
#
# Youngs Moduli (GPa) = 60.40786 43.04920 148.79725
#
# Poissons Ratio (x) = 0.56323 0.31119
# Poissons Ratio (y) = 0.79034 -0.01890
# Poissons Ratio (z) = 0.12634 -0.00547
#
# Static dielectric constant tensor:
#      x y z
#    x 3.819650 0.000000 0.000000 
#    y 0.000000 3.639250 0.000000 
#    z 0.000000 0.000000 4.041460 
# 
# 
# High freq. dielectric constant tensor:
#      x y z
#    x 1.760980 0.000000 0.000000 
#    y 0.000000 1.744150 0.000000 
#    z 0.000000 0.000000 1.807220 
# 
# From -- ./inp_files/17403.got.cif
#   From: 2010.03.12/outbox.cif.g09.slc.cpg/sg57_9_cif.got.tgz:17403.got - 2010.04.16 15:48:40.
