data_PCOD8233662
_publ_section_title
;
Structure prediction by ZEFSAII (Michael W. Deem and Ramdas Pophale) SiO2 
 PCOD8233662
Probable space group: P B C M
;
_chemical_formula_sum "Si O2"
_cell_formula_units_Z 40
_cell_length_a 20.013529
_cell_length_b 9.635571
_cell_length_c 10.279409
_cell_angle_alpha 90.000000
_cell_angle_beta 90.000000
_cell_angle_gamma 90.000000
_cell_volume 1982.299525
_symmetry_space_group_name_H-M "P B C M"
_symmetry_group_IT_number 57
_symmetry_cell_setting 'orthorhombic'
loop_
_space_group_symop_operation_xyz
x,y,z
-x,-y,1/2+z
x,1/2-y,-z
-x,1/2+y,1/2-z
-x,-y,-z
x,y,1/2-z
-x,1/2+y,z
x,1/2-y,1/2+z
loop_
_atom_site_type_symbol
_atom_site_label
_atom_site_fract_x
_atom_site_fract_y
_atom_site_fract_z
Si Si1 0.948572 0.129422 0.250000
Si Si2 0.457628 0.635146 0.889835
Si Si3 0.399563 0.407469 0.040404
Si Si4 0.852243 0.091415 0.485563
Si Si5 0.744805 0.626112 0.895799
Si Si6 0.076734 0.946111 0.250000
O O1 0.910773 0.079900 0.379353
O O2 0.957703 0.295234 0.250000
O O3 0.021609 0.065021 0.250000
O O4 0.438789 0.700463 0.750000
O O5 0.532487 0.570120 0.877280
O O6 0.451270 0.750000 0.000000
O O7 0.405434 0.510707 0.917048
O O8 0.330316 0.436063 0.114100
O O9 0.397485 0.250000 0.000000
O O10 0.827730 0.250000 0.500000
O O11 0.877936 0.033038 0.622807
O O12 0.790401 0.000904 0.439210
O O13 0.764647 0.677542 0.750000
O O14 0.751885 0.750000 0.000000
#
# Coordination Sequence:
#
# PCOD8233662 Si02
#       6
#     4   8   8   8   8   4
#     4  10  20  40  62  92 122 159 198 249 298 357
#     4  10  21  38  61  90 121 156 203 254 311 373
#     4   9  21  38  59  85 119 159 201 254 307 360
#     4  10  22  41  62  89 125 165 202 248 299 358
#     4  11  24  41  62  89 122 161 206 254 305 361
#     4  10  22  36  64  92 124 157 200 243 304 355
#
# _framework density 20.178585000000002
#
# number of rings (size 3 to 8) (size 9 to 14) (size 15 to 20)
#    0.000    2.000    1.000    1.200    1.400   13.600 
#    0.000    0.000    0.000    0.000    0.000    0.000 
#    0.000    0.000    0.000    0.000    0.000    0.000 
#
# Total GULP energy -495776.039882 kJ/mol
# GULP energy per Si atom -12394.400997 kJ/mol
# Density = 2.013266 g / cm^3
# Si number density = 20.178585 Si / 1000 Ang^3
#
#
#
# Elastic Constant Matrix: (Units=GPa)
#
#
# Indices 1 2 3 4 5 6 
#
# 1 88.6658 58.4268 42.1017 0.0000 0.0000 0.0000
# 2 58.4268 93.7932 58.5121 0.0000 0.0000 0.0000
# 3 42.1017 58.5121 188.0871 0.0000 0.0000 0.0000
# 4 0.0000 0.0000 0.0000 27.4394 0.0000 0.0000
# 5 0.0000 0.0000 0.0000 0.0000 4.4917 0.0000
# 6 0.0000 0.0000 0.0000 0.0000 0.0000 44.8600
#
#
#
# Elastic Compliance Matrix: (Units=1/GPa)
#
#
# Indices 1 2 3 4 5 6 
#
# 1 0.019209 -0.011519 -0.000716 0.000000 0.000000 0.000000
# 2 -0.011519 0.020137 -0.003686 0.000000 0.000000 0.000000
# 3 -0.000716 -0.003686 0.006624 0.000000 0.000000 0.000000
# 4 0.000000 0.000000 0.000000 0.036444 0.000000 0.000000
# 5 0.000000 0.000000 0.000000 0.000000 0.222631 0.000000
# 6 0.000000 0.000000 0.000000 0.000000 0.000000 0.022292
#
#
# Mechanical properties :
#
#
# Convention : Reuss Voigt Hill
#
# Bulk Modulus (GPa) = 70.78691 76.51414 73.65052
# Shear Modulus (GPa) = 13.74052 29.45861 21.59956
#
# Velocity S-wave (km/s) = 2.61232 3.82500 3.27528
# Velocity P-wave (km/s) = 6.65247 7.58342 7.13315
#
# Compressibility (1/GPa) = 0.01412691
#
# Stress axis : x y z
#
# Youngs Moduli (GPa) = 52.05916 49.66051 150.97357
#
# Poissons Ratio (x) = 0.57204 0.10814
# Poissons Ratio (y) = 0.59967 0.55648
# Poissons Ratio (z) = 0.03729 0.18304
#
# Static dielectric constant tensor:
#      x y z
#    x 3.840000 0.000000 0.000000 
#    y 0.000000 3.581700 0.000000 
#    z 0.000000 0.000000 3.812960 
# 
# 
# High freq. dielectric constant tensor:
#      x y z
#    x 1.777620 0.000000 0.000000 
#    y 0.000000 1.785340 0.000000 
#    z 0.000000 0.000000 1.799470 
# 
# From -- ./inp_files/14052.got.cif
#   From: 2010.03.12/outbox.cif.g09.slc.cpg/sg57_8_cif.got.tgz:14052.got - 2010.04.16 15:48:40.
