data_PCOD8233331
_publ_section_title
;
Structure prediction by ZEFSAII (Michael W. Deem and Ramdas Pophale) SiO2 
 PCOD8233331
Probable space group: P B C M
;
_chemical_formula_sum "Si O2"
_cell_formula_units_Z 64
_cell_length_a 15.399845
_cell_length_b 23.859346
_cell_length_c 8.913412
_cell_angle_alpha 90.000000
_cell_angle_beta 90.000000
_cell_angle_gamma 90.000000
_cell_volume 3275.057023
_symmetry_space_group_name_H-M "P B C M"
_symmetry_group_IT_number 57
_symmetry_cell_setting 'orthorhombic'
loop_
_space_group_symop_operation_xyz
x,y,z
-x,-y,1/2+z
x,1/2-y,-z
-x,1/2+y,1/2-z
-x,-y,-z
x,y,1/2-z
-x,1/2+y,z
x,1/2-y,1/2+z
loop_
_atom_site_type_symbol
_atom_site_label
_atom_site_fract_x
_atom_site_fract_y
_atom_site_fract_z
Si Si1 0.596225 0.887636 0.426898
Si Si2 0.840362 0.997767 0.420411
Si Si3 0.080118 0.380352 0.423765
Si Si4 0.248089 0.310311 0.072939
Si Si5 0.402763 0.882583 0.426878
Si Si6 0.904048 0.120218 0.422614
Si Si7 0.340093 0.001733 0.426707
Si Si8 0.244894 0.809905 0.072231
O O1 0.605920 0.895223 0.250000
O O2 0.667742 0.843976 0.487523
O O3 0.500577 0.865044 0.472043
O O4 0.607341 0.948188 0.498734
O O5 0.804316 0.993641 0.250000
O O6 0.895815 0.053664 0.445068
O O7 0.760958 0.995498 0.534216
O O8 0.902638 0.945654 0.454933
O O9 0.058871 0.369393 0.250000
O O10 0.162870 0.344314 0.476090
O O11 0.998775 0.360581 0.522411
O O12 0.253172 0.303286 0.250000
O O13 0.246422 0.250000 0.000000
O O14 0.391632 0.885951 0.250000
O O15 0.379313 0.943834 0.492014
O O16 0.335362 0.836317 0.488734
O O17 0.891878 0.138073 0.250000
O O18 0.832799 0.149988 0.523899
O O19 0.351422 0.006480 0.250000
O O20 0.244260 0.803820 0.250000
O O21 0.231468 0.750000 0.000000
#
# Coordination Sequence:
#
# PCOD8233331 Si02
#       8
#     8   8   8   8   8   8   8   8
#     4  10  20  39  61  84 118 158 192 234 292 354
#     4  10  20  37  60  86 119 156 193 232 290 356
#     4  10  21  39  60  85 117 157 194 235 291 348
#     4  10  22  39  60  82 111 152 195 238 288 337
#     4   9  20  37  60  87 118 154 192 236 293 346
#     4  11  23  38  61  92 118 152 193 239 295 350
#     4  11  20  33  57  91 121 152 191 237 290 343
#     4  11  23  42  62  85 117 156 199 247 293 345
#
# _framework density 19.541643000000001
#
# number of rings (size 3 to 8) (size 9 to 14) (size 15 to 20)
#    0.000    1.750    2.500    1.875    0.000    3.000 
#    0.000    3.125    0.000    0.000    0.000    0.000 
#    0.000    0.000    0.000    0.000    0.000    0.000 
#
# Total GULP energy -793787.598817 kJ/mol
# GULP energy per Si atom -12402.931232 kJ/mol
# Density = 1.949716 g / cm^3
# Si number density = 19.541643 Si / 1000 Ang^3
#
#
#
# Elastic Constant Matrix: (Units=GPa)
#
#
# Indices 1 2 3 4 5 6 
#
# 1 138.3008 39.6931 34.6287 0.0000 0.0000 0.0000
# 2 39.6931 104.3306 28.9161 0.0000 0.0000 0.0000
# 3 34.6287 28.9161 49.1450 0.0000 0.0000 0.0000
# 4 0.0000 0.0000 0.0000 28.9934 0.0000 0.0000
# 5 0.0000 0.0000 0.0000 0.0000 21.1287 0.0000
# 6 0.0000 0.0000 0.0000 0.0000 0.0000 11.3902
#
#
#
# Elastic Compliance Matrix: (Units=1/GPa)
#
#
# Indices 1 2 3 4 5 6 
#
# 1 0.009122 -0.002018 -0.005240 0.000000 0.000000 0.000000
# 2 -0.002018 0.011899 -0.005579 0.000000 0.000000 0.000000
# 3 -0.005240 -0.005579 0.027323 0.000000 0.000000 0.000000
# 4 0.000000 0.000000 0.000000 0.034491 0.000000 0.000000
# 5 0.000000 0.000000 0.000000 0.000000 0.047329 0.000000
# 6 0.000000 0.000000 0.000000 0.000000 0.000000 0.087795
#
#
# Mechanical properties :
#
#
# Convention : Reuss Voigt Hill
#
# Bulk Modulus (GPa) = 44.11294 55.36137 49.73715
# Shear Modulus (GPa) = 19.90529 24.87169 22.38849
#
# Velocity S-wave (km/s) = 3.19503 3.57144 3.38846
# Velocity P-wave (km/s) = 6.01945 6.73783 6.38874
#
# Compressibility (1/GPa) = 0.02266909
#
# Stress axis : x y z
#
# Youngs Moduli (GPa) = 109.62658 84.04040 36.59936
#
# Poissons Ratio (x) = 0.16961 0.19178
# Poissons Ratio (y) = 0.22124 0.20419
# Poissons Ratio (z) = 0.57445 0.46888
#
# Static dielectric constant tensor:
#      x y z
#    x 3.750940 0.000000 0.000000 
#    y 0.000000 3.613330 0.000000 
#    z 0.000000 0.000000 3.399490 
# 
# 
# High freq. dielectric constant tensor:
#      x y z
#    x 1.772870 0.000000 0.000000 
#    y 0.000000 1.761950 0.000000 
#    z 0.000000 0.000000 1.746430 
# 
# From -- ./inp_files/5718.got.cif
#   From: 2010.03.12/outbox.cif.g09.slc.cpg/sg57_3_cif.got.tgz:5718.got - 2010.04.16 15:48:40.
