data_PCOD8233903
_publ_section_title
;
Structure prediction by ZEFSAII (Michael W. Deem and Ramdas Pophale) SiO2 
 PCOD8233903
Probable space group: P B C M
;
_chemical_formula_sum "Si O2"
_cell_formula_units_Z 64
_cell_length_a 14.071375
_cell_length_b 25.727280
_cell_length_c 9.038359
_cell_angle_alpha 90.000000
_cell_angle_beta 90.000000
_cell_angle_gamma 90.000000
_cell_volume 3272.050498
_symmetry_space_group_name_H-M "P B C M"
_symmetry_group_IT_number 57
_symmetry_cell_setting 'orthorhombic'
loop_
_space_group_symop_operation_xyz
x,y,z
-x,-y,1/2+z
x,1/2-y,-z
-x,1/2+y,1/2-z
-x,-y,-z
x,y,1/2-z
-x,1/2+y,z
x,1/2-y,1/2+z
loop_
_atom_site_type_symbol
_atom_site_label
_atom_site_fract_x
_atom_site_fract_y
_atom_site_fract_z
Si Si1 0.736950 0.304078 0.421590
Si Si2 0.706305 0.500118 0.918874
Si Si3 0.081176 0.303413 0.577461
Si Si4 0.924733 0.134815 0.923028
Si Si5 0.085952 0.971464 0.920727
Si Si6 0.300917 0.303148 0.921627
Si Si7 0.620069 0.098118 0.923260
Si Si8 0.599895 0.602567 0.923475
O O1 0.715183 0.250000 0.500000
O O2 0.717581 0.295076 0.250000
O O3 0.845333 0.321393 0.450628
O O4 0.665756 0.348322 0.484660
O O5 0.675350 0.491197 0.750000
O O6 0.819958 0.507007 0.933064
O O7 0.656726 0.552088 0.980472
O O8 0.672203 0.450878 0.009011
O O9 0.051679 0.250000 0.500000
O O10 0.055972 0.299255 0.750000
O O11 0.190943 0.316414 0.549945
O O12 0.022532 0.349236 0.501243
O O13 0.943098 0.125308 0.750000
O O14 0.889618 0.081984 0.997388
O O15 0.059226 0.960939 0.750000
O O16 0.000000 0.000000 0.000000
O O17 0.323448 0.296804 0.750000
O O18 0.330506 0.250000 0.000000
O O19 0.364090 0.348329 0.987491
O O20 0.639199 0.095372 0.750000
O O21 0.509839 0.095276 0.963609
O O22 0.616406 0.612179 0.750000
#
# Coordination Sequence:
#
# PCOD8233903 Si02
#       8
#     8   8   8   8   8   8   8   8
#     4  10  22  38  58  86 118 157 200 244 300 359
#     4  10  22  40  62  90 120 156 199 247 300 355
#     4  10  21  37  57  85 116 152 196 241 291 350
#     4  11  22  38  60  85 117 157 198 245 299 356
#     4  11  24  40  59  88 123 159 198 244 301 360
#     4  10  22  40  61  87 120 158 197 244 300 354
#     4  10  21  40  62  87 120 157 198 250 305 356
#     4  10  22  39  62  90 120 155 200 250 300 358
#
# _framework density 19.559601000000001
#
# number of rings (size 3 to 8) (size 9 to 14) (size 15 to 20)
#    0.000    1.750    1.250    2.250    1.750    6.000 
#    0.000    1.250    0.000    0.000    0.000    0.000 
#    0.000    0.000    0.000    0.000    0.000    0.000 
#
# Total GULP energy -793900.479947 kJ/mol
# GULP energy per Si atom -12404.694999 kJ/mol
# Density = 1.951508 g / cm^3
# Si number density = 19.559601 Si / 1000 Ang^3
#
#
#
# Elastic Constant Matrix: (Units=GPa)
#
#
# Indices 1 2 3 4 5 6 
#
# 1 98.6684 58.1848 52.1958 0.0000 0.0000 0.0000
# 2 58.1848 133.3596 53.5459 0.0000 0.0000 0.0000
# 3 52.1958 53.5459 90.0581 0.0000 0.0000 0.0000
# 4 0.0000 0.0000 0.0000 40.6774 0.0000 0.0000
# 5 0.0000 0.0000 0.0000 0.0000 26.4533 0.0000
# 6 0.0000 0.0000 0.0000 0.0000 0.0000 33.0300
#
#
#
# Elastic Compliance Matrix: (Units=1/GPa)
#
#
# Indices 1 2 3 4 5 6 
#
# 1 0.016352 -0.004373 -0.006877 0.000000 0.000000 0.000000
# 2 -0.004373 0.011019 -0.004017 0.000000 0.000000 0.000000
# 3 -0.006877 -0.004017 0.017478 0.000000 0.000000 0.000000
# 4 0.000000 0.000000 0.000000 0.024584 0.000000 0.000000
# 5 0.000000 0.000000 0.000000 0.000000 0.037802 0.000000
# 6 0.000000 0.000000 0.000000 0.000000 0.000000 0.030276
#
#
# Mechanical properties :
#
#
# Convention : Reuss Voigt Hill
#
# Bulk Modulus (GPa) = 69.85823 72.21546 71.03684
# Shear Modulus (GPa) = 28.93225 30.57612 29.75419
#
# Velocity S-wave (km/s) = 3.85019 3.95806 3.90450
# Velocity P-wave (km/s) = 7.45375 7.60849 7.53152
#
# Compressibility (1/GPa) = 0.01431471
#
# Stress axis : x y z
#
# Youngs Moduli (GPa) = 61.15581 90.74829 57.21370
#
# Poissons Ratio (x) = 0.39684 0.39346
# Poissons Ratio (y) = 0.26743 0.22985
# Poissons Ratio (z) = 0.42057 0.36457
#
# Static dielectric constant tensor:
#      x y z
#    x 3.661890 0.000000 0.000000 
#    y 0.000000 3.439350 0.000000 
#    z 0.000000 0.000000 3.584540 
# 
# 
# High freq. dielectric constant tensor:
#      x y z
#    x 1.769470 0.000000 0.000000 
#    y 0.000000 1.767090 0.000000 
#    z 0.000000 0.000000 1.764170 
# 
# From -- ./inp_files/5652.got.cif
#   From: 2010.03.12/outbox.cif.g09.slc.cpg/sg57_3_cif.got.tgz:5652.got - 2010.04.16 15:48:40.
