data_PCOD8233664
_publ_section_title
;
Structure prediction by ZEFSAII (Michael W. Deem and Ramdas Pophale) SiO2 
 PCOD8233664
Probable space group: P B C M
;
_chemical_formula_sum "Si O2"
_cell_formula_units_Z 48
_cell_length_a 9.079796
_cell_length_b 11.120408
_cell_length_c 22.298466
_cell_angle_alpha 90.000000
_cell_angle_beta 90.000000
_cell_angle_gamma 90.000000
_cell_volume 2251.499215
_symmetry_space_group_name_H-M "P B C M"
_symmetry_group_IT_number 57
_symmetry_cell_setting 'orthorhombic'
loop_
_space_group_symop_operation_xyz
x,y,z
-x,-y,1/2+z
x,1/2-y,-z
-x,1/2+y,1/2-z
-x,-y,-z
x,y,1/2-z
-x,1/2+y,z
x,1/2-y,1/2+z
loop_
_atom_site_type_symbol
_atom_site_label
_atom_site_fract_x
_atom_site_fract_y
_atom_site_fract_z
Si Si1 0.119952 0.189468 0.099587
Si Si2 0.395568 0.946158 0.907874
Si Si3 0.699834 0.978182 0.965819
Si Si4 0.198987 0.785940 0.095969
Si Si5 0.094402 0.966838 0.184446
Si Si6 0.763141 0.893213 0.181871
O O1 0.189769 0.135170 0.038853
O O2 0.128543 0.076899 0.143178
O O3 0.219272 0.286079 0.134226
O O4 0.957232 0.226911 0.079703
O O5 0.569952 0.944170 0.918794
O O6 0.329753 0.811377 0.903910
O O7 0.356536 0.015086 0.846170
O O8 0.336110 0.021754 0.964290
O O9 0.764955 0.110405 0.952047
O O10 0.175825 0.846034 0.161262
O O11 0.158591 0.991783 0.250000
O O12 0.919265 0.957027 0.186660
O O13 0.713826 0.854773 0.250000
#
# Coordination Sequence:
#
# PCOD8233664 Si02
#       6
#     8   8   8   8   8   8
#     4  10  20  40  63  93 125 163 210 265 315 369
#     4  11  23  43  63  90 127 170 212 254 328 382
#     4  10  25  42  64  89 128 170 209 262 321 389
#     4  10  21  40  62  93 123 161 215 267 313 372
#     4   9  18  36  62  92 124 164 209 257 316 371
#     4  10  21  37  61  92 125 162 207 258 313 376
#
# _framework density 21.319127999999999
#
# number of rings (size 3 to 8) (size 9 to 14) (size 15 to 20)
#    0.000    2.000    1.667    1.000    2.333    2.667 
#    6.000    4.167    0.000    0.000    0.000    0.000 
#    0.000    0.000    0.000    0.000    0.000    0.000 
#
# Total GULP energy -594837.818881 kJ/mol
# GULP energy per Si atom -12392.454560 kJ/mol
# Density = 2.127061 g / cm^3
# Si number density = 21.319128 Si / 1000 Ang^3
#
#
#
# Elastic Constant Matrix: (Units=GPa)
#
#
# Indices 1 2 3 4 5 6 
#
# 1 82.7293 47.0192 27.4534 0.0000 0.0000 0.0000
# 2 47.0192 76.9500 -27.7113 0.0000 0.0000 0.0000
# 3 27.4534 -27.7113 13.5929 0.0000 0.0000 0.0000
# 4 0.0000 0.0000 0.0000 3.1556 0.0000 0.0000
# 5 0.0000 0.0000 0.0000 0.0000 20.2459 0.0000
# 6 0.0000 0.0000 0.0000 0.0000 0.0000 25.9353
#
#
#
# Elastic Compliance Matrix: (Units=1/GPa)
#
#
# Indices 1 2 3 4 5 6 
#
# 1 -0.002036 0.010249 0.025006 0.000000 0.000000 0.000000
# 2 0.010249 -0.002715 -0.026235 0.000000 0.000000 0.000000
# 3 0.025006 -0.026235 -0.030422 0.000000 0.000000 0.000000
# 4 0.000000 0.000000 0.000000 0.316892 0.000000 0.000000
# 5 0.000000 0.000000 0.000000 0.000000 0.049393 0.000000
# 6 0.000000 0.000000 0.000000 0.000000 0.000000 0.038558
#
#
# Mechanical properties :
#
#
# Convention : Reuss Voigt Hill
#
# Bulk Modulus (GPa) = -58.36846 29.64386 -14.36230
# Shear Modulus (GPa) = 14.45428 18.30143 16.37785
#
# Velocity S-wave (km/s) = 2.60666 2.93311 2.77469
# Velocity P-wave (km/s) = 4.28699 5.04042 1.87451
#
# Compressibility (1/GPa) = -0.01713254
#
# Stress axis : x y z
#
# Youngs Moduli (GPa) = -491.22140 -368.31511 -32.87095
#
# Poissons Ratio (x) = 3.77493 0.82198
# Poissons Ratio (y) = 5.03462 -0.86238
# Poissons Ratio (z) = 12.28361 -9.66287
#
# Static dielectric constant tensor:
#      x y z
#    x 3.850210 0.000000 0.000000 
#    y 0.000000 4.315950 0.000000 
#    z 0.000000 0.000000 4.849640 
# 
# 
# High freq. dielectric constant tensor:
#      x y z
#    x 1.822730 0.000000 0.000000 
#    y 0.000000 1.845090 0.000000 
#    z 0.000000 0.000000 1.838020 
# 
# From -- ./inp_files/26692.got.cif
#   From: 2010.03.12/outbox.cif.g09.slc.cpg/sg57_14_cif.got.tgz:26692.got - 2010.04.16 15:48:40.
