data_PCOD8233604
_publ_section_title
;
Structure prediction by ZEFSAII (Michael W. Deem and Ramdas Pophale) SiO2 
 PCOD8233604
Probable space group: P B C M
;
_chemical_formula_sum "Si O2"
_cell_formula_units_Z 64
_cell_length_a 11.560491
_cell_length_b 14.868799
_cell_length_c 17.232686
_cell_angle_alpha 90.000000
_cell_angle_beta 90.000000
_cell_angle_gamma 90.000000
_cell_volume 2962.137029
_symmetry_space_group_name_H-M "P B C M"
_symmetry_group_IT_number 57
_symmetry_cell_setting 'orthorhombic'
loop_
_space_group_symop_operation_xyz
x,y,z
-x,-y,1/2+z
x,1/2-y,-z
-x,1/2+y,1/2-z
-x,-y,-z
x,y,1/2-z
-x,1/2+y,z
x,1/2-y,1/2+z
loop_
_atom_site_type_symbol
_atom_site_label
_atom_site_fract_x
_atom_site_fract_y
_atom_site_fract_z
Si Si1 0.219038 0.911546 0.474279
Si Si2 0.877391 0.947984 0.338186
Si Si3 0.617324 0.828372 0.840821
Si Si4 0.810191 0.611405 0.436549
Si Si5 0.535865 0.353401 0.983011
Si Si6 0.063718 0.857068 0.608521
Si Si7 0.679507 0.853914 0.421399
Si Si8 0.096738 0.836120 0.337691
O O1 0.350423 0.912516 0.504182
O O2 0.140730 0.852509 0.531505
O O3 0.205869 0.868191 0.388970
O O4 0.171998 0.012925 0.473186
O O5 0.858437 0.921327 0.250000
O O6 0.754531 0.931317 0.379830
O O7 0.979828 0.883692 0.371498
O O8 0.912505 0.051888 0.344591
O O9 0.584185 0.835129 0.750000
O O10 0.727283 0.892264 0.860315
O O11 0.508811 0.860383 0.893745
O O12 0.657842 0.727467 0.862321
O O13 0.749422 0.675582 0.500765
O O14 0.931047 0.653448 0.414210
O O15 0.564814 0.250000 0.000000
O O16 0.442728 0.391109 0.045558
O O17 0.090617 0.771641 0.661979
O O18 0.118864 0.868797 0.250000
#
# Coordination Sequence:
#
# PCOD8233604 Si02
#       8
#     8   8   8   8   8   8   8   8
#     4  12  23  43  67  91 130 173 216 264 317 388
#     4  11  22  39  62  93 132 166 210 271 331 384
#     4  10  22  40  66  96 128 168 212 270 333 383
#     4  11  22  38  66  95 128 166 221 265 318 386
#     4   9  21  41  66  91 120 170 218 266 314 385
#     4  12  23  41  63  96 129 173 216 263 323 390
#     4  10  20  39  61  93 124 163 222 267 317 375
#     4  11  25  41  63  95 130 170 213 264 330 394
#
# _framework density 21.606023
#
# number of rings (size 3 to 8) (size 9 to 14) (size 15 to 20)
#    0.000    1.250    2.500    4.875    0.000    5.500 
#    0.000    6.875    0.000    0.000    0.000    0.000 
#    0.000    0.000    0.000    0.000    0.000    0.000 
#
# Total GULP energy -793532.343948 kJ/mol
# GULP energy per Si atom -12398.942874 kJ/mol
# Density = 2.155685 g / cm^3
# Si number density = 21.606023 Si / 1000 Ang^3
#
#
#
# Elastic Constant Matrix: (Units=GPa)
#
#
# Indices 1 2 3 4 5 6 
#
# 1 112.7835 17.7112 53.0463 0.0000 0.0000 0.0000
# 2 17.7112 82.4147 16.3684 0.0000 0.0000 0.0000
# 3 53.0463 16.3684 120.4457 0.0000 0.0000 0.0000
# 4 0.0000 0.0000 0.0000 32.6289 0.0000 0.0000
# 5 0.0000 0.0000 0.0000 0.0000 25.9324 0.0000
# 6 0.0000 0.0000 0.0000 0.0000 0.0000 21.0625
#
#
#
# Elastic Compliance Matrix: (Units=1/GPa)
#
#
# Indices 1 2 3 4 5 6 
#
# 1 0.011358 -0.001487 -0.004800 0.000000 0.000000 0.000000
# 2 -0.001487 0.012665 -0.001066 0.000000 0.000000 0.000000
# 3 -0.004800 -0.001066 0.010561 0.000000 0.000000 0.000000
# 4 0.000000 0.000000 0.000000 0.030648 0.000000 0.000000
# 5 0.000000 0.000000 0.000000 0.000000 0.038562 0.000000
# 6 0.000000 0.000000 0.000000 0.000000 0.000000 0.047478
#
#
# Mechanical properties :
#
#
# Convention : Reuss Voigt Hill
#
# Bulk Modulus (GPa) = 50.30896 54.43287 52.37092
# Shear Modulus (GPa) = 28.96801 31.15931 30.06366
#
# Velocity S-wave (km/s) = 3.66558 3.80170 3.73426
# Velocity P-wave (km/s) = 6.42266 6.67223 6.54863
#
# Compressibility (1/GPa) = 0.01987717
#
# Stress axis : x y z
#
# Youngs Moduli (GPa) = 88.04564 78.95683 94.68474
#
# Poissons Ratio (x) = 0.11745 0.45449
# Poissons Ratio (y) = 0.13097 0.10094
# Poissons Ratio (z) = 0.42262 0.08417
#
# Static dielectric constant tensor:
#      x y z
#    x 3.840340 0.000000 0.000000 
#    y 0.000000 3.720550 0.000000 
#    z 0.000000 0.000000 3.873300 
# 
# 
# High freq. dielectric constant tensor:
#      x y z
#    x 1.841600 0.000000 0.000000 
#    y 0.000000 1.848680 0.000000 
#    z 0.000000 0.000000 1.844310 
# 
# From -- ./inp_files/22096.got.cif
#   From: 2010.03.12/outbox.cif.g09.slc.cpg/sg57_12_cif.got.tgz:22096.got - 2010.04.16 15:48:40.
