data_PCOD8233565
_publ_section_title
;
Structure prediction by ZEFSAII (Michael W. Deem and Ramdas Pophale) SiO2 
 PCOD8233565
Probable space group: P B C M
;
_chemical_formula_sum "Si O2"
_cell_formula_units_Z 64
_cell_length_a 12.155312
_cell_length_b 18.972240
_cell_length_c 13.541538
_cell_angle_alpha 90.000000
_cell_angle_beta 90.000000
_cell_angle_gamma 90.000000
_cell_volume 3122.861427
_symmetry_space_group_name_H-M "P B C M"
_symmetry_group_IT_number 57
_symmetry_cell_setting 'orthorhombic'
loop_
_space_group_symop_operation_xyz
x,y,z
-x,-y,1/2+z
x,1/2-y,-z
-x,1/2+y,1/2-z
-x,-y,-z
x,y,1/2-z
-x,1/2+y,z
x,1/2-y,1/2+z
loop_
_atom_site_type_symbol
_atom_site_label
_atom_site_fract_x
_atom_site_fract_y
_atom_site_fract_z
Si Si1 0.156551 0.847192 0.132245
Si Si2 0.338902 0.436209 0.633777
Si Si3 0.019029 0.041954 0.867861
Si Si4 0.614644 0.403567 0.367198
Si Si5 0.909090 0.905132 0.632053
Si Si6 0.012963 0.240087 0.138826
Si Si7 0.800856 0.856189 0.362173
Si Si8 0.418615 0.168269 0.519090
O O1 0.155325 0.844061 0.250000
O O2 0.280268 0.858677 0.093296
O O3 0.096559 0.775884 0.091355
O O4 0.085418 0.913364 0.096756
O O5 0.354159 0.425802 0.750000
O O6 0.375819 0.514566 0.600478
O O7 0.213968 0.423611 0.598981
O O8 0.414597 0.376747 0.582060
O O9 0.025518 0.043578 0.750000
O O10 0.996541 0.963077 0.907943
O O11 0.134106 0.075312 0.907143
O O12 0.607576 0.399331 0.250000
O O13 0.508760 0.367030 0.411821
O O14 0.910323 0.902642 0.750000
O O15 0.950094 0.831543 0.583043
O O16 0.983837 0.218971 0.250000
O O17 0.116156 0.291393 0.136022
O O18 0.761734 0.870762 0.250000
O O19 0.697599 0.837127 0.427431
O O20 0.447757 0.250000 0.500000
#
# Coordination Sequence:
#
# PCOD8233565 Si02
#       8
#     8   8   8   8   8   8   8   8
#     4   8  13  26  50  80 108 143 187 227 272 335
#     4  10  21  38  62  87 114 152 203 253 292 345
#     4   8  13  25  51  81 110 143 184 225 269 337
#     4  10  20  38  65  87 110 154 201 241 291 350
#     4   9  14  25  50  85 114 142 184 234 286 338
#     4   8  14  24  48  82 117 149 181 226 280 339
#     4   9  18  34  54  81 116 153 187 226 284 349
#     4  12  25  38  57  85 120 152 193 248 300 351
#
# _framework density 20.494025000000001
#
# number of rings (size 3 to 8) (size 9 to 14) (size 15 to 20)
#    0.000    2.750    1.250    3.000    0.000    2.000 
#    0.000    0.625    5.500    3.000    0.000    0.000 
#    0.000    0.000    0.000    0.000    0.000    0.125 
#
# Total GULP energy -793112.369276 kJ/mol
# GULP energy per Si atom -12392.380770 kJ/mol
# Density = 2.044738 g / cm^3
# Si number density = 20.494025 Si / 1000 Ang^3
#
#
#
# Elastic Constant Matrix: (Units=GPa)
#
#
# Indices 1 2 3 4 5 6 
#
# 1 75.3644 57.5929 18.2384 0.0000 0.0000 0.0000
# 2 57.5929 162.2996 20.5003 0.0000 0.0000 0.0000
# 3 18.2384 20.5003 25.1106 0.0000 0.0000 0.0000
# 4 0.0000 0.0000 0.0000 21.4025 0.0000 0.0000
# 5 0.0000 0.0000 0.0000 0.0000 154.7916 0.0000
# 6 0.0000 0.0000 0.0000 0.0000 0.0000 31.0641
#
#
#
# Elastic Compliance Matrix: (Units=1/GPa)
#
#
# Indices 1 2 3 4 5 6 
#
# 1 0.020165 -0.005916 -0.009817 0.000000 0.000000 0.000000
# 2 -0.005916 0.008605 -0.002729 0.000000 0.000000 0.000000
# 3 -0.009817 -0.002729 0.049182 0.000000 0.000000 0.000000
# 4 0.000000 0.000000 0.000000 0.046724 0.000000 0.000000
# 5 0.000000 0.000000 0.000000 0.000000 0.006460 0.000000
# 6 0.000000 0.000000 0.000000 0.000000 0.000000 0.032192
#
#
# Mechanical properties :
#
#
# Convention : Reuss Voigt Hill
#
# Bulk Modulus (GPa) = 24.37254 50.60420 37.48837
# Shear Modulus (GPa) = 23.37243 52.54782 37.96013
#
# Velocity S-wave (km/s) = 3.38072 5.06914 4.30845
# Velocity P-wave (km/s) = 5.21127 7.68163 6.56372
#
# Compressibility (1/GPa) = 0.04102978
#
# Stress axis : x y z
#
# Youngs Moduli (GPa) = 49.58988 116.20669 20.33274
#
# Poissons Ratio (x) = 0.68746 0.19961
# Poissons Ratio (y) = 0.29336 0.05548
# Poissons Ratio (z) = 0.48682 0.31708
#
# Static dielectric constant tensor:
#      x y z
#    x 3.693490 0.000000 0.000000 
#    y 0.000000 4.119660 0.000000 
#    z 0.000000 0.000000 3.602350 
# 
# 
# High freq. dielectric constant tensor:
#      x y z
#    x 1.782410 0.000000 0.000000 
#    y 0.000000 1.809060 0.000000 
#    z 0.000000 0.000000 1.795890 
# 
# From -- ./inp_files/17999.got.cif
#   From: 2010.03.12/outbox.cif.g09.slc.cpg/sg57_9_cif.got.tgz:17999.got - 2010.04.16 15:48:40.
