data_PCOD8233797
_publ_section_title
;
Structure prediction by ZEFSAII (Michael W. Deem and Ramdas Pophale) SiO2 
 PCOD8233797
Probable space group: P B C M
;
_chemical_formula_sum "Si O2"
_cell_formula_units_Z 48
_cell_length_a 30.466484
_cell_length_b 9.133603
_cell_length_c 9.029056
_cell_angle_alpha 90.000000
_cell_angle_beta 90.000000
_cell_angle_gamma 90.000000
_cell_volume 2512.504304
_symmetry_space_group_name_H-M "P B C M"
_symmetry_group_IT_number 57
_symmetry_cell_setting 'orthorhombic'
loop_
_space_group_symop_operation_xyz
x,y,z
-x,-y,1/2+z
x,1/2-y,-z
-x,1/2+y,1/2-z
-x,-y,-z
x,y,1/2-z
-x,1/2+y,z
x,1/2-y,1/2+z
loop_
_atom_site_type_symbol
_atom_site_label
_atom_site_fract_x
_atom_site_fract_y
_atom_site_fract_z
Si Si1 0.376690 0.403820 0.921868
Si Si2 0.295542 0.904668 0.075472
Si Si3 0.962725 0.405276 0.424813
Si Si4 0.882318 0.896725 0.578210
Si Si5 0.537903 0.407218 0.075428
Si Si6 0.783761 0.899192 0.923822
O O1 0.372587 0.368835 0.750000
O O2 0.332724 0.482893 0.980496
O O3 0.416763 0.511002 0.956410
O O4 0.384199 0.250000 0.000000
O O5 0.299171 0.880807 0.250000
O O6 0.248284 0.969558 0.027823
O O7 0.302708 0.750000 0.000000
O O8 0.963835 0.250000 0.500000
O O9 0.971529 0.393472 0.250000
O O10 0.915132 0.472576 0.460777
O O11 0.000000 0.500000 0.500000
O O12 0.899082 0.750000 0.500000
O O13 0.882686 0.860282 0.750000
O O14 0.833250 0.940910 0.525614
O O15 0.528559 0.389814 0.250000
O O16 0.540283 0.250000 0.000000
O O17 0.500000 0.500000 0.000000
O O18 0.780717 0.872241 0.750000
O O19 0.768083 0.750000 0.000000
#
# Coordination Sequence:
#
# PCOD8233797 Si02
#       6
#     8   8   8   8   8   8
#     4  10  22  38  57  82 110 142 181 225 271 321
#     4  10  21  36  54  79 110 142 178 220 266 317
#     4  11  23  38  56  79 108 141 179 222 269 320
#     4   9  19  35  55  79 107 139 175 218 265 315
#     4  11  23  39  59  84 114 147 185 227 273 324
#     4   9  18  34  55  79 107 139 177 218 262 315
#
# _framework density 19.104445999999999
#
# number of rings (size 3 to 8) (size 9 to 14) (size 15 to 20)
#    0.000    2.000    0.000    3.000    0.000    7.333 
#    0.000    0.000    0.000    0.000    0.000    0.000 
#    0.000    0.000    0.000    0.000    0.000    0.000 
#
# Total GULP energy -595316.683238 kJ/mol
# GULP energy per Si atom -12402.430901 kJ/mol
# Density = 1.906096 g / cm^3
# Si number density = 19.104446 Si / 1000 Ang^3
#
#
#
# Elastic Constant Matrix: (Units=GPa)
#
#
# Indices 1 2 3 4 5 6 
#
# 1 121.3326 77.2451 59.4422 0.0000 0.0000 0.0000
# 2 77.2451 171.7290 72.6530 0.0000 0.0000 0.0000
# 3 59.4422 72.6530 72.5604 0.0000 0.0000 0.0000
# 4 0.0000 0.0000 0.0000 41.8379 0.0000 0.0000
# 5 0.0000 0.0000 0.0000 0.0000 27.0417 0.0000
# 6 0.0000 0.0000 0.0000 0.0000 0.0000 28.2893
#
#
#
# Elastic Compliance Matrix: (Units=1/GPa)
#
#
# Indices 1 2 3 4 5 6 
#
# 1 0.014396 -0.002578 -0.009212 0.000000 0.000000 0.000000
# 2 -0.002578 0.010564 -0.008466 0.000000 0.000000 0.000000
# 3 -0.009212 -0.008466 0.029805 0.000000 0.000000 0.000000
# 4 0.000000 0.000000 0.000000 0.023902 0.000000 0.000000
# 5 0.000000 0.000000 0.000000 0.000000 0.036980 0.000000
# 6 0.000000 0.000000 0.000000 0.000000 0.000000 0.035349
#
#
# Mechanical properties :
#
#
# Convention : Reuss Voigt Hill
#
# Bulk Modulus (GPa) = 70.15886 87.14475 78.65180
# Shear Modulus (GPa) = 25.47646 29.85257 27.66451
#
# Velocity S-wave (km/s) = 3.65572 3.95726 3.80948
# Velocity P-wave (km/s) = 7.39071 8.16050 7.78513
#
# Compressibility (1/GPa) = 0.01425337
#
# Stress axis : x y z
#
# Youngs Moduli (GPa) = 69.46225 94.65703 33.55161
#
# Poissons Ratio (x) = 0.24405 0.30908
# Poissons Ratio (y) = 0.17909 0.28404
# Poissons Ratio (z) = 0.63989 0.80135
#
# Static dielectric constant tensor:
#      x y z
#    x 4.007900 0.000000 0.000000 
#    y 0.000000 3.433150 0.000000 
#    z 0.000000 0.000000 130.884410 
# 
# 
# High freq. dielectric constant tensor:
#      x y z
#    x 1.761720 0.000000 0.000000 
#    y 0.000000 1.747330 0.000000 
#    z 0.000000 0.000000 1.741940 
# 
# From -- ./inp_files/9949.got.cif
#   From: 2010.03.12/outbox.cif.g09.slc.cpg/sg57_5_cif.got.tgz:9949.got - 2010.04.16 15:48:40.
