data_PCOD8233666
_publ_section_title
;
Structure prediction by ZEFSAII (Michael W. Deem and Ramdas Pophale) SiO2 
 PCOD8233666
Probable space group: P B C M
;
_chemical_formula_sum "Si O2"
_cell_formula_units_Z 48
_cell_length_a 14.462132
_cell_length_b 9.214940
_cell_length_c 17.205081
_cell_angle_alpha 90.000000
_cell_angle_beta 90.000000
_cell_angle_gamma 90.000000
_cell_volume 2292.881206
_symmetry_space_group_name_H-M "P B C M"
_symmetry_group_IT_number 57
_symmetry_cell_setting 'orthorhombic'
loop_
_space_group_symop_operation_xyz
x,y,z
-x,-y,1/2+z
x,1/2-y,-z
-x,1/2+y,1/2-z
-x,-y,-z
x,y,1/2-z
-x,1/2+y,z
x,1/2-y,1/2+z
loop_
_atom_site_type_symbol
_atom_site_label
_atom_site_fract_x
_atom_site_fract_y
_atom_site_fract_z
Si Si1 0.372928 0.114396 0.043664
Si Si2 0.106607 0.449840 0.422319
Si Si3 0.925017 0.618940 0.403209
Si Si4 0.764626 0.038528 0.662838
Si Si5 0.746206 0.364535 0.660614
Si Si6 0.425499 0.635261 0.063987
O O1 0.467451 0.162656 0.088494
O O2 0.305902 0.035427 0.103174
O O3 0.322714 0.250000 0.000000
O O4 0.409331 0.021262 0.972088
O O5 0.115538 0.437209 0.514781
O O6 0.079740 0.291537 0.389960
O O7 0.203565 0.511126 0.390348
O O8 0.030281 0.566625 0.395143
O O9 0.861883 0.545405 0.337925
O O10 0.723064 0.028949 0.750000
O O11 0.786590 0.205258 0.641291
O O12 0.759083 0.407535 0.750000
O O13 0.637425 0.355486 0.640834
O O14 0.391005 0.750000 0.000000
#
# Coordination Sequence:
#
# PCOD8233666 Si02
#       6
#     8   8   8   8   8   8
#     4  10  22  38  64  91 118 156 208 253 306 362
#     4  10  22  40  65  93 120 158 206 252 301 360
#     4  10  22  40  64  93 121 157 205 253 301 359
#     4  11  24  40  60  89 127 166 201 251 311 367
#     4  11  24  40  61  90 125 166 205 249 310 367
#     4  10  20  40  64  89 117 160 206 256 300 359
#
# _framework density 20.934360999999999
#
# number of rings (size 3 to 8) (size 9 to 14) (size 15 to 20)
#    0.000    1.667    1.667    2.000    4.667    3.333 
#    0.000    0.000    0.000    0.000    0.000    0.000 
#    0.000    0.000    0.000    0.000    0.000    0.000 
#
# Total GULP energy -595126.349730 kJ/mol
# GULP energy per Si atom -12398.465619 kJ/mol
# Density = 2.088671 g / cm^3
# Si number density = 20.934361 Si / 1000 Ang^3
#
#
#
# Elastic Constant Matrix: (Units=GPa)
#
#
# Indices 1 2 3 4 5 6 
#
# 1 81.2725 26.1936 27.5189 0.0000 0.0000 0.0000
# 2 26.1936 125.2560 31.5732 0.0000 0.0000 0.0000
# 3 27.5189 31.5732 59.6367 0.0000 0.0000 0.0000
# 4 0.0000 0.0000 0.0000 27.0707 0.0000 0.0000
# 5 0.0000 0.0000 0.0000 0.0000 16.2675 0.0000
# 6 0.0000 0.0000 0.0000 0.0000 0.0000 36.8667
#
#
#
# Elastic Compliance Matrix: (Units=1/GPa)
#
#
# Indices 1 2 3 4 5 6 
#
# 1 0.014852 -0.001591 -0.006011 0.000000 0.000000 0.000000
# 2 -0.001591 0.009384 -0.004234 0.000000 0.000000 0.000000
# 3 -0.006011 -0.004234 0.021784 0.000000 0.000000 0.000000
# 4 0.000000 0.000000 0.000000 0.036940 0.000000 0.000000
# 5 0.000000 0.000000 0.000000 0.000000 0.061472 0.000000
# 6 0.000000 0.000000 0.000000 0.000000 0.000000 0.027125
#
#
# Mechanical properties :
#
#
# Convention : Reuss Voigt Hill
#
# Bulk Modulus (GPa) = 44.74733 48.52627 46.63680
# Shear Modulus (GPa) = 24.66966 28.09960 26.38463
#
# Velocity S-wave (km/s) = 3.43655 3.66768 3.55399
# Velocity P-wave (km/s) = 6.09655 6.41610 6.25837
#
# Compressibility (1/GPa) = 0.02234770
#
# Stress axis : x y z
#
# Youngs Moduli (GPa) = 67.32918 106.56983 45.90606
#
# Poissons Ratio (x) = 0.16952 0.27596
# Poissons Ratio (y) = 0.10710 0.19436
# Poissons Ratio (z) = 0.40474 0.45120
#
# Static dielectric constant tensor:
#      x y z
#    x 3.854900 0.000000 0.000000 
#    y 0.000000 3.952360 0.000000 
#    z 0.000000 0.000000 3.511480 
# 
# 
# High freq. dielectric constant tensor:
#      x y z
#    x 1.823350 0.000000 0.000000 
#    y 0.000000 1.836970 0.000000 
#    z 0.000000 0.000000 1.791690 
# 
# From -- ./inp_files/22460.got.cif
#   From: 2010.03.12/outbox.cif.g09.slc.cpg/sg57_12_cif.got.tgz:22460.got - 2010.04.16 15:48:40.
