data_PCOD8233424
_publ_section_title
;
Structure prediction by ZEFSAII (Michael W. Deem and Ramdas Pophale) SiO2 
 PCOD8233424
Probable space group: P B C M
;
_chemical_formula_sum "Si O2"
_cell_formula_units_Z 56
_cell_length_a 20.929630
_cell_length_b 13.989503
_cell_length_c 9.169196
_cell_angle_alpha 90.000000
_cell_angle_beta 90.000000
_cell_angle_gamma 90.000000
_cell_volume 2684.695858
_symmetry_space_group_name_H-M "P B C M"
_symmetry_group_IT_number 57
_symmetry_cell_setting 'orthorhombic'
loop_
_space_group_symop_operation_xyz
x,y,z
-x,-y,1/2+z
x,1/2-y,-z
-x,1/2+y,1/2-z
-x,-y,-z
x,y,1/2-z
-x,1/2+y,z
x,1/2-y,1/2+z
loop_
_atom_site_type_symbol
_atom_site_label
_atom_site_fract_x
_atom_site_fract_y
_atom_site_fract_z
Si Si1 0.828354 0.348742 0.923614
Si Si2 0.496932 0.651037 0.420377
Si Si3 0.073413 0.956329 0.400900
Si Si4 0.194725 0.343427 0.411624
Si Si5 0.051819 0.355994 0.466075
Si Si6 0.740591 0.015268 0.922794
Si Si7 0.406432 0.984278 0.418218
O O1 0.820419 0.339555 0.750000
O O2 0.845989 0.250000 0.000000
O O3 0.887436 0.419958 0.958762
O O4 0.763370 0.387401 0.998033
O O5 0.511123 0.750000 0.500000
O O6 0.486481 0.669896 0.250000
O O7 0.433393 0.601859 0.484175
O O8 0.557302 0.582992 0.451645
O O9 0.111505 0.933222 0.250000
O O10 0.004499 0.907386 0.378344
O O11 0.064857 0.071519 0.400112
O O12 0.216334 0.250000 0.500000
O O13 0.226780 0.344571 0.250000
O O14 0.118776 0.344903 0.381947
O O15 0.217180 0.432043 0.507746
O O16 0.026229 0.250000 0.500000
O O17 0.751892 0.020478 0.750000
O O18 0.666781 0.998906 0.960351
O O19 0.414804 0.954329 0.250000
#
# Coordination Sequence:
#
# PCOD8233424 Si02
#       7
#     8   8   8   8   8   8   8
#     4  12  26  44  65  89 121 161 208 260 317 377
#     4  10  20  37  63  94 128 165 204 248 300 355
#     4  11  23  40  64  92 124 162 206 262 324 378
#     4  11  23  40  62  89 124 163 207 256 310 373
#     4  10  23  39  62  91 126 160 209 257 320 379
#     4  11  23  42  65  91 125 163 208 257 309 367
#     4   9  21  40  62  91 126 164 206 253 301 357
#
# _framework density 20.858974
#
# number of rings (size 3 to 8) (size 9 to 14) (size 15 to 20)
#    0.000    1.429    1.429    3.429    0.000    8.000 
#    0.000    1.429    0.000    0.000    0.000    0.000 
#    0.000    0.000    0.000    0.000    0.000    0.000 
#
# Total GULP energy -694019.560606 kJ/mol
# GULP energy per Si atom -12393.206439 kJ/mol
# Density = 2.081150 g / cm^3
# Si number density = 20.858974 Si / 1000 Ang^3
#
#
#
# Elastic Constant Matrix: (Units=GPa)
#
#
# Indices 1 2 3 4 5 6 
#
# 1 96.1202 28.0998 30.8149 0.0000 0.0000 0.0000
# 2 28.0998 139.6380 54.0733 0.0000 0.0000 0.0000
# 3 30.8149 54.0733 154.4637 0.0000 0.0000 0.0000
# 4 0.0000 0.0000 0.0000 30.4698 0.0000 0.0000
# 5 0.0000 0.0000 0.0000 0.0000 34.8117 0.0000
# 6 0.0000 0.0000 0.0000 0.0000 0.0000 17.1427
#
#
#
# Elastic Compliance Matrix: (Units=1/GPa)
#
#
# Indices 1 2 3 4 5 6 
#
# 1 0.011430 -0.001639 -0.001706 0.000000 0.000000 0.000000
# 2 -0.001639 0.008520 -0.002655 0.000000 0.000000 0.000000
# 3 -0.001706 -0.002655 0.007744 0.000000 0.000000 0.000000
# 4 0.000000 0.000000 0.000000 0.032819 0.000000 0.000000
# 5 0.000000 0.000000 0.000000 0.000000 0.028726 0.000000
# 6 0.000000 0.000000 0.000000 0.000000 0.000000 0.058334
#
#
# Mechanical properties :
#
#
# Convention : Reuss Voigt Hill
#
# Bulk Modulus (GPa) = 63.72951 68.46642 66.09796
# Shear Modulus (GPa) = 30.33883 34.96709 32.65296
#
# Velocity S-wave (km/s) = 3.81789 4.09878 3.96083
# Velocity P-wave (km/s) = 7.07488 7.43604 7.25771
#
# Compressibility (1/GPa) = 0.01569132
#
# Stress axis : x y z
#
# Youngs Moduli (GPa) = 87.48976 117.37732 129.13214
#
# Poissons Ratio (x) = 0.19242 0.22034
# Poissons Ratio (y) = 0.14342 0.34290
# Poissons Ratio (z) = 0.14929 0.31168
#
# Static dielectric constant tensor:
#      x y z
#    x 3.715920 0.000000 0.000000 
#    y 0.000000 3.937820 0.000000 
#    z 0.000000 0.000000 3.825710 
# 
# 
# High freq. dielectric constant tensor:
#      x y z
#    x 1.806190 0.000000 0.000000 
#    y 0.000000 1.825290 0.000000 
#    z 0.000000 0.000000 1.823940 
# 
# From -- ./inp_files/8073.got.cif
#   From: 2010.03.12/outbox.cif.g09.slc.cpg/sg57_5_cif.got.tgz:8073.got - 2010.04.16 15:48:40.
