data_PCOD8233460
_publ_section_title
;
Structure prediction by ZEFSAII (Michael W. Deem and Ramdas Pophale) SiO2 
 PCOD8233460
Probable space group: P B C M
;
_chemical_formula_sum "Si O2"
_cell_formula_units_Z 36
_cell_length_a 21.091766
_cell_length_b 8.969534
_cell_length_c 9.136669
_cell_angle_alpha 90.000000
_cell_angle_beta 90.000000
_cell_angle_gamma 90.000000
_cell_volume 1728.505304
_symmetry_space_group_name_H-M "P B C M"
_symmetry_group_IT_number 57
_symmetry_cell_setting 'orthorhombic'
loop_
_space_group_symop_operation_xyz
x,y,z
-x,-y,1/2+z
x,1/2-y,-z
-x,1/2+y,1/2-z
-x,-y,-z
x,y,1/2-z
-x,1/2+y,z
x,1/2-y,1/2+z
loop_
_atom_site_type_symbol
_atom_site_label
_atom_site_fract_x
_atom_site_fract_y
_atom_site_fract_z
Si Si1 0.911365 0.971479 0.094046
Si Si2 0.323300 0.599867 0.919214
Si Si3 0.776810 0.902229 0.073494
Si Si4 0.986616 0.250000 0.500000
Si Si5 0.447550 0.095208 0.081608
O O1 0.878721 0.971514 0.250000
O O2 0.940566 0.135381 0.079012
O O3 0.848376 0.931317 0.002638
O O4 0.967022 0.848712 0.099299
O O5 0.304129 0.629965 0.750000
O O6 0.380710 0.485857 0.927377
O O7 0.345129 0.750000 0.000000
O O8 0.264209 0.537279 0.011021
O O9 0.770076 0.891340 0.250000
O O10 0.752277 0.750000 0.000000
O O11 0.468161 0.120883 0.250000
O O12 0.439912 0.250000 0.000000
O O13 0.500000 0.000000 0.000000
#
# Coordination Sequence:
#
# PCOD8233460 Si02
#       5
#     8   8   8   4   8
#     4  10  21  37  58  85 117 156 203 254 315 377
#     4  11  25  44  66  96 129 170 213 263 316 375
#     4  11  23  41  62  90 124 165 213 263 317 381
#     4  10  20  38  58  84 118 152 204 250 318 376
#     4  11  24  42  68 100 137 174 218 261 314 369
#
# _framework density 20.827241999999998
#
# number of rings (size 3 to 8) (size 9 to 14) (size 15 to 20)
#    0.000    1.333    1.111    4.000    1.556    7.111 
#    0.000    2.222    0.000    0.000    0.000    0.000 
#    0.000    0.000    0.000    0.000    0.000    0.000 
#
# Total GULP energy -445980.293787 kJ/mol
# GULP energy per Si atom -12388.341494 kJ/mol
# Density = 2.077984 g / cm^3
# Si number density = 20.827242 Si / 1000 Ang^3
#
#
#
# Elastic Constant Matrix: (Units=GPa)
#
#
# Indices 1 2 3 4 5 6 
#
# 1 89.8715 33.8519 44.7931 0.0000 0.0000 0.0000
# 2 33.8519 148.7045 63.2062 0.0000 0.0000 0.0000
# 3 44.7931 63.2062 150.2477 0.0000 0.0000 0.0000
# 4 0.0000 0.0000 0.0000 27.6932 0.0000 0.0000
# 5 0.0000 0.0000 0.0000 0.0000 27.4226 0.0000
# 6 0.0000 0.0000 0.0000 0.0000 0.0000 31.1101
#
#
#
# Elastic Compliance Matrix: (Units=1/GPa)
#
#
# Indices 1 2 3 4 5 6 
#
# 1 0.013392 -0.001646 -0.003300 0.000000 0.000000 0.000000
# 2 -0.001646 0.008391 -0.003039 0.000000 0.000000 0.000000
# 3 -0.003300 -0.003039 0.008918 0.000000 0.000000 0.000000
# 4 0.000000 0.000000 0.000000 0.036110 0.000000 0.000000
# 5 0.000000 0.000000 0.000000 0.000000 0.036466 0.000000
# 6 0.000000 0.000000 0.000000 0.000000 0.000000 0.032144
#
#
# Mechanical properties :
#
#
# Convention : Reuss Voigt Hill
#
# Bulk Modulus (GPa) = 67.88625 74.72512 71.30568
# Shear Modulus (GPa) = 31.98933 33.71001 32.84967
#
# Velocity S-wave (km/s) = 3.92335 4.02749 3.97576
# Velocity P-wave (km/s) = 7.29310 7.58841 7.44222
#
# Compressibility (1/GPa) = 0.01473052
#
# Stress axis : x y z
#
# Youngs Moduli (GPa) = 74.67282 119.17112 112.13125
#
# Poissons Ratio (x) = 0.19614 0.37004
# Poissons Ratio (y) = 0.12290 0.34081
# Poissons Ratio (z) = 0.24643 0.36220
#
# Static dielectric constant tensor:
#      x y z
#    x 3.823040 0.000000 0.000000 
#    y 0.000000 4.079790 0.000000 
#    z 0.000000 0.000000 3.336970 
# 
# 
# High freq. dielectric constant tensor:
#      x y z
#    x 1.830700 0.000000 0.000000 
#    y 0.000000 1.829380 0.000000 
#    z 0.000000 0.000000 1.812200 
# 
# From -- ./inp_files/7646.got.cif
#   From: 2010.03.12/outbox.cif.g09.slc.cpg/sg57_4_cif.got.tgz:7646.got - 2010.04.16 15:48:40.
