data_PCOD8233296
_publ_section_title
;
Structure prediction by ZEFSAII (Michael W. Deem and Ramdas Pophale) SiO2 
 PCOD8233296
Probable space group: P B C M
;
_chemical_formula_sum "Si O2"
_cell_formula_units_Z 48
_cell_length_a 9.099689
_cell_length_b 31.082220
_cell_length_c 8.656122
_cell_angle_alpha 90.000000
_cell_angle_beta 90.000000
_cell_angle_gamma 90.000000
_cell_volume 2448.284869
_symmetry_space_group_name_H-M "P B C M"
_symmetry_group_IT_number 57
_symmetry_cell_setting 'orthorhombic'
loop_
_space_group_symop_operation_xyz
x,y,z
-x,-y,1/2+z
x,1/2-y,-z
-x,1/2+y,1/2-z
-x,-y,-z
x,y,1/2-z
-x,1/2+y,z
x,1/2-y,1/2+z
loop_
_atom_site_type_symbol
_atom_site_label
_atom_site_fract_x
_atom_site_fract_y
_atom_site_fract_z
Si Si1 0.578419 0.620139 0.933417
Si Si2 0.415134 0.794216 0.431690
Si Si3 0.912067 0.039756 0.566326
Si Si4 0.081719 0.705519 0.933147
Si Si5 0.913096 0.622852 0.933167
Si Si6 0.588162 0.460191 0.567447
O O1 0.561766 0.612926 0.750000
O O2 0.514176 0.666011 0.986280
O O3 0.746264 0.618191 0.989947
O O4 0.490989 0.583741 0.023040
O O5 0.480542 0.750000 0.500000
O O6 0.418712 0.789972 0.250000
O O7 0.248758 0.801644 0.490820
O O8 0.909329 0.037410 0.750000
O O9 0.748881 0.039629 0.503367
O O10 0.992741 0.082690 0.506193
O O11 0.000000 0.000000 0.500000
O O12 0.073721 0.707190 0.750000
O O13 0.983732 0.666612 0.000123
O O14 0.017971 0.750000 0.000000
O O15 0.917611 0.624541 0.750000
O O16 0.500000 0.500000 0.500000
O O17 0.598540 0.465084 0.750000
#
# Coordination Sequence:
#
# PCOD8233296 Si02
#       6
#     8   8   8   8   8   8
#     4  10  20  37  59  84 113 149 190 236 287 342
#     4   9  18  32  53  78 110 149 190 234 283 338
#     4  11  22  39  62  88 117 151 190 235 284 341
#     4   9  17  32  51  75 105 143 186 228 274 328
#     4   9  19  35  57  81 110 146 185 226 278 338
#     4  12  25  41  61  86 115 150 190 237 289 347
#
# _framework density 19.605563
#
# number of rings (size 3 to 8) (size 9 to 14) (size 15 to 20)
#    0.000    2.000    0.000    4.000    0.000    5.333 
#    0.000    6.667    0.000    0.000    0.000    0.000 
#    0.000    0.000    0.000    0.000    0.000    0.000 
#
# Total GULP energy -595312.221142 kJ/mol
# GULP energy per Si atom -12402.337940 kJ/mol
# Density = 1.956094 g / cm^3
# Si number density = 19.605563 Si / 1000 Ang^3
#
#
#
# Elastic Constant Matrix: (Units=GPa)
#
#
# Indices 1 2 3 4 5 6 
#
# 1 164.6254 102.9790 35.8594 0.0000 0.0000 0.0000
# 2 102.9790 195.4703 44.4187 0.0000 0.0000 0.0000
# 3 35.8594 44.4187 56.0281 0.0000 0.0000 0.0000
# 4 0.0000 0.0000 0.0000 35.1955 0.0000 0.0000
# 5 0.0000 0.0000 0.0000 0.0000 25.6826 0.0000
# 6 0.0000 0.0000 0.0000 0.0000 0.0000 44.8393
#
#
#
# Elastic Compliance Matrix: (Units=1/GPa)
#
#
# Indices 1 2 3 4 5 6 
#
# 1 0.009346 -0.004348 -0.002535 0.000000 0.000000 0.000000
# 2 -0.004348 0.008263 -0.003768 0.000000 0.000000 0.000000
# 3 -0.002535 -0.003768 0.022458 0.000000 0.000000 0.000000
# 4 0.000000 0.000000 0.000000 0.028413 0.000000 0.000000
# 5 0.000000 0.000000 0.000000 0.000000 0.038937 0.000000
# 6 0.000000 0.000000 0.000000 0.000000 0.000000 0.022302
#
#
# Mechanical properties :
#
#
# Convention : Reuss Voigt Hill
#
# Bulk Modulus (GPa) = 53.28946 86.95980 70.12463
# Shear Modulus (GPa) = 31.79154 36.66790 34.22972
#
# Velocity S-wave (km/s) = 4.03122 4.32937 4.18295
# Velocity P-wave (km/s) = 6.99339 8.33320 7.69252
#
# Compressibility (1/GPa) = 0.01876544
#
# Stress axis : x y z
#
# Youngs Moduli (GPa) = 106.99419 121.02677 44.52812
#
# Poissons Ratio (x) = 0.52621 0.11288
# Poissons Ratio (y) = 0.46519 0.16777
# Poissons Ratio (z) = 0.27122 0.45601
#
# Static dielectric constant tensor:
#      x y z
#    x 2.579570 0.000000 0.000000 
#    y 0.000000 3.952540 0.000000 
#    z 0.000000 0.000000 3.237360 
# 
# 
# High freq. dielectric constant tensor:
#      x y z
#    x 1.772490 0.000000 0.000000 
#    y 0.000000 1.784320 0.000000 
#    z 0.000000 0.000000 1.742500 
# 
# From -- ./inp_files/2002.got.cif
#   From: 2010.03.12/outbox.cif.g09.slc.cpg/sg57_2_cif.got.tgz:2002.got - 2010.04.16 15:48:40.
