data_PCOD8233072
_publ_section_title
;
Structure prediction by ZEFSAII (Michael W. Deem and Ramdas Pophale) SiO2 
 PCOD8233072
Probable space group: P B C M
;
_chemical_formula_sum "Si O2"
_cell_formula_units_Z 64
_cell_length_a 21.521999
_cell_length_b 17.873982
_cell_length_c 8.633595
_cell_angle_alpha 90.000000
_cell_angle_beta 90.000000
_cell_angle_gamma 90.000000
_cell_volume 3321.204329
_symmetry_space_group_name_H-M "P B C M"
_symmetry_group_IT_number 57
_symmetry_cell_setting 'orthorhombic'
loop_
_space_group_symop_operation_xyz
x,y,z
-x,-y,1/2+z
x,1/2-y,-z
-x,1/2+y,1/2-z
-x,-y,-z
x,y,1/2-z
-x,1/2+y,z
x,1/2-y,1/2+z
loop_
_atom_site_type_symbol
_atom_site_label
_atom_site_fract_x
_atom_site_fract_y
_atom_site_fract_z
Si Si1 0.187488 0.952356 0.931381
Si Si2 0.603970 0.069117 0.433130
Si Si3 0.501120 0.669307 0.567591
Si Si4 0.064599 0.026533 0.566370
Si Si5 0.245817 0.090902 0.072741
Si Si6 0.122281 0.170592 0.069162
Si Si7 0.720508 0.332043 0.566904
Si Si8 0.384954 0.094422 0.070468
O O1 0.181081 0.945679 0.750000
O O2 0.217430 0.875082 0.994943
O O3 0.119196 0.971500 0.999956
O O4 0.235623 0.018644 0.966700
O O5 0.604724 0.054545 0.250000
O O6 0.539928 0.107312 0.482393
O O7 0.660045 0.122462 0.488175
O O8 0.608667 0.991287 0.521541
O O9 0.483986 0.750000 0.500000
O O10 0.488488 0.668987 0.750000
O O11 0.572450 0.648702 0.532219
O O12 0.062460 0.024680 0.750000
O O13 0.077891 0.110325 0.511377
O O14 0.000000 0.000000 0.500000
O O15 0.238291 0.064683 0.250000
O O16 0.194734 0.153913 0.032332
O O17 0.314476 0.122712 0.041294
O O18 0.108063 0.169906 0.250000
O O19 0.104122 0.250000 0.000000
O O20 0.719058 0.250000 0.500000
O O21 0.720923 0.326437 0.750000
O O22 0.403654 0.102376 0.250000
#
# Coordination Sequence:
#
# PCOD8233072 Si02
#       8
#     8   8   8   8   8   8   8   8
#     4   9  18  35  56  80 111 147 186 230 278 335
#     4  11  22  39  61  84 111 147 191 236 285 345
#     4  12  26  43  59  79 110 148 190 239 292 346
#     4  10  20  36  60  86 116 155 197 238 285 337
#     4   9  19  34  56  84 113 145 184 231 280 337
#     4  10  20  36  57  86 120 153 193 238 287 340
#     4  10  21  35  55  83 113 144 183 229 284 338
#     4  11  22  38  60  87 115 148 190 235 287 345
#
# _framework density 19.270118
#
# number of rings (size 3 to 8) (size 9 to 14) (size 15 to 20)
#    0.000    1.750    1.250    3.375    0.000    4.500 
#    0.000    1.875    0.000    1.500    0.000    0.000 
#    0.000    0.000    0.000    0.000    0.000    0.000 
#
# Total GULP energy -793652.362372 kJ/mol
# GULP energy per Si atom -12400.818162 kJ/mol
# Density = 1.922626 g / cm^3
# Si number density = 19.270118 Si / 1000 Ang^3
#
#
#
# Elastic Constant Matrix: (Units=GPa)
#
#
# Indices 1 2 3 4 5 6 
#
# 1 108.9112 29.5770 23.6463 0.0000 0.0000 0.0000
# 2 29.5770 74.8805 17.9031 0.0000 0.0000 0.0000
# 3 23.6463 17.9031 43.0023 0.0000 0.0000 0.0000
# 4 0.0000 0.0000 0.0000 33.4380 0.0000 0.0000
# 5 0.0000 0.0000 0.0000 0.0000 27.0423 0.0000
# 6 0.0000 0.0000 0.0000 0.0000 0.0000 22.3153
#
#
#
# Elastic Compliance Matrix: (Units=1/GPa)
#
#
# Indices 1 2 3 4 5 6 
#
# 1 0.011095 -0.003247 -0.004749 0.000000 0.000000 0.000000
# 2 -0.003247 0.015781 -0.004785 0.000000 0.000000 0.000000
# 3 -0.004749 -0.004785 0.027858 0.000000 0.000000 0.000000
# 4 0.000000 0.000000 0.000000 0.029906 0.000000 0.000000
# 5 0.000000 0.000000 0.000000 0.000000 0.036979 0.000000
# 6 0.000000 0.000000 0.000000 0.000000 0.000000 0.044812
#
#
# Mechanical properties :
#
#
# Convention : Reuss Voigt Hill
#
# Bulk Modulus (GPa) = 34.27884 41.00522 37.64203
# Shear Modulus (GPa) = 24.78727 26.93696 25.86212
#
# Velocity S-wave (km/s) = 3.59040 3.74285 3.66742
# Velocity P-wave (km/s) = 5.91736 6.32487 6.12451
#
# Compressibility (1/GPa) = 0.02917252
#
# Stress axis : x y z
#
# Youngs Moduli (GPa) = 90.13379 63.36713 35.89635
#
# Poissons Ratio (x) = 0.20574 0.17047
# Poissons Ratio (y) = 0.29265 0.17175
# Poissons Ratio (z) = 0.42805 0.30319
#
# Static dielectric constant tensor:
#      x y z
#    x 3.584810 0.000000 0.000000 
#    y 0.000000 4.038810 0.000000 
#    z 0.000000 0.000000 3.441690 
# 
# 
# High freq. dielectric constant tensor:
#      x y z
#    x 1.753300 0.000000 0.000000 
#    y 0.000000 1.744170 0.000000 
#    z 0.000000 0.000000 1.752870 
# 
# From -- ./inp_files/8508.got.cif
#   From: 2010.03.12/outbox.cif.g09.slc.cpg/sg57_5_cif.got.tgz:8508.got - 2010.04.16 15:48:40.
