data_PCOD8233029
_publ_section_title
;
Structure prediction by ZEFSAII (Michael W. Deem and Ramdas Pophale) SiO2 
 PCOD8233029
Probable space group: P B C M
;
_chemical_formula_sum "Si O2"
_cell_formula_units_Z 60
_cell_length_a 14.984496
_cell_length_b 8.403383
_cell_length_c 24.443711
_cell_angle_alpha 90.000000
_cell_angle_beta 90.000000
_cell_angle_gamma 90.000000
_cell_volume 3077.963308
_symmetry_space_group_name_H-M "P B C M"
_symmetry_group_IT_number 57
_symmetry_cell_setting 'orthorhombic'
loop_
_space_group_symop_operation_xyz
x,y,z
-x,-y,1/2+z
x,1/2-y,-z
-x,1/2+y,1/2-z
-x,-y,-z
x,y,1/2-z
-x,1/2+y,z
x,1/2-y,1/2+z
loop_
_atom_site_type_symbol
_atom_site_label
_atom_site_fract_x
_atom_site_fract_y
_atom_site_fract_z
Si Si1 0.533766 0.774727 0.880777
Si Si2 0.213343 0.899082 0.810856
Si Si3 0.271271 0.750000 0.500000
Si Si4 0.574368 0.453768 0.044180
Si Si5 0.590890 0.010405 0.186913
Si Si6 0.033276 0.035908 0.119558
Si Si7 0.126022 0.760743 0.588926
Si Si8 0.909619 0.820071 0.187329
O O1 0.459989 0.693127 0.919458
O O2 0.595941 0.645936 0.851166
O O3 0.593847 0.892578 0.917871
O O4 0.487408 0.875114 0.832924
O O5 0.188514 0.842454 0.750000
O O6 0.163418 0.776004 0.849764
O O7 0.318455 0.892383 0.820845
O O8 0.181919 0.081596 0.819679
O O9 0.333252 0.599392 0.515813
O O10 0.206207 0.805511 0.548570
O O11 0.500000 0.500000 0.000000
O O12 0.574767 0.962257 0.250000
O O13 0.096110 0.166348 0.148401
O O14 0.957258 0.118118 0.081543
O O15 0.093250 0.921551 0.080899
O O16 0.991088 0.930531 0.167873
O O17 0.925788 0.768973 0.250000
#
# Coordination Sequence:
#
# PCOD8233029 Si02
#       8
#     8   8   4   8   8   8   8   8
#     4  10  21  35  61  81 114 156 191 244 292 353
#     4   9  19  34  54  81 115 147 187 237 283 334
#     4  12  24  38  64  84 116 146 200 248 296 358
#     4  11  21  39  59  87 114 147 198 253 300 336
#     4  10  20  36  56  85 120 155 191 231 289 360
#     4   9  19  35  54  79 117 146 191 233 283 354
#     4  10  22  38  59  82 112 154 191 239 291 345
#     4   9  16  29  53  82 110 148 185 229 280 333
#
# _framework density 19.493410999999998
#
# number of rings (size 3 to 8) (size 9 to 14) (size 15 to 20)
#    0.000    2.133    1.333    1.600    1.867    5.333 
#    0.000    0.000    0.000    7.200    0.000    0.000 
#    0.000    0.000    0.000    0.000    0.000    0.000 
#
# Total GULP energy -743923.055439 kJ/mol
# GULP energy per Si atom -12398.717591 kJ/mol
# Density = 1.944904 g / cm^3
# Si number density = 19.493411 Si / 1000 Ang^3
#
#
#
# Elastic Constant Matrix: (Units=GPa)
#
#
# Indices 1 2 3 4 5 6 
#
# 1 78.6515 23.9942 41.5403 0.0000 0.0000 0.0000
# 2 23.9942 87.2182 33.1735 0.0000 0.0000 0.0000
# 3 41.5403 33.1735 87.3948 0.0000 0.0000 0.0000
# 4 0.0000 0.0000 0.0000 29.4225 0.0000 0.0000
# 5 0.0000 0.0000 0.0000 0.0000 32.6259 0.0000
# 6 0.0000 0.0000 0.0000 0.0000 0.0000 22.6422
#
#
#
# Elastic Compliance Matrix: (Units=1/GPa)
#
#
# Indices 1 2 3 4 5 6 
#
# 1 0.017241 -0.001901 -0.007474 0.000000 0.000000 0.000000
# 2 -0.001901 0.013610 -0.004263 0.000000 0.000000 0.000000
# 3 -0.007474 -0.004263 0.016613 0.000000 0.000000 0.000000
# 4 0.000000 0.000000 0.000000 0.033988 0.000000 0.000000
# 5 0.000000 0.000000 0.000000 0.000000 0.030650 0.000000
# 6 0.000000 0.000000 0.000000 0.000000 0.000000 0.044165
#
#
# Mechanical properties :
#
#
# Convention : Reuss Voigt Hill
#
# Bulk Modulus (GPa) = 49.52950 50.07561 49.80255
# Shear Modulus (GPa) = 26.27831 27.24189 26.76010
#
# Velocity S-wave (km/s) = 3.67558 3.74236 3.70912
# Velocity P-wave (km/s) = 6.59368 6.66468 6.62928
#
# Compressibility (1/GPa) = 0.02018999
#
# Stress axis : x y z
#
# Youngs Moduli (GPa) = 57.99989 73.47730 60.19477
#
# Poissons Ratio (x) = 0.13965 0.44988
# Poissons Ratio (y) = 0.11023 0.25659
# Poissons Ratio (z) = 0.43348 0.31320
#
# Static dielectric constant tensor:
#      x y z
#    x 3.437070 0.000000 0.000000 
#    y 0.000000 3.630800 0.000000 
#    z 0.000000 0.000000 3.603410 
# 
# 
# High freq. dielectric constant tensor:
#      x y z
#    x 1.744980 0.000000 0.000000 
#    y 0.000000 1.756550 0.000000 
#    z 0.000000 0.000000 1.760070 
# 
# From -- ./inp_files/27421.got.cif
#   From: 2010.03.12/outbox.cif.g09.slc.cpg/sg57_14_cif.got.tgz:27421.got - 2010.04.16 15:48:40.
