data_PCOD8233499
_publ_section_title
;
Structure prediction by ZEFSAII (Michael W. Deem and Ramdas Pophale) SiO2 
 PCOD8233499
Probable space group: P B C M
;
_chemical_formula_sum "Si O2"
_cell_formula_units_Z 40
_cell_length_a 15.220575
_cell_length_b 7.650702
_cell_length_c 17.016475
_cell_angle_alpha 90.000000
_cell_angle_beta 90.000000
_cell_angle_gamma 90.000000
_cell_volume 1981.535903
_symmetry_space_group_name_H-M "P B C M"
_symmetry_group_IT_number 57
_symmetry_cell_setting 'orthorhombic'
loop_
_space_group_symop_operation_xyz
x,y,z
-x,-y,1/2+z
x,1/2-y,-z
-x,1/2+y,1/2-z
-x,-y,-z
x,y,1/2-z
-x,1/2+y,z
x,1/2-y,1/2+z
loop_
_atom_site_type_symbol
_atom_site_label
_atom_site_fract_x
_atom_site_fract_y
_atom_site_fract_z
Si Si1 0.401039 0.182723 0.158231
Si Si2 0.792847 0.764259 0.339528
Si Si3 0.098213 0.535239 0.588201
Si Si4 0.906979 0.070767 0.096845
Si Si5 0.450438 0.620472 0.939458
O O1 0.422938 0.157280 0.250000
O O2 0.311081 0.289398 0.145726
O O3 0.480789 0.281493 0.117038
O O4 0.387542 0.992078 0.117199
O O5 0.812503 0.717912 0.250000
O O6 0.826254 0.599555 0.388920
O O7 0.838207 0.946054 0.360665
O O8 0.117912 0.730496 0.619521
O O9 0.095853 0.535401 0.494998
O O10 0.006137 0.469499 0.624975
O O11 0.397810 0.750000 0.000000
O O12 0.500000 0.500000 0.000000
#
# Coordination Sequence:
#
# PCOD8233499 Si02
#       5
#     8   8   8   8   8
#     4  10  21  40  61  86 122 161 193 237 306 371
#     4  11  24  39  58  88 124 158 198 247 297 361
#     4  10  20  38  61  85 114 156 207 249 300 354
#     4  10  20  38  62  84 114 160 205 251 300 353
#     4   9  19  37  62  89 113 145 195 246 293 350
#
# _framework density 20.186361999999999
#
# number of rings (size 3 to 8) (size 9 to 14) (size 15 to 20)
#    0.000    2.000    2.000    1.200    0.000    6.400 
#   10.800    0.000    0.000    0.000    0.000    0.000 
#    0.000    0.000    0.000    0.000    0.000    0.000 
#
# Total GULP energy -495787.795181 kJ/mol
# GULP energy per Si atom -12394.694880 kJ/mol
# Density = 2.014042 g / cm^3
# Si number density = 20.186362 Si / 1000 Ang^3
#
#
#
# Elastic Constant Matrix: (Units=GPa)
#
#
# Indices 1 2 3 4 5 6 
#
# 1 61.1702 11.4991 22.1481 0.0000 0.0000 0.0000
# 2 11.4991 75.8525 24.4700 0.0000 0.0000 0.0000
# 3 22.1481 24.4700 72.3337 0.0000 0.0000 0.0000
# 4 0.0000 0.0000 0.0000 32.4093 0.0000 0.0000
# 5 0.0000 0.0000 0.0000 0.0000 26.8131 0.0000
# 6 0.0000 0.0000 0.0000 0.0000 0.0000 29.5637
#
#
#
# Elastic Compliance Matrix: (Units=1/GPa)
#
#
# Indices 1 2 3 4 5 6 
#
# 1 0.018467 -0.001095 -0.005284 0.000000 0.000000 0.000000
# 2 -0.001095 0.014863 -0.004693 0.000000 0.000000 0.000000
# 3 -0.005284 -0.004693 0.017030 0.000000 0.000000 0.000000
# 4 0.000000 0.000000 0.000000 0.030855 0.000000 0.000000
# 5 0.000000 0.000000 0.000000 0.000000 0.037295 0.000000
# 6 0.000000 0.000000 0.000000 0.000000 0.000000 0.033825
#
#
# Mechanical properties :
#
#
# Convention : Reuss Voigt Hill
#
# Bulk Modulus (GPa) = 35.43981 36.17674 35.80828
# Shear Modulus (GPa) = 27.19079 27.83984 27.51532
#
# Velocity S-wave (km/s) = 3.67412 3.71771 3.69598
# Velocity P-wave (km/s) = 5.96601 6.03231 5.99925
#
# Compressibility (1/GPa) = 0.02821686
#
# Stress axis : x y z
#
# Youngs Moduli (GPa) = 54.15108 67.27932 58.71870
#
# Poissons Ratio (x) = 0.07366 0.31027
# Poissons Ratio (y) = 0.05929 0.27556
# Poissons Ratio (z) = 0.28614 0.31574
#
# Static dielectric constant tensor:
#      x y z
#    x 3.413020 0.000000 0.000000 
#    y 0.000000 4.248980 0.000000 
#    z 0.000000 0.000000 3.893800 
# 
# 
# High freq. dielectric constant tensor:
#      x y z
#    x 1.766310 0.000000 0.000000 
#    y 0.000000 1.801830 0.000000 
#    z 0.000000 0.000000 1.793260 
# 
# From -- ./inp_files/18213.got.cif
#   From: 2010.03.12/outbox.cif.g09.slc.cpg/sg57_10_cif.got.tgz:18213.got - 2010.04.16 15:48:40.
