data_PCOD8233145
_publ_section_title
;
Structure prediction by ZEFSAII (Michael W. Deem and Ramdas Pophale) SiO2 
 PCOD8233145
Probable space group: P B C M
;
_chemical_formula_sum "Si O2"
_cell_formula_units_Z 56
_cell_length_a 20.905495
_cell_length_b 15.382321
_cell_length_c 8.922781
_cell_angle_alpha 90.000000
_cell_angle_beta 90.000000
_cell_angle_gamma 90.000000
_cell_volume 2869.343610
_symmetry_space_group_name_H-M "P B C M"
_symmetry_group_IT_number 57
_symmetry_cell_setting 'orthorhombic'
loop_
_space_group_symop_operation_xyz
x,y,z
-x,-y,1/2+z
x,1/2-y,-z
-x,1/2+y,1/2-z
-x,-y,-z
x,y,1/2-z
-x,1/2+y,z
x,1/2-y,1/2+z
loop_
_atom_site_type_symbol
_atom_site_label
_atom_site_fract_x
_atom_site_fract_y
_atom_site_fract_z
Si Si1 0.787437 0.996932 0.071697
Si Si2 0.589837 0.335849 0.420774
Si Si3 0.125328 0.337062 0.075209
Si Si4 0.008592 0.592079 0.574597
Si Si5 0.536431 0.578224 0.923884
Si Si6 0.652938 0.984460 0.928297
Si Si7 0.854155 0.158855 0.928400
O O1 0.786578 0.009778 0.250000
O O2 0.836603 0.922034 0.020616
O O3 0.719129 0.967133 0.010817
O O4 0.806801 0.086292 0.992243
O O5 0.616459 0.250000 0.500000
O O6 0.609026 0.325710 0.250000
O O7 0.512464 0.340861 0.441031
O O8 0.625796 0.421737 0.481389
O O9 0.134669 0.325164 0.250000
O O10 0.051064 0.347476 0.029251
O O11 0.152904 0.250000 0.000000
O O12 0.010247 0.574964 0.750000
O O13 0.073468 0.637843 0.519483
O O14 0.000000 0.500000 0.500000
O O15 0.549943 0.558007 0.750000
O O16 0.500000 0.500000 0.000000
O O17 0.603609 0.590006 0.011897
O O18 0.660063 0.976671 0.750000
O O19 0.847367 0.163180 0.750000
O O20 0.833445 0.250000 0.000000
#
# Coordination Sequence:
#
# PCOD8233145 Si02
#       7
#     8   8   8   8   8   8   8
#     4  11  23  40  60  83 116 155 197 245 293 349
#     4   9  19  33  53  82 113 141 176 224 272 328
#     4  10  22  39  60  86 114 147 191 241 296 353
#     4  10  20  36  59  87 116 148 188 239 296 352
#     4   9  17  32  53  79 107 138 177 220 268 319
#     4  10  21  37  56  80 110 147 191 232 278 338
#     4  11  23  38  59  86 117 155 195 240 295 353
#
# _framework density 19.516658
#
# number of rings (size 3 to 8) (size 9 to 14) (size 15 to 20)
#    0.000    2.000    1.429    3.000    0.000    6.286 
#    0.000    2.143    0.000    0.000    0.000    0.000 
#    0.000    0.000    0.000    0.000    0.000    0.000 
#
# Total GULP energy -694303.139980 kJ/mol
# GULP energy per Si atom -12398.270357 kJ/mol
# Density = 1.947224 g / cm^3
# Si number density = 19.516658 Si / 1000 Ang^3
#
#
#
# Elastic Constant Matrix: (Units=GPa)
#
#
# Indices 1 2 3 4 5 6 
#
# 1 84.5618 -3.1350 21.1225 0.0000 0.0000 0.0000
# 2 -3.1350 71.0844 23.8618 0.0000 0.0000 0.0000
# 3 21.1225 23.8618 61.5156 0.0000 0.0000 0.0000
# 4 0.0000 0.0000 0.0000 35.1597 0.0000 0.0000
# 5 0.0000 0.0000 0.0000 0.0000 33.6434 0.0000
# 6 0.0000 0.0000 0.0000 0.0000 0.0000 16.7020
#
#
#
# Elastic Compliance Matrix: (Units=1/GPa)
#
#
# Indices 1 2 3 4 5 6 
#
# 1 0.013292 0.002435 -0.005509 0.000000 0.000000 0.000000
# 2 0.002435 0.016620 -0.007283 0.000000 0.000000 0.000000
# 3 -0.005509 -0.007283 0.020973 0.000000 0.000000 0.000000
# 4 0.000000 0.000000 0.000000 0.028442 0.000000 0.000000
# 5 0.000000 0.000000 0.000000 0.000000 0.029724 0.000000
# 6 0.000000 0.000000 0.000000 0.000000 0.000000 0.059873
#
#
# Mechanical properties :
#
#
# Convention : Reuss Voigt Hill
#
# Bulk Modulus (GPa) = 33.14359 33.42895 33.28627
# Shear Modulus (GPa) = 25.03842 28.78851 26.91346
#
# Velocity S-wave (km/s) = 3.58568 3.84484 3.71752
# Velocity P-wave (km/s) = 5.84482 6.07256 5.95977
#
# Compressibility (1/GPa) = 0.03017175
#
# Stress axis : x y z
#
# Youngs Moduli (GPa) = 75.23336 60.16840 47.68112
#
# Poissons Ratio (x) = -0.14653 0.26266
# Poissons Ratio (y) = -0.18322 0.34727
# Poissons Ratio (z) = 0.41444 0.43821
#
# Static dielectric constant tensor:
#      x y z
#    x 3.793070 0.000000 0.000000 
#    y 0.000000 3.524270 0.000000 
#    z 0.000000 0.000000 3.415610 
# 
# 
# High freq. dielectric constant tensor:
#      x y z
#    x 1.762810 0.000000 0.000000 
#    y 0.000000 1.745830 0.000000 
#    z 0.000000 0.000000 1.763930 
# 
# From -- ./inp_files/8208.got.cif
#   From: 2010.03.12/outbox.cif.g09.slc.cpg/sg57_5_cif.got.tgz:8208.got - 2010.04.16 15:48:40.
