data_PCOD8233435
_publ_section_title
;
Structure prediction by ZEFSAII (Michael W. Deem and Ramdas Pophale) SiO2 
 PCOD8233435
Probable space group: P B C M
;
_chemical_formula_sum "Si O2"
_cell_formula_units_Z 48
_cell_length_a 7.823415
_cell_length_b 20.218555
_cell_length_c 14.220074
_cell_angle_alpha 90.000000
_cell_angle_beta 90.000000
_cell_angle_gamma 90.000000
_cell_volume 2249.304948
_symmetry_space_group_name_H-M "P B C M"
_symmetry_group_IT_number 57
_symmetry_cell_setting 'orthorhombic'
loop_
_space_group_symop_operation_xyz
x,y,z
-x,-y,1/2+z
x,1/2-y,-z
-x,1/2+y,1/2-z
-x,-y,-z
x,y,1/2-z
-x,1/2+y,z
x,1/2-y,1/2+z
loop_
_atom_site_type_symbol
_atom_site_label
_atom_site_fract_x
_atom_site_fract_y
_atom_site_fract_z
Si Si1 0.324280 0.743663 0.141344
Si Si2 0.001796 0.329481 0.861156
Si Si3 0.692097 0.393180 0.355954
Si Si4 0.136073 0.552914 0.471608
Si Si5 0.623033 0.846267 0.639617
Si Si6 0.543922 0.017230 0.356926
O O1 0.317656 0.724916 0.250000
O O2 0.377181 0.819338 0.124700
O O3 0.468924 0.696970 0.093343
O O4 0.133946 0.725864 0.100962
O O5 0.016523 0.327188 0.750000
O O6 0.194202 0.322473 0.903760
O O7 0.931572 0.401013 0.888920
O O8 0.769535 0.397596 0.250000
O O9 0.836718 0.406168 0.432491
O O10 0.540970 0.445667 0.368210
O O11 0.305859 0.517825 0.432893
O O12 0.000000 0.500000 0.500000
O O13 0.627358 0.832420 0.750000
O O14 0.590555 0.924048 0.619161
O O15 0.611905 0.026491 0.250000
#
# Coordination Sequence:
#
# PCOD8233435 Si02
#       6
#     8   8   8   8   8   8
#     4   9  18  38  63  89 122 166 208 256 318 375
#     4  10  20  37  64  94 123 160 213 263 310 373
#     4  10  23  41  62  88 127 169 208 262 323 371
#     4  12  24  38  61  91 129 163 210 259 315 380
#     4   9  17  34  65  93 118 159 210 256 305 374
#     4  10  20  40  66  91 122 164 211 260 318 373
#
# _framework density 21.339926999999999
#
# number of rings (size 3 to 8) (size 9 to 14) (size 15 to 20)
#    0.000    2.000    1.667    2.000    0.000    3.333 
#    3.000    0.000    3.667    0.000    0.000    0.000 
#    0.000    0.000    0.000    0.000    0.000    0.000 
#
# Total GULP energy -594922.227084 kJ/mol
# GULP energy per Si atom -12394.213064 kJ/mol
# Density = 2.129136 g / cm^3
# Si number density = 21.339927 Si / 1000 Ang^3
#
#
#
# Elastic Constant Matrix: (Units=GPa)
#
#
# Indices 1 2 3 4 5 6 
#
# 1 169.6168 78.0183 24.4371 0.0000 0.0000 0.0000
# 2 78.0183 154.6838 15.7572 0.0000 0.0000 0.0000
# 3 24.4371 15.7572 45.3558 0.0000 0.0000 0.0000
# 4 0.0000 0.0000 0.0000 16.8034 0.0000 0.0000
# 5 0.0000 0.0000 0.0000 0.0000 21.0139 0.0000
# 6 0.0000 0.0000 0.0000 0.0000 0.0000 30.2448
#
#
#
# Elastic Compliance Matrix: (Units=1/GPa)
#
#
# Indices 1 2 3 4 5 6 
#
# 1 0.008061 -0.003756 -0.003038 0.000000 0.000000 0.000000
# 2 -0.003756 0.008452 -0.000913 0.000000 0.000000 0.000000
# 3 -0.003038 -0.000913 0.024002 0.000000 0.000000 0.000000
# 4 0.000000 0.000000 0.000000 0.059512 0.000000 0.000000
# 5 0.000000 0.000000 0.000000 0.000000 0.047588 0.000000
# 6 0.000000 0.000000 0.000000 0.000000 0.000000 0.033063
#
#
# Mechanical properties :
#
#
# Convention : Reuss Voigt Hill
#
# Bulk Modulus (GPa) = 39.83893 67.34239 53.59066
# Shear Modulus (GPa) = 24.45472 30.37536 27.41504
#
# Velocity S-wave (km/s) = 3.38888 3.77690 3.58814
# Velocity P-wave (km/s) = 5.83283 7.11656 6.50643
#
# Compressibility (1/GPa) = 0.02510107
#
# Stress axis : x y z
#
# Youngs Moduli (GPa) = 124.05159 118.31018 41.66337
#
# Poissons Ratio (x) = 0.44441 0.12658
# Poissons Ratio (y) = 0.46598 0.03802
# Poissons Ratio (z) = 0.37690 0.10797
#
# Static dielectric constant tensor:
#      x y z
#    x 4.223760 0.000000 0.000000 
#    y 0.000000 3.790640 0.000000 
#    z 0.000000 0.000000 2.208860 
# 
# 
# High freq. dielectric constant tensor:
#      x y z
#    x 1.828760 0.000000 0.000000 
#    y 0.000000 1.837410 0.000000 
#    z 0.000000 0.000000 1.830120 
# 
# From -- ./inp_files/16534.got.cif
#   From: 2010.03.12/outbox.cif.g09.slc.cpg/sg57_9_cif.got.tgz:16534.got - 2010.04.16 15:48:40.
