data_PCOD8233479
_publ_section_title
;
Structure prediction by ZEFSAII (Michael W. Deem and Ramdas Pophale) SiO2 
 PCOD8233479
Probable space group: P B C M
;
_chemical_formula_sum "Si O2"
_cell_formula_units_Z 40
_cell_length_a 5.180029
_cell_length_b 15.339804
_cell_length_c 24.900363
_cell_angle_alpha 90.000000
_cell_angle_beta 90.000000
_cell_angle_gamma 90.000000
_cell_volume 1978.598521
_symmetry_space_group_name_H-M "P B C M"
_symmetry_group_IT_number 57
_symmetry_cell_setting 'orthorhombic'
loop_
_space_group_symop_operation_xyz
x,y,z
-x,-y,1/2+z
x,1/2-y,-z
-x,1/2+y,1/2-z
-x,-y,-z
x,y,1/2-z
-x,1/2+y,z
x,1/2-y,1/2+z
loop_
_atom_site_type_symbol
_atom_site_label
_atom_site_fract_x
_atom_site_fract_y
_atom_site_fract_z
Si Si1 0.327481 0.907511 0.688282
Si Si2 0.957765 0.474032 0.906049
Si Si3 0.008948 0.793003 0.556505
Si Si4 0.506215 0.751071 0.622021
Si Si5 0.464938 0.945336 0.125715
O O1 0.246002 0.902539 0.750000
O O2 0.072573 0.922487 0.651437
O O3 0.466811 0.817885 0.671015
O O4 0.518297 0.990085 0.677281
O O5 0.698757 0.531194 0.915812
O O6 0.994477 0.398672 0.950719
O O7 0.198665 0.539162 0.905771
O O8 0.947103 0.750000 0.500000
O O9 0.789276 0.764183 0.598009
O O10 0.291413 0.764048 0.576187
O O11 0.484477 0.653640 0.645660
#
# Coordination Sequence:
#
# PCOD8233479 Si02
#       5
#     8   8   8   8   8
#     4   9  21  38  61  84 118 156 192 240 300 350
#     4   9  19  39  57  81 121 151 187 251 290 344
#     4  11  21  40  63  87 118 161 198 244 303 356
#     4  11  22  39  62  88 121 155 197 252 287 359
#     4  10  20  38  60  82 122 149 195 239 299 337
#
# _framework density 20.216332000000001
#
# number of rings (size 3 to 8) (size 9 to 14) (size 15 to 20)
#    1.200    0.800    2.000    1.800    0.000    1.600 
#    0.000    6.000    0.000    0.000    0.000    0.000 
#    0.000    0.000    0.000    0.000    0.000    0.000 
#
# Total GULP energy -495698.342823 kJ/mol
# GULP energy per Si atom -12392.458571 kJ/mol
# Density = 2.017032 g / cm^3
# Si number density = 20.216332 Si / 1000 Ang^3
#
#
#
# Elastic Constant Matrix: (Units=GPa)
#
#
# Indices 1 2 3 4 5 6 
#
# 1 107.4483 15.4196 -2.1205 0.0000 0.0000 0.0000
# 2 15.4196 149.7234 -6.7522 0.0000 0.0000 0.0000
# 3 -2.1205 -6.7522 21.2042 0.0000 0.0000 0.0000
# 4 0.0000 0.0000 0.0000 6.8877 0.0000 0.0000
# 5 0.0000 0.0000 0.0000 0.0000 15.4124 0.0000
# 6 0.0000 0.0000 0.0000 0.0000 0.0000 32.0372
#
#
#
# Elastic Compliance Matrix: (Units=1/GPa)
#
#
# Indices 1 2 3 4 5 6 
#
# 1 0.009455 -0.000945 0.000645 0.000000 0.000000 0.000000
# 2 -0.000945 0.006871 0.002093 0.000000 0.000000 0.000000
# 3 0.000645 0.002093 0.047892 0.000000 0.000000 0.000000
# 4 0.000000 0.000000 0.000000 0.145187 0.000000 0.000000
# 5 0.000000 0.000000 0.000000 0.000000 0.064883 0.000000
# 6 0.000000 0.000000 0.000000 0.000000 0.000000 0.031214
#
#
# Mechanical properties :
#
#
# Convention : Reuss Voigt Hill
#
# Bulk Modulus (GPa) = 14.74834 32.38553 23.56694
# Shear Modulus (GPa) = 15.40758 28.98938 22.19848
#
# Velocity S-wave (km/s) = 2.76367 3.79087 3.31727
# Velocity P-wave (km/s) = 4.18270 5.93424 5.13372
#
# Compressibility (1/GPa) = 0.06780422
#
# Stress axis : x y z
#
# Youngs Moduli (GPa) = 105.76313 145.54593 20.88052
#
# Poissons Ratio (x) = 0.13749 -0.01346
# Poissons Ratio (y) = 0.09991 -0.04371
# Poissons Ratio (z) = -0.06819 -0.30469
#
# Static dielectric constant tensor:
#      x y z
#    x 3.622910 0.000000 0.000000 
#    y 0.000000 3.802550 0.000000 
#    z 0.000000 0.000000 3.091430 
# 
# 
# High freq. dielectric constant tensor:
#      x y z
#    x 1.798470 0.000000 0.000000 
#    y 0.000000 1.805300 0.000000 
#    z 0.000000 0.000000 1.735700 
# 
# From -- ./inp_files/26106.got.cif
#   From: 2010.03.12/outbox.cif.g09.slc.cpg/sg57_14_cif.got.tgz:26106.got - 2010.04.16 15:48:40.
