data_PCOD8233082
_publ_section_title
;
Structure prediction by ZEFSAII (Michael W. Deem and Ramdas Pophale) SiO2 
 PCOD8233082
Probable space group: P B C M
;
_chemical_formula_sum "Si O2"
_cell_formula_units_Z 48
_cell_length_a 18.565152
_cell_length_b 8.562120
_cell_length_c 15.416566
_cell_angle_alpha 90.000000
_cell_angle_beta 90.000000
_cell_angle_gamma 90.000000
_cell_volume 2450.571995
_symmetry_space_group_name_H-M "P B C M"
_symmetry_group_IT_number 57
_symmetry_cell_setting 'orthorhombic'
loop_
_space_group_symop_operation_xyz
x,y,z
-x,-y,1/2+z
x,1/2-y,-z
-x,1/2+y,1/2-z
-x,-y,-z
x,y,1/2-z
-x,1/2+y,z
x,1/2-y,1/2+z
loop_
_atom_site_type_symbol
_atom_site_label
_atom_site_fract_x
_atom_site_fract_y
_atom_site_fract_z
Si Si1 0.415941 0.059450 0.151722
Si Si2 0.666810 0.430081 0.505478
Si Si3 0.917992 0.540911 0.153379
Si Si4 0.946676 0.854490 0.416310
Si Si5 0.166434 0.931080 0.498624
Si Si6 0.430984 0.426171 0.348306
O O1 0.394123 0.010446 0.250000
O O2 0.427588 0.242090 0.145093
O O3 0.489440 0.976193 0.122617
O O4 0.353771 0.010661 0.085270
O O5 0.646253 0.250000 0.500000
O O6 0.750860 0.456534 0.522431
O O7 0.627148 0.501294 0.587940
O O8 0.908024 0.475808 0.250000
O O9 0.927870 0.728977 0.158399
O O10 0.985416 0.459032 0.107340
O O11 0.847434 0.497781 0.097993
O O12 0.964798 0.750000 0.500000
O O13 0.880019 0.971605 0.431608
O O14 0.144331 0.750000 0.500000
O O15 0.415220 0.484349 0.250000
#
# Coordination Sequence:
#
# PCOD8233082 Si02
#       6
#     8   8   8   8   8   8
#     4  10  21  37  60  85 113 146 186 233 279 329
#     4  11  23  38  58  82 113 152 188 227 279 335
#     4  11  21  35  58  86 111 140 181 230 274 322
#     4  10  20  36  58  81 110 145 181 222 271 328
#     4  10  22  40  57  77 110 151 186 221 273 331
#     4  10  21  38  59  85 113 146 187 233 278 327
#
# _framework density 19.587264999999999
#
# number of rings (size 3 to 8) (size 9 to 14) (size 15 to 20)
#    0.000    1.667    0.000    6.000    0.000    6.667 
#    0.000    6.667    0.000    0.000    0.000    0.000 
#    0.000    0.000    0.000    0.000    0.000    0.000 
#
# Total GULP energy -595279.944846 kJ/mol
# GULP energy per Si atom -12401.665518 kJ/mol
# Density = 1.954268 g / cm^3
# Si number density = 19.587265 Si / 1000 Ang^3
#
#
#
# Elastic Constant Matrix: (Units=GPa)
#
#
# Indices 1 2 3 4 5 6 
#
# 1 55.1399 31.6902 24.6223 0.0000 0.0000 0.0000
# 2 31.6902 105.2381 22.7362 0.0000 0.0000 0.0000
# 3 24.6223 22.7362 86.4666 0.0000 0.0000 0.0000
# 4 0.0000 0.0000 0.0000 26.2348 0.0000 0.0000
# 5 0.0000 0.0000 0.0000 0.0000 11.3815 0.0000
# 6 0.0000 0.0000 0.0000 0.0000 0.0000 35.1086
#
#
#
# Elastic Compliance Matrix: (Units=1/GPa)
#
#
# Indices 1 2 3 4 5 6 
#
# 1 0.023968 -0.006089 -0.005224 0.000000 0.000000 0.000000
# 2 -0.006089 0.011621 -0.001322 0.000000 0.000000 0.000000
# 3 -0.005224 -0.001322 0.013400 0.000000 0.000000 0.000000
# 4 0.000000 0.000000 0.000000 0.038117 0.000000 0.000000
# 5 0.000000 0.000000 0.000000 0.000000 0.087862 0.000000
# 6 0.000000 0.000000 0.000000 0.000000 0.000000 0.028483
#
#
# Mechanical properties :
#
#
# Convention : Reuss Voigt Hill
#
# Bulk Modulus (GPa) = 42.15860 44.99356 43.57608
# Shear Modulus (GPa) = 21.13024 25.73138 23.43081
#
# Velocity S-wave (km/s) = 3.28803 3.62840 3.46240
# Velocity P-wave (km/s) = 5.99876 6.36981 6.18706
#
# Compressibility (1/GPa) = 0.02371995
#
# Stress axis : x y z
#
# Youngs Moduli (GPa) = 41.72263 86.04833 74.62472
#
# Poissons Ratio (x) = 0.52393 0.38984
# Poissons Ratio (y) = 0.25404 0.09865
# Poissons Ratio (z) = 0.21796 0.11375
#
# Static dielectric constant tensor:
#      x y z
#    x 3.400390 0.000000 0.000000 
#    y 0.000000 3.943960 0.000000 
#    z 0.000000 0.000000 3.767520 
# 
# 
# High freq. dielectric constant tensor:
#      x y z
#    x 1.753290 0.000000 0.000000 
#    y 0.000000 1.783970 0.000000 
#    z 0.000000 0.000000 1.762720 
# 
# From -- ./inp_files/18960.got.cif
#   From: 2010.03.12/outbox.cif.g09.slc.cpg/sg57_10_cif.got.tgz:18960.got - 2010.04.16 15:48:40.
