data_PCOD8233020
_publ_section_title
;
Structure prediction by ZEFSAII (Michael W. Deem and Ramdas Pophale) SiO2 
 PCOD8233020
Probable space group: P B C M
;
_chemical_formula_sum "Si O2"
_cell_formula_units_Z 48
_cell_length_a 30.092556
_cell_length_b 9.547685
_cell_length_c 8.501743
_cell_angle_alpha 90.000000
_cell_angle_beta 90.000000
_cell_angle_gamma 90.000000
_cell_volume 2442.671876
_symmetry_space_group_name_H-M "P B C M"
_symmetry_group_IT_number 57
_symmetry_cell_setting 'orthorhombic'
loop_
_space_group_symop_operation_xyz
x,y,z
-x,-y,1/2+z
x,1/2-y,-z
-x,1/2+y,1/2-z
-x,-y,-z
x,y,1/2-z
-x,1/2+y,z
x,1/2-y,1/2+z
loop_
_atom_site_type_symbol
_atom_site_label
_atom_site_fract_x
_atom_site_fract_y
_atom_site_fract_z
Si Si1 0.710907 0.396558 0.564069
Si Si2 0.613473 0.400049 0.435822
Si Si3 0.784848 0.905373 0.936811
Si Si4 0.864184 0.399325 0.435155
Si Si5 0.539615 0.906230 0.435698
Si Si6 0.963222 0.100981 0.564612
O O1 0.730945 0.250000 0.500000
O O2 0.703757 0.387135 0.750000
O O3 0.664357 0.426250 0.480252
O O4 0.743383 0.522023 0.520383
O O5 0.596617 0.250000 0.500000
O O6 0.607167 0.402089 0.250000
O O7 0.585968 0.525911 0.511917
O O8 0.778405 0.908872 0.750000
O O9 0.829888 0.982668 0.991547
O O10 0.788345 0.750000 0.000000
O O11 0.848436 0.250000 0.500000
O O12 0.864328 0.386491 0.250000
O O13 0.913648 0.439354 0.496521
O O14 0.535752 0.750000 0.500000
O O15 0.536716 0.900564 0.250000
O O16 0.500000 0.000000 0.500000
O O17 0.977120 0.250000 0.500000
O O18 0.964526 0.100841 0.750000
O O19 0.000000 0.000000 0.500000
#
# Coordination Sequence:
#
# PCOD8233020 Si02
#       6
#     8   8   8   8   8   8
#     4  11  22  39  62  89 118 154 194 237 285 343
#     4  11  22  40  64  92 122 157 197 242 290 344
#     4  11  23  39  57  83 115 150 189 236 287 340
#     4   9  20  37  58  81 109 144 188 232 280 338
#     4  12  25  43  64  91 123 160 201 246 295 348
#     4  10  20  36  56  82 112 147 186 231 281 337
#
# _framework density 19.650613
#
# number of rings (size 3 to 8) (size 9 to 14) (size 15 to 20)
#    0.000    1.333    0.000    7.500    0.000    4.667 
#    0.000    5.000    0.000    0.000    0.000    0.000 
#    0.000    0.000    0.000    0.000    0.000    0.000 
#
# Total GULP energy -595366.252879 kJ/mol
# GULP energy per Si atom -12403.463602 kJ/mol
# Density = 1.960589 g / cm^3
# Si number density = 19.650613 Si / 1000 Ang^3
#
#
#
# Elastic Constant Matrix: (Units=GPa)
#
#
# Indices 1 2 3 4 5 6 
#
# 1 106.3650 88.8274 35.7244 0.0000 0.0000 0.0000
# 2 88.8274 172.0278 50.8189 0.0000 0.0000 0.0000
# 3 35.7244 50.8189 118.4882 0.0000 0.0000 0.0000
# 4 0.0000 0.0000 0.0000 38.8186 0.0000 0.0000
# 5 0.0000 0.0000 0.0000 0.0000 29.7687 0.0000
# 6 0.0000 0.0000 0.0000 0.0000 0.0000 70.0623
#
#
#
# Elastic Compliance Matrix: (Units=1/GPa)
#
#
# Indices 1 2 3 4 5 6 
#
# 1 0.016770 -0.008205 -0.001537 0.000000 0.000000 0.000000
# 2 -0.008205 0.010671 -0.002103 0.000000 0.000000 0.000000
# 3 -0.001537 -0.002103 0.009805 0.000000 0.000000 0.000000
# 4 0.000000 0.000000 0.000000 0.025761 0.000000 0.000000
# 5 0.000000 0.000000 0.000000 0.000000 0.033592 0.000000
# 6 0.000000 0.000000 0.000000 0.000000 0.000000 0.014273
#
#
# Mechanical properties :
#
#
# Convention : Reuss Voigt Hill
#
# Bulk Modulus (GPa) = 73.76876 83.06914 78.41895
# Shear Modulus (GPa) = 35.95012 42.49728 39.22370
#
# Velocity S-wave (km/s) = 4.28187 4.65547 4.47257
# Velocity P-wave (km/s) = 7.87829 8.44172 8.16487
#
# Compressibility (1/GPa) = 0.01355587
#
# Stress axis : x y z
#
# Youngs Moduli (GPa) = 59.62933 93.71113 101.98903
#
# Poissons Ratio (x) = 0.76893 0.15676
# Poissons Ratio (y) = 0.48928 0.21447
# Poissons Ratio (z) = 0.09165 0.19706
#
# Static dielectric constant tensor:
#      x y z
#    x 4.874270 0.000000 0.000000 
#    y 0.000000 3.144570 0.000000 
#    z 0.000000 0.000000 3.712790 
# 
# 
# High freq. dielectric constant tensor:
#      x y z
#    x 1.779450 0.000000 0.000000 
#    y 0.000000 1.768260 0.000000 
#    z 0.000000 0.000000 1.781880 
# 
# From -- ./inp_files/10086.got.cif
#   From: 2010.03.12/outbox.cif.g09.slc.cpg/sg57_6_cif.got.tgz:10086.got - 2010.04.16 15:48:40.
