data_PCOD8233603
_publ_section_title
;
Structure prediction by ZEFSAII (Michael W. Deem and Ramdas Pophale) SiO2 
 PCOD8233603
Probable space group: P B C M
;
_chemical_formula_sum "Si O2"
_cell_formula_units_Z 48
_cell_length_a 9.651315
_cell_length_b 17.250643
_cell_length_c 14.257555
_cell_angle_alpha 90.000000
_cell_angle_beta 90.000000
_cell_angle_gamma 90.000000
_cell_volume 2373.760143
_symmetry_space_group_name_H-M "P B C M"
_symmetry_group_IT_number 57
_symmetry_cell_setting 'orthorhombic'
loop_
_space_group_symop_operation_xyz
x,y,z
-x,-y,1/2+z
x,1/2-y,-z
-x,1/2+y,1/2-z
-x,-y,-z
x,y,1/2-z
-x,1/2+y,z
x,1/2-y,1/2+z
loop_
_atom_site_type_symbol
_atom_site_label
_atom_site_fract_x
_atom_site_fract_y
_atom_site_fract_z
Si Si1 0.953764 0.426916 0.945981
Si Si2 0.980272 0.425969 0.750000
Si Si3 0.537372 0.504419 0.750000
Si Si4 0.771797 0.833001 0.549235
Si Si5 0.311066 0.829911 0.541589
Si Si6 0.454393 0.077372 0.550581
Si Si7 0.711668 0.142736 0.250000
Si Si8 0.708030 0.620781 0.250000
O O1 0.935484 0.468067 0.844607
O O2 0.067677 0.358319 0.941955
O O3 0.807266 0.393448 0.978785
O O4 0.000000 0.500000 0.000000
O O5 0.142831 0.416884 0.750000
O O6 0.880019 0.347962 0.750000
O O7 0.539444 0.562368 0.838494
O O8 0.670878 0.448736 0.750000
O O9 0.403492 0.448175 0.750000
O O10 0.761872 0.750000 0.500000
O O11 0.698163 0.897181 0.483334
O O12 0.698621 0.829193 0.653083
O O13 0.255633 0.750000 0.500000
O O14 0.445099 0.853354 0.482017
O O15 0.347247 0.820249 0.653209
O O16 0.500000 0.000000 0.500000
#
# Coordination Sequence:
#
# PCOD8233603 Si02
#       8
#     8   4   4   8   8   8   4   4
#     4  10  21  39  63  92 122 162 205 249 299 359
#     4   8  20  34  58  86 118 156 198 236 308 356
#     4  12  24  38  64  88 124 154 212 262 296 356
#     4  11  23  40  63  91 128 162 203 250 310 367
#     4  11  23  40  63  91 128 162 203 250 310 367
#     4  12  23  40  61  91 115 163 209 251 295 363
#     4  10  20  39  61  85 125 166 192 251 317 355
#     4  10  20  39  61  85 125 166 192 251 317 355
#
# _framework density 20.221081999999999
#
# number of rings (size 3 to 8) (size 9 to 14) (size 15 to 20)
#    0.000    1.333    3.333    2.000    4.667    1.333 
#    0.000    1.667    0.000    0.000    0.000    0.000 
#    0.000    0.000    0.000    0.000    0.000    0.000 
#
# Total GULP energy -594637.361058 kJ/mol
# GULP energy per Si atom -12388.278355 kJ/mol
# Density = 2.017506 g / cm^3
# Si number density = 20.221082 Si / 1000 Ang^3
#
#
#
# Elastic Constant Matrix: (Units=GPa)
#
#
# Indices 1 2 3 4 5 6 
#
# 1 77.1043 -2.9729 14.0360 0.0000 0.0000 0.0000
# 2 -2.9729 70.2497 49.9199 0.0000 0.0000 0.0000
# 3 14.0360 49.9199 184.4909 0.0000 0.0000 0.0000
# 4 0.0000 0.0000 0.0000 31.0274 0.0000 0.0000
# 5 0.0000 0.0000 0.0000 0.0000 25.9214 0.0000
# 6 0.0000 0.0000 0.0000 0.0000 0.0000 30.4201
#
#
#
# Elastic Compliance Matrix: (Units=1/GPa)
#
#
# Indices 1 2 3 4 5 6 
#
# 1 0.013293 0.001586 -0.001440 0.000000 0.000000 0.000000
# 2 0.001586 0.017813 -0.004940 0.000000 0.000000 0.000000
# 3 -0.001440 -0.004940 0.006867 0.000000 0.000000 0.000000
# 4 0.000000 0.000000 0.000000 0.032230 0.000000 0.000000
# 5 0.000000 0.000000 0.000000 0.000000 0.038578 0.000000
# 6 0.000000 0.000000 0.000000 0.000000 0.000000 0.032873
#
#
# Mechanical properties :
#
#
# Convention : Reuss Voigt Hill
#
# Bulk Modulus (GPa) = 35.23271 50.42342 42.82806
# Shear Modulus (GPa) = 31.11317 35.53125 33.32221
#
# Velocity S-wave (km/s) = 3.92682 4.19637 4.06383
# Velocity P-wave (km/s) = 6.16615 6.96201 6.57613
#
# Compressibility (1/GPa) = 0.02838272
#
# Stress axis : x y z
#
# Youngs Moduli (GPa) = 75.22853 56.13935 145.62993
#
# Poissons Ratio (x) = -0.08905 0.20978
# Poissons Ratio (y) = -0.11933 0.71948
# Poissons Ratio (z) = 0.10837 0.27736
#
# Static dielectric constant tensor:
#      x y z
#    x 4.247070 0.000000 0.000000 
#    y 0.000000 3.266130 0.000000 
#    z 0.000000 0.000000 4.360430 
# 
# 
# High freq. dielectric constant tensor:
#      x y z
#    x 1.810520 0.000000 0.000000 
#    y 0.000000 1.750530 0.000000 
#    z 0.000000 0.000000 1.811690 
# 
# From -- ./inp_files/16472.got.cif
#   From: 2010.03.12/outbox.cif.g09.slc.cpg/sg57_9_cif.got.tgz:16472.got - 2010.04.16 15:48:40.
