data_PCOD8233081
_publ_section_title
;
Structure prediction by ZEFSAII (Michael W. Deem and Ramdas Pophale) SiO2 
 PCOD8233081
Probable space group: P B C M
;
_chemical_formula_sum "Si O2"
_cell_formula_units_Z 64
_cell_length_a 20.491284
_cell_length_b 9.068585
_cell_length_c 16.869243
_cell_angle_alpha 90.000000
_cell_angle_beta 90.000000
_cell_angle_gamma 90.000000
_cell_volume 3134.759988
_symmetry_space_group_name_H-M "P B C M"
_symmetry_group_IT_number 57
_symmetry_cell_setting 'orthorhombic'
loop_
_space_group_symop_operation_xyz
x,y,z
-x,-y,1/2+z
x,1/2-y,-z
-x,1/2+y,1/2-z
-x,-y,-z
x,y,1/2-z
-x,1/2+y,z
x,1/2-y,1/2+z
loop_
_atom_site_type_symbol
_atom_site_label
_atom_site_fract_x
_atom_site_fract_y
_atom_site_fract_z
Si Si1 0.811950 0.177722 0.657394
Si Si2 0.201499 0.006632 0.843286
Si Si3 0.319677 0.520048 0.842976
Si Si4 0.565186 0.297178 0.409504
Si Si5 0.677562 0.812671 0.155868
Si Si6 0.548868 0.982113 0.157976
Si Si7 0.055923 0.020563 0.840805
Si Si8 0.055660 0.706298 0.590420
O O1 0.827945 0.187114 0.750000
O O2 0.791608 0.339505 0.624332
O O3 0.754970 0.062261 0.639685
O O4 0.877273 0.121551 0.613021
O O5 0.212487 0.001754 0.750000
O O6 0.257605 0.110540 0.881033
O O7 0.129664 0.070502 0.863375
O O8 0.336634 0.533535 0.750000
O O9 0.365196 0.631119 0.890945
O O10 0.329526 0.354256 0.875352
O O11 0.562855 0.250000 0.500000
O O12 0.510148 0.418835 0.393425
O O13 0.553579 0.156853 0.353563
O O14 0.682965 0.809067 0.250000
O O15 0.615221 0.905769 0.127866
O O16 0.535708 0.948635 0.250000
O O17 0.039748 0.059188 0.750000
O O18 0.006172 0.101617 0.898469
O O19 0.048950 0.846117 0.852194
O O20 0.058638 0.750000 0.500000
#
# Coordination Sequence:
#
# PCOD8233081 Si02
#       8
#     8   8   8   8   8   8   8   8
#     4   9  18  34  56  80 110 151 197 239 282 341
#     4   8  15  30  52  79 107 138 181 233 284 332
#     4  10  20  36  59  86 114 148 195 242 284 342
#     4  12  25  40  59  86 121 155 191 241 298 346
#     4   9  18  33  57  88 114 139 182 239 287 330
#     4  11  22  39  63  86 113 153 197 238 286 348
#     4  10  20  36  58  81 109 149 195 238 286 350
#     4  11  22  36  55  82 117 151 188 240 300 351
#
# _framework density 20.416236000000001
#
# number of rings (size 3 to 8) (size 9 to 14) (size 15 to 20)
#    0.000    2.000    0.000    5.250    0.000    4.500 
#    0.000    2.500    0.000    0.750    0.000    0.000 
#    0.000    0.000    0.000    0.000    0.000    0.000 
#
# Total GULP energy -793751.371671 kJ/mol
# GULP energy per Si atom -12402.365182 kJ/mol
# Density = 2.036977 g / cm^3
# Si number density = 20.416236 Si / 1000 Ang^3
#
#
#
# Elastic Constant Matrix: (Units=GPa)
#
#
# Indices 1 2 3 4 5 6 
#
# 1 102.6805 26.6841 21.6301 0.0000 0.0000 0.0000
# 2 26.6841 75.6124 1.9433 0.0000 0.0000 0.0000
# 3 21.6301 1.9433 43.7124 0.0000 0.0000 0.0000
# 4 0.0000 0.0000 0.0000 13.7011 0.0000 0.0000
# 5 0.0000 0.0000 0.0000 0.0000 10.8810 0.0000
# 6 0.0000 0.0000 0.0000 0.0000 0.0000 36.1816
#
#
#
# Elastic Compliance Matrix: (Units=1/GPa)
#
#
# Indices 1 2 3 4 5 6 
#
# 1 0.012017 -0.004093 -0.005764 0.000000 0.000000 0.000000
# 2 -0.004093 0.014634 0.001375 0.000000 0.000000 0.000000
# 3 -0.005764 0.001375 0.025668 0.000000 0.000000 0.000000
# 4 0.000000 0.000000 0.000000 0.072987 0.000000 0.000000
# 5 0.000000 0.000000 0.000000 0.000000 0.091903 0.000000
# 6 0.000000 0.000000 0.000000 0.000000 0.000000 0.027638
#
#
# Mechanical properties :
#
#
# Convention : Reuss Voigt Hill
#
# Bulk Modulus (GPa) = 28.28504 35.83560 32.06032
# Shear Modulus (GPa) = 18.27504 23.60260 20.93882
#
# Velocity S-wave (km/s) = 2.99511 3.40379 3.20597
# Velocity P-wave (km/s) = 5.08381 5.74790 5.42602
#
# Compressibility (1/GPa) = 0.03535437
#
# Stress axis : x y z
#
# Youngs Moduli (GPa) = 83.21684 68.33242 38.95901
#
# Poissons Ratio (x) = 0.27966 0.22457
# Poissons Ratio (y) = 0.34058 -0.05355
# Poissons Ratio (z) = 0.47969 -0.09393
#
# Static dielectric constant tensor:
#      x y z
#    x 3.914300 0.000000 0.000000 
#    y 0.000000 3.785270 0.000000 
#    z 0.000000 0.000000 3.343310 
# 
# 
# High freq. dielectric constant tensor:
#      x y z
#    x 1.813500 0.000000 0.000000 
#    y 0.000000 1.795770 0.000000 
#    z 0.000000 0.000000 1.767620 
# 
# From -- ./inp_files/23008.got.cif
#   From: 2010.03.12/outbox.cif.g09.slc.cpg/sg57_12_cif.got.tgz:23008.got - 2010.04.16 15:48:40.
