data_PCOD8233329
_publ_section_title
;
Structure prediction by ZEFSAII (Michael W. Deem and Ramdas Pophale) SiO2 
 PCOD8233329
Probable space group: P B C M
;
_chemical_formula_sum "Si O2"
_cell_formula_units_Z 56
_cell_length_a 15.195297
_cell_length_b 8.747605
_cell_length_c 19.532732
_cell_angle_alpha 90.000000
_cell_angle_beta 90.000000
_cell_angle_gamma 90.000000
_cell_volume 2596.338710
_symmetry_space_group_name_H-M "P B C M"
_symmetry_group_IT_number 57
_symmetry_cell_setting 'orthorhombic'
loop_
_space_group_symop_operation_xyz
x,y,z
-x,-y,1/2+z
x,1/2-y,-z
-x,1/2+y,1/2-z
-x,-y,-z
x,y,1/2-z
-x,1/2+y,z
x,1/2-y,1/2+z
loop_
_atom_site_type_symbol
_atom_site_label
_atom_site_fract_x
_atom_site_fract_y
_atom_site_fract_z
Si Si1 0.553905 0.199929 0.827858
Si Si2 0.740271 0.055056 0.441087
Si Si3 0.972433 0.777003 0.327101
Si Si4 0.870794 0.028653 0.826823
Si Si5 0.708927 0.103282 0.587648
Si Si6 0.920870 0.910779 0.463647
Si Si7 0.619497 0.962181 0.171470
O O1 0.572199 0.154634 0.750000
O O2 0.618446 0.090402 0.870646
O O3 0.571747 0.376892 0.842278
O O4 0.451865 0.168080 0.845534
O O5 0.683434 0.048240 0.511245
O O6 0.744007 0.223650 0.410372
O O7 0.835229 0.013110 0.470116
O O8 0.699965 0.943176 0.382527
O O9 0.943250 0.825880 0.250000
O O10 0.944517 0.602312 0.341920
O O11 0.929122 0.888090 0.382433
O O12 0.078257 0.807840 0.334836
O O13 0.833421 0.012407 0.750000
O O14 0.788199 0.007106 0.877427
O O15 0.907786 0.750000 0.500000
O O16 0.000000 0.000000 0.500000
O O17 0.654250 0.950181 0.250000
#
# Coordination Sequence:
#
# PCOD8233329 Si02
#       7
#     8   8   8   8   8   8   8
#     4   9  18  36  62  88 116 154 194 239 300 363
#     4  10  23  38  58  88 120 158 203 247 302 362
#     4  10  22  39  58  83 115 153 203 254 309 365
#     4  10  21  38  60  86 117 155 201 255 306 363
#     4  10  20  37  60  86 119 155 203 244 294 371
#     4  12  26  42  64  88 123 168 210 258 316 372
#     4   9  19  39  63  90 120 154 197 246 304 369
#
# _framework density 21.568835
#
# number of rings (size 3 to 8) (size 9 to 14) (size 15 to 20)
#    0.000    2.000    0.000    3.000    6.000    1.714 
#    5.143    0.000    0.000    0.000    0.000    0.000 
#    0.000    0.000    0.000    0.000    0.000    0.000 
#
# Total GULP energy -694051.361263 kJ/mol
# GULP energy per Si atom -12393.774308 kJ/mol
# Density = 2.151974 g / cm^3
# Si number density = 21.568835 Si / 1000 Ang^3
#
#
#
# Elastic Constant Matrix: (Units=GPa)
#
#
# Indices 1 2 3 4 5 6 
#
# 1 84.0347 20.7553 41.4757 0.0000 0.0000 0.0000
# 2 20.7553 41.8684 24.7801 0.0000 0.0000 0.0000
# 3 41.4757 24.7801 118.7378 0.0000 0.0000 0.0000
# 4 0.0000 0.0000 0.0000 28.4359 0.0000 0.0000
# 5 0.0000 0.0000 0.0000 0.0000 39.3673 0.0000
# 6 0.0000 0.0000 0.0000 0.0000 0.0000 30.1803
#
#
#
# Elastic Compliance Matrix: (Units=1/GPa)
#
#
# Indices 1 2 3 4 5 6 
#
# 1 0.015254 -0.005029 -0.004279 0.000000 0.000000 0.000000
# 2 -0.005029 0.028909 -0.004276 0.000000 0.000000 0.000000
# 3 -0.004279 -0.004276 0.010809 0.000000 0.000000 0.000000
# 4 0.000000 0.000000 0.000000 0.035167 0.000000 0.000000
# 5 0.000000 0.000000 0.000000 0.000000 0.025402 0.000000
# 6 0.000000 0.000000 0.000000 0.000000 0.000000 0.033134
#
#
# Mechanical properties :
#
#
# Convention : Reuss Voigt Hill
#
# Bulk Modulus (GPa) = 35.96784 46.51812 41.24298
# Shear Modulus (GPa) = 27.01094 30.10534 28.55814
#
# Velocity S-wave (km/s) = 3.54264 3.74007 3.64269
# Velocity P-wave (km/s) = 5.78323 6.34546 6.07086
#
# Compressibility (1/GPa) = 0.02780262
#
# Stress axis : x y z
#
# Youngs Moduli (GPa) = 65.55763 34.59183 92.51634
#
# Poissons Ratio (x) = 0.17398 0.39584
# Poissons Ratio (y) = 0.32972 0.39563
# Poissons Ratio (z) = 0.28049 0.14793
#
# Static dielectric constant tensor:
#      x y z
#    x 3.780750 0.000000 0.000000 
#    y 0.000000 3.742320 0.000000 
#    z 0.000000 0.000000 4.284670 
# 
# 
# High freq. dielectric constant tensor:
#      x y z
#    x 1.827810 0.000000 0.000000 
#    y 0.000000 1.825970 0.000000 
#    z 0.000000 0.000000 1.869010 
# 
# From -- ./inp_files/25386.got.cif
#   From: 2010.03.12/outbox.cif.g09.slc.cpg/sg57_13_cif.got.tgz:25386.got - 2010.04.16 15:48:40.
