data_PCOD8233933
_publ_section_title
;
Structure prediction by ZEFSAII (Michael W. Deem and Ramdas Pophale) SiO2 
 PCOD8233933
Probable space group: P B C M
;
_chemical_formula_sum "Si O2"
_cell_formula_units_Z 48
_cell_length_a 30.453059
_cell_length_b 9.069169
_cell_length_c 8.658585
_cell_angle_alpha 90.000000
_cell_angle_beta 90.000000
_cell_angle_gamma 90.000000
_cell_volume 2391.362108
_symmetry_space_group_name_H-M "P B C M"
_symmetry_group_IT_number 57
_symmetry_cell_setting 'orthorhombic'
loop_
_space_group_symop_operation_xyz
x,y,z
-x,-y,1/2+z
x,1/2-y,-z
-x,1/2+y,1/2-z
-x,-y,-z
x,y,1/2-z
-x,1/2+y,z
x,1/2-y,1/2+z
loop_
_atom_site_type_symbol
_atom_site_label
_atom_site_fract_x
_atom_site_fract_y
_atom_site_fract_z
Si Si1 0.959113 0.912508 0.933964
Si Si2 0.538380 0.907135 0.070806
Si Si3 0.712769 0.406374 0.071047
Si Si4 0.363254 0.089648 0.569773
Si Si5 0.122040 0.912756 0.566435
Si Si6 0.798932 0.587596 0.069042
O O1 0.960984 0.909597 0.750000
O O2 0.961247 0.750000 0.000000
O O3 0.914506 0.985849 0.989858
O O4 0.000000 0.000000 0.000000
O O5 0.530232 0.897016 0.250000
O O6 0.587320 0.966553 0.033184
O O7 0.533136 0.750000 0.000000
O O8 0.500000 0.000000 0.000000
O O9 0.704814 0.380989 0.250000
O O10 0.750347 0.526540 0.039541
O O11 0.726525 0.250000 0.000000
O O12 0.668010 0.465264 0.998388
O O13 0.353545 0.250000 0.500000
O O14 0.354566 0.104549 0.750000
O O15 0.117315 0.750000 0.500000
O O16 0.116332 0.909487 0.750000
O O17 0.168908 0.978679 0.521395
O O18 0.810993 0.590485 0.250000
O O19 0.802690 0.750000 0.000000
#
# Coordination Sequence:
#
# PCOD8233933 Si02
#       6
#     8   8   8   8   8   8
#     4  12  25  44  67  95 129 167 210 257 308 364
#     4  10  21  37  58  84 114 151 192 239 291 349
#     4  11  24  40  61  88 120 156 197 244 297 352
#     4  10  21  38  60  85 115 151 194 240 292 350
#     4  12  25  43  66  94 127 165 206 253 306 361
#     4  11  24  42  64  92 123 160 202 247 298 356
#
# _framework density 20.072243
#
# number of rings (size 3 to 8) (size 9 to 14) (size 15 to 20)
#    0.000    1.000    0.000    7.000    0.000    8.000 
#    0.000    0.000    0.000    0.000    0.000    0.000 
#    0.000    0.000    0.000    0.000    0.000    0.000 
#
# Total GULP energy -595397.416137 kJ/mol
# GULP energy per Si atom -12404.112836 kJ/mol
# Density = 2.002656 g / cm^3
# Si number density = 20.072243 Si / 1000 Ang^3
#
#
#
# Elastic Constant Matrix: (Units=GPa)
#
#
# Indices 1 2 3 4 5 6 
#
# 1 116.8358 50.9627 68.5944 0.0000 0.0000 0.0000
# 2 50.9627 117.1910 84.6895 0.0000 0.0000 0.0000
# 3 68.5944 84.6895 130.1365 0.0000 0.0000 0.0000
# 4 0.0000 0.0000 0.0000 43.1728 0.0000 0.0000
# 5 0.0000 0.0000 0.0000 0.0000 34.1955 0.0000
# 6 0.0000 0.0000 0.0000 0.0000 0.0000 37.2313
#
#
#
# Elastic Compliance Matrix: (Units=1/GPa)
#
#
# Indices 1 2 3 4 5 6 
#
# 1 0.012494 -0.001273 -0.005758 0.000000 0.000000 0.000000
# 2 -0.001273 0.016239 -0.009897 0.000000 0.000000 0.000000
# 3 -0.005758 -0.009897 0.017160 0.000000 0.000000 0.000000
# 4 0.000000 0.000000 0.000000 0.023163 0.000000 0.000000
# 5 0.000000 0.000000 0.000000 0.000000 0.029244 0.000000
# 6 0.000000 0.000000 0.000000 0.000000 0.000000 0.026859
#
#
# Mechanical properties :
#
#
# Convention : Reuss Voigt Hill
#
# Bulk Modulus (GPa) = 83.06658 85.85070 84.45864
# Shear Modulus (GPa) = 30.67016 33.58104 32.12560
#
# Velocity S-wave (km/s) = 3.91319 4.09468 4.00496
# Velocity P-wave (km/s) = 7.86709 8.07582 7.97214
#
# Compressibility (1/GPa) = 0.01203854
#
# Stress axis : x y z
#
# Youngs Moduli (GPa) = 80.03584 61.58169 58.27642
#
# Poissons Ratio (x) = 0.07837 0.33553
# Poissons Ratio (y) = 0.10186 0.57675
# Poissons Ratio (z) = 0.46081 0.60946
#
# Static dielectric constant tensor:
#      x y z
#    x 3.957840 0.000000 0.000000 
#    y 0.000000 4.014100 0.000000 
#    z 0.000000 0.000000 3.866450 
# 
# 
# High freq. dielectric constant tensor:
#      x y z
#    x 1.801910 0.000000 0.000000 
#    y 0.000000 1.793250 0.000000 
#    z 0.000000 0.000000 1.806430 
# 
# From -- ./inp_files/10049.got.cif
#   From: 2010.03.12/outbox.cif.g09.slc.cpg/sg57_6_cif.got.tgz:10049.got - 2010.04.16 15:48:40.
