data_PCOD8233923
_publ_section_title
;
Structure prediction by ZEFSAII (Michael W. Deem and Ramdas Pophale) SiO2 
 PCOD8233923
Probable space group: P B C M
;
_chemical_formula_sum "Si O2"
_cell_formula_units_Z 40
_cell_length_a 25.375223
_cell_length_b 9.135449
_cell_length_c 8.869145
_cell_angle_alpha 90.000000
_cell_angle_beta 90.000000
_cell_angle_gamma 90.000000
_cell_volume 2055.992472
_symmetry_space_group_name_H-M "P B C M"
_symmetry_group_IT_number 57
_symmetry_cell_setting 'orthorhombic'
loop_
_space_group_symop_operation_xyz
x,y,z
-x,-y,1/2+z
x,1/2-y,-z
-x,1/2+y,1/2-z
-x,-y,-z
x,y,1/2-z
-x,1/2+y,z
x,1/2-y,1/2+z
loop_
_atom_site_type_symbol
_atom_site_label
_atom_site_fract_x
_atom_site_fract_y
_atom_site_fract_z
Si Si1 0.662153 0.407598 0.424404
Si Si2 0.750649 0.592979 0.571083
Si Si3 0.149113 0.907199 0.573631
Si Si4 0.952880 0.909470 0.428935
Si Si5 0.543181 0.096774 0.577884
O O1 0.670381 0.250000 0.500000
O O2 0.678916 0.393721 0.250000
O O3 0.696375 0.528949 0.508216
O O4 0.602276 0.466066 0.439450
O O5 0.761983 0.750000 0.500000
O O6 0.747279 0.609286 0.750000
O O7 0.797314 0.484753 0.519918
O O8 0.143162 0.750000 0.500000
O O9 0.149555 0.881138 0.750000
O O10 0.100882 0.009879 0.525348
O O11 0.951790 0.750000 0.500000
O O12 0.960291 0.897633 0.250000
O O13 0.000000 0.000000 0.500000
O O14 0.541157 0.250000 0.500000
O O15 0.527007 0.115334 0.750000
O O16 0.500000 0.000000 0.500000
#
# Coordination Sequence:
#
# PCOD8233923 Si02
#       5
#     8   8   8   8   8
#     4  10  21  38  59  84 113 148 188 233 282 337
#     4  11  23  39  59  85 115 150 190 235 285 338
#     4  10  23  40  60  86 116 151 192 236 285 339
#     4  11  23  40  61  88 120 155 195 240 288 340
#     4  10  21  37  58  83 113 148 188 232 282 336
#
# _framework density 19.455324999999998
#
# number of rings (size 3 to 8) (size 9 to 14) (size 15 to 20)
#    0.000    1.600    0.000    4.200    0.000    9.600 
#    0.000    0.000    0.000    0.000    0.000    0.000 
#    0.000    0.000    0.000    0.000    0.000    0.000 
#
# Total GULP energy -496135.551899 kJ/mol
# GULP energy per Si atom -12403.388797 kJ/mol
# Density = 1.941104 g / cm^3
# Si number density = 19.455325 Si / 1000 Ang^3
#
#
#
# Elastic Constant Matrix: (Units=GPa)
#
#
# Indices 1 2 3 4 5 6 
#
# 1 132.5806 70.8151 70.7948 0.0000 0.0000 0.0000
# 2 70.8151 142.9628 66.8992 0.0000 0.0000 0.0000
# 3 70.7948 66.8992 123.0903 0.0000 0.0000 0.0000
# 4 0.0000 0.0000 0.0000 43.4406 0.0000 0.0000
# 5 0.0000 0.0000 0.0000 0.0000 33.4802 0.0000
# 6 0.0000 0.0000 0.0000 0.0000 0.0000 57.8973
#
#
#
# Elastic Compliance Matrix: (Units=1/GPa)
#
#
# Indices 1 2 3 4 5 6 
#
# 1 0.012187 -0.003697 -0.005000 0.000000 0.000000 0.000000
# 2 -0.003697 0.010502 -0.003582 0.000000 0.000000 0.000000
# 3 -0.005000 -0.003582 0.012946 0.000000 0.000000 0.000000
# 4 0.000000 0.000000 0.000000 0.023020 0.000000 0.000000
# 5 0.000000 0.000000 0.000000 0.000000 0.029868 0.000000
# 6 0.000000 0.000000 0.000000 0.000000 0.000000 0.017272
#
#
# Mechanical properties :
#
#
# Convention : Reuss Voigt Hill
#
# Bulk Modulus (GPa) = 90.26532 90.62798 90.44665
# Shear Modulus (GPa) = 37.30062 39.63860 38.46961
#
# Velocity S-wave (km/s) = 4.38339 4.51867 4.45154
# Velocity P-wave (km/s) = 8.49210 8.59699 8.54470
#
# Compressibility (1/GPa) = 0.01107845
#
# Stress axis : x y z
#
# Youngs Moduli (GPa) = 82.05342 95.21941 77.24134
#
# Poissons Ratio (x) = 0.35203 0.38621
# Poissons Ratio (y) = 0.30335 0.27664
# Poissons Ratio (z) = 0.41027 0.34103
#
# Static dielectric constant tensor:
#      x y z
#    x 3.646040 0.000000 0.000000 
#    y 0.000000 3.496810 0.000000 
#    z 0.000000 0.000000 3.719860 
# 
# 
# High freq. dielectric constant tensor:
#      x y z
#    x 1.774780 0.000000 0.000000 
#    y 0.000000 1.763520 0.000000 
#    z 0.000000 0.000000 1.772450 
# 
# From -- ./inp_files/8874.got.cif
#   From: 2010.03.12/outbox.cif.g09.slc.cpg/sg57_5_cif.got.tgz:8874.got - 2010.04.16 15:48:40.
