data_PCOD8233266
_publ_section_title
;
Structure prediction by ZEFSAII (Michael W. Deem and Ramdas Pophale) SiO2 
 PCOD8233266
Probable space group: P B C M
;
_chemical_formula_sum "Si O2"
_cell_formula_units_Z 48
_cell_length_a 30.365363
_cell_length_b 9.549010
_cell_length_c 8.642332
_cell_angle_alpha 90.000000
_cell_angle_beta 90.000000
_cell_angle_gamma 90.000000
_cell_volume 2505.923283
_symmetry_space_group_name_H-M "P B C M"
_symmetry_group_IT_number 57
_symmetry_cell_setting 'orthorhombic'
loop_
_space_group_symop_operation_xyz
x,y,z
-x,-y,1/2+z
x,1/2-y,-z
-x,1/2+y,1/2-z
-x,-y,-z
x,y,1/2-z
-x,1/2+y,z
x,1/2-y,1/2+z
loop_
_atom_site_type_symbol
_atom_site_label
_atom_site_fract_x
_atom_site_fract_y
_atom_site_fract_z
Si Si1 0.961541 0.594786 0.433209
Si Si2 0.883378 0.398607 0.067864
Si Si3 0.538963 0.094049 0.065889
Si Si4 0.784950 0.102905 0.933229
Si Si5 0.388088 0.098699 0.433661
Si Si6 0.711879 0.896048 0.567996
O O1 0.963812 0.750000 0.500000
O O2 0.966212 0.602576 0.250000
O O3 0.915669 0.522935 0.485303
O O4 0.000000 0.500000 0.500000
O O5 0.884546 0.380209 0.250000
O O6 0.834160 0.438434 0.009755
O O7 0.899141 0.250000 0.000000
O O8 0.536091 0.099892 0.250000
O O9 0.535278 0.250000 0.000000
O O10 0.500000 0.000000 0.000000
O O11 0.584542 0.024736 0.012668
O O12 0.783334 0.106733 0.750000
O O13 0.747861 0.001092 0.002027
O O14 0.770982 0.250000 0.000000
O O15 0.402512 0.250000 0.500000
O O16 0.395739 0.099351 0.250000
O O17 0.337801 0.064463 0.480843
O O18 0.726241 0.750000 0.500000
O O19 0.715251 0.888750 0.750000
#
# Coordination Sequence:
#
# PCOD8233266 Si02
#       6
#     8   8   8   8   8   8
#     4  11  23  38  56  80 108 141 178 222 271 325
#     4   9  19  35  55  77 105 139 178 221 269 320
#     4  12  25  42  62  86 114 147 184 226 273 325
#     4   9  18  34  53  77 107 141 179 222 268 319
#     4  10  20  37  58  83 113 148 186 227 273 324
#     4   9  19  34  54  79 110 144 181 222 267 317
#
# _framework density 19.154617999999999
#
# number of rings (size 3 to 8) (size 9 to 14) (size 15 to 20)
#    0.000    2.000    0.000    3.500    0.000    5.333 
#    0.000    1.667    0.000    0.000    0.000    0.000 
#    0.000    0.000    0.000    0.000    0.000    0.000 
#
# Total GULP energy -595178.256553 kJ/mol
# GULP energy per Si atom -12399.547012 kJ/mol
# Density = 1.911102 g / cm^3
# Si number density = 19.154618 Si / 1000 Ang^3
#
#
#
# Elastic Constant Matrix: (Units=GPa)
#
#
# Indices 1 2 3 4 5 6 
#
# 1 139.7952 112.9581 42.6175 0.0000 0.0000 0.0000
# 2 112.9581 184.0767 53.9389 0.0000 0.0000 0.0000
# 3 42.6175 53.9389 68.9948 0.0000 0.0000 0.0000
# 4 0.0000 0.0000 0.0000 37.1097 0.0000 0.0000
# 5 0.0000 0.0000 0.0000 0.0000 28.3637 0.0000
# 6 0.0000 0.0000 0.0000 0.0000 0.0000 43.8114
#
#
#
# Elastic Compliance Matrix: (Units=1/GPa)
#
#
# Indices 1 2 3 4 5 6 
#
# 1 0.014540 -0.008160 -0.002602 0.000000 0.000000 0.000000
# 2 -0.008160 0.011626 -0.004049 0.000000 0.000000 0.000000
# 3 -0.002602 -0.004049 0.019266 0.000000 0.000000 0.000000
# 4 0.000000 0.000000 0.000000 0.026947 0.000000 0.000000
# 5 0.000000 0.000000 0.000000 0.000000 0.035256 0.000000
# 6 0.000000 0.000000 0.000000 0.000000 0.000000 0.022825
#
#
# Mechanical properties :
#
#
# Convention : Reuss Voigt Hill
#
# Bulk Modulus (GPa) = 63.24662 90.21064 76.72863
# Shear Modulus (GPa) = 30.23828 34.08042 32.15935
#
# Velocity S-wave (km/s) = 3.97752 4.22266 4.10193
# Velocity P-wave (km/s) = 7.36104 8.42454 7.91068
#
# Compressibility (1/GPa) = 0.01581112
#
# Stress axis : x y z
#
# Youngs Moduli (GPa) = 68.77554 86.01175 51.90399
#
# Poissons Ratio (x) = 0.70186 0.13505
# Poissons Ratio (y) = 0.56121 0.21015
# Poissons Ratio (z) = 0.17895 0.34825
#
# Static dielectric constant tensor:
#      x y z
#    x 4.009030 0.000000 0.000000 
#    y 0.000000 3.739380 0.000000 
#    z 0.000000 0.000000 3.518240 
# 
# 
# High freq. dielectric constant tensor:
#      x y z
#    x 1.760920 0.000000 0.000000 
#    y 0.000000 1.747190 0.000000 
#    z 0.000000 0.000000 1.746910 
# 
# From -- ./inp_files/9956.got.cif
#   From: 2010.03.12/outbox.cif.g09.slc.cpg/sg57_5_cif.got.tgz:9956.got - 2010.04.16 15:48:40.
