data_PCOD8233829
_publ_section_title
;
Structure prediction by ZEFSAII (Michael W. Deem and Ramdas Pophale) SiO2 
 PCOD8233829
Probable space group: P B C M
;
_chemical_formula_sum "Si O2"
_cell_formula_units_Z 40
_cell_length_a 24.489174
_cell_length_b 8.250249
_cell_length_c 10.433635
_cell_angle_alpha 90.000000
_cell_angle_beta 90.000000
_cell_angle_gamma 90.000000
_cell_volume 2108.030222
_symmetry_space_group_name_H-M "P B C M"
_symmetry_group_IT_number 57
_symmetry_cell_setting 'orthorhombic'
loop_
_space_group_symop_operation_xyz
x,y,z
-x,-y,1/2+z
x,1/2-y,-z
-x,1/2+y,1/2-z
-x,-y,-z
x,y,1/2-z
-x,1/2+y,z
x,1/2-y,1/2+z
loop_
_atom_site_type_symbol
_atom_site_label
_atom_site_fract_x
_atom_site_fract_y
_atom_site_fract_z
Si Si1 0.939080 0.561921 0.750000
Si Si2 0.208132 0.750000 0.000000
Si Si3 0.439290 0.436048 1.000000
Si Si4 0.613411 0.427233 0.750000
Si Si5 0.386589 0.927233 0.250000
Si Si6 0.718740 0.250000 0.250000
Si Si7 0.060920 0.438079 0.750000
Si Si8 0.127972 0.445891 0.500000
O O1 0.943855 0.750000 0.750000
O O2 0.907145 0.505713 0.623890
O O3 0.000000 0.500000 0.750000
O O4 0.244670 0.750000 0.874760
O O5 0.176748 0.576636 0.000000
O O6 0.405017 0.482397 0.876256
O O7 0.447221 0.250000 0.000000
O O8 0.500000 0.500000 0.000000
O O9 0.405017 0.482397 0.123744
O O10 0.585194 0.250000 0.750000
O O11 0.679516 0.409382 0.750000
O O12 0.320484 0.909382 0.250000
O O13 0.092855 0.494287 0.623890
O O14 0.144860 0.250000 0.500000
#
# Coordination Sequence:
#
# PCOD8233829 Si02
#       8
#     4   4   8   4   4   4   4   8
#     4  10  21  36  57  84 125 162 196 248 309 373
#     4  12  22  42  70  90 114 172 216 258 324 362
#     4  12  23  38  62  96 128 171 206 249 315 379
#     4  10  22  42  63  85 129 160 204 263 312 366
#     4  10  22  42  63  85 129 160 204 263 312 366
#     4  10  24  42  68  88 118 164 208 262 316 354
#     4  10  21  36  57  84 125 162 196 248 309 373
#     4  10  23  39  57  90 123 154 204 262 303 372
#
# _framework density 18.975059999999999
#
# number of rings (size 3 to 8) (size 9 to 14) (size 15 to 20)
#    0.600    0.800    0.000    6.000    2.800    0.000 
#    0.000    6.000    0.000    0.000    0.000    0.000 
#    0.000    0.000    0.000    0.000    0.000    0.000 
#
# Total GULP energy -495633.732731 kJ/mol
# GULP energy per Si atom -12390.843318 kJ/mol
# Density = 1.893187 g / cm^3
# Si number density = 18.975060 Si / 1000 Ang^3
#
#
#
# Elastic Constant Matrix: (Units=GPa)
#
#
# Indices 1 2 3 4 5 6 
#
# 1 165.4360 68.5081 101.1993 0.0000 0.0000 0.0000
# 2 68.5081 115.5881 57.7348 0.0000 0.0000 0.0000
# 3 101.1993 57.7348 214.6101 0.0000 0.0000 0.0000
# 4 0.0000 0.0000 0.0000 21.5319 0.0000 0.0000
# 5 0.0000 0.0000 0.0000 0.0000 62.9102 0.0000
# 6 0.0000 0.0000 0.0000 0.0000 0.0000 43.3913
#
#
#
# Elastic Compliance Matrix: (Units=1/GPa)
#
#
# Indices 1 2 3 4 5 6 
#
# 1 0.009932 -0.004098 -0.003581 0.000000 0.000000 0.000000
# 2 -0.004098 0.011685 -0.001211 0.000000 0.000000 0.000000
# 3 -0.003581 -0.001211 0.006674 0.000000 0.000000 0.000000
# 4 0.000000 0.000000 0.000000 0.046443 0.000000 0.000000
# 5 0.000000 0.000000 0.000000 0.000000 0.015896 0.000000
# 6 0.000000 0.000000 0.000000 0.000000 0.000000 0.023046
#
#
# Mechanical properties :
#
#
# Convention : Reuss Voigt Hill
#
# Bulk Modulus (GPa) = 95.13824 105.61317 100.37570
# Shear Modulus (GPa) = 37.04789 43.44612 40.24700
#
# Velocity S-wave (km/s) = 4.42345 4.79021 4.61048
# Velocity P-wave (km/s) = 8.73708 9.29379 9.01974
#
# Compressibility (1/GPa) = 0.01051102
#
# Stress axis : x y z
#
# Youngs Moduli (GPa) = 100.68202 85.57796 149.83297
#
# Poissons Ratio (x) = 0.35070 0.53656
# Poissons Ratio (y) = 0.41260 0.18147
# Poissons Ratio (z) = 0.36055 0.10365
#
# Static dielectric constant tensor:
#      x y z
#    x 3.479160 0.000000 0.000000 
#    y 0.000000 3.801630 0.000000 
#    z 0.000000 0.000000 3.436750 
# 
# 
# High freq. dielectric constant tensor:
#      x y z
#    x 1.737260 0.000000 0.000000 
#    y 0.000000 1.742250 0.000000 
#    z 0.000000 0.000000 1.765480 
# 
# From -- ./inp_files/9063.got.cif
#   From: 2010.03.12/outbox.cif.g09.slc.cpg/sg57_5_cif.got.tgz:9063.got - 2010.04.16 15:48:40.
