data_PCOD8233416
_publ_section_title
;
Structure prediction by ZEFSAII (Michael W. Deem and Ramdas Pophale) SiO2 
 PCOD8233416
Probable space group: P B C M
;
_chemical_formula_sum "Si O2"
_cell_formula_units_Z 40
_cell_length_a 7.173067
_cell_length_b 17.114730
_cell_length_c 14.656773
_cell_angle_alpha 90.000000
_cell_angle_beta 90.000000
_cell_angle_gamma 90.000000
_cell_volume 1799.340276
_symmetry_space_group_name_H-M "P B C M"
_symmetry_group_IT_number 57
_symmetry_cell_setting 'orthorhombic'
loop_
_space_group_symop_operation_xyz
x,y,z
-x,-y,1/2+z
x,1/2-y,-z
-x,1/2+y,1/2-z
-x,-y,-z
x,y,1/2-z
-x,1/2+y,z
x,1/2-y,1/2+z
loop_
_atom_site_type_symbol
_atom_site_label
_atom_site_fract_x
_atom_site_fract_y
_atom_site_fract_z
Si Si1 0.756232 0.005885 0.250000
Si Si2 0.165454 0.317363 0.560768
Si Si3 0.762740 0.960317 0.054404
Si Si4 0.951185 0.627640 0.250000
Si Si5 0.342127 0.906127 0.063637
Si Si6 0.527499 0.250000 0.000000
Si Si7 0.320481 0.519138 0.750000
O O1 0.839061 0.093618 0.250000
O O2 0.533360 0.011054 0.250000
O O3 0.832967 0.961604 0.159454
O O4 0.066362 0.250000 0.500000
O O5 0.125347 0.398494 0.507375
O O6 0.388079 0.296117 0.570256
O O7 0.077300 0.319042 0.660972
O O8 0.551371 0.934178 0.053145
O O9 0.784101 0.046686 0.009867
O O10 0.803132 0.557792 0.250000
O O11 0.336123 0.812695 0.048475
O O12 0.269964 0.927236 0.163969
#
# Coordination Sequence:
#
# PCOD8233416 Si02
#       7
#     4   8   8   4   8   4   4
#     4  10  24  33  61  90 114 156 206 252 305 359
#     4   9  20  35  59  88 121 164 202 253 311 364
#     4   9  17  35  55  86 120 157 205 252 302 363
#     4  12  22  40  62  94 115 159 216 248 302 377
#     4   9  16  32  59  86 122 156 206 251 304 367
#     4   8  18  32  54  94 120 166 202 246 318 364
#     4  10  20  37  63  92 119 159 204 264 297 364
#
# _framework density 22.230371999999999
#
# number of rings (size 3 to 8) (size 9 to 14) (size 15 to 20)
#    0.600    2.000    2.000    0.000    2.800    2.400 
#    0.000    1.000    2.200    3.600    0.000    0.000 
#    0.000    0.000    0.000    0.000    0.000    0.000 
#
# Total GULP energy -495673.344945 kJ/mol
# GULP energy per Si atom -12391.833624 kJ/mol
# Density = 2.217977 g / cm^3
# Si number density = 22.230372 Si / 1000 Ang^3
#
#
#
# Elastic Constant Matrix: (Units=GPa)
#
#
# Indices 1 2 3 4 5 6 
#
# 1 32.7846 25.1460 20.9784 0.0000 0.0000 0.0000
# 2 25.1460 146.7029 81.6315 0.0000 0.0000 0.0000
# 3 20.9784 81.6315 209.8317 0.0000 0.0000 0.0000
# 4 0.0000 0.0000 0.0000 42.4858 0.0000 0.0000
# 5 0.0000 0.0000 0.0000 0.0000 -0.2078 0.0000
# 6 0.0000 0.0000 0.0000 0.0000 0.0000 11.8249
#
#
#
# Elastic Compliance Matrix: (Units=1/GPa)
#
#
# Indices 1 2 3 4 5 6 
#
# 1 0.035489 -0.005244 -0.001508 0.000000 0.000000 0.000000
# 2 -0.005244 0.009475 -0.003162 0.000000 0.000000 0.000000
# 3 -0.001508 -0.003162 0.006146 0.000000 0.000000 0.000000
# 4 0.000000 0.000000 0.000000 0.023537 0.000000 0.000000
# 5 0.000000 0.000000 0.000000 0.000000 -4.812872 0.000000
# 6 0.000000 0.000000 0.000000 0.000000 0.000000 0.084567
#
#
# Mechanical properties :
#
#
# Convention : Reuss Voigt Hill
#
# Bulk Modulus (GPa) = 31.96625 71.64790 51.80708
# Shear Modulus (GPa) = -1.08145 28.25813 13.58834
#
# Velocity S-wave (km/s) = -0.69824 3.56919 2.47503
# Velocity P-wave (km/s) = 3.70954 7.02034 5.61453
#
# Compressibility (1/GPa) = 0.03128299
#
# Stress axis : x y z
#
# Youngs Moduli (GPa) = 28.17753 105.54483 162.69453
#
# Poissons Ratio (x) = 0.55348 0.24535
# Poissons Ratio (y) = 0.14776 0.51439
# Poissons Ratio (z) = 0.04249 0.33370
#
# Static dielectric constant tensor:
#      x y z
#    x 3.674520 0.000000 0.000000 
#    y 0.000000 4.176950 0.000000 
#    z 0.000000 0.000000 4.230410 
# 
# 
# High freq. dielectric constant tensor:
#      x y z
#    x 1.857770 0.000000 0.000000 
#    y 0.000000 1.863320 0.000000 
#    z 0.000000 0.000000 1.872260 
# 
# From -- ./inp_files/16013.got.cif
#   From: 2010.03.12/outbox.cif.g09.slc.cpg/sg57_9_cif.got.tgz:16013.got - 2010.04.16 15:48:40.
