data_PCOD8233715
_publ_section_title
;
Structure prediction by ZEFSAII (Michael W. Deem and Ramdas Pophale) SiO2 
 PCOD8233715
Probable space group: P B C M
;
_chemical_formula_sum "Si O2"
_cell_formula_units_Z 64
_cell_length_a 20.023039
_cell_length_b 19.931860
_cell_length_c 8.741095
_cell_angle_alpha 90.000000
_cell_angle_beta 90.000000
_cell_angle_gamma 90.000000
_cell_volume 3488.539635
_symmetry_space_group_name_H-M "P B C M"
_symmetry_group_IT_number 57
_symmetry_cell_setting 'orthorhombic'
loop_
_space_group_symop_operation_xyz
x,y,z
-x,-y,1/2+z
x,1/2-y,-z
-x,1/2+y,1/2-z
-x,-y,-z
x,y,1/2-z
-x,1/2+y,z
x,1/2-y,1/2+z
loop_
_atom_site_type_symbol
_atom_site_label
_atom_site_fract_x
_atom_site_fract_y
_atom_site_fract_z
Si Si1 0.855089 0.082236 0.930750
Si Si2 0.038439 0.820715 0.931718
Si Si3 0.522622 0.568860 0.928988
Si Si4 0.616465 0.397106 0.429180
Si Si5 0.105427 0.181182 0.569617
Si Si6 0.191439 0.447451 0.069908
Si Si7 0.339088 0.035289 0.930213
Si Si8 0.740516 0.318777 0.427592
O O1 0.866554 0.083843 0.750000
O O2 0.787663 0.120561 0.981888
O O3 0.917021 0.117605 0.012388
O O4 0.849688 0.005880 0.986329
O O5 0.040010 0.815884 0.750000
O O6 0.064860 0.750000 0.000000
O O7 0.964156 0.835968 0.989064
O O8 0.526618 0.557642 0.750000
O O9 0.461936 0.620934 0.968354
O O10 0.598965 0.584853 0.985290
O O11 0.500000 0.500000 0.000000
O O12 0.624736 0.413965 0.250000
O O13 0.642699 0.460442 0.521926
O O14 0.663747 0.334827 0.474717
O O15 0.135009 0.250000 0.500000
O O16 0.093480 0.189287 0.750000
O O17 0.157599 0.123003 0.530563
O O18 0.190262 0.462478 0.250000
O O19 0.267272 0.443078 0.002347
O O20 0.332158 0.038169 0.750000
O O21 0.764856 0.250000 0.500000
O O22 0.748202 0.308235 0.250000
#
# Coordination Sequence:
#
# PCOD8233715 Si02
#       8
#     8   8   8   8   8   8   8   8
#     4  11  22  36  54  78 107 140 178 218 262 313
#     4  11  22  38  59  81 107 140 177 218 260 308
#     4   8  14  24  43  67  94 125 161 203 249 299
#     4   9  16  29  45  67  97 130 169 213 255 300
#     4  10  21  39  60  81 104 134 172 214 261 319
#     4  10  21  35  54  80 110 138 170 216 267 315
#     4   9  16  28  47  74 101 130 164 205 258 306
#     4  10  21  33  47  69  99 139 180 215 256 305
#
# _framework density 18.345784999999999
#
# number of rings (size 3 to 8) (size 9 to 14) (size 15 to 20)
#    0.000    2.250    1.250    3.000    0.000    4.000 
#    0.000    0.000    0.000    0.750    0.000    0.000 
#    0.000    0.000    0.000    0.000    0.000    0.000 
#
# Total GULP energy -792970.749814 kJ/mol
# GULP energy per Si atom -12390.167966 kJ/mol
# Density = 1.830403 g / cm^3
# Si number density = 18.345785 Si / 1000 Ang^3
#
#
#
# Elastic Constant Matrix: (Units=GPa)
#
#
# Indices 1 2 3 4 5 6 
#
# 1 128.6587 65.0155 41.1616 0.0000 0.0000 0.0000
# 2 65.0155 96.0259 35.6885 0.0000 0.0000 0.0000
# 3 41.1616 35.6885 53.4393 0.0000 0.0000 0.0000
# 4 0.0000 0.0000 0.0000 25.4041 0.0000 0.0000
# 5 0.0000 0.0000 0.0000 0.0000 16.8939 0.0000
# 6 0.0000 0.0000 0.0000 0.0000 0.0000 29.3523
#
#
#
# Elastic Compliance Matrix: (Units=1/GPa)
#
#
# Indices 1 2 3 4 5 6 
#
# 1 0.012912 -0.006712 -0.005463 0.000000 0.000000 0.000000
# 2 -0.006712 0.017341 -0.006411 0.000000 0.000000 0.000000
# 3 -0.005463 -0.006411 0.027202 0.000000 0.000000 0.000000
# 4 0.000000 0.000000 0.000000 0.039364 0.000000 0.000000
# 5 0.000000 0.000000 0.000000 0.000000 0.059193 0.000000
# 6 0.000000 0.000000 0.000000 0.000000 0.000000 0.034069
#
#
# Mechanical properties :
#
#
# Convention : Reuss Voigt Hill
#
# Bulk Modulus (GPa) = 49.30175 62.42836 55.86506
# Shear Modulus (GPa) = 21.36626 23.41394 22.39010
#
# Velocity S-wave (km/s) = 3.41639 3.57635 3.49728
# Velocity P-wave (km/s) = 6.51876 7.15236 6.84290
#
# Compressibility (1/GPa) = 0.02028325
#
# Stress axis : x y z
#
# Youngs Moduli (GPa) = 77.44721 57.66718 36.76169
#
# Poissons Ratio (x) = 0.38705 0.20083
# Poissons Ratio (y) = 0.51982 0.23568
# Poissons Ratio (z) = 0.42310 0.36970
#
# Static dielectric constant tensor:
#      x y z
#    x 4.038590 0.000000 0.000000 
#    y 0.000000 3.159830 0.000000 
#    z 0.000000 0.000000 3.343860 
# 
# 
# High freq. dielectric constant tensor:
#      x y z
#    x 1.731320 0.000000 0.000000 
#    y 0.000000 1.674900 0.000000 
#    z 0.000000 0.000000 1.710550 
# 
# From -- ./inp_files/7193.got.cif
#   From: 2010.03.12/outbox.cif.g09.slc.cpg/sg57_4_cif.got.tgz:7193.got - 2010.04.16 15:48:40.
