data_PCOD8233074
_publ_section_title
;
Structure prediction by ZEFSAII (Michael W. Deem and Ramdas Pophale) SiO2 
 PCOD8233074
Probable space group: P B C M
;
_chemical_formula_sum "Si O2"
_cell_formula_units_Z 40
_cell_length_a 7.610809
_cell_length_b 13.836480
_cell_length_c 18.666163
_cell_angle_alpha 90.000000
_cell_angle_beta 90.000000
_cell_angle_gamma 90.000000
_cell_volume 1965.674015
_symmetry_space_group_name_H-M "P B C M"
_symmetry_group_IT_number 57
_symmetry_cell_setting 'orthorhombic'
loop_
_space_group_symop_operation_xyz
x,y,z
-x,-y,1/2+z
x,1/2-y,-z
-x,1/2+y,1/2-z
-x,-y,-z
x,y,1/2-z
-x,1/2+y,z
x,1/2-y,1/2+z
loop_
_atom_site_type_symbol
_atom_site_label
_atom_site_fract_x
_atom_site_fract_y
_atom_site_fract_z
Si Si1 0.101007 0.196938 0.831642
Si Si2 0.438094 0.107589 0.505987
Si Si3 0.892869 0.531409 0.930513
Si Si4 0.518757 0.753463 0.617543
Si Si5 0.181244 0.852680 0.831435
O O1 0.062563 0.171448 0.750000
O O2 0.017264 0.103954 0.873562
O O3 0.310688 0.217515 0.838740
O O4 0.990172 0.291507 0.853697
O O5 0.246540 0.106764 0.539027
O O6 0.425110 0.153089 0.427910
O O7 0.552580 0.170880 0.562303
O O8 0.500000 0.000000 0.500000
O O9 0.808853 0.439884 0.888859
O O10 0.000000 0.500000 0.000000
O O11 0.356015 0.785767 0.666873
O O12 0.164464 0.892591 0.750000
#
# Coordination Sequence:
#
# PCOD8233074 Si02
#       5
#     8   8   8   8   8
#     4  10  23  42  59  87 126 159 203 253 301 364
#     4  10  20  36  57  91 120 148 197 254 294 359
#     4  11  23  38  64  89 122 160 203 251 311 353
#     4  10  21  38  63  86 121 159 197 249 309 354
#     4  11  23  40  63  88 119 163 206 246 304 369
#
# _framework density 20.349253000000001
#
# number of rings (size 3 to 8) (size 9 to 14) (size 15 to 20)
#    0.000    1.600    2.000    2.400    2.800    2.400 
#    0.000    0.000    0.000    0.000    0.000    0.000 
#    0.000    0.000    0.000    0.000    0.000    0.000 
#
# Total GULP energy -495555.673436 kJ/mol
# GULP energy per Si atom -12388.891836 kJ/mol
# Density = 2.030294 g / cm^3
# Si number density = 20.349253 Si / 1000 Ang^3
#
#
#
# Elastic Constant Matrix: (Units=GPa)
#
#
# Indices 1 2 3 4 5 6 
#
# 1 68.4881 15.6282 21.0450 0.0000 0.0000 0.0000
# 2 15.6282 109.5883 45.4871 0.0000 0.0000 0.0000
# 3 21.0450 45.4871 99.7274 0.0000 0.0000 0.0000
# 4 0.0000 0.0000 0.0000 37.6655 0.0000 0.0000
# 5 0.0000 0.0000 0.0000 0.0000 29.8440 0.0000
# 6 0.0000 0.0000 0.0000 0.0000 0.0000 32.2202
#
#
#
# Elastic Compliance Matrix: (Units=1/GPa)
#
#
# Indices 1 2 3 4 5 6 
#
# 1 0.015714 -0.001066 -0.002830 0.000000 0.000000 0.000000
# 2 -0.001066 0.011328 -0.004942 0.000000 0.000000 0.000000
# 3 -0.002830 -0.004942 0.012879 0.000000 0.000000 0.000000
# 4 0.000000 0.000000 0.000000 0.026549 0.000000 0.000000
# 5 0.000000 0.000000 0.000000 0.000000 0.033508 0.000000
# 6 0.000000 0.000000 0.000000 0.000000 0.000000 0.031036
#
#
# Mechanical properties :
#
#
# Convention : Reuss Voigt Hill
#
# Bulk Modulus (GPa) = 44.95436 49.12494 47.03965
# Shear Modulus (GPa) = 32.02961 32.98883 32.50922
#
# Velocity S-wave (km/s) = 3.97166 4.03070 4.00129
# Velocity P-wave (km/s) = 6.57050 6.77166 6.67184
#
# Compressibility (1/GPa) = 0.02224478
#
# Stress axis : x y z
#
# Youngs Moduli (GPa) = 63.63786 88.27332 77.64822
#
# Poissons Ratio (x) = 0.09414 0.21972
# Poissons Ratio (y) = 0.06787 0.38374
# Poissons Ratio (z) = 0.18007 0.43625
#
# Static dielectric constant tensor:
#      x y z
#    x 1.196700 0.000000 0.000000 
#    y 0.000000 3.812710 0.000000 
#    z 0.000000 0.000000 3.617870 
# 
# 
# High freq. dielectric constant tensor:
#      x y z
#    x 1.776730 0.000000 0.000000 
#    y 0.000000 1.805060 0.000000 
#    z 0.000000 0.000000 1.806910 
# 
# From -- ./inp_files/20534.got.cif
#   From: 2010.03.12/outbox.cif.g09.slc.cpg/sg57_11_cif.got.tgz:20534.got - 2010.04.16 15:48:40.
