data_PCOD8233166
_publ_section_title
;
Structure prediction by ZEFSAII (Michael W. Deem and Ramdas Pophale) SiO2 
 PCOD8233166
Probable space group: P B C M
;
_chemical_formula_sum "Si O2"
_cell_formula_units_Z 48
_cell_length_a 9.827355
_cell_length_b 17.326930
_cell_length_c 13.935840
_cell_angle_alpha 90.000000
_cell_angle_beta 90.000000
_cell_angle_gamma 90.000000
_cell_volume 2372.965461
_symmetry_space_group_name_H-M "P B C M"
_symmetry_group_IT_number 57
_symmetry_cell_setting 'orthorhombic'
loop_
_space_group_symop_operation_xyz
x,y,z
-x,-y,1/2+z
x,1/2-y,-z
-x,1/2+y,1/2-z
-x,-y,-z
x,y,1/2-z
-x,1/2+y,z
x,1/2-y,1/2+z
loop_
_atom_site_type_symbol
_atom_site_label
_atom_site_fract_x
_atom_site_fract_y
_atom_site_fract_z
Si Si1 0.537984 0.823363 0.563778
Si Si2 0.259357 0.870848 0.250000
Si Si3 0.959970 0.166558 0.039017
Si Si4 0.373651 0.706957 0.250000
Si Si5 0.113396 0.873676 0.750000
Si Si6 0.209866 0.071061 0.063664
Si Si7 0.919435 0.999078 0.750000
Si Si8 0.305997 0.588910 0.959424
O O1 0.570677 0.750000 0.500000
O O2 0.469387 0.790384 0.658866
O O3 0.679333 0.864210 0.587401
O O4 0.440817 0.884726 0.512946
O O5 0.265719 0.778214 0.250000
O O6 0.334193 0.903009 0.154723
O O7 0.103129 0.907174 0.250000
O O8 0.946747 0.167606 0.154923
O O9 0.081723 0.108509 0.007227
O O10 0.000462 0.250000 0.000000
O O11 0.819751 0.142975 0.988902
O O12 0.277557 0.631037 0.250000
O O13 0.074039 0.965821 0.750000
O O14 0.158660 0.035179 0.160973
O O15 0.274594 0.998797 0.005641
#
# Coordination Sequence:
#
# PCOD8233166 Si02
#       8
#     8   4   8   4   4   8   4   8
#     4  12  23  38  60  89 117 157 199 243 296 349
#     4  10  20  36  60  90 118 148 199 250 281 353
#     4  11  21  38  62  91 117 156 199 246 302 349
#     4  12  21  36  62  88 119 154 203 248 284 352
#     4  10  20  36  60  86 120 152 200 251 287 359
#     4  10  22  38  59  87 125 155 192 245 299 357
#     4   8  19  38  58  84 119 162 190 231 314 348
#     4  11  21  39  62  87 116 160 201 238 293 351
#
# _framework density 20.227854000000001
#
# number of rings (size 3 to 8) (size 9 to 14) (size 15 to 20)
#    0.000    1.333    3.333    3.500    0.000    0.000 
#    0.000    0.000    0.000    3.000    0.000    0.000 
#    0.000    0.000    0.000    0.000    0.000    0.000 
#
# Total GULP energy -594933.459867 kJ/mol
# GULP energy per Si atom -12394.447081 kJ/mol
# Density = 2.018181 g / cm^3
# Si number density = 20.227854 Si / 1000 Ang^3
#
#
#
# Elastic Constant Matrix: (Units=GPa)
#
#
# Indices 1 2 3 4 5 6 
#
# 1 72.1127 15.7914 5.1150 0.0000 0.0000 0.0000
# 2 15.7914 82.8925 18.2824 0.0000 0.0000 0.0000
# 3 5.1150 18.2824 92.3289 0.0000 0.0000 0.0000
# 4 0.0000 0.0000 0.0000 19.6666 0.0000 0.0000
# 5 0.0000 0.0000 0.0000 0.0000 123.0481 0.0000
# 6 0.0000 0.0000 0.0000 0.0000 0.0000 32.7289
#
#
#
# Elastic Compliance Matrix: (Units=1/GPa)
#
#
# Indices 1 2 3 4 5 6 
#
# 1 0.014477 -0.002699 -0.000268 0.000000 0.000000 0.000000
# 2 -0.002699 0.013118 -0.002448 0.000000 0.000000 0.000000
# 3 -0.000268 -0.002448 0.011330 0.000000 0.000000 0.000000
# 4 0.000000 0.000000 0.000000 0.050848 0.000000 0.000000
# 5 0.000000 0.000000 0.000000 0.000000 0.008127 0.000000
# 6 0.000000 0.000000 0.000000 0.000000 0.000000 0.030554
#
#
# Mechanical properties :
#
#
# Convention : Reuss Voigt Hill
#
# Bulk Modulus (GPa) = 35.59176 36.19018 35.89097
# Shear Modulus (GPa) = 33.63639 48.96509 41.30074
#
# Velocity S-wave (km/s) = 4.08226 4.92537 4.52350
# Velocity P-wave (km/s) = 6.31296 7.09055 6.71302
#
# Compressibility (1/GPa) = 0.02809639
#
# Stress axis : x y z
#
# Youngs Moduli (GPa) = 69.07423 76.23175 88.25813
#
# Poissons Ratio (x) = 0.20574 0.02362
# Poissons Ratio (y) = 0.18643 0.21606
# Poissons Ratio (z) = 0.01848 0.18662
#
# Static dielectric constant tensor:
#      x y z
#    x 3.636540 0.000000 0.000000 
#    y 0.000000 4.040050 0.000000 
#    z 0.000000 0.000000 3.772230 
# 
# 
# High freq. dielectric constant tensor:
#      x y z
#    x 1.775930 0.000000 0.000000 
#    y 0.000000 1.795340 0.000000 
#    z 0.000000 0.000000 1.792220 
# 
# From -- ./inp_files/16485.got.cif
#   From: 2010.03.12/outbox.cif.g09.slc.cpg/sg57_9_cif.got.tgz:16485.got - 2010.04.16 15:48:40.
