data_PCOD8233601
_publ_section_title
;
Structure prediction by ZEFSAII (Michael W. Deem and Ramdas Pophale) SiO2 
 PCOD8233601
Probable space group: P B C M
;
_chemical_formula_sum "Si O2"
_cell_formula_units_Z 48
_cell_length_a 15.220725
_cell_length_b 9.367070
_cell_length_c 16.638222
_cell_angle_alpha 90.000000
_cell_angle_beta 90.000000
_cell_angle_gamma 90.000000
_cell_volume 2372.171150
_symmetry_space_group_name_H-M "P B C M"
_symmetry_group_IT_number 57
_symmetry_cell_setting 'orthorhombic'
loop_
_space_group_symop_operation_xyz
x,y,z
-x,-y,1/2+z
x,1/2-y,-z
-x,1/2+y,1/2-z
-x,-y,-z
x,y,1/2-z
-x,1/2+y,z
x,1/2-y,1/2+z
loop_
_atom_site_type_symbol
_atom_site_label
_atom_site_fract_x
_atom_site_fract_y
_atom_site_fract_z
Si Si1 0.587965 0.248014 0.157781
Si Si2 0.777001 0.230809 0.407710
Si Si3 0.926664 0.416572 0.343430
Si Si4 0.572087 0.920373 0.341214
Si Si5 0.764617 0.576368 0.843888
Si Si6 0.086323 0.266212 0.593165
O O1 0.608220 0.292133 0.250000
O O2 0.675683 0.270802 0.106360
O O3 0.510183 0.341392 0.116655
O O4 0.554514 0.087277 0.152925
O O5 0.802694 0.250000 0.500000
O O6 0.833744 0.338756 0.353956
O O7 0.799899 0.067949 0.384903
O O8 0.949017 0.435807 0.250000
O O9 0.926413 0.569645 0.385249
O O10 0.999734 0.320454 0.385386
O O11 0.571892 0.864438 0.250000
O O12 0.667870 0.882983 0.379001
O O13 0.754398 0.541151 0.750000
O O14 0.830663 0.705917 0.857771
O O15 0.107755 0.250000 0.500000
#
# Coordination Sequence:
#
# PCOD8233601 Si02
#       6
#     8   8   8   8   8   8
#     4   9  17  33  54  79 109 148 192 237 284 340
#     4  11  22  38  58  85 118 154 192 242 297 342
#     4  12  24  40  62  88 114 152 198 237 278 342
#     4   8  16  30  53  79 107 144 191 238 281 329
#     4  10  20  39  61  83 114 157 198 236 282 343
#     4  12  25  42  62  90 122 151 184 236 294 342
#
# _framework density 20.234628000000001
#
# number of rings (size 3 to 8) (size 9 to 14) (size 15 to 20)
#    0.000    1.667    0.000    7.000    0.000    1.333 
#    0.000    7.500    0.000    0.000    0.000    0.000 
#    0.000    0.000    0.000    0.000    0.000    0.000 
#
# Total GULP energy -595299.996862 kJ/mol
# GULP energy per Si atom -12402.083268 kJ/mol
# Density = 2.018857 g / cm^3
# Si number density = 20.234628 Si / 1000 Ang^3
#
#
#
# Elastic Constant Matrix: (Units=GPa)
#
#
# Indices 1 2 3 4 5 6 
#
# 1 106.5537 62.1373 6.8273 0.0000 0.0000 0.0000
# 2 62.1373 94.0087 -0.8137 0.0000 0.0000 0.0000
# 3 6.8273 -0.8137 53.2022 0.0000 0.0000 0.0000
# 4 0.0000 0.0000 0.0000 26.9808 0.0000 0.0000
# 5 0.0000 0.0000 0.0000 0.0000 17.2849 0.0000
# 6 0.0000 0.0000 0.0000 0.0000 0.0000 44.9792
#
#
#
# Elastic Compliance Matrix: (Units=1/GPa)
#
#
# Indices 1 2 3 4 5 6 
#
# 1 0.015513 -0.010272 -0.002148 0.000000 0.000000 0.000000
# 2 -0.010272 0.017441 0.001585 0.000000 0.000000 0.000000
# 3 -0.002148 0.001585 0.019096 0.000000 0.000000 0.000000
# 4 0.000000 0.000000 0.000000 0.037063 0.000000 0.000000
# 5 0.000000 0.000000 0.000000 0.000000 0.057854 0.000000
# 6 0.000000 0.000000 0.000000 0.000000 0.000000 0.022233
#
#
# Mechanical properties :
#
#
# Convention : Reuss Voigt Hill
#
# Bulk Modulus (GPa) = 32.91698 43.34073 38.12885
# Shear Modulus (GPa) = 24.87613 30.22322 27.54967
#
# Velocity S-wave (km/s) = 3.51006 3.86895 3.69387
# Velocity P-wave (km/s) = 5.72104 6.43615 6.08910
#
# Compressibility (1/GPa) = 0.03037946
#
# Stress axis : x y z
#
# Youngs Moduli (GPa) = 64.46288 57.33729 52.36678
#
# Poissons Ratio (x) = 0.58898 0.11247
# Poissons Ratio (y) = 0.66217 -0.08300
# Poissons Ratio (z) = 0.13845 -0.09088
#
# Static dielectric constant tensor:
#      x y z
#    x 3.883950 0.000000 0.000000 
#    y 0.000000 3.695590 0.000000 
#    z 0.000000 0.000000 3.495280 
# 
# 
# High freq. dielectric constant tensor:
#      x y z
#    x 1.807540 0.000000 0.000000 
#    y 0.000000 1.791140 0.000000 
#    z 0.000000 0.000000 1.772990 
# 
# From -- ./inp_files/22421.got.cif
#   From: 2010.03.12/outbox.cif.g09.slc.cpg/sg57_12_cif.got.tgz:22421.got - 2010.04.16 15:48:40.
