data_PCOD8233895
_publ_section_title
;
Structure prediction by ZEFSAII (Michael W. Deem and Ramdas Pophale) SiO2 
 PCOD8233895
Probable space group: P B C M
;
_chemical_formula_sum "Si O2"
_cell_formula_units_Z 56
_cell_length_a 18.116696
_cell_length_b 5.170335
_cell_length_c 29.115598
_cell_angle_alpha 90.000000
_cell_angle_beta 90.000000
_cell_angle_gamma 90.000000
_cell_volume 2727.240229
_symmetry_space_group_name_H-M "P B C M"
_symmetry_group_IT_number 57
_symmetry_cell_setting 'orthorhombic'
loop_
_space_group_symop_operation_xyz
x,y,z
-x,-y,1/2+z
x,1/2-y,-z
-x,1/2+y,1/2-z
-x,-y,-z
x,y,1/2-z
-x,1/2+y,z
x,1/2-y,1/2+z
loop_
_atom_site_type_symbol
_atom_site_label
_atom_site_fract_x
_atom_site_fract_y
_atom_site_fract_z
Si Si1 0.838996 0.343029 0.166321
Si Si2 0.030722 0.473440 0.051974
Si Si3 0.163156 0.348326 0.393385
Si Si4 0.949345 0.366647 0.250000
Si Si5 0.327815 0.163990 0.610500
Si Si6 0.462163 0.235499 0.946064
Si Si7 0.669830 0.167616 0.830766
Si Si8 0.552658 0.132060 0.750000
O O1 0.849034 0.566936 0.128397
O O2 0.897190 0.394276 0.206063
O O3 0.755168 0.340598 0.187037
O O4 0.857390 0.065834 0.143977
O O5 0.115510 0.389156 0.059751
O O6 0.017084 0.747603 0.076764
O O7 0.000000 0.500000 0.000000
O O8 0.246736 0.382666 0.409608
O O9 0.009729 0.592398 0.250000
O O10 0.379838 0.151667 0.566429
O O11 0.338619 0.443926 0.632179
O O12 0.347689 0.946080 0.647571
O O13 0.484154 0.513569 0.925130
O O14 0.470164 0.250000 0.000000
O O15 0.608127 0.122618 0.792665
O O16 0.501757 0.386530 0.750000
#
# Coordination Sequence:
#
# PCOD8233895 Si02
#       8
#     8   8   8   4   8   8   8   4
#     4  10  22  40  60  82 115 157 191 241 292 344
#     4  10  21  37  57  82 117 151 186 231 287 356
#     4  10  21  38  61  85 113 152 198 235 284 349
#     4  12  25  38  57  90 116 142 200 244 293 340
#     4  10  21  38  61  87 111 154 202 240 280 347
#     4  10  21  37  58  84 117 150 187 237 299 343
#     4  10  22  40  60  82 119 157 196 235 294 347
#     4  12  25  38  57  90 124 154 198 246 297 350
#
# _framework density 20.533579
#
# number of rings (size 3 to 8) (size 9 to 14) (size 15 to 20)
#    0.000    1.714    0.000    3.857    0.000    6.857 
#    2.571    5.714    6.286    0.000    0.000    0.000 
#    0.000    0.000    0.000    0.000    0.000    0.000 
#
# Total GULP energy -693968.282674 kJ/mol
# GULP energy per Si atom -12392.290762 kJ/mol
# Density = 2.048684 g / cm^3
# Si number density = 20.533579 Si / 1000 Ang^3
#
#
#
# Elastic Constant Matrix: (Units=GPa)
#
#
# Indices 1 2 3 4 5 6 
#
# 1 138.3986 38.7246 56.4997 0.0000 0.0000 0.0000
# 2 38.7246 106.3694 21.5479 0.0000 0.0000 0.0000
# 3 56.4997 21.5479 42.3708 0.0000 0.0000 0.0000
# 4 0.0000 0.0000 0.0000 11.2378 0.0000 0.0000
# 5 0.0000 0.0000 0.0000 0.0000 46.9081 0.0000
# 6 0.0000 0.0000 0.0000 0.0000 0.0000 31.2753
#
#
#
# Elastic Compliance Matrix: (Units=1/GPa)
#
#
# Indices 1 2 3 4 5 6 
#
# 1 0.016126 -0.001689 -0.020644 0.000000 0.000000 0.000000
# 2 -0.001689 0.010658 -0.003168 0.000000 0.000000 0.000000
# 3 -0.020644 -0.003168 0.052741 0.000000 0.000000 0.000000
# 4 0.000000 0.000000 0.000000 0.088985 0.000000 0.000000
# 5 0.000000 0.000000 0.000000 0.000000 0.021318 0.000000
# 6 0.000000 0.000000 0.000000 0.000000 0.000000 0.031974
#
#
# Mechanical properties :
#
#
# Convention : Reuss Voigt Hill
#
# Bulk Modulus (GPa) = 35.06095 57.85370 46.45733
# Shear Modulus (GPa) = 17.71092 29.24202 23.47647
#
# Velocity S-wave (km/s) = 2.94008 3.77783 3.38497
# Velocity P-wave (km/s) = 5.35140 6.87500 6.16048
#
# Compressibility (1/GPa) = 0.02852176
#
# Stress axis : x y z
#
# Youngs Moduli (GPa) = 62.01227 93.82802 18.96068
#
# Poissons Ratio (x) = 0.15845 0.39143
# Poissons Ratio (y) = 0.10472 0.06007
# Poissons Ratio (z) = 1.28020 0.29727
#
# Static dielectric constant tensor:
#      x y z
#    x 4.035040 0.000000 0.000000 
#    y 0.000000 -2.565280 0.000000 
#    z 0.000000 0.000000 3.325180 
# 
# 
# High freq. dielectric constant tensor:
#      x y z
#    x 1.816300 0.000000 0.000000 
#    y 0.000000 1.836100 0.000000 
#    z 0.000000 0.000000 1.770880 
# 
# From -- ./inp_files/29875.got.cif
#   From: 2010.03.12/outbox.cif.g09.slc.cpg/sg57_15_cif.got.tgz:29875.got - 2010.04.16 15:48:40.
