data_PCOD8233555
_publ_section_title
;
Structure prediction by ZEFSAII (Michael W. Deem and Ramdas Pophale) SiO2 
 PCOD8233555
Probable space group: P B C M
;
_chemical_formula_sum "Si O2"
_cell_formula_units_Z 56
_cell_length_a 19.407073
_cell_length_b 8.828842
_cell_length_c 15.945840
_cell_angle_alpha 90.000000
_cell_angle_beta 90.000000
_cell_angle_gamma 90.000000
_cell_volume 2732.191817
_symmetry_space_group_name_H-M "P B C M"
_symmetry_group_IT_number 57
_symmetry_cell_setting 'orthorhombic'
loop_
_space_group_symop_operation_xyz
x,y,z
-x,-y,1/2+z
x,1/2-y,-z
-x,1/2+y,1/2-z
-x,-y,-z
x,y,1/2-z
-x,1/2+y,z
x,1/2-y,1/2+z
loop_
_atom_site_type_symbol
_atom_site_label
_atom_site_fract_x
_atom_site_fract_y
_atom_site_fract_z
Si Si1 0.187999 0.414034 0.843165
Si Si2 0.576208 0.644784 0.845873
Si Si3 0.046033 0.284991 0.843660
Si Si4 0.268405 0.111196 0.656330
Si Si5 0.942153 0.477569 0.567566
Si Si6 0.208867 0.581807 0.009147
Si Si7 0.473180 0.630072 0.059895
O O1 0.207477 0.479383 0.750000
O O2 0.104932 0.413749 0.853518
O O3 0.212321 0.241911 0.850342
O O4 0.222600 0.506218 0.918512
O O5 0.551820 0.659666 0.750000
O O6 0.656402 0.684550 0.857250
O O7 0.534004 0.768704 0.899005
O O8 0.568945 0.465228 0.871036
O O9 0.038973 0.225481 0.750000
O O10 0.971786 0.353294 0.867990
O O11 0.071487 0.141960 0.895589
O O12 0.264245 0.036361 0.750000
O O13 0.253004 0.991669 0.583515
O O14 0.871712 0.414918 0.530490
O O15 0.000000 0.500000 0.500000
O O16 0.237155 0.750000 0.000000
O O17 0.430649 0.750000 0.000000
O O18 0.500000 0.500000 0.000000
#
# Coordination Sequence:
#
# PCOD8233555 Si02
#       7
#     8   8   8   8   8   8   8
#     4  10  22  42  63  86 116 158 208 254 308 380
#     4  10  20  38  63  94 126 166 207 256 310 367
#     4  11  23  39  59  84 115 152 197 254 310 371
#     4  10  23  42  66  90 122 166 218 260 308 379
#     4  12  23  38  58  86 116 149 201 250 317 378
#     4  12  25  40  61  90 122 165 200 264 323 376
#     4   9  19  34  57  91 130 162 204 251 299 360
#
# _framework density 20.496365999999998
#
# number of rings (size 3 to 8) (size 9 to 14) (size 15 to 20)
#    0.000    1.429    2.857    2.571    0.000    5.143 
#    0.000    1.429    0.000    6.857    0.000    0.000 
#    0.000    0.000    0.000    0.000    0.000    0.000 
#
# Total GULP energy -693998.589078 kJ/mol
# GULP energy per Si atom -12392.831948 kJ/mol
# Density = 2.044972 g / cm^3
# Si number density = 20.496366 Si / 1000 Ang^3
#
#
#
# Elastic Constant Matrix: (Units=GPa)
#
#
# Indices 1 2 3 4 5 6 
#
# 1 62.0825 11.5878 28.4368 0.0000 0.0000 0.0000
# 2 11.5878 100.1790 61.8667 0.0000 0.0000 0.0000
# 3 28.4368 61.8667 157.7941 0.0000 0.0000 0.0000
# 4 0.0000 0.0000 0.0000 20.6043 0.0000 0.0000
# 5 0.0000 0.0000 0.0000 0.0000 26.0438 0.0000
# 6 0.0000 0.0000 0.0000 0.0000 0.0000 20.7620
#
#
#
# Elastic Compliance Matrix: (Units=1/GPa)
#
#
# Indices 1 2 3 4 5 6 
#
# 1 0.017558 -0.000101 -0.003124 0.000000 0.000000 0.000000
# 2 -0.000101 0.013172 -0.005146 0.000000 0.000000 0.000000
# 3 -0.003124 -0.005146 0.008918 0.000000 0.000000 0.000000
# 4 0.000000 0.000000 0.000000 0.048534 0.000000 0.000000
# 5 0.000000 0.000000 0.000000 0.000000 0.038397 0.000000
# 6 0.000000 0.000000 0.000000 0.000000 0.000000 0.048165
#
#
# Mechanical properties :
#
#
# Convention : Reuss Voigt Hill
#
# Bulk Modulus (GPa) = 43.66073 58.20423 50.93248
# Shear Modulus (GPa) = 25.11034 28.02631 26.56833
#
# Velocity S-wave (km/s) = 3.50396 3.70182 3.60425
# Velocity P-wave (km/s) = 6.14152 6.83596 6.49802
#
# Compressibility (1/GPa) = 0.02290388
#
# Stress axis : x y z
#
# Youngs Moduli (GPa) = 56.95527 75.91938 112.13206
#
# Poissons Ratio (x) = 0.00770 0.35034
# Poissons Ratio (y) = 0.00578 0.57704
# Poissons Ratio (z) = 0.17795 0.39068
#
# Static dielectric constant tensor:
#      x y z
#    x 3.502120 0.000000 0.000000 
#    y 0.000000 3.809490 0.000000 
#    z 0.000000 0.000000 4.229370 
# 
# 
# High freq. dielectric constant tensor:
#      x y z
#    x 1.780750 0.000000 0.000000 
#    y 0.000000 1.792230 0.000000 
#    z 0.000000 0.000000 1.825740 
# 
# From -- ./inp_files/19369.got.cif
#   From: 2010.03.12/outbox.cif.g09.slc.cpg/sg57_10_cif.got.tgz:19369.got - 2010.04.16 15:48:40.
