data_PCOD8233729
_publ_section_title
;
Structure prediction by ZEFSAII (Michael W. Deem and Ramdas Pophale) SiO2 
 PCOD8233729
Probable space group: P B C M
;
_chemical_formula_sum "Si O2"
_cell_formula_units_Z 48
_cell_length_a 11.801129
_cell_length_b 8.885935
_cell_length_c 23.385779
_cell_angle_alpha 90.000000
_cell_angle_beta 90.000000
_cell_angle_gamma 90.000000
_cell_volume 2452.327854
_symmetry_space_group_name_H-M "P B C M"
_symmetry_group_IT_number 57
_symmetry_cell_setting 'orthorhombic'
loop_
_space_group_symop_operation_xyz
x,y,z
-x,-y,1/2+z
x,1/2-y,-z
-x,1/2+y,1/2-z
-x,-y,-z
x,y,1/2-z
-x,1/2+y,z
x,1/2-y,1/2+z
loop_
_atom_site_type_symbol
_atom_site_label
_atom_site_fract_x
_atom_site_fract_y
_atom_site_fract_z
Si Si1 0.638496 0.486643 0.111772
Si Si2 0.983059 0.747960 0.129890
Si Si3 0.647988 0.024489 0.477293
Si Si4 0.518828 0.762133 0.417905
Si Si5 0.856642 0.484420 0.184304
Si Si6 0.909192 0.496331 0.948073
O O1 0.539879 0.369442 0.130103
O O2 0.604452 0.660509 0.119817
O O3 0.750953 0.445347 0.144764
O O4 0.643188 0.451102 0.044476
O O5 0.899507 0.651014 0.169282
O O6 0.912533 0.844129 0.084080
O O7 0.050875 0.857054 0.172200
O O8 0.064333 0.637956 0.095086
O O9 0.592437 0.862517 0.462645
O O10 0.781038 0.031230 0.465486
O O11 0.576864 0.156957 0.447607
O O12 0.820031 0.479174 0.250000
O O13 0.000000 0.500000 0.000000
#
# Coordination Sequence:
#
# PCOD8233729 Si02
#       6
#     8   8   8   8   8   8
#     4  11  20  34  54  78 108 143 183 225 276 332
#     4  10  22  38  56  82 114 150 186 230 290 348
#     4  11  19  33  54  83 117 146 180 220 274 355
#     4  10  21  34  55  84 113 148 180 220 283 358
#     4  11  23  40  59  78 104 148 201 248 284 325
#     4  11  22  35  57  91 124 151 179 225 292 360
#
# _framework density 19.573239999999998
#
# number of rings (size 3 to 8) (size 9 to 14) (size 15 to 20)
#    0.000    1.333    0.000    9.000    0.000    2.667 
#    0.000    0.833    0.000    0.000    0.000    0.000 
#    0.000    0.000    0.000    0.000    0.000    0.000 
#
# Total GULP energy -594915.420125 kJ/mol
# GULP energy per Si atom -12394.071253 kJ/mol
# Density = 1.952869 g / cm^3
# Si number density = 19.573240 Si / 1000 Ang^3
#
#
#
# Elastic Constant Matrix: (Units=GPa)
#
#
# Indices 1 2 3 4 5 6 
#
# 1 93.3279 8.1734 16.3761 0.0000 0.0000 0.0000
# 2 8.1734 100.9663 16.9839 0.0000 0.0000 0.0000
# 3 16.3761 16.9839 31.5496 0.0000 0.0000 0.0000
# 4 0.0000 0.0000 0.0000 16.2099 0.0000 0.0000
# 5 0.0000 0.0000 0.0000 0.0000 1.7473 0.0000
# 6 0.0000 0.0000 0.0000 0.0000 0.0000 28.4933
#
#
#
# Elastic Compliance Matrix: (Units=1/GPa)
#
#
# Indices 1 2 3 4 5 6 
#
# 1 0.011789 0.000082 -0.006164 0.000000 0.000000 0.000000
# 2 0.000082 0.010891 -0.005906 0.000000 0.000000 0.000000
# 3 -0.006164 -0.005906 0.038075 0.000000 0.000000 0.000000
# 4 0.000000 0.000000 0.000000 0.061691 0.000000 0.000000
# 5 0.000000 0.000000 0.000000 0.000000 0.572322 0.000000
# 6 0.000000 0.000000 0.000000 0.000000 0.000000 0.035096
#
#
# Mechanical properties :
#
#
# Convention : Reuss Voigt Hill
#
# Bulk Modulus (GPa) = 27.18796 34.32340 30.75568
# Shear Modulus (GPa) = 6.52658 21.57746 14.05202
#
# Velocity S-wave (km/s) = 1.82803 3.32384 2.68231
# Velocity P-wave (km/s) = 4.28674 5.68370 5.03391
#
# Compressibility (1/GPa) = 0.03678099
#
# Stress axis : x y z
#
# Youngs Moduli (GPa) = 84.82328 91.81862 26.26428
#
# Poissons Ratio (x) = -0.00757 0.16188
# Poissons Ratio (y) = -0.00699 0.15511
# Poissons Ratio (z) = 0.52282 0.54225
#
# Static dielectric constant tensor:
#      x y z
#    x 3.772620 0.000000 0.000000 
#    y 0.000000 4.182460 0.000000 
#    z 0.000000 0.000000 3.200560 
# 
# 
# High freq. dielectric constant tensor:
#      x y z
#    x 1.773380 0.000000 0.000000 
#    y 0.000000 1.795230 0.000000 
#    z 0.000000 0.000000 1.718230 
# 
# From -- ./inp_files/27111.got.cif
#   From: 2010.03.12/outbox.cif.g09.slc.cpg/sg57_14_cif.got.tgz:27111.got - 2010.04.16 15:48:40.
