data_PCOD8233279
_publ_section_title
;
Structure prediction by ZEFSAII (Michael W. Deem and Ramdas Pophale) SiO2 
 PCOD8233279
Probable space group: P B C M
;
_chemical_formula_sum "Si O2"
_cell_formula_units_Z 48
_cell_length_a 29.321820
_cell_length_b 5.076019
_cell_length_c 15.776679
_cell_angle_alpha 90.000000
_cell_angle_beta 90.000000
_cell_angle_gamma 90.000000
_cell_volume 2348.171170
_symmetry_space_group_name_H-M "P B C M"
_symmetry_group_IT_number 57
_symmetry_cell_setting 'orthorhombic'
loop_
_space_group_symop_operation_xyz
x,y,z
-x,-y,1/2+z
x,1/2-y,-z
-x,1/2+y,1/2-z
-x,-y,-z
x,y,1/2-z
-x,1/2+y,z
x,1/2-y,1/2+z
loop_
_atom_site_type_symbol
_atom_site_label
_atom_site_fract_x
_atom_site_fract_y
_atom_site_fract_z
Si Si1 0.303125 0.750000 0.000000
Si Si2 0.871895 0.261130 0.596753
Si Si3 0.611404 0.483383 0.447640
Si Si4 0.474522 0.056429 0.349337
Si Si5 0.177907 0.228622 0.345618
Si Si6 0.028964 0.640623 0.348685
Si Si7 0.244229 0.250000 0.500000
O O1 0.337595 0.635314 0.925918
O O2 0.272899 0.504386 0.030595
O O3 0.855198 0.250000 0.500000
O O4 0.843212 0.483573 0.644403
O O5 0.925366 0.322138 0.597980
O O6 0.862433 0.984027 0.642654
O O7 0.585910 0.250000 0.500000
O O8 0.579690 0.540349 0.367099
O O9 0.618130 0.750000 0.500000
O O10 0.480863 0.055610 0.250000
O O11 0.503658 0.818206 0.389568
O O12 0.198172 0.205696 0.250000
O O13 0.215682 0.167928 0.416954
O O14 0.041764 0.658248 0.250000
O O15 0.007751 0.361170 0.373635
#
# Coordination Sequence:
#
# PCOD8233279 Si02
#       7
#     4   8   8   8   8   8   4
#     4  10  22  40  64  85 122 155 192 258 316 362
#     4  12  23  42  64  95 130 162 210 264 314 370
#     4  10  20  37  58  85 114 157 199 241 296 356
#     4  10  21  35  54  84 123 161 201 251 296 342
#     4  12  25  43  68  97 124 163 206 259 327 386
#     4  10  21  36  56  85 124 170 210 249 299 362
#     4  12  22  44  68  89 126 153 200 270 310 388
#
# _framework density 20.441441000000001
#
# number of rings (size 3 to 8) (size 9 to 14) (size 15 to 20)
#    0.500    0.667    2.500    4.500    0.000    4.000 
#    0.000    1.667    0.000    0.000    0.000    0.000 
#    0.000    0.000    0.000    0.000    0.000    0.000 
#
# Total GULP energy -594916.660489 kJ/mol
# GULP energy per Si atom -12394.097094 kJ/mol
# Density = 2.039491 g / cm^3
# Si number density = 20.441441 Si / 1000 Ang^3
#
#
#
# Elastic Constant Matrix: (Units=GPa)
#
#
# Indices 1 2 3 4 5 6 
#
# 1 97.3574 22.1389 27.0939 0.0000 0.0000 0.0000
# 2 22.1389 122.5678 22.7676 0.0000 0.0000 0.0000
# 3 27.0939 22.7676 83.4261 0.0000 0.0000 0.0000
# 4 0.0000 0.0000 0.0000 17.9103 0.0000 0.0000
# 5 0.0000 0.0000 0.0000 0.0000 15.0665 0.0000
# 6 0.0000 0.0000 0.0000 0.0000 0.0000 20.3573
#
#
#
# Elastic Compliance Matrix: (Units=1/GPa)
#
#
# Indices 1 2 3 4 5 6 
#
# 1 0.011535 -0.001462 -0.003347 0.000000 0.000000 0.000000
# 2 -0.001462 0.008780 -0.001921 0.000000 0.000000 0.000000
# 3 -0.003347 -0.001921 0.013598 0.000000 0.000000 0.000000
# 4 0.000000 0.000000 0.000000 0.055834 0.000000 0.000000
# 5 0.000000 0.000000 0.000000 0.000000 0.066372 0.000000
# 6 0.000000 0.000000 0.000000 0.000000 0.000000 0.049123
#
#
# Mechanical properties :
#
#
# Convention : Reuss Voigt Hill
#
# Bulk Modulus (GPa) = 48.89435 49.70578 49.30007
# Shear Modulus (GPa) = 22.17095 26.09020 24.13057
#
# Velocity S-wave (km/s) = 3.29691 3.57646 3.43953
# Velocity P-wave (km/s) = 6.20193 6.43613 6.32012
#
# Compressibility (1/GPa) = 0.02045226
#
# Stress axis : x y z
#
# Youngs Moduli (GPa) = 86.68973 113.89934 73.53965
#
# Poissons Ratio (x) = 0.16650 0.24616
# Poissons Ratio (y) = 0.12672 0.14129
# Poissons Ratio (z) = 0.29018 0.21884
#
# Static dielectric constant tensor:
#      x y z
#    x 3.667470 0.000000 0.000000 
#    y 0.000000 4.087620 0.000000 
#    z 0.000000 0.000000 3.473780 
# 
# 
# High freq. dielectric constant tensor:
#      x y z
#    x 1.796350 0.000000 0.000000 
#    y 0.000000 1.828510 0.000000 
#    z 0.000000 0.000000 1.764210 
# 
# From -- ./inp_files/19586.got.cif
#   From: 2010.03.12/outbox.cif.g09.slc.cpg/sg57_10_cif.got.tgz:19586.got - 2010.04.16 15:48:40.
