data_PCOD8233961
_publ_section_title
;
Structure prediction by ZEFSAII (Michael W. Deem and Ramdas Pophale) SiO2 
 PCOD8233961
Probable space group: P B C M
;
_chemical_formula_sum "Si O2"
_cell_formula_units_Z 48
_cell_length_a 30.444876
_cell_length_b 9.094114
_cell_length_c 8.803214
_cell_angle_alpha 90.000000
_cell_angle_beta 90.000000
_cell_angle_gamma 90.000000
_cell_volume 2437.338580
_symmetry_space_group_name_H-M "P B C M"
_symmetry_group_IT_number 57
_symmetry_cell_setting 'orthorhombic'
loop_
_space_group_symop_operation_xyz
x,y,z
-x,-y,1/2+z
x,1/2-y,-z
-x,1/2+y,1/2-z
-x,-y,-z
x,y,1/2-z
-x,1/2+y,z
x,1/2-y,1/2+z
loop_
_atom_site_type_symbol
_atom_site_label
_atom_site_fract_x
_atom_site_fract_y
_atom_site_fract_z
Si Si1 0.201878 0.909123 0.427658
Si Si2 0.713901 0.905047 0.572074
Si Si3 0.538785 0.091820 0.071926
Si Si4 0.961136 0.408734 0.572975
Si Si5 0.874600 0.593341 0.927293
Si Si6 0.623019 0.595486 0.571754
O O1 0.196213 0.750000 0.500000
O O2 0.192581 0.895703 0.250000
O O3 0.250265 0.970574 0.462721
O O4 0.168004 0.023346 0.497734
O O5 0.728592 0.750000 0.500000
O O6 0.707527 0.879631 0.750000
O O7 0.668425 0.961934 0.500276
O O8 0.530594 0.102609 0.250000
O O9 0.585479 0.020425 0.032537
O O10 0.538471 0.250000 0.000000
O O11 0.500000 0.000000 0.000000
O O12 0.958430 0.250000 0.500000
O O13 0.970757 0.391873 0.750000
O O14 0.915622 0.489188 0.539764
O O15 0.000000 0.500000 0.500000
O O16 0.865727 0.614291 0.750000
O O17 0.884915 0.750000 0.000000
O O18 0.608864 0.750000 0.500000
O O19 0.629597 0.616911 0.750000
#
# Coordination Sequence:
#
# PCOD8233961 Si02
#       6
#     8   8   8   8   8   8
#     4  11  24  40  60  87 119 156 197 243 295 349
#     4  10  21  37  59  86 115 151 193 237 287 344
#     4  11  24  40  60  86 116 152 193 238 289 345
#     4  11  24  41  63  91 123 159 199 244 294 349
#     4  11  24  41  63  90 120 156 198 244 294 350
#     4  10  21  37  59  86 115 150 191 236 287 343
#
# _framework density 19.693612000000002
#
# number of rings (size 3 to 8) (size 9 to 14) (size 15 to 20)
#    0.000    1.333    0.000    6.000    0.000   14.000 
#    0.000    3.333    0.000    0.000    0.000    0.000 
#    0.000    0.000    0.000    0.000    0.000    0.000 
#
# Total GULP energy -595469.528444 kJ/mol
# GULP energy per Si atom -12405.615176 kJ/mol
# Density = 1.964879 g / cm^3
# Si number density = 19.693612 Si / 1000 Ang^3
#
#
#
# Elastic Constant Matrix: (Units=GPa)
#
#
# Indices 1 2 3 4 5 6 
#
# 1 121.4869 73.0128 88.7771 0.0000 0.0000 0.0000
# 2 73.0128 154.7311 81.9910 0.0000 0.0000 0.0000
# 3 88.7771 81.9910 136.4205 0.0000 0.0000 0.0000
# 4 0.0000 0.0000 0.0000 38.9275 0.0000 0.0000
# 5 0.0000 0.0000 0.0000 0.0000 34.1343 0.0000
# 6 0.0000 0.0000 0.0000 0.0000 0.0000 23.7567
#
#
#
# Elastic Compliance Matrix: (Units=1/GPa)
#
#
# Indices 1 2 3 4 5 6 
#
# 1 0.016653 -0.003104 -0.008971 0.000000 0.000000 0.000000
# 2 -0.003104 0.010061 -0.004027 0.000000 0.000000 0.000000
# 3 -0.008971 -0.004027 0.015589 0.000000 0.000000 0.000000
# 4 0.000000 0.000000 0.000000 0.025689 0.000000 0.000000
# 5 0.000000 0.000000 0.000000 0.000000 0.029296 0.000000
# 6 0.000000 0.000000 0.000000 0.000000 0.000000 0.042093
#
#
# Mechanical properties :
#
#
# Convention : Reuss Voigt Hill
#
# Bulk Modulus (GPa) = 99.02953 100.02227 99.52590
# Shear Modulus (GPa) = 28.57921 30.62086 29.60003
#
# Velocity S-wave (km/s) = 3.81358 3.94745 3.88110
# Velocity P-wave (km/s) = 8.35377 8.46617 8.41016
#
# Compressibility (1/GPa) = 0.01009800
#
# Stress axis : x y z
#
# Youngs Moduli (GPa) = 60.05027 99.38907 64.14839
#
# Poissons Ratio (x) = 0.30851 0.57550
# Poissons Ratio (y) = 0.18640 0.25833
# Poissons Ratio (z) = 0.53873 0.40025
#
# Static dielectric constant tensor:
#      x y z
#    x 3.992050 0.000000 0.000000 
#    y 0.000000 3.713210 0.000000 
#    z 0.000000 0.000000 3.836550 
# 
# 
# High freq. dielectric constant tensor:
#      x y z
#    x 1.785000 0.000000 0.000000 
#    y 0.000000 1.776310 0.000000 
#    z 0.000000 0.000000 1.788420 
# 
# From -- ./inp_files/10024.got.cif
#   From: 2010.03.12/outbox.cif.g09.slc.cpg/sg57_6_cif.got.tgz:10024.got - 2010.04.16 15:48:40.
