data_PCOD8233455
_publ_section_title
;
Structure prediction by ZEFSAII (Michael W. Deem and Ramdas Pophale) SiO2 
 PCOD8233455
Probable space group: P B C M
;
_chemical_formula_sum "Si O2"
_cell_formula_units_Z 48
_cell_length_a 24.638999
_cell_length_b 9.412179
_cell_length_c 10.267225
_cell_angle_alpha 90.000000
_cell_angle_beta 90.000000
_cell_angle_gamma 90.000000
_cell_volume 2381.037949
_symmetry_space_group_name_H-M "P B C M"
_symmetry_group_IT_number 57
_symmetry_cell_setting 'orthorhombic'
loop_
_space_group_symop_operation_xyz
x,y,z
-x,-y,1/2+z
x,1/2-y,-z
-x,1/2+y,1/2-z
-x,-y,-z
x,y,1/2-z
-x,1/2+y,z
x,1/2-y,1/2+z
loop_
_atom_site_type_symbol
_atom_site_label
_atom_site_fract_x
_atom_site_fract_y
_atom_site_fract_z
Si Si1 0.619533 0.587445 0.516539
Si Si2 0.541700 0.628083 0.750000
Si Si3 0.830675 0.134684 0.104857
Si Si4 0.293612 0.870222 0.899778
Si Si5 0.031631 0.638664 0.611769
Si Si6 0.914330 0.906665 0.033394
Si Si7 0.565265 0.545625 0.250000
O O1 0.636734 0.750000 0.500000
O O2 0.570983 0.571035 0.620289
O O3 0.672344 0.510704 0.571931
O O4 0.601669 0.521900 0.378289
O O5 0.480687 0.573289 0.750000
O O6 0.538742 0.798454 0.750000
O O7 0.834206 0.201210 0.250000
O O8 0.769015 0.092257 0.071792
O O9 0.866000 0.991391 0.102304
O O10 0.852334 0.250000 0.000000
O O11 0.302145 0.820313 0.750000
O O12 0.313831 0.750000 0.000000
O O13 0.046068 0.750000 0.500000
O O14 0.049590 0.705593 0.750000
O O15 0.065269 0.492932 0.593871
O O16 0.967707 0.605054 0.622983
O O17 0.892107 0.750000 0.000000
#
# Coordination Sequence:
#
# PCOD8233455 Si02
#       7
#     8   4   8   8   8   8   4
#     4  10  21  38  60  85 121 158 195 241 291 343
#     4  10  20  38  56  86 122 158 196 239 284 341
#     4  10  22  41  62  84 114 151 192 240 294 347
#     4  10  22  40  62  87 114 149 196 245 291 347
#     4  10  22  39  59  84 116 155 194 234 286 346
#     4  10  22  36  58  87 118 149 191 240 287 345
#     4  10  22  34  58  88 120 158 196 235 288 339
#
# _framework density 20.159274
#
# number of rings (size 3 to 8) (size 9 to 14) (size 15 to 20)
#    0.000    2.000    0.833    1.500    1.167   12.000 
#    0.000    0.000    0.000    0.000    0.000    0.000 
#    0.000    0.000    0.000    0.000    0.000    0.000 
#
# Total GULP energy -595127.858356 kJ/mol
# GULP energy per Si atom -12398.497049 kJ/mol
# Density = 2.011339 g / cm^3
# Si number density = 20.159274 Si / 1000 Ang^3
#
#
#
# Elastic Constant Matrix: (Units=GPa)
#
#
# Indices 1 2 3 4 5 6 
#
# 1 78.9838 44.2868 26.5016 0.0000 0.0000 0.0000
# 2 44.2868 104.7087 49.7326 0.0000 0.0000 0.0000
# 3 26.5016 49.7326 163.3402 0.0000 0.0000 0.0000
# 4 0.0000 0.0000 0.0000 25.4660 0.0000 0.0000
# 5 0.0000 0.0000 0.0000 0.0000 50.6934 0.0000
# 6 0.0000 0.0000 0.0000 0.0000 0.0000 35.4037
#
#
#
# Elastic Compliance Matrix: (Units=1/GPa)
#
#
# Indices 1 2 3 4 5 6 
#
# 1 0.016656 -0.006735 -0.000652 0.000000 0.000000 0.000000
# 2 -0.006735 0.013888 -0.003136 0.000000 0.000000 0.000000
# 3 -0.000652 -0.003136 0.007183 0.000000 0.000000 0.000000
# 4 0.000000 0.000000 0.000000 0.039268 0.000000 0.000000
# 5 0.000000 0.000000 0.000000 0.000000 0.019726 0.000000
# 6 0.000000 0.000000 0.000000 0.000000 0.000000 0.028246
#
#
# Mechanical properties :
#
#
# Convention : Reuss Voigt Hill
#
# Bulk Modulus (GPa) = 59.94639 65.34164 62.64401
# Shear Modulus (GPa) = 32.98738 37.41340 35.20039
#
# Velocity S-wave (km/s) = 4.04956 4.31268 4.18319
# Velocity P-wave (km/s) = 7.18792 7.56849 7.38065
#
# Compressibility (1/GPa) = 0.01668157
#
# Stress axis : x y z
#
# Youngs Moduli (GPa) = 60.03869 72.00279 139.22309
#
# Poissons Ratio (x) = 0.48495 0.09074
# Poissons Ratio (y) = 0.40437 0.43658
# Poissons Ratio (z) = 0.03913 0.22579
#
# Static dielectric constant tensor:
#      x y z
#    x 3.533080 0.000000 0.000000 
#    y 0.000000 3.542290 0.000000 
#    z 0.000000 0.000000 3.829470 
# 
# 
# High freq. dielectric constant tensor:
#      x y z
#    x 1.782610 0.000000 0.000000 
#    y 0.000000 1.776430 0.000000 
#    z 0.000000 0.000000 1.799740 
# 
# From -- ./inp_files/14415.got.cif
#   From: 2010.03.12/outbox.cif.g09.slc.cpg/sg57_8_cif.got.tgz:14415.got - 2010.04.16 15:48:40.
