data_PCOD8233660
_publ_section_title
;
Structure prediction by ZEFSAII (Michael W. Deem and Ramdas Pophale) SiO2 
 PCOD8233660
Probable space group: P B C M
;
_chemical_formula_sum "Si O2"
_cell_formula_units_Z 40
_cell_length_a 12.636574
_cell_length_b 10.830692
_cell_length_c 14.541824
_cell_angle_alpha 90.000000
_cell_angle_beta 90.000000
_cell_angle_gamma 90.000000
_cell_volume 1990.235345
_symmetry_space_group_name_H-M "P B C M"
_symmetry_group_IT_number 57
_symmetry_cell_setting 'orthorhombic'
loop_
_space_group_symop_operation_xyz
x,y,z
-x,-y,1/2+z
x,1/2-y,-z
-x,1/2+y,1/2-z
-x,-y,-z
x,y,1/2-z
-x,1/2+y,z
x,1/2-y,1/2+z
loop_
_atom_site_type_symbol
_atom_site_label
_atom_site_fract_x
_atom_site_fract_y
_atom_site_fract_z
Si Si1 0.637578 0.934734 0.921857
Si Si2 0.137825 0.074003 0.750000
Si Si3 0.595006 0.135989 0.437468
Si Si4 0.714435 0.155285 0.250000
Si Si5 0.847680 0.774570 0.899121
Si Si6 0.071006 0.063442 0.250000
Si Si7 0.708915 0.066063 0.750000
O O1 0.530614 0.855640 0.920551
O O2 0.735702 0.841880 0.914876
O O3 0.638174 0.034594 0.839106
O O4 0.637047 0.010166 0.016717
O O5 0.171584 0.148678 0.658515
O O6 0.187740 0.938183 0.750000
O O7 0.011894 0.047780 0.750000
O O8 0.632586 0.250000 0.500000
O O9 0.644295 0.135473 0.338196
O O10 0.754093 0.295765 0.250000
O O11 0.935507 0.853863 0.842982
O O12 0.897080 0.750000 0.000000
O O13 0.189969 0.018817 0.250000
#
# Coordination Sequence:
#
# PCOD8233660 Si02
#       7
#     8   4   8   4   8   4   4
#     4  10  21  40  62  90 124 164 202 247 299 362
#     4  11  25  42  63  93 121 157 208 258 309 363
#     4  11  22  38  60  93 127 162 203 248 298 364
#     4  12  24  37  58  92 123 159 202 250 308 361
#     4  10  21  42  66  90 120 160 205 250 307 363
#     4   9  23  41  65  89 120 159 202 260 310 356
#     4  10  20  40  62  84 126 159 202 252 309 362
#
# _framework density 20.098126000000001
#
# number of rings (size 3 to 8) (size 9 to 14) (size 15 to 20)
#    0.000    1.600    2.000    3.000    2.800    2.400 
#    3.600    1.000    0.000    0.000    0.000    0.000 
#    0.000    0.000    0.000    0.000    0.000    0.000 
#
# Total GULP energy -495929.731208 kJ/mol
# GULP energy per Si atom -12398.243280 kJ/mol
# Density = 2.005238 g / cm^3
# Si number density = 20.098126 Si / 1000 Ang^3
#
#
#
# Elastic Constant Matrix: (Units=GPa)
#
#
# Indices 1 2 3 4 5 6 
#
# 1 61.8575 17.6859 31.1300 0.0000 0.0000 0.0000
# 2 17.6859 84.1483 37.2503 0.0000 0.0000 0.0000
# 3 31.1300 37.2503 161.0226 0.0000 0.0000 0.0000
# 4 0.0000 0.0000 0.0000 31.2951 0.0000 0.0000
# 5 0.0000 0.0000 0.0000 0.0000 9.4490 0.0000
# 6 0.0000 0.0000 0.0000 0.0000 0.0000 38.1325
#
#
#
# Elastic Compliance Matrix: (Units=1/GPa)
#
#
# Indices 1 2 3 4 5 6 
#
# 1 0.018388 -0.002552 -0.002964 0.000000 0.000000 0.000000
# 2 -0.002552 0.013594 -0.002651 0.000000 0.000000 0.000000
# 3 -0.002964 -0.002651 0.007397 0.000000 0.000000 0.000000
# 4 0.000000 0.000000 0.000000 0.031954 0.000000 0.000000
# 5 0.000000 0.000000 0.000000 0.000000 0.105831 0.000000
# 6 0.000000 0.000000 0.000000 0.000000 0.000000 0.026224
#
#
# Mechanical properties :
#
#
# Convention : Reuss Voigt Hill
#
# Bulk Modulus (GPa) = 43.39855 53.24009 48.31932
# Shear Modulus (GPa) = 21.98725 30.50612 26.24669
#
# Velocity S-wave (km/s) = 3.31115 3.90020 3.61768
# Velocity P-wave (km/s) = 6.02150 6.84322 6.44547
#
# Compressibility (1/GPa) = 0.02304224
#
# Stress axis : x y z
#
# Youngs Moduli (GPa) = 54.38386 73.56237 135.19452
#
# Poissons Ratio (x) = 0.18776 0.40077
# Poissons Ratio (y) = 0.13881 0.35844
# Poissons Ratio (z) = 0.16122 0.19504
#
# Static dielectric constant tensor:
#      x y z
#    x 3.294760 0.000000 0.000000 
#    y 0.000000 3.789610 0.000000 
#    z 0.000000 0.000000 4.015850 
# 
# 
# High freq. dielectric constant tensor:
#      x y z
#    x 1.760310 0.000000 0.000000 
#    y 0.000000 1.794480 0.000000 
#    z 0.000000 0.000000 1.803390 
# 
# From -- ./inp_files/17474.got.cif
#   From: 2010.03.12/outbox.cif.g09.slc.cpg/sg57_9_cif.got.tgz:17474.got - 2010.04.16 15:48:40.
