data_PCOD8233670
_publ_section_title
;
Structure prediction by ZEFSAII (Michael W. Deem and Ramdas Pophale) SiO2 
 PCOD8233670
Probable space group: P B C M
;
_chemical_formula_sum "Si O2"
_cell_formula_units_Z 36
_cell_length_a 13.639520
_cell_length_b 14.495060
_cell_length_c 9.360436
_cell_angle_alpha 90.000000
_cell_angle_beta 90.000000
_cell_angle_gamma 90.000000
_cell_volume 1850.611184
_symmetry_space_group_name_H-M "P B C M"
_symmetry_group_IT_number 57
_symmetry_cell_setting 'orthorhombic'
loop_
_space_group_symop_operation_xyz
x,y,z
-x,-y,1/2+z
x,1/2-y,-z
-x,1/2+y,1/2-z
-x,-y,-z
x,y,1/2-z
-x,1/2+y,z
x,1/2-y,1/2+z
loop_
_atom_site_type_symbol
_atom_site_label
_atom_site_fract_x
_atom_site_fract_y
_atom_site_fract_z
Si Si1 0.602401 0.906406 0.250000
Si Si2 0.343336 0.605357 0.250000
Si Si3 0.222857 0.156940 0.911083
Si Si4 0.764035 0.351851 0.476033
Si Si5 0.394836 0.690247 0.750000
Si Si6 0.901247 0.988772 0.587575
O O1 0.664439 0.877313 0.391369
O O2 0.500207 0.855159 0.250000
O O3 0.584809 0.016995 0.250000
O O4 0.267219 0.598853 0.379264
O O5 0.407586 0.698627 0.250000
O O6 0.176695 0.169157 0.750000
O O7 0.221597 0.250000 0.000000
O O8 0.164731 0.083855 0.004527
O O9 0.809829 0.250000 0.500000
O O10 0.664172 0.342645 0.387269
O O11 0.846394 0.413023 0.400692
O O12 0.922617 0.955349 0.750000
O O13 0.000000 0.000000 0.500000
#
# Coordination Sequence:
#
# PCOD8233670 Si02
#       6
#     4   4   8   8   4   8
#     4  10  22  40  67  92 137 172 218 269 326 398
#     4  10  20  40  65  86 135 170 214 270 321 389
#     4  10  22  43  66  94 135 175 215 269 334 394
#     4  10  21  41  65  91 130 168 217 273 322 387
#     4  10  22  40  60 100 128 176 224 263 321 393
#     4  12  25  43  68  98 130 172 224 276 340 406
#
# _framework density 19.453032
#
# number of rings (size 3 to 8) (size 9 to 14) (size 15 to 20)
#    0.667    0.889    3.333    1.333    1.556    4.444 
#    4.000    2.222    0.000    0.000    0.000    0.000 
#    0.000    0.000    0.000    0.000    0.000    0.000 
#
# Total GULP energy -446242.846789 kJ/mol
# GULP energy per Si atom -12395.634633 kJ/mol
# Density = 1.940876 g / cm^3
# Si number density = 19.453032 Si / 1000 Ang^3
#
#
#
# Elastic Constant Matrix: (Units=GPa)
#
#
# Indices 1 2 3 4 5 6 
#
# 1 130.0540 73.0992 48.7933 0.0000 0.0000 0.0000
# 2 73.0992 149.6092 51.4022 0.0000 0.0000 0.0000
# 3 48.7933 51.4022 150.7107 0.0000 0.0000 0.0000
# 4 0.0000 0.0000 0.0000 26.6125 0.0000 0.0000
# 5 0.0000 0.0000 0.0000 0.0000 -296.9235 0.0000
# 6 0.0000 0.0000 0.0000 0.0000 0.0000 13.9992
#
#
#
# Elastic Compliance Matrix: (Units=1/GPa)
#
#
# Indices 1 2 3 4 5 6 
#
# 1 0.011096 -0.004743 -0.001975 0.000000 0.000000 0.000000
# 2 -0.004743 0.009599 -0.001738 0.000000 0.000000 0.000000
# 3 -0.001975 -0.001738 0.007867 0.000000 0.000000 0.000000
# 4 0.000000 0.000000 0.000000 0.037576 0.000000 0.000000
# 5 0.000000 0.000000 0.000000 0.000000 -0.003368 0.000000
# 6 0.000000 0.000000 0.000000 0.000000 0.000000 0.071433
#
#
# Mechanical properties :
#
#
# Convention : Reuss Voigt Hill
#
# Bulk Modulus (GPa) = 85.83548 86.32924 86.08236
# Shear Modulus (GPa) = 32.25839 -34.12376 -0.93268
#
# Velocity S-wave (km/s) = 4.07660 -4.19281 -0.69318
# Velocity P-wave (km/s) = 8.14730 4.58640 6.61111
#
# Compressibility (1/GPa) = 0.01165019
#
# Stress axis : x y z
#
# Youngs Moduli (GPa) = 90.12378 104.18045 127.10702
#
# Poissons Ratio (x) = 0.49413 0.25099
# Poissons Ratio (y) = 0.42746 0.22094
# Poissons Ratio (z) = 0.17796 0.18109
#
# Static dielectric constant tensor:
#      x y z
#    x 3.229350 0.000000 0.000000 
#    y 0.000000 4.006160 0.000000 
#    z 0.000000 0.000000 3.883780 
# 
# 
# High freq. dielectric constant tensor:
#      x y z
#    x 1.732010 0.000000 0.000000 
#    y 0.000000 1.770410 0.000000 
#    z 0.000000 0.000000 1.773640 
# 
# From -- ./inp_files/4226.got.cif
#   From: 2010.03.12/outbox.cif.g09.slc.cpg/sg57_3_cif.got.tgz:4226.got - 2010.04.16 15:48:40.
