data_PCOD8233088
_publ_section_title
;
Structure prediction by ZEFSAII (Michael W. Deem and Ramdas Pophale) SiO2 
 PCOD8233088
Probable space group: P B C M
;
_chemical_formula_sum "Si O2"
_cell_formula_units_Z 32
_cell_length_a 5.146005
_cell_length_b 33.484121
_cell_length_c 7.696946
_cell_angle_alpha 90.000000
_cell_angle_beta 90.000000
_cell_angle_gamma 90.000000
_cell_volume 1326.256563
_symmetry_space_group_name_H-M "P B C M"
_symmetry_group_IT_number 57
_symmetry_cell_setting 'orthorhombic'
loop_
_space_group_symop_operation_xyz
x,y,z
-x,-y,1/2+z
x,1/2-y,-z
-x,1/2+y,1/2-z
-x,-y,-z
x,y,1/2-z
-x,1/2+y,z
x,1/2-y,1/2+z
loop_
_atom_site_type_symbol
_atom_site_label
_atom_site_fract_x
_atom_site_fract_y
_atom_site_fract_z
Si Si1 0.233141 0.576607 0.441766
Si Si2 0.010820 0.009878 0.250000
Si Si3 0.512420 0.541440 0.750000
Si Si4 0.466145 0.295773 0.545685
Si Si5 0.032798 0.660608 0.455608
O O1 0.357957 0.586289 0.250000
O O2 0.044954 0.537583 0.421618
O O3 0.461861 0.567665 0.577712
O O4 0.065929 0.614241 0.509018
O O5 0.808532 0.972949 0.250000
O O6 0.309202 0.995862 0.250000
O O7 0.427586 0.250000 0.500000
O O8 0.469117 0.301493 0.750000
O O9 0.731386 0.313192 0.465588
O O10 0.231351 0.321736 0.463453
O O11 0.025112 0.665206 0.250000
#
# Coordination Sequence:
#
# PCOD8233088 Si02
#       5
#     8   4   4   8   8
#     4   9  22  40  61  87 118 160 192 243 294 343
#     4  10  24  38  64  82 123 152 199 242 296 340
#     4  12  22  42  56  94 115 154 199 248 284 352
#     4  10  20  36  58  82 112 144 185 228 278 338
#     4   9  19  37  56  81 111 149 185 225 279 341
#
# _framework density 24.128060000000001
#
# number of rings (size 3 to 8) (size 9 to 14) (size 15 to 20)
#    0.750    1.500    0.000    2.250    0.000    4.000 
#    4.500    0.000    0.000    0.000    0.000    0.000 
#    0.000    0.000    0.000    0.000    0.000    0.000 
#
# Total GULP energy -396681.804897 kJ/mol
# GULP energy per Si atom -12396.306403 kJ/mol
# Density = 2.407314 g / cm^3
# Si number density = 24.128060 Si / 1000 Ang^3
#
#
#
# Elastic Constant Matrix: (Units=GPa)
#
#
# Indices 1 2 3 4 5 6 
#
# 1 99.0464 10.2626 -1.7574 0.0000 0.0000 0.0000
# 2 10.2626 87.6891 -0.3101 0.0000 0.0000 0.0000
# 3 -1.7574 -0.3101 56.1047 0.0000 0.0000 0.0000
# 4 0.0000 0.0000 0.0000 28.9130 0.0000 0.0000
# 5 0.0000 0.0000 0.0000 0.0000 0.0777 0.0000
# 6 0.0000 0.0000 0.0000 0.0000 0.0000 22.5223
#
#
#
# Elastic Compliance Matrix: (Units=1/GPa)
#
#
# Indices 1 2 3 4 5 6 
#
# 1 0.010226 -0.001196 0.000314 0.000000 0.000000 0.000000
# 2 -0.001196 0.011544 0.000026 0.000000 0.000000 0.000000
# 3 0.000314 0.000026 0.017834 0.000000 0.000000 0.000000
# 4 0.000000 0.000000 0.000000 0.034587 0.000000 0.000000
# 5 0.000000 0.000000 0.000000 0.000000 12.876452 0.000000
# 6 0.000000 0.000000 0.000000 0.000000 0.000000 0.044400
#
#
# Mechanical properties :
#
#
# Convention : Reuss Voigt Hill
#
# Bulk Modulus (GPa) = 26.39060 28.80337 27.59699
# Shear Modulus (GPa) = 0.38434 25.94560 13.16497
#
# Velocity S-wave (km/s) = 0.39955 3.28278 2.33840
# Velocity P-wave (km/s) = 3.34280 5.13152 4.33052
#
# Compressibility (1/GPa) = 0.03789228
#
# Stress axis : x y z
#
# Youngs Moduli (GPa) = 97.79257 86.62547 56.07333
#
# Poissons Ratio (x) = 0.10357 -0.01759
# Poissons Ratio (y) = 0.11693 -0.00148
# Poissons Ratio (z) = -0.03068 -0.00228
#
# Static dielectric constant tensor:
#      x y z
#    x 4.296910 0.000000 0.000000 
#    y 0.000000 4.222660 0.000000 
#    z 0.000000 0.000000 4.147850 
# 
# 
# High freq. dielectric constant tensor:
#      x y z
#    x 1.943260 0.000000 0.000000 
#    y 0.000000 1.963940 0.000000 
#    z 0.000000 0.000000 1.935980 
# 
# From -- ./inp_files/796.got.cif
#   From: 2010.03.12/outbox.cif.g09.slc.cpg/sg57_1_cif.got.tgz:796.got - 2010.04.16 15:48:40.
