data_PCOD8233843
_publ_section_title
;
Structure prediction by ZEFSAII (Michael W. Deem and Ramdas Pophale) SiO2 
 PCOD8233843
Probable space group: P B C M
;
_chemical_formula_sum "Si O2"
_cell_formula_units_Z 56
_cell_length_a 13.868290
_cell_length_b 9.642017
_cell_length_c 19.952383
_cell_angle_alpha 90.000000
_cell_angle_beta 90.000000
_cell_angle_gamma 90.000000
_cell_volume 2667.998495
_symmetry_space_group_name_H-M "P B C M"
_symmetry_group_IT_number 57
_symmetry_cell_setting 'orthorhombic'
loop_
_space_group_symop_operation_xyz
x,y,z
-x,-y,1/2+z
x,1/2-y,-z
-x,1/2+y,1/2-z
-x,-y,-z
x,y,1/2-z
-x,1/2+y,z
x,1/2-y,1/2+z
loop_
_atom_site_type_symbol
_atom_site_label
_atom_site_fract_x
_atom_site_fract_y
_atom_site_fract_z
Si Si1 0.931858 0.048001 0.824440
Si Si2 0.963639 0.784146 0.900168
Si Si3 0.237339 0.766618 0.325929
Si Si4 0.231957 0.337223 0.057509
Si Si5 0.154753 0.632354 0.049326
Si Si6 0.613169 0.620281 0.830554
Si Si7 0.556713 0.187505 0.328081
O O1 0.968067 0.081456 0.750000
O O2 0.817691 0.086230 0.831958
O O3 0.993733 0.138526 0.875723
O O4 0.946692 0.886801 0.837886
O O5 0.861401 0.758442 0.932946
O O6 0.037596 0.858079 0.952739
O O7 0.231170 0.706916 0.250000
O O8 0.184591 0.656074 0.373335
O O9 0.349273 0.779756 0.347126
O O10 0.197821 0.485234 0.027566
O O11 0.289985 0.353263 0.127005
O O12 0.290558 0.250000 0.000000
O O13 0.198772 0.750000 0.000000
O O14 0.634433 0.626180 0.750000
O O15 0.537561 0.736034 0.856997
O O16 0.570155 0.470645 0.852532
O O17 0.540135 0.186367 0.250000
#
# Coordination Sequence:
#
# PCOD8233843 Si02
#       7
#     8   8   8   8   8   8   8
#     4  10  21  36  59  96 131 164 210 267 327 376
#     4  11  23  41  62  89 127 175 220 264 314 384
#     4   9  19  38  66  94 122 160 212 262 314 379
#     4  12  27  43  64  96 132 170 219 272 323 384
#     4  11  24  43  66  89 122 175 218 258 316 383
#     4  10  22  43  69  99 128 166 213 267 324 384
#     4   9  18  38  69  96 125 163 209 259 319 387
#
# _framework density 20.989515999999998
#
# number of rings (size 3 to 8) (size 9 to 14) (size 15 to 20)
#    0.000    1.714    2.857    0.857    4.000    4.000 
#    0.000    4.286    0.000    0.000    0.000    0.000 
#    0.000    0.000    0.000    0.000    0.000    0.000 
#
# Total GULP energy -694017.910530 kJ/mol
# GULP energy per Si atom -12393.176974 kJ/mol
# Density = 2.094174 g / cm^3
# Si number density = 20.989516 Si / 1000 Ang^3
#
#
#
# Elastic Constant Matrix: (Units=GPa)
#
#
# Indices 1 2 3 4 5 6 
#
# 1 105.6648 48.0129 35.7139 0.0000 0.0000 0.0000
# 2 48.0129 118.2321 45.0842 0.0000 0.0000 0.0000
# 3 35.7139 45.0842 76.3480 0.0000 0.0000 0.0000
# 4 0.0000 0.0000 0.0000 30.2147 0.0000 0.0000
# 5 0.0000 0.0000 0.0000 0.0000 18.0437 0.0000
# 6 0.0000 0.0000 0.0000 0.0000 0.0000 25.4513
#
#
#
# Elastic Compliance Matrix: (Units=1/GPa)
#
#
# Indices 1 2 3 4 5 6 
#
# 1 0.012339 -0.003626 -0.003630 0.000000 0.000000 0.000000
# 2 -0.003626 0.011982 -0.005379 0.000000 0.000000 0.000000
# 3 -0.003630 -0.005379 0.017972 0.000000 0.000000 0.000000
# 4 0.000000 0.000000 0.000000 0.033096 0.000000 0.000000
# 5 0.000000 0.000000 0.000000 0.000000 0.055421 0.000000
# 6 0.000000 0.000000 0.000000 0.000000 0.000000 0.039291
#
#
# Mechanical properties :
#
#
# Convention : Reuss Voigt Hill
#
# Bulk Modulus (GPa) = 58.74933 61.98523 60.36728
# Shear Modulus (GPa) = 24.86991 26.17088 25.52040
#
# Velocity S-wave (km/s) = 3.44593 3.53491 3.49071
# Velocity P-wave (km/s) = 6.62444 6.80121 6.71341
#
# Compressibility (1/GPa) = 0.01702147
#
# Stress axis : x y z
#
# Youngs Moduli (GPa) = 81.04600 83.46100 55.64058
#
# Poissons Ratio (x) = 0.30265 0.20200
# Poissons Ratio (y) = 0.29389 0.29929
# Poissons Ratio (z) = 0.29423 0.44894
#
# Static dielectric constant tensor:
#      x y z
#    x 3.942190 0.000000 0.000000 
#    y 0.000000 4.001920 0.000000 
#    z 0.000000 0.000000 3.668140 
# 
# 
# High freq. dielectric constant tensor:
#      x y z
#    x 1.810930 0.000000 0.000000 
#    y 0.000000 1.822600 0.000000 
#    z 0.000000 0.000000 1.810660 
# 
# From -- ./inp_files/25367.got.cif
#   From: 2010.03.12/outbox.cif.g09.slc.cpg/sg57_13_cif.got.tgz:25367.got - 2010.04.16 15:48:40.
