data_PCOD8233991
_publ_section_title
;
Structure prediction by ZEFSAII (Michael W. Deem and Ramdas Pophale) SiO2 
 PCOD8233991
Probable space group: P B C M
;
_chemical_formula_sum "Si O2"
_cell_formula_units_Z 56
_cell_length_a 8.833621
_cell_length_b 22.760291
_cell_length_c 14.825722
_cell_angle_alpha 90.000000
_cell_angle_beta 90.000000
_cell_angle_gamma 90.000000
_cell_volume 2980.797168
_symmetry_space_group_name_H-M "P B C M"
_symmetry_group_IT_number 57
_symmetry_cell_setting 'orthorhombic'
loop_
_space_group_symop_operation_xyz
x,y,z
-x,-y,1/2+z
x,1/2-y,-z
-x,1/2+y,1/2-z
-x,-y,-z
x,y,1/2-z
-x,1/2+y,z
x,1/2-y,1/2+z
loop_
_atom_site_type_symbol
_atom_site_label
_atom_site_fract_x
_atom_site_fract_y
_atom_site_fract_z
Si Si1 0.736860 0.628991 0.981532
Si Si2 0.456503 0.302800 0.145888
Si Si3 0.555561 0.976198 0.093925
Si Si4 0.272352 0.914039 0.849760
Si Si5 0.456971 0.166298 0.354182
Si Si6 0.047833 0.931215 0.494768
Si Si7 0.299644 0.897761 0.350778
O O1 0.689456 0.683250 0.916837
O O2 0.674194 0.573435 0.929077
O O3 0.914386 0.616346 0.987430
O O4 0.675022 0.640366 0.082504
O O5 0.417899 0.317638 0.250000
O O6 0.488864 0.234674 0.131281
O O7 0.605982 0.340083 0.115367
O O8 0.415191 0.952266 0.151287
O O9 0.638281 0.024765 0.152877
O O10 0.500000 0.000000 0.000000
O O11 0.213070 0.899654 0.750000
O O12 0.387065 0.864103 0.883922
O O13 0.127375 0.916043 0.912060
O O14 0.414329 0.152075 0.250000
O O15 0.160333 0.916345 0.413149
O O16 0.000000 0.000000 0.500000
O O17 0.236469 0.887111 0.250000
#
# Coordination Sequence:
#
# PCOD8233991 Si02
#       7
#     8   8   8   8   8   8   8
#     4  11  21  35  60  82 119 156 188 229 290 342
#     4   9  20  40  64  88 111 143 199 252 285 330
#     4  11  17  36  58  82 115 146 190 245 277 330
#     4  11  22  37  60  86 115 155 194 236 294 344
#     4  10  21  39  63  88 112 146 195 247 290 337
#     4  12  24  39  52  83 128 156 183 232 285 355
#     4  10  21  37  61  86 111 152 197 240 287 332
#
# _framework density 18.786919000000001
#
# number of rings (size 3 to 8) (size 9 to 14) (size 15 to 20)
#    0.000    1.429    4.286    1.714    0.000    2.286 
#    0.000    2.857    0.000    3.429    0.000    0.000 
#    0.000    0.000    0.000    0.000    0.000    0.000 
#
# Total GULP energy -694163.073076 kJ/mol
# GULP energy per Si atom -12395.769162 kJ/mol
# Density = 1.874416 g / cm^3
# Si number density = 18.786919 Si / 1000 Ang^3
#
#
#
# Elastic Constant Matrix: (Units=GPa)
#
#
# Indices 1 2 3 4 5 6 
#
# 1 137.0961 52.9901 64.0752 0.0000 0.0000 0.0000
# 2 52.9901 105.5256 35.6626 0.0000 0.0000 0.0000
# 3 64.0752 35.6626 96.6530 0.0000 0.0000 0.0000
# 4 0.0000 0.0000 0.0000 23.9138 0.0000 0.0000
# 5 0.0000 0.0000 0.0000 0.0000 23.4733 0.0000
# 6 0.0000 0.0000 0.0000 0.0000 0.0000 12.0056
#
#
#
# Elastic Compliance Matrix: (Units=1/GPa)
#
#
# Indices 1 2 3 4 5 6 
#
# 1 0.011724 -0.003725 -0.006398 0.000000 0.000000 0.000000
# 2 -0.003725 0.012010 -0.001962 0.000000 0.000000 0.000000
# 3 -0.006398 -0.001962 0.015312 0.000000 0.000000 0.000000
# 4 0.000000 0.000000 0.000000 0.041817 0.000000 0.000000
# 5 0.000000 0.000000 0.000000 0.000000 0.042602 0.000000
# 6 0.000000 0.000000 0.000000 0.000000 0.000000 0.083294
#
#
# Mechanical properties :
#
#
# Convention : Reuss Voigt Hill
#
# Bulk Modulus (GPa) = 67.22276 71.63673 69.42974
# Shear Modulus (GPa) = 21.19656 24.31499 22.75578
#
# Velocity S-wave (km/s) = 3.36261 3.60147 3.48409
# Velocity P-wave (km/s) = 7.13691 7.45038 7.29533
#
# Compressibility (1/GPa) = 0.01487591
#
# Stress axis : x y z
#
# Youngs Moduli (GPa) = 85.29325 83.26399 65.30976
#
# Poissons Ratio (x) = 0.31017 0.41785
# Poissons Ratio (y) = 0.31773 0.12813
# Poissons Ratio (z) = 0.54571 0.16335
#
# Static dielectric constant tensor:
#      x y z
#    x 3.317640 0.000000 0.000000 
#    y 0.000000 4.855330 0.000000 
#    z 0.000000 0.000000 3.586740 
# 
# 
# High freq. dielectric constant tensor:
#      x y z
#    x 1.708470 0.000000 0.000000 
#    y 0.000000 1.735090 0.000000 
#    z 0.000000 0.000000 1.745740 
# 
# From -- ./inp_files/16728.got.cif
#   From: 2010.03.12/outbox.cif.g09.slc.cpg/sg57_9_cif.got.tgz:16728.got - 2010.04.16 15:48:40.
