data_PCOD8233488
_publ_section_title
;
Structure prediction by ZEFSAII (Michael W. Deem and Ramdas Pophale) SiO2 
 PCOD8233488
Probable space group: P B C M
;
_chemical_formula_sum "Si O2"
_cell_formula_units_Z 40
_cell_length_a 7.084974
_cell_length_b 13.726463
_cell_length_c 19.415365
_cell_angle_alpha 90.000000
_cell_angle_beta 90.000000
_cell_angle_gamma 90.000000
_cell_volume 1888.175961
_symmetry_space_group_name_H-M "P B C M"
_symmetry_group_IT_number 57
_symmetry_cell_setting 'orthorhombic'
loop_
_space_group_symop_operation_xyz
x,y,z
-x,-y,1/2+z
x,1/2-y,-z
-x,1/2+y,1/2-z
-x,-y,-z
x,y,1/2-z
-x,1/2+y,z
x,1/2-y,1/2+z
loop_
_atom_site_type_symbol
_atom_site_label
_atom_site_fract_x
_atom_site_fract_y
_atom_site_fract_z
Si Si1 0.513306 0.275927 0.637670
Si Si2 0.508579 0.502598 0.393158
Si Si3 0.667241 0.250000 0.500000
Si Si4 0.768485 0.702615 0.250000
Si Si5 0.806794 0.226606 0.750000
Si Si6 0.648830 0.475776 0.250000
Si Si7 0.794211 0.457670 0.505754
O O1 0.478813 0.383087 0.611718
O O2 0.538074 0.215167 0.566099
O O3 0.330251 0.247800 0.683185
O O4 0.702701 0.267657 0.682691
O O5 0.514465 0.456009 0.316584
O O6 0.695177 0.468752 0.432386
O O7 0.316903 0.479722 0.435603
O O8 0.796900 0.341540 0.523117
O O9 0.738692 0.584224 0.250000
O O10 0.985452 0.729353 0.250000
O O11 0.809711 0.108021 0.750000
O O12 0.000000 0.500000 0.500000
#
# Coordination Sequence:
#
# PCOD8233488 Si02
#       7
#     8   8   4   4   4   4   8
#     4   9  20  39  60  84 119 154 195 250 298 348
#     4   9  20  40  61  83 117 158 198 245 299 351
#     4  10  20  38  62  88 120 156 198 250 292 346
#     4   9  21  41  61  84 118 160 197 243 301 353
#     4  11  21  39  61  90 124 154 201 249 291 357
#     4  10  20  38  60  86 122 160 196 242 302 356
#     4  10  21  40  62  88 121 158 200 245 296 355
#
# _framework density 21.184467000000001
#
# number of rings (size 3 to 8) (size 9 to 14) (size 15 to 20)
#    0.000    2.400    0.000    1.800    0.000    6.400 
#    0.000   43.000    0.000    0.000    0.000    0.000 
#    0.000    0.000    0.000    0.000    0.000    0.000 
#
# Total GULP energy -495609.425326 kJ/mol
# GULP energy per Si atom -12390.235633 kJ/mol
# Density = 2.113625 g / cm^3
# Si number density = 21.184467 Si / 1000 Ang^3
#
#
#
# Elastic Constant Matrix: (Units=GPa)
#
#
# Indices 1 2 3 4 5 6 
#
# 1 158.9055 45.5071 64.8138 0.0000 0.0000 0.0000
# 2 45.5071 87.0087 19.4417 0.0000 0.0000 0.0000
# 3 64.8138 19.4417 172.4127 0.0000 0.0000 0.0000
# 4 0.0000 0.0000 0.0000 29.5035 0.0000 0.0000
# 5 0.0000 0.0000 0.0000 0.0000 12.3940 0.0000
# 6 0.0000 0.0000 0.0000 0.0000 0.0000 28.1335
#
#
#
# Elastic Compliance Matrix: (Units=1/GPa)
#
#
# Indices 1 2 3 4 5 6 
#
# 1 0.008522 -0.003838 -0.002771 0.000000 0.000000 0.000000
# 2 -0.003838 0.013519 -0.000082 0.000000 0.000000 0.000000
# 3 -0.002771 -0.000082 0.006851 0.000000 0.000000 0.000000
# 4 0.000000 0.000000 0.000000 0.033894 0.000000 0.000000
# 5 0.000000 0.000000 0.000000 0.000000 0.080684 0.000000
# 6 0.000000 0.000000 0.000000 0.000000 0.000000 0.035545
#
#
# Mechanical properties :
#
#
# Convention : Reuss Voigt Hill
#
# Bulk Modulus (GPa) = 64.47177 75.31689 69.89433
# Shear Modulus (GPa) = 25.30787 33.24383 29.27585
#
# Velocity S-wave (km/s) = 3.46011 3.96568 3.72149
# Velocity P-wave (km/s) = 6.81636 7.52322 7.17850
#
# Compressibility (1/GPa) = 0.01551066
#
# Stress axis : x y z
#
# Youngs Moduli (GPa) = 117.33720 73.97115 145.96624
#
# Poissons Ratio (x) = 0.28392 0.40447
# Poissons Ratio (y) = 0.45037 0.01190
# Poissons Ratio (z) = 0.32514 0.00603
#
# Static dielectric constant tensor:
#      x y z
#    x 3.478640 0.000000 0.000000 
#    y 0.000000 4.105310 0.000000 
#    z 0.000000 0.000000 4.162470 
# 
# 
# High freq. dielectric constant tensor:
#      x y z
#    x 1.788200 0.000000 0.000000 
#    y 0.000000 1.841310 0.000000 
#    z 0.000000 0.000000 1.855700 
# 
# From -- ./inp_files/20067.got.cif
#   From: 2010.03.12/outbox.cif.g09.slc.cpg/sg57_11_cif.got.tgz:20067.got - 2010.04.16 15:48:40.
