data_PCOD8233332
_publ_section_title
;
Structure prediction by ZEFSAII (Michael W. Deem and Ramdas Pophale) SiO2 
 PCOD8233332
Probable space group: P B C M
;
_chemical_formula_sum "Si O2"
_cell_formula_units_Z 52
_cell_length_a 6.533053
_cell_length_b 14.341083
_cell_length_c 27.582497
_cell_angle_alpha 90.000000
_cell_angle_beta 90.000000
_cell_angle_gamma 90.000000
_cell_volume 2584.233252
_symmetry_space_group_name_H-M "P B C M"
_symmetry_group_IT_number 57
_symmetry_cell_setting 'orthorhombic'
loop_
_space_group_symop_operation_xyz
x,y,z
-x,-y,1/2+z
x,1/2-y,-z
-x,1/2+y,1/2-z
-x,-y,-z
x,y,1/2-z
-x,1/2+y,z
x,1/2-y,1/2+z
loop_
_atom_site_type_symbol
_atom_site_label
_atom_site_fract_x
_atom_site_fract_y
_atom_site_fract_z
Si Si1 0.598560 0.750000 0.000000
Si Si2 0.902568 0.808714 0.578383
Si Si3 0.447905 0.075443 0.196623
Si Si4 0.398291 0.269788 0.344908
Si Si5 0.289207 0.682865 0.574787
Si Si6 0.194738 0.444658 0.303831
Si Si7 0.862798 0.496275 0.379185
O O1 0.742352 0.686287 0.033895
O O2 0.454475 0.818248 0.031456
O O3 0.799728 0.753410 0.622622
O O4 0.108540 0.755703 0.562635
O O5 0.958161 0.914529 0.593363
O O6 0.356440 0.050494 0.250000
O O7 0.446836 0.186362 0.191626
O O8 0.681447 0.041318 0.193366
O O9 0.327313 0.027409 0.153172
O O10 0.602518 0.285901 0.375791
O O11 0.351413 0.360469 0.313295
O O12 0.204953 0.577973 0.580154
O O13 0.098629 0.432931 0.250000
O O14 0.023089 0.445517 0.344520
#
# Coordination Sequence:
#
# PCOD8233332 Si02
#       7
#     4   8   8   8   8   8   8
#     4  10  24  42  64  92 120 154 200 256 306 370
#     4  10  22  41  63  89 123 153 200 252 302 371
#     4  10  21  37  56  85 123 160 207 249 289 348
#     4  10  20  37  60  86 119 167 200 244 303 349
#     4  11  21  41  64  87 124 157 204 248 307 371
#     4  11  21  36  58  90 126 159 206 248 289 353
#     4  11  22  38  64  88 120 165 197 245 309 356
#
# _framework density 20.122022000000001
#
# number of rings (size 3 to 8) (size 9 to 14) (size 15 to 20)
#    0.000    1.538    3.077    2.308    0.000    0.615 
#    0.000    3.077    0.000    0.000    0.000    0.000 
#    0.000    0.000    0.000    0.000    0.000    0.000 
#
# Total GULP energy -644916.270464 kJ/mol
# GULP energy per Si atom -12402.235970 kJ/mol
# Density = 2.007622 g / cm^3
# Si number density = 20.122022 Si / 1000 Ang^3
#
#
#
# Elastic Constant Matrix: (Units=GPa)
#
#
# Indices 1 2 3 4 5 6 
#
# 1 80.7284 37.5888 30.0891 0.0000 0.0000 0.0000
# 2 37.5888 111.7267 39.5631 0.0000 0.0000 0.0000
# 3 30.0891 39.5631 96.4126 0.0000 0.0000 0.0000
# 4 0.0000 0.0000 0.0000 22.1164 0.0000 0.0000
# 5 0.0000 0.0000 0.0000 0.0000 29.0526 0.0000
# 6 0.0000 0.0000 0.0000 0.0000 0.0000 27.5374
#
#
#
# Elastic Compliance Matrix: (Units=1/GPa)
#
#
# Indices 1 2 3 4 5 6 
#
# 1 0.015464 -0.004088 -0.003149 0.000000 0.000000 0.000000
# 2 -0.004088 0.011553 -0.003465 0.000000 0.000000 0.000000
# 3 -0.003149 -0.003465 0.012777 0.000000 0.000000 0.000000
# 4 0.000000 0.000000 0.000000 0.045215 0.000000 0.000000
# 5 0.000000 0.000000 0.000000 0.000000 0.034420 0.000000
# 6 0.000000 0.000000 0.000000 0.000000 0.000000 0.036314
#
#
# Mechanical properties :
#
#
# Convention : Reuss Voigt Hill
#
# Bulk Modulus (GPa) = 54.37558 55.92775 55.15166
# Shear Modulus (GPa) = 27.28123 27.84972 27.56548
#
# Velocity S-wave (km/s) = 3.68610 3.72431 3.70525
# Velocity P-wave (km/s) = 6.72295 6.80798 6.76560
#
# Compressibility (1/GPa) = 0.01839061
#
# Stress axis : x y z
#
# Youngs Moduli (GPa) = 64.66573 86.56053 78.26803
#
# Poissons Ratio (x) = 0.35383 0.24645
# Poissons Ratio (y) = 0.26433 0.27119
# Poissons Ratio (z) = 0.20362 0.29992
#
# Static dielectric constant tensor:
#      x y z
#    x 3.565720 0.000000 0.000000 
#    y 0.000000 3.639350 0.000000 
#    z 0.000000 0.000000 3.698820 
# 
# 
# High freq. dielectric constant tensor:
#      x y z
#    x 1.782700 0.000000 0.000000 
#    y 0.000000 1.783570 0.000000 
#    z 0.000000 0.000000 1.788720 
# 
# From -- ./inp_files/29168.got.cif
#   From: 2010.03.12/outbox.cif.g09.slc.cpg/sg57_15_cif.got.tgz:29168.got - 2010.04.16 15:48:40.
