data_PCOD8233379
_publ_section_title
;
Structure prediction by ZEFSAII (Michael W. Deem and Ramdas Pophale) SiO2 
 PCOD8233379
Probable space group: P B C M
;
_chemical_formula_sum "Si O2"
_cell_formula_units_Z 64
_cell_length_a 15.131769
_cell_length_b 23.528027
_cell_length_c 8.837808
_cell_angle_alpha 90.000000
_cell_angle_beta 90.000000
_cell_angle_gamma 90.000000
_cell_volume 3146.442322
_symmetry_space_group_name_H-M "P B C M"
_symmetry_group_IT_number 57
_symmetry_cell_setting 'orthorhombic'
loop_
_space_group_symop_operation_xyz
x,y,z
-x,-y,1/2+z
x,1/2-y,-z
-x,1/2+y,1/2-z
-x,-y,-z
x,y,1/2-z
-x,1/2+y,z
x,1/2-y,1/2+z
loop_
_atom_site_type_symbol
_atom_site_label
_atom_site_fract_x
_atom_site_fract_y
_atom_site_fract_z
Si Si1 0.589893 0.871769 0.424774
Si Si2 0.848506 0.000325 0.572759
Si Si3 0.103987 0.387808 0.424540
Si Si4 0.249764 0.310331 0.928527
Si Si5 0.410684 0.885654 0.575213
Si Si6 0.904549 0.124460 0.575919
Si Si7 0.336115 0.005415 0.576528
Si Si8 0.246677 0.690574 0.072866
O O1 0.600138 0.855661 0.250000
O O2 0.654659 0.831324 0.518086
O O3 0.490100 0.859990 0.476989
O O4 0.610184 0.937550 0.456416
O O5 0.864496 0.990460 0.750000
O O6 0.900927 0.952900 0.478469
O O7 0.885423 0.060864 0.517588
O O8 0.744992 0.996566 0.537895
O O9 0.134112 0.385777 0.250000
O O10 0.175104 0.354872 0.523837
O O11 0.007505 0.360390 0.446211
O O12 0.249925 0.304304 0.750000
O O13 0.226161 0.250000 0.000000
O O14 0.431887 0.873672 0.750000
O O15 0.400553 0.952678 0.543204
O O16 0.320381 0.855131 0.524711
O O17 0.875979 0.129518 0.750000
O O18 0.849012 0.169788 0.481629
O O19 0.301543 0.003185 0.750000
O O20 0.242067 0.699048 0.250000
O O21 0.272733 0.750000 0.000000
#
# Coordination Sequence:
#
# PCOD8233379 Si02
#       8
#     8   8   8   8   8   8   8   8
#     4  11  23  39  64  95 127 165 202 251 310 366
#     4  11  21  35  61  95 127 164 204 249 306 366
#     4  11  23  41  64  92 128 165 203 252 307 367
#     4  12  26  45  67  91 121 161 209 260 309 366
#     4  10  22  40  62  91 125 166 210 254 304 365
#     4  10  23  41  63  93 127 163 206 254 305 366
#     4  10  20  37  61  90 127 165 203 248 306 368
#     4  11  24  42  65  89 120 163 208 260 311 362
#
# _framework density 20.340433999999998
#
# number of rings (size 3 to 8) (size 9 to 14) (size 15 to 20)
#    0.000    1.250    2.500    3.375    0.000    4.500 
#    0.000    1.250    0.000    0.000    0.000    0.000 
#    0.000    0.000    0.000    0.000    0.000    0.000 
#
# Total GULP energy -794035.539602 kJ/mol
# GULP energy per Si atom -12406.805306 kJ/mol
# Density = 2.029414 g / cm^3
# Si number density = 20.340434 Si / 1000 Ang^3
#
#
#
# Elastic Constant Matrix: (Units=GPa)
#
#
# Indices 1 2 3 4 5 6 
#
# 1 90.5842 9.0439 35.9212 0.0000 0.0000 0.0000
# 2 9.0439 77.8205 29.9948 0.0000 0.0000 0.0000
# 3 35.9212 29.9948 98.2074 0.0000 0.0000 0.0000
# 4 0.0000 0.0000 0.0000 35.0243 0.0000 0.0000
# 5 0.0000 0.0000 0.0000 0.0000 32.4497 0.0000
# 6 0.0000 0.0000 0.0000 0.0000 0.0000 15.2981
#
#
#
# Elastic Compliance Matrix: (Units=1/GPa)
#
#
# Indices 1 2 3 4 5 6 
#
# 1 0.012921 0.000363 -0.004837 0.000000 0.000000 0.000000
# 2 0.000363 0.014575 -0.004584 0.000000 0.000000 0.000000
# 3 -0.004837 -0.004584 0.013352 0.000000 0.000000 0.000000
# 4 0.000000 0.000000 0.000000 0.028552 0.000000 0.000000
# 5 0.000000 0.000000 0.000000 0.000000 0.030817 0.000000
# 6 0.000000 0.000000 0.000000 0.000000 0.000000 0.065367
#
#
# Mechanical properties :
#
#
# Convention : Reuss Voigt Hill
#
# Bulk Modulus (GPa) = 43.99250 46.28130 45.13690
# Shear Modulus (GPa) = 26.13996 29.33123 27.73559
#
# Velocity S-wave (km/s) = 3.58875 3.80151 3.69666
# Velocity P-wave (km/s) = 6.23275 6.48624 6.36076
#
# Compressibility (1/GPa) = 0.02273115
#
# Stress axis : x y z
#
# Youngs Moduli (GPa) = 77.39126 68.61140 74.89588
#
# Poissons Ratio (x) = -0.02489 0.36227
# Poissons Ratio (y) = -0.02807 0.34333
# Poissons Ratio (z) = 0.37434 0.31453
#
# Static dielectric constant tensor:
#      x y z
#    x 3.618200 0.000000 0.000000 
#    y 0.000000 3.750140 0.000000 
#    z 0.000000 0.000000 3.659560 
# 
# 
# High freq. dielectric constant tensor:
#      x y z
#    x 1.800160 0.000000 0.000000 
#    y 0.000000 1.795390 0.000000 
#    z 0.000000 0.000000 1.798180 
# 
# From -- ./inp_files/5716.got.cif
#   From: 2010.03.12/outbox.cif.g09.slc.cpg/sg57_3_cif.got.tgz:5716.got - 2010.04.16 15:48:40.
