data_PCOD8233079
_publ_section_title
;
Structure prediction by ZEFSAII (Michael W. Deem and Ramdas Pophale) SiO2 
 PCOD8233079
Probable space group: P B C M
;
_chemical_formula_sum "Si O2"
_cell_formula_units_Z 56
_cell_length_a 21.495619
_cell_length_b 14.965781
_cell_length_c 8.844137
_cell_angle_alpha 90.000000
_cell_angle_beta 90.000000
_cell_angle_gamma 90.000000
_cell_volume 2845.147609
_symmetry_space_group_name_H-M "P B C M"
_symmetry_group_IT_number 57
_symmetry_cell_setting 'orthorhombic'
loop_
_space_group_symop_operation_xyz
x,y,z
-x,-y,1/2+z
x,1/2-y,-z
-x,1/2+y,1/2-z
-x,-y,-z
x,y,1/2-z
-x,1/2+y,z
x,1/2-y,1/2+z
loop_
_atom_site_type_symbol
_atom_site_label
_atom_site_fract_x
_atom_site_fract_y
_atom_site_fract_z
Si Si1 0.516080 0.844286 0.925386
Si Si2 0.845183 0.015701 0.924854
Si Si3 0.618337 0.347223 0.928144
Si Si4 0.079626 0.341909 0.926782
Si Si5 0.050539 0.843290 0.071226
Si Si6 0.716665 0.491343 0.928229
Si Si7 0.651058 0.847498 0.928725
O O1 0.518496 0.826041 0.750000
O O2 0.450182 0.891481 0.968166
O O3 0.582156 0.888724 0.972516
O O4 0.512389 0.750000 0.000000
O O5 0.827323 0.028935 0.750000
O O6 0.899285 0.082920 0.974279
O O7 0.867822 0.915276 0.956632
O O8 0.785908 0.037498 0.027315
O O9 0.625687 0.334613 0.750000
O O10 0.669905 0.415364 0.990896
O O11 0.628238 0.250000 0.000000
O O12 0.067077 0.327699 0.750000
O O13 0.103864 0.250000 0.000000
O O14 0.015425 0.373247 0.002994
O O15 0.043607 0.833301 0.250000
O O16 0.072605 0.750000 0.000000
O O17 0.710338 0.502087 0.750000
O O18 0.702078 0.586015 0.004996
O O19 0.660586 0.839697 0.750000
O O20 0.660491 0.750000 0.000000
#
# Coordination Sequence:
#
# PCOD8233079 Si02
#       7
#     8   8   8   8   8   8   8
#     4   8  15  30  53  79 105 135 174 222 276 329
#     4  10  23  40  56  77 110 149 186 223 265 317
#     4   9  19  36  56  80 109 141 181 228 277 328
#     4  10  20  36  59  86 112 139 174 219 268 318
#     4  10  20  36  59  86 113 142 177 220 269 320
#     4  11  24  38  54  79 111 148 188 227 270 325
#     4  10  20  36  58  81 108 142 180 226 278 330
#
# _framework density 19.682634
#
# number of rings (size 3 to 8) (size 9 to 14) (size 15 to 20)
#    0.000    2.286    0.000    3.000    0.000    5.714 
#    0.000    4.286    0.000    0.000    0.000    0.000 
#    0.000    0.000    0.000    0.000    0.000    0.000 
#
# Total GULP energy -694075.473162 kJ/mol
# GULP energy per Si atom -12394.204878 kJ/mol
# Density = 1.963784 g / cm^3
# Si number density = 19.682634 Si / 1000 Ang^3
#
#
#
# Elastic Constant Matrix: (Units=GPa)
#
#
# Indices 1 2 3 4 5 6 
#
# 1 71.4659 15.4981 22.6828 0.0000 0.0000 0.0000
# 2 15.4981 57.8995 19.4880 0.0000 0.0000 0.0000
# 3 22.6828 19.4880 63.8128 0.0000 0.0000 0.0000
# 4 0.0000 0.0000 0.0000 27.1708 0.0000 0.0000
# 5 0.0000 0.0000 0.0000 0.0000 34.7244 0.0000
# 6 0.0000 0.0000 0.0000 0.0000 0.0000 27.6563
#
#
#
# Elastic Compliance Matrix: (Units=1/GPa)
#
#
# Indices 1 2 3 4 5 6 
#
# 1 0.016132 -0.002662 -0.004921 0.000000 0.000000 0.000000
# 2 -0.002662 0.019689 -0.005067 0.000000 0.000000 0.000000
# 3 -0.004921 -0.005067 0.018968 0.000000 0.000000 0.000000
# 4 0.000000 0.000000 0.000000 0.036804 0.000000 0.000000
# 5 0.000000 0.000000 0.000000 0.000000 0.028798 0.000000
# 6 0.000000 0.000000 0.000000 0.000000 0.000000 0.036158
#
#
# Mechanical properties :
#
#
# Convention : Reuss Voigt Hill
#
# Bulk Modulus (GPa) = 33.91102 34.27957 34.09530
# Shear Modulus (GPa) = 26.08536 26.94427 26.51481
#
# Velocity S-wave (km/s) = 3.64441 3.70393 3.67429
# Velocity P-wave (km/s) = 5.91399 5.97880 5.94649
#
# Compressibility (1/GPa) = 0.02948893
#
# Stress axis : x y z
#
# Youngs Moduli (GPa) = 61.98900 50.78935 52.72164
#
# Poissons Ratio (x) = 0.13518 0.25946
# Poissons Ratio (y) = 0.16499 0.26713
# Poissons Ratio (z) = 0.30507 0.25734
#
# Static dielectric constant tensor:
#      x y z
#    x 3.878520 0.000000 0.000000 
#    y 0.000000 3.501160 0.000000 
#    z 0.000000 0.000000 3.540830 
# 
# 
# High freq. dielectric constant tensor:
#      x y z
#    x 1.775440 0.000000 0.000000 
#    y 0.000000 1.756950 0.000000 
#    z 0.000000 0.000000 1.770770 
# 
# From -- ./inp_files/8033.got.cif
#   From: 2010.03.12/outbox.cif.g09.slc.cpg/sg57_5_cif.got.tgz:8033.got - 2010.04.16 15:48:40.
