data_PCOD8233863
_publ_section_title
;
Structure prediction by ZEFSAII (Michael W. Deem and Ramdas Pophale) SiO2 
 PCOD8233863
Probable space group: P B C M
;
_chemical_formula_sum "Si O2"
_cell_formula_units_Z 48
_cell_length_a 15.322286
_cell_length_b 17.886903
_cell_length_c 9.243962
_cell_angle_alpha 90.000000
_cell_angle_beta 90.000000
_cell_angle_gamma 90.000000
_cell_volume 2533.476428
_symmetry_space_group_name_H-M "P B C M"
_symmetry_group_IT_number 57
_symmetry_cell_setting 'orthorhombic'
loop_
_space_group_symop_operation_xyz
x,y,z
-x,-y,1/2+z
x,1/2-y,-z
-x,1/2+y,1/2-z
-x,-y,-z
x,y,1/2-z
-x,1/2+y,z
x,1/2-y,1/2+z
loop_
_atom_site_type_symbol
_atom_site_label
_atom_site_fract_x
_atom_site_fract_y
_atom_site_fract_z
Si Si1 0.177728 0.922002 0.082162
Si Si2 0.985264 0.076114 0.416702
Si Si3 0.491256 0.077147 0.918271
Si Si4 0.325252 0.325150 0.419347
Si Si5 0.823053 0.595893 0.085332
Si Si6 0.654465 0.172898 0.580580
O O1 0.154868 0.912169 0.250000
O O2 0.266319 0.881266 0.038156
O O3 0.188137 0.009127 0.042131
O O4 0.098238 0.884121 0.991156
O O5 0.963594 0.059591 0.250000
O O6 0.075748 0.122382 0.430060
O O7 0.000000 0.000000 0.500000
O O8 0.504464 0.060401 0.750000
O O9 0.397447 0.112318 0.952325
O O10 0.565521 0.134110 0.972797
O O11 0.500000 0.000000 0.000000
O O12 0.353944 0.250000 0.500000
O O13 0.317026 0.308223 0.250000
O O14 0.232679 0.353459 0.477952
O O15 0.790739 0.608078 0.250000
O O16 0.667573 0.250000 0.500000
O O17 0.651700 0.189530 0.750000
#
# Coordination Sequence:
#
# PCOD8233863 Si02
#       6
#     8   8   8   8   8   8
#     4   9  18  33  54  79 107 141 179 220 266 313
#     4   9  17  30  51  78 107 139 176 220 268 314
#     4  10  22  39  59  83 108 137 176 219 263 313
#     4  11  23  37  55  80 109 142 178 217 264 316
#     4   9  18  34  55  78 106 141 179 221 268 314
#     4  10  21  37  55  78 110 144 177 215 262 316
#
# _framework density 18.946299
#
# number of rings (size 3 to 8) (size 9 to 14) (size 15 to 20)
#    0.000    2.333    0.000    3.500    0.000    7.333 
#    0.000    0.833    0.000    2.000    0.000    0.000 
#    0.000    0.000    0.000    0.000    0.000    0.000 
#
# Total GULP energy -595195.630846 kJ/mol
# GULP energy per Si atom -12399.908976 kJ/mol
# Density = 1.890318 g / cm^3
# Si number density = 18.946299 Si / 1000 Ang^3
#
#
#
# Elastic Constant Matrix: (Units=GPa)
#
#
# Indices 1 2 3 4 5 6 
#
# 1 102.5320 19.5257 49.5551 0.0000 0.0000 0.0000
# 2 19.5257 70.4528 39.9341 0.0000 0.0000 0.0000
# 3 49.5551 39.9341 87.9257 0.0000 0.0000 0.0000
# 4 0.0000 0.0000 0.0000 34.3293 0.0000 0.0000
# 5 0.0000 0.0000 0.0000 0.0000 33.0009 0.0000
# 6 0.0000 0.0000 0.0000 0.0000 0.0000 13.2121
#
#
#
# Elastic Compliance Matrix: (Units=1/GPa)
#
#
# Indices 1 2 3 4 5 6 
#
# 1 0.013435 0.000766 -0.007920 0.000000 0.000000 0.000000
# 2 0.000766 0.019158 -0.009133 0.000000 0.000000 0.000000
# 3 -0.007920 -0.009133 0.019985 0.000000 0.000000 0.000000
# 4 0.000000 0.000000 0.000000 0.029130 0.000000 0.000000
# 5 0.000000 0.000000 0.000000 0.000000 0.030302 0.000000
# 6 0.000000 0.000000 0.000000 0.000000 0.000000 0.075688
#
#
# Mechanical properties :
#
#
# Convention : Reuss Voigt Hill
#
# Bulk Modulus (GPa) = 49.98945 53.21559 51.60252
# Shear Modulus (GPa) = 22.03226 26.23484 24.13355
#
# Velocity S-wave (km/s) = 3.41380 3.72519 3.57289
# Velocity P-wave (km/s) = 6.47926 6.83017 6.65703
#
# Compressibility (1/GPa) = 0.02000422
#
# Stress axis : x y z
#
# Youngs Moduli (GPa) = 74.43277 52.19641 50.03813
#
# Poissons Ratio (x) = -0.03996 0.39629
# Poissons Ratio (y) = -0.05699 0.45699
# Poissons Ratio (z) = 0.58948 0.47670
#
# Static dielectric constant tensor:
#      x y z
#    x 4.128430 0.000000 0.000000 
#    y 0.000000 3.214950 0.000000 
#    z 0.000000 0.000000 3.010690 
# 
# 
# High freq. dielectric constant tensor:
#      x y z
#    x 1.755350 0.000000 0.000000 
#    y 0.000000 1.710930 0.000000 
#    z 0.000000 0.000000 1.737710 
# 
# From -- ./inp_files/4648.got.cif
#   From: 2010.03.12/outbox.cif.g09.slc.cpg/sg57_3_cif.got.tgz:4648.got - 2010.04.16 15:48:40.
