data_PCOD8233684
_publ_section_title
;
Structure prediction by ZEFSAII (Michael W. Deem and Ramdas Pophale) SiO2 
 PCOD8233684
Probable space group: P B C M
;
_chemical_formula_sum "Si O2"
_cell_formula_units_Z 60
_cell_length_a 19.282954
_cell_length_b 9.154436
_cell_length_c 16.915264
_cell_angle_alpha 90.000000
_cell_angle_beta 90.000000
_cell_angle_gamma 90.000000
_cell_volume 2985.959675
_symmetry_space_group_name_H-M "P B C M"
_symmetry_group_IT_number 57
_symmetry_cell_setting 'orthorhombic'
loop_
_space_group_symop_operation_xyz
x,y,z
-x,-y,1/2+z
x,1/2-y,-z
-x,1/2+y,1/2-z
-x,-y,-z
x,y,1/2-z
-x,1/2+y,z
x,1/2-y,1/2+z
loop_
_atom_site_type_symbol
_atom_site_label
_atom_site_fract_x
_atom_site_fract_y
_atom_site_fract_z
Si Si1 0.694980 0.833417 0.840211
Si Si2 0.591341 0.507634 0.445158
Si Si3 0.786766 0.306160 0.840617
Si Si4 0.942020 0.173586 0.162061
Si Si5 0.037975 0.966878 0.419185
Si Si6 0.196800 0.501190 0.918964
Si Si7 0.490109 0.750000 0.000000
Si Si8 0.292163 0.037096 0.566296
O O1 0.679217 0.793186 0.750000
O O2 0.640368 0.956162 0.870586
O O3 0.771710 0.901523 0.849029
O O4 0.692015 0.691823 0.894574
O O5 0.554977 0.348537 0.438189
O O6 0.535600 0.638033 0.448760
O O7 0.636068 0.494090 0.525273
O O8 0.772238 0.258861 0.750000
O O9 0.862721 0.380498 0.848673
O O10 0.728090 0.420455 0.866683
O O11 0.785095 0.168630 0.899259
O O12 0.951233 0.238909 0.250000
O O13 0.959806 0.294827 0.096750
O O14 0.994359 0.039856 0.151217
O O15 0.115356 0.030805 0.422079
O O16 0.000000 0.000000 0.500000
O O17 0.230170 0.455170 0.002521
#
# Coordination Sequence:
#
# PCOD8233684 Si02
#       8
#     8   8   8   8   8   8   4   8
#     4  11  23  40  59  88 128 161 198 254 301 347
#     4  10  21  39  65  94 120 161 201 241 282 354
#     4  10  21  37  57  85 116 151 198 257 312 365
#     4  10  22  38  55  78 114 153 195 246 313 380
#     4  11  22  37  57  82 111 150 199 258 306 359
#     4  10  22  38  57  82 116 156 202 251 309 368
#     4  10  20  40  68  92 124 156 202 234 290 348
#     4  11  21  37  61  91 116 158 204 250 291 361
#
# _framework density 20.094042999999999
#
# number of rings (size 3 to 8) (size 9 to 14) (size 15 to 20)
#    0.000    1.600    1.333    4.000    3.733    6.933 
#    0.000    0.667    0.000    0.000    0.000    0.000 
#    0.000    0.000    0.000    0.000    0.000    0.000 
#
# Total GULP energy -743964.666792 kJ/mol
# GULP energy per Si atom -12399.411113 kJ/mol
# Density = 2.004831 g / cm^3
# Si number density = 20.094043 Si / 1000 Ang^3
#
#
#
# Elastic Constant Matrix: (Units=GPa)
#
#
# Indices 1 2 3 4 5 6 
#
# 1 112.2234 44.2839 40.8140 0.0000 0.0000 0.0000
# 2 44.2839 76.4494 28.0514 0.0000 0.0000 0.0000
# 3 40.8140 28.0514 103.0375 0.0000 0.0000 0.0000
# 4 0.0000 0.0000 0.0000 31.1156 0.0000 0.0000
# 5 0.0000 0.0000 0.0000 0.0000 19.4975 0.0000
# 6 0.0000 0.0000 0.0000 0.0000 0.0000 40.4796
#
#
#
# Elastic Compliance Matrix: (Units=1/GPa)
#
#
# Indices 1 2 3 4 5 6 
#
# 1 0.012490 -0.006021 -0.003308 0.000000 0.000000 0.000000
# 2 -0.006021 0.017435 -0.002362 0.000000 0.000000 0.000000
# 3 -0.003308 -0.002362 0.011659 0.000000 0.000000 0.000000
# 4 0.000000 0.000000 0.000000 0.032138 0.000000 0.000000
# 5 0.000000 0.000000 0.000000 0.000000 0.051289 0.000000
# 6 0.000000 0.000000 0.000000 0.000000 0.000000 0.024704
#
#
# Mechanical properties :
#
#
# Convention : Reuss Voigt Hill
#
# Bulk Modulus (GPa) = 54.93982 57.55655 56.24818
# Shear Modulus (GPa) = 27.90764 30.12260 29.01512
#
# Velocity S-wave (km/s) = 3.73077 3.87600 3.80408
# Velocity P-wave (km/s) = 6.77930 6.98118 6.88098
#
# Compressibility (1/GPa) = 0.01820173
#
# Stress axis : x y z
#
# Youngs Moduli (GPa) = 80.06514 57.35666 85.77426
#
# Poissons Ratio (x) = 0.34534 0.28375
# Poissons Ratio (y) = 0.48207 0.20256
# Poissons Ratio (z) = 0.26487 0.13545
#
# Static dielectric constant tensor:
#      x y z
#    x 3.904820 0.000000 0.000000 
#    y 0.000000 3.711560 0.000000 
#    z 0.000000 0.000000 3.589720 
# 
# 
# High freq. dielectric constant tensor:
#      x y z
#    x 1.790930 0.000000 0.000000 
#    y 0.000000 1.784430 0.000000 
#    z 0.000000 0.000000 1.772650 
# 
# From -- ./inp_files/22893.got.cif
#   From: 2010.03.12/outbox.cif.g09.slc.cpg/sg57_12_cif.got.tgz:22893.got - 2010.04.16 15:48:40.
