data_PCOD8233469
_publ_section_title
;
Structure prediction by ZEFSAII (Michael W. Deem and Ramdas Pophale) SiO2 
 PCOD8233469
Probable space group: P B C M
;
_chemical_formula_sum "Si O2"
_cell_formula_units_Z 64
_cell_length_a 6.559724
_cell_length_b 18.831191
_cell_length_c 26.348125
_cell_angle_alpha 90.000000
_cell_angle_beta 90.000000
_cell_angle_gamma 90.000000
_cell_volume 3254.715786
_symmetry_space_group_name_H-M "P B C M"
_symmetry_group_IT_number 57
_symmetry_cell_setting 'orthorhombic'
loop_
_space_group_symop_operation_xyz
x,y,z
-x,-y,1/2+z
x,1/2-y,-z
-x,1/2+y,1/2-z
-x,-y,-z
x,y,1/2-z
-x,1/2+y,z
x,1/2-y,1/2+z
loop_
_atom_site_type_symbol
_atom_site_label
_atom_site_fract_x
_atom_site_fract_y
_atom_site_fract_z
Si Si1 0.941720 0.498990 0.589204
Si Si2 0.349575 0.117562 0.552542
Si Si3 0.516850 0.308196 0.695027
Si Si4 0.210496 0.252711 0.382114
Si Si5 0.439933 0.947842 0.859590
Si Si6 0.252347 0.387188 0.560026
Si Si7 0.140848 0.703575 0.693111
Si Si8 0.681355 0.080610 0.869679
O O1 0.791392 0.547847 0.556521
O O2 0.800388 0.455073 0.628478
O O3 0.067615 0.443751 0.554195
O O4 0.096866 0.548271 0.620170
O O5 0.249687 0.185206 0.578452
O O6 0.359665 0.133749 0.492846
O O7 0.572846 0.104578 0.577254
O O8 0.408356 0.298030 0.750000
O O9 0.406285 0.265012 0.651167
O O10 0.530322 0.392144 0.685419
O O11 0.743893 0.278091 0.697277
O O12 0.152132 0.182108 0.413507
O O13 0.043121 0.282355 0.344312
O O14 0.564130 0.921305 0.908555
O O15 0.533174 0.023516 0.842401
O O16 0.070244 0.679920 0.750000
O O17 0.292356 0.644724 0.669588
#
# Coordination Sequence:
#
# PCOD8233469 Si02
#       8
#     8   8   8   8   8   8   8   8
#     4  10  20  38  59  83 122 155 197 240 294 344
#     4  11  21  36  60  84 121 158 197 240 296 348
#     4  10  21  39  62  85 113 151 193 244 300 355
#     4  11  21  39  59  85 120 154 199 247 296 346
#     4   9  21  38  58  86 119 153 194 243 294 350
#     4  10  22  36  58  87 118 158 200 241 293 355
#     4  11  22  38  61  87 113 154 200 245 300 355
#     4  10  21  38  58  86 120 153 191 247 288 351
#
# _framework density 19.663775000000001
#
# number of rings (size 3 to 8) (size 9 to 14) (size 15 to 20)
#    0.000    1.750    2.500    1.875    0.000    6.000 
#    0.000    0.625    0.000    0.000    0.000    0.000 
#    0.000    0.000    0.000    0.000    0.000    0.000 
#
# Total GULP energy -793389.270531 kJ/mol
# GULP energy per Si atom -12396.707352 kJ/mol
# Density = 1.961902 g / cm^3
# Si number density = 19.663775 Si / 1000 Ang^3
#
#
#
# Elastic Constant Matrix: (Units=GPa)
#
#
# Indices 1 2 3 4 5 6 
#
# 1 87.3513 34.1684 25.6553 0.0000 0.0000 0.0000
# 2 34.1684 105.9846 45.6726 0.0000 0.0000 0.0000
# 3 25.6553 45.6726 89.4928 0.0000 0.0000 0.0000
# 4 0.0000 0.0000 0.0000 12.7494 0.0000 0.0000
# 5 0.0000 0.0000 0.0000 0.0000 21.3806 0.0000
# 6 0.0000 0.0000 0.0000 0.0000 0.0000 31.5667
#
#
#
# Elastic Compliance Matrix: (Units=1/GPa)
#
#
# Indices 1 2 3 4 5 6 
#
# 1 0.013400 -0.003416 -0.002098 0.000000 0.000000 0.000000
# 2 -0.003416 0.012966 -0.005638 0.000000 0.000000 0.000000
# 3 -0.002098 -0.005638 0.014653 0.000000 0.000000 0.000000
# 4 0.000000 0.000000 0.000000 0.078435 0.000000 0.000000
# 5 0.000000 0.000000 0.000000 0.000000 0.046771 0.000000
# 6 0.000000 0.000000 0.000000 0.000000 0.000000 0.031679
#
#
# Mechanical properties :
#
#
# Convention : Reuss Voigt Hill
#
# Bulk Modulus (GPa) = 53.43255 54.86902 54.15079
# Shear Modulus (GPa) = 22.08011 24.96150 23.52081
#
# Velocity S-wave (km/s) = 3.35458 3.56675 3.46229
# Velocity P-wave (km/s) = 6.49895 6.70272 6.60162
#
# Compressibility (1/GPa) = 0.01871518
#
# Stress axis : x y z
#
# Youngs Moduli (GPa) = 74.62421 77.12335 68.24556
#
# Poissons Ratio (x) = 0.26345 0.14320
# Poissons Ratio (y) = 0.25491 0.38477
# Poissons Ratio (z) = 0.15658 0.43482
#
# Static dielectric constant tensor:
#      x y z
#    x 3.505620 0.000000 0.000000 
#    y 0.000000 3.849440 0.000000 
#    z 0.000000 0.000000 3.508470 
# 
# 
# High freq. dielectric constant tensor:
#      x y z
#    x 1.761580 0.000000 0.000000 
#    y 0.000000 1.782550 0.000000 
#    z 0.000000 0.000000 1.753590 
# 
# From -- ./inp_files/28138.got.cif
#   From: 2010.03.12/outbox.cif.g09.slc.cpg/sg57_15_cif.got.tgz:28138.got - 2010.04.16 15:48:40.
