data_PCOD8233126
_publ_section_title
;
Structure prediction by ZEFSAII (Michael W. Deem and Ramdas Pophale) SiO2 
 PCOD8233126
Probable space group: P B C M
;
_chemical_formula_sum "Si O2"
_cell_formula_units_Z 48
_cell_length_a 12.193307
_cell_length_b 10.469813
_cell_length_c 21.018001
_cell_angle_alpha 90.000000
_cell_angle_beta 90.000000
_cell_angle_gamma 90.000000
_cell_volume 2683.192564
_symmetry_space_group_name_H-M "P B C M"
_symmetry_group_IT_number 57
_symmetry_cell_setting 'orthorhombic'
loop_
_space_group_symop_operation_xyz
x,y,z
-x,-y,1/2+z
x,1/2-y,-z
-x,1/2+y,1/2-z
-x,-y,-z
x,y,1/2-z
-x,1/2+y,z
x,1/2-y,1/2+z
loop_
_atom_site_type_symbol
_atom_site_label
_atom_site_fract_x
_atom_site_fract_y
_atom_site_fract_z
Si Si1 0.413675 0.735944 0.923523
Si Si2 0.009880 0.373189 0.039755
Si Si3 0.441156 0.488318 0.068450
Si Si4 0.878194 0.537824 0.750000
Si Si5 0.066744 0.750572 0.250000
Si Si6 0.800196 0.520565 0.887077
Si Si7 0.176259 0.732290 0.618757
O O1 0.498547 0.630089 0.898395
O O2 0.301743 0.693099 0.890572
O O3 0.454587 0.874070 0.897099
O O4 0.399515 0.750000 0.000000
O O5 0.108419 0.381082 0.089870
O O6 0.894340 0.359159 0.074458
O O7 0.040493 0.250000 0.000000
O O8 0.000000 0.500000 0.000000
O O9 0.312031 0.453451 0.073581
O O10 0.500000 0.500000 0.000000
O O11 0.951700 0.405275 0.750000
O O12 0.795205 0.538458 0.810481
O O13 0.954893 0.665101 0.750000
O O14 0.140493 0.790696 0.309358
O O15 0.841088 0.377996 0.903519
#
# Coordination Sequence:
#
# PCOD8233126 Si02
#       7
#     8   8   8   4   4   8   8
#     4   9  18  34  55  75 107 141 180 225 277 331
#     4  12  23  33  53  83 116 146 181 226 288 342
#     4   9  19  34  55  78 105 142 184 227 279 331
#     4  10  20  38  59  78 114 152 195 231 276 339
#     4  10  20  36  59  78 106 152 193 223 270 335
#     4  10  21  38  57  83 113 153 190 232 284 339
#     4  10  20  37  56  79 111 150 184 225 284 332
#
# _framework density 17.889137000000002
#
# number of rings (size 3 to 8) (size 9 to 14) (size 15 to 20)
#    0.000    2.000    3.333    0.500    4.667    2.000 
#    0.000    0.833    0.000    0.000    0.000    0.000 
#    0.000    0.000    0.000    0.000    0.000    0.000 
#
# Total GULP energy -594713.862168 kJ/mol
# GULP energy per Si atom -12389.872129 kJ/mol
# Density = 1.784842 g / cm^3
# Si number density = 17.889137 Si / 1000 Ang^3
#
#
#
# Elastic Constant Matrix: (Units=GPa)
#
#
# Indices 1 2 3 4 5 6 
#
# 1 127.5832 66.0107 42.7797 0.0000 0.0000 0.0000
# 2 66.0107 110.3637 30.9623 0.0000 0.0000 0.0000
# 3 42.7797 30.9623 79.6561 0.0000 0.0000 0.0000
# 4 0.0000 0.0000 0.0000 20.3456 0.0000 0.0000
# 5 0.0000 0.0000 0.0000 0.0000 23.3447 0.0000
# 6 0.0000 0.0000 0.0000 0.0000 0.0000 37.6568
#
#
#
# Elastic Compliance Matrix: (Units=1/GPa)
#
#
# Indices 1 2 3 4 5 6 
#
# 1 0.012530 -0.006293 -0.004283 0.000000 0.000000 0.000000
# 2 -0.006293 0.013330 -0.001802 0.000000 0.000000 0.000000
# 3 -0.004283 -0.001802 0.015555 0.000000 0.000000 0.000000
# 4 0.000000 0.000000 0.000000 0.049151 0.000000 0.000000
# 5 0.000000 0.000000 0.000000 0.000000 0.042836 0.000000
# 6 0.000000 0.000000 0.000000 0.000000 0.000000 0.026556
#
#
# Mechanical properties :
#
#
# Convention : Reuss Voigt Hill
#
# Bulk Modulus (GPa) = 60.02741 66.34539 63.18640
# Shear Modulus (GPa) = 26.27887 28.12611 27.20249
#
# Velocity S-wave (km/s) = 3.83689 3.96946 3.90374
# Velocity P-wave (km/s) = 7.29774 7.62734 7.46436
#
# Compressibility (1/GPa) = 0.01665906
#
# Stress axis : x y z
#
# Youngs Moduli (GPa) = 79.80761 75.01692 64.28902
#
# Poissons Ratio (x) = 0.47207 0.27537
# Poissons Ratio (y) = 0.50222 0.11584
# Poissons Ratio (z) = 0.34184 0.13517
#
# Static dielectric constant tensor:
#      x y z
#    x 3.302930 0.000000 0.000000 
#    y 0.000000 3.696540 0.000000 
#    z 0.000000 0.000000 3.235440 
# 
# 
# High freq. dielectric constant tensor:
#      x y z
#    x 1.684350 0.000000 0.000000 
#    y 0.000000 1.701940 0.000000 
#    z 0.000000 0.000000 1.675400 
# 
# From -- ./inp_files/24986.got.cif
#   From: 2010.03.12/outbox.cif.g09.slc.cpg/sg57_13_cif.got.tgz:24986.got - 2010.04.16 15:48:40.
