data_PCOD8233913
_publ_section_title
;
Structure prediction by ZEFSAII (Michael W. Deem and Ramdas Pophale) SiO2 
 PCOD8233913
Probable space group: P B C M
;
_chemical_formula_sum "Si O2"
_cell_formula_units_Z 40
_cell_length_a 25.145021
_cell_length_b 9.575380
_cell_length_c 8.739713
_cell_angle_alpha 90.000000
_cell_angle_beta 90.000000
_cell_angle_gamma 90.000000
_cell_volume 2104.288065
_symmetry_space_group_name_H-M "P B C M"
_symmetry_group_IT_number 57
_symmetry_cell_setting 'orthorhombic'
loop_
_space_group_symop_operation_xyz
x,y,z
-x,-y,1/2+z
x,1/2-y,-z
-x,1/2+y,1/2-z
-x,-y,-z
x,y,1/2-z
-x,1/2+y,z
x,1/2-y,1/2+z
loop_
_atom_site_type_symbol
_atom_site_label
_atom_site_fract_x
_atom_site_fract_y
_atom_site_fract_z
Si Si1 0.045296 0.595926 0.070546
Si Si2 0.541669 0.101298 0.425094
Si Si3 0.253971 0.397940 0.930733
Si Si4 0.661713 0.400769 0.572671
Si Si5 0.857669 0.897919 0.429589
O O1 0.035089 0.610011 0.250000
O O2 0.100797 0.520111 0.033623
O O3 0.045231 0.750000 0.000000
O O4 0.000000 0.500000 0.000000
O O5 0.535720 0.250000 0.500000
O O6 0.526452 0.118198 0.250000
O O7 0.601526 0.042779 0.445552
O O8 0.500000 0.000000 0.500000
O O9 0.249173 0.386399 0.750000
O O10 0.269996 0.250000 0.000000
O O11 0.299951 0.502790 0.975725
O O12 0.197646 0.448545 0.997762
O O13 0.666755 0.250000 0.500000
O O14 0.678904 0.396835 0.750000
O O15 0.876798 0.750000 0.500000
O O16 0.850252 0.874627 0.250000
#
# Coordination Sequence:
#
# PCOD8233913 Si02
#       5
#     8   8   8   8   8
#     4  11  24  40  61  87 117 152 191 234 281 333
#     4  10  21  37  58  82 111 146 185 230 280 333
#     4  11  22  37  59  85 114 150 189 233 280 331
#     4  10  21  38  58  82 112 147 186 230 280 335
#     4  10  21  38  59  84 114 149 188 233 282 334
#
# _framework density 19.008803
#
# number of rings (size 3 to 8) (size 9 to 14) (size 15 to 20)
#    0.000    1.600    0.000    6.000    0.000    8.800 
#    0.000    2.000    0.000    0.000    0.000    0.000 
#    0.000    0.000    0.000    0.000    0.000    0.000 
#
# Total GULP energy -496094.085749 kJ/mol
# GULP energy per Si atom -12402.352144 kJ/mol
# Density = 1.896554 g / cm^3
# Si number density = 19.008803 Si / 1000 Ang^3
#
#
#
# Elastic Constant Matrix: (Units=GPa)
#
#
# Indices 1 2 3 4 5 6 
#
# 1 119.0025 80.2824 76.1454 0.0000 0.0000 0.0000
# 2 80.2824 114.9842 66.9959 0.0000 0.0000 0.0000
# 3 76.1454 66.9959 152.3553 0.0000 0.0000 0.0000
# 4 0.0000 0.0000 0.0000 39.3128 0.0000 0.0000
# 5 0.0000 0.0000 0.0000 0.0000 32.0301 0.0000
# 6 0.0000 0.0000 0.0000 0.0000 0.0000 51.1532
#
#
#
# Elastic Compliance Matrix: (Units=1/GPa)
#
#
# Indices 1 2 3 4 5 6 
#
# 1 0.018071 -0.009888 -0.004683 0.000000 0.000000 0.000000
# 2 -0.009888 0.017104 -0.002579 0.000000 0.000000 0.000000
# 3 -0.004683 -0.002579 0.010038 0.000000 0.000000 0.000000
# 4 0.000000 0.000000 0.000000 0.025437 0.000000 0.000000
# 5 0.000000 0.000000 0.000000 0.000000 0.031221 0.000000
# 6 0.000000 0.000000 0.000000 0.000000 0.000000 0.019549
#
#
# Mechanical properties :
#
#
# Convention : Reuss Voigt Hill
#
# Bulk Modulus (GPa) = 91.64683 92.57660 92.11172
# Shear Modulus (GPa) = 31.37590 35.36046 33.36818
#
# Velocity S-wave (km/s) = 4.06716 4.31770 4.19430
# Velocity P-wave (km/s) = 8.38888 8.58280 8.48639
#
# Compressibility (1/GPa) = 0.01091145
#
# Stress axis : x y z
#
# Youngs Moduli (GPa) = 55.33770 58.46727 99.61811
#
# Poissons Ratio (x) = 0.57815 0.46655
# Poissons Ratio (y) = 0.54720 0.25691
# Poissons Ratio (z) = 0.25917 0.15078
#
# Static dielectric constant tensor:
#      x y z
#    x 3.734640 0.000000 0.000000 
#    y 0.000000 3.469340 0.000000 
#    z 0.000000 0.000000 3.738290 
# 
# 
# High freq. dielectric constant tensor:
#      x y z
#    x 1.750370 0.000000 0.000000 
#    y 0.000000 1.739310 0.000000 
#    z 0.000000 0.000000 1.762820 
# 
# From -- ./inp_files/8871.got.cif
#   From: 2010.03.12/outbox.cif.g09.slc.cpg/sg57_5_cif.got.tgz:8871.got - 2010.04.16 15:48:40.
