data_PCOD8233794
_publ_section_title
;
Structure prediction by ZEFSAII (Michael W. Deem and Ramdas Pophale) SiO2 
 PCOD8233794
Probable space group: P B C M
;
_chemical_formula_sum "Si O2"
_cell_formula_units_Z 32
_cell_length_a 5.089229
_cell_length_b 12.926188
_cell_length_c 25.732419
_cell_angle_alpha 90.000000
_cell_angle_beta 90.000000
_cell_angle_gamma 90.000000
_cell_volume 1692.789965
_symmetry_space_group_name_H-M "P B C M"
_symmetry_group_IT_number 57
_symmetry_cell_setting 'orthorhombic'
loop_
_space_group_symop_operation_xyz
x,y,z
-x,-y,1/2+z
x,1/2-y,-z
-x,1/2+y,1/2-z
-x,-y,-z
x,y,1/2-z
-x,1/2+y,z
x,1/2-y,1/2+z
loop_
_atom_site_type_symbol
_atom_site_label
_atom_site_fract_x
_atom_site_fract_y
_atom_site_fract_z
Si Si1 0.732065 0.414809 0.860517
Si Si2 0.767651 0.236226 0.560335
Si Si3 0.766114 0.827266 0.689560
Si Si4 0.269516 0.148890 0.889661
O O1 0.742800 0.348265 0.913168
O O2 0.448823 0.405669 0.833660
O O3 0.790002 0.531862 0.875205
O O4 0.948559 0.375702 0.819765
O O5 0.715048 0.250000 0.500000
O O6 0.553876 0.157755 0.583943
O O7 0.054238 0.188424 0.569323
O O8 0.717954 0.810324 0.750000
O O9 0.741950 0.715310 0.663011
#
# Coordination Sequence:
#
# PCOD8233794 Si02
#       4
#     8   8   8   8
#     4  10  21  37  55  79 110 141 178 224 269 318
#     4  10  21  36  56  82 110 142 181 222 266 320
#     4  10  21  36  54  78 106 138 179 222 266 320
#     4  10  21  37  55  79 110 141 178 222 267 318
#
# _framework density 18.903704999999999
#
# number of rings (size 3 to 8) (size 9 to 14) (size 15 to 20)
#    0.000    2.000    0.000    3.000    0.000    4.000 
#    0.000    0.000    0.000    0.000    0.000    0.000 
#    0.000    0.000    0.000    0.000    0.000    0.000 
#
# Total GULP energy -397003.352983 kJ/mol
# GULP energy per Si atom -12406.354781 kJ/mol
# Density = 1.886068 g / cm^3
# Si number density = 18.903705 Si / 1000 Ang^3
#
#
#
# Elastic Constant Matrix: (Units=GPa)
#
#
# Indices 1 2 3 4 5 6 
#
# 1 72.4110 19.3468 15.5416 0.0000 0.0000 0.0000
# 2 19.3468 103.6643 52.4956 0.0000 0.0000 0.0000
# 3 15.5416 52.4956 122.5737 0.0000 0.0000 0.0000
# 4 0.0000 0.0000 0.0000 8.7348 0.0000 0.0000
# 5 0.0000 0.0000 0.0000 0.0000 15.8568 0.0000
# 6 0.0000 0.0000 0.0000 0.0000 0.0000 17.9632
#
#
#
# Elastic Compliance Matrix: (Units=1/GPa)
#
#
# Indices 1 2 3 4 5 6 
#
# 1 0.014608 -0.002284 -0.000874 0.000000 0.000000 0.000000
# 2 -0.002284 0.012675 -0.005139 0.000000 0.000000 0.000000
# 3 -0.000874 -0.005139 0.010470 0.000000 0.000000 0.000000
# 4 0.000000 0.000000 0.000000 0.114484 0.000000 0.000000
# 5 0.000000 0.000000 0.000000 0.000000 0.063064 0.000000
# 6 0.000000 0.000000 0.000000 0.000000 0.000000 0.055669
#
#
# Mechanical properties :
#
#
# Convention : Reuss Voigt Hill
#
# Bulk Modulus (GPa) = 47.25976 52.60187 49.93082
# Shear Modulus (GPa) = 16.97117 22.59529 19.78323
#
# Velocity S-wave (km/s) = 2.99953 3.46104 3.23852
# Velocity P-wave (km/s) = 6.08694 6.62256 6.36039
#
# Compressibility (1/GPa) = 0.02115965
#
# Stress axis : x y z
#
# Youngs Moduli (GPa) = 68.45653 78.89518 95.51026
#
# Poissons Ratio (x) = 0.18016 0.08349
# Poissons Ratio (y) = 0.15632 0.49082
# Poissons Ratio (z) = 0.05984 0.40543
#
# Static dielectric constant tensor:
#      x y z
#    x 3.700000 0.000000 0.000000 
#    y 0.000000 3.314760 0.000000 
#    z 0.000000 0.000000 3.310140 
# 
# 
# High freq. dielectric constant tensor:
#      x y z
#    x 1.756810 0.000000 0.000000 
#    y 0.000000 1.729330 0.000000 
#    z 0.000000 0.000000 1.731830 
# 
# From -- ./inp_files/23295.got.cif
#   From: 2010.03.12/outbox.cif.g09.slc.cpg/sg57_12_cif.got.tgz:23295.got - 2010.04.16 15:48:40.
