data_PCOD8233042
_publ_section_title
;
Structure prediction by ZEFSAII (Michael W. Deem and Ramdas Pophale) SiO2 
 PCOD8233042
Probable space group: P B C M
;
_chemical_formula_sum "Si O2"
_cell_formula_units_Z 64
_cell_length_a 9.570816
_cell_length_b 18.491296
_cell_length_c 19.609167
_cell_angle_alpha 90.000000
_cell_angle_beta 90.000000
_cell_angle_gamma 90.000000
_cell_volume 3470.367462
_symmetry_space_group_name_H-M "P B C M"
_symmetry_group_IT_number 57
_symmetry_cell_setting 'orthorhombic'
loop_
_space_group_symop_operation_xyz
x,y,z
-x,-y,1/2+z
x,1/2-y,-z
-x,1/2+y,1/2-z
-x,-y,-z
x,y,1/2-z
-x,1/2+y,z
x,1/2-y,1/2+z
loop_
_atom_site_type_symbol
_atom_site_label
_atom_site_fract_x
_atom_site_fract_y
_atom_site_fract_z
Si Si1 0.280698 0.802061 0.438850
Si Si2 0.202778 0.202453 0.171077
Si Si3 0.402940 0.218325 0.927622
Si Si4 0.156586 0.039586 0.172276
Si Si5 0.114110 0.043523 0.827293
Si Si6 0.041658 0.688904 0.670513
Si Si7 0.649711 0.552220 0.570077
Si Si8 0.668511 0.465689 0.438962
O O1 0.226850 0.750000 0.500000
O O2 0.432077 0.775326 0.413864
O O3 0.178225 0.797740 0.374688
O O4 0.296960 0.884711 0.465063
O O5 0.242443 0.206780 0.250000
O O6 0.332275 0.236037 0.131653
O O7 0.182243 0.120486 0.146328
O O8 0.059521 0.244019 0.156453
O O9 0.343955 0.137979 0.927493
O O10 0.360174 0.250000 0.000000
O O11 0.206478 0.028829 0.250000
O O12 0.242129 0.982508 0.127745
O O13 0.992078 0.023327 0.166079
O O14 0.164919 0.055229 0.750000
O O15 0.249830 0.022959 0.870756
O O16 0.037040 0.116148 0.853266
O O17 0.086076 0.683339 0.750000
O O18 0.707542 0.521871 0.498471
O O19 0.493020 0.524054 0.582128
#
# Coordination Sequence:
#
# PCOD8233042 Si02
#       8
#     8   8   8   8   8   8   8   8
#     4  10  22  38  57  84 116 151 193 238 285 340
#     4  10  21  37  58  85 114 146 189 237 284 341
#     4  10  20  36  57  81 113 150 188 233 282 336
#     4  10  21  38  59  84 116 151 187 234 292 346
#     4  10  20  37  58  83 114 148 190 237 285 342
#     4  10  20  38  59  83 116 150 189 238 285 338
#     4  10  21  36  58  83 112 150 191 234 285 337
#     4  10  21  38  57  83 116 151 191 237 287 343
#
# _framework density 18.441851
#
# number of rings (size 3 to 8) (size 9 to 14) (size 15 to 20)
#    0.000    2.000    2.500    0.750    0.000    4.000 
#    2.250    2.500    0.000    3.000    0.000    0.000 
#    0.000    0.000    0.000    0.000    0.000    0.000 
#
# Total GULP energy -793764.291832 kJ/mol
# GULP energy per Si atom -12402.567060 kJ/mol
# Density = 1.839988 g / cm^3
# Si number density = 18.441851 Si / 1000 Ang^3
#
#
#
# Elastic Constant Matrix: (Units=GPa)
#
#
# Indices 1 2 3 4 5 6 
#
# 1 87.9896 33.6377 65.4494 0.0000 0.0000 0.0000
# 2 33.6377 98.3693 41.7460 0.0000 0.0000 0.0000
# 3 65.4494 41.7460 95.4795 0.0000 0.0000 0.0000
# 4 0.0000 0.0000 0.0000 31.2923 0.0000 0.0000
# 5 0.0000 0.0000 0.0000 0.0000 41.5980 0.0000
# 6 0.0000 0.0000 0.0000 0.0000 0.0000 27.5198
#
#
#
# Elastic Compliance Matrix: (Units=1/GPa)
#
#
# Indices 1 2 3 4 5 6 
#
# 1 0.023359 -0.001464 -0.015372 0.000000 0.000000 0.000000
# 2 -0.001464 0.012574 -0.004494 0.000000 0.000000 0.000000
# 3 -0.015372 -0.004494 0.022975 0.000000 0.000000 0.000000
# 4 0.000000 0.000000 0.000000 0.031957 0.000000 0.000000
# 5 0.000000 0.000000 0.000000 0.000000 0.024040 0.000000
# 6 0.000000 0.000000 0.000000 0.000000 0.000000 0.036338
#
#
# Mechanical properties :
#
#
# Convention : Reuss Voigt Hill
#
# Bulk Modulus (GPa) = 61.54570 62.61161 62.07865
# Shear Modulus (GPa) = 25.08565 29.48236 27.28400
#
# Velocity S-wave (km/s) = 3.69217 4.00267 3.85055
# Velocity P-wave (km/s) = 7.18480 7.44220 7.31463
#
# Compressibility (1/GPa) = 0.01624809
#
# Stress axis : x y z
#
# Youngs Moduli (GPa) = 42.81053 79.53219 43.52484
#
# Poissons Ratio (x) = 0.11644 0.66906
# Poissons Ratio (y) = 0.06268 0.19559
# Poissons Ratio (z) = 0.65808 0.35741
#
# Static dielectric constant tensor:
#      x y z
#    x 3.307660 0.000000 0.000000 
#    y 0.000000 3.557770 0.000000 
#    z 0.000000 0.000000 3.329840 
# 
# 
# High freq. dielectric constant tensor:
#      x y z
#    x 1.712660 0.000000 0.000000 
#    y 0.000000 1.725040 0.000000 
#    z 0.000000 0.000000 1.711360 
# 
# From -- ./inp_files/24613.got.cif
#   From: 2010.03.12/outbox.cif.g09.slc.cpg/sg57_13_cif.got.tgz:24613.got - 2010.04.16 15:48:40.
