data_PCOD8233970
_publ_section_title
;
Structure prediction by ZEFSAII (Michael W. Deem and Ramdas Pophale) SiO2 
 PCOD8233970
Probable space group: P B C M
;
_chemical_formula_sum "Si O2"
_cell_formula_units_Z 44
_cell_length_a 5.073752
_cell_length_b 16.755389
_cell_length_c 23.051554
_cell_angle_alpha 90.000000
_cell_angle_beta 90.000000
_cell_angle_gamma 90.000000
_cell_volume 1959.674578
_symmetry_space_group_name_H-M "P B C M"
_symmetry_group_IT_number 57
_symmetry_cell_setting 'orthorhombic'
loop_
_space_group_symop_operation_xyz
x,y,z
-x,-y,1/2+z
x,1/2-y,-z
-x,1/2+y,1/2-z
-x,-y,-z
x,y,1/2-z
-x,1/2+y,z
x,1/2-y,1/2+z
loop_
_atom_site_type_symbol
_atom_site_label
_atom_site_fract_x
_atom_site_fract_y
_atom_site_fract_z
Si Si1 0.728564 0.533115 0.050218
Si Si2 0.319938 0.736842 0.314323
Si Si3 0.178639 0.159283 0.816070
Si Si4 0.242102 0.876420 0.914353
Si Si5 0.897434 0.250000 0.000000
Si Si6 0.895321 0.601909 0.563529
O O1 0.950077 0.590509 0.077260
O O2 0.453410 0.552915 0.080356
O O3 0.816570 0.441276 0.059852
O O4 0.703395 0.552194 0.980613
O O5 0.282385 0.704874 0.250000
O O6 0.611753 0.770489 0.324308
O O7 0.268063 0.658347 0.350741
O O8 0.113208 0.807231 0.326820
O O9 0.204017 0.122282 0.750000
O O10 0.215720 0.097308 0.869991
O O11 0.291298 0.804817 0.960313
O O12 0.076777 0.306488 0.041716
#
# Coordination Sequence:
#
# PCOD8233970 Si02
#       6
#     8   8   8   8   4   8
#     4  10  25  38  60  85 132 156 190 242 320 339
#     4  10  21  37  59  88 119 150 196 255 294 340
#     4  10  21  37  61  87 116 153 198 252 294 340
#     4  11  22  40  58  92 113 161 195 243 295 369
#     4  10  22  34  66  88 114 156 204 246 290 348
#     4  10  22  42  58  92 122 161 196 253 289 373
#
# _framework density 22.452708000000001
#
# number of rings (size 3 to 8) (size 9 to 14) (size 15 to 20)
#    0.000    1.818    1.818    1.091    5.091    8.727 
#    0.000    1.818    0.000    0.000    0.000    0.000 
#    0.000    0.000    0.000    0.000    0.000    0.000 
#
# Total GULP energy -545428.555332 kJ/mol
# GULP energy per Si atom -12396.103530 kJ/mol
# Density = 2.240161 g / cm^3
# Si number density = 22.452708 Si / 1000 Ang^3
#
#
#
# Elastic Constant Matrix: (Units=GPa)
#
#
# Indices 1 2 3 4 5 6 
#
# 1 47.1173 -4.1661 19.5810 0.0000 0.0000 0.0000
# 2 -4.1661 80.6548 41.2937 0.0000 0.0000 0.0000
# 3 19.5810 41.2937 173.5922 0.0000 0.0000 0.0000
# 4 0.0000 0.0000 0.0000 40.6383 0.0000 0.0000
# 5 0.0000 0.0000 0.0000 0.0000 25.0545 0.0000
# 6 0.0000 0.0000 0.0000 0.0000 0.0000 24.4188
#
#
#
# Elastic Compliance Matrix: (Units=1/GPa)
#
#
# Indices 1 2 3 4 5 6 
#
# 1 0.022826 0.002844 -0.003251 0.000000 0.000000 0.000000
# 2 0.002844 0.014472 -0.003763 0.000000 0.000000 0.000000
# 3 -0.003251 -0.003763 0.007023 0.000000 0.000000 0.000000
# 4 0.000000 0.000000 0.000000 0.024607 0.000000 0.000000
# 5 0.000000 0.000000 0.000000 0.000000 0.039913 0.000000
# 6 0.000000 0.000000 0.000000 0.000000 0.000000 0.040952
#
#
# Mechanical properties :
#
#
# Convention : Reuss Voigt Hill
#
# Bulk Modulus (GPa) = 27.79397 46.08683 36.94040
# Shear Modulus (GPa) = 29.38960 34.33270 31.86115
#
# Velocity S-wave (km/s) = 3.62187 3.91463 3.77109
# Velocity P-wave (km/s) = 5.46776 6.40337 5.95397
#
# Compressibility (1/GPa) = 0.03597903
#
# Stress axis : x y z
#
# Youngs Moduli (GPa) = 43.80933 69.09821 142.39788
#
# Poissons Ratio (x) = -0.19649 0.46296
# Poissons Ratio (y) = -0.12458 0.53589
# Poissons Ratio (z) = 0.14243 0.26004
#
# Static dielectric constant tensor:
#      x y z
#    x 3.933600 0.000000 0.000000 
#    y 0.000000 3.959440 0.000000 
#    z 0.000000 0.000000 4.391730 
# 
# 
# High freq. dielectric constant tensor:
#      x y z
#    x 1.886330 0.000000 0.000000 
#    y 0.000000 1.868850 0.000000 
#    z 0.000000 0.000000 1.890680 
# 
# From -- ./inp_files/26191.got.cif
#   From: 2010.03.12/outbox.cif.g09.slc.cpg/sg57_14_cif.got.tgz:26191.got - 2010.04.16 15:48:40.
