data_PCOD8233916
_publ_section_title
;
Structure prediction by ZEFSAII (Michael W. Deem and Ramdas Pophale) SiO2 
 PCOD8233916
Probable space group: P B C M
;
_chemical_formula_sum "Si O2"
_cell_formula_units_Z 40
_cell_length_a 25.034563
_cell_length_b 9.638256
_cell_length_c 8.514246
_cell_angle_alpha 90.000000
_cell_angle_beta 90.000000
_cell_angle_gamma 90.000000
_cell_volume 2054.398390
_symmetry_space_group_name_H-M "P B C M"
_symmetry_group_IT_number 57
_symmetry_cell_setting 'orthorhombic'
loop_
_space_group_symop_operation_xyz
x,y,z
-x,-y,1/2+z
x,1/2-y,-z
-x,1/2+y,1/2-z
-x,-y,-z
x,y,1/2-z
-x,1/2+y,z
x,1/2-y,1/2+z
loop_
_atom_site_type_symbol
_atom_site_label
_atom_site_fract_x
_atom_site_fract_y
_atom_site_fract_z
Si Si1 0.043498 0.100294 0.568765
Si Si2 0.163769 0.402390 0.066014
Si Si3 0.363870 0.901128 0.935190
Si Si4 0.452690 0.094338 0.064438
Si Si5 0.751220 0.394508 0.433861
O O1 0.034081 0.250000 0.500000
O O2 0.032912 0.112979 0.750000
O O3 0.103386 0.045464 0.533993
O O4 0.000000 0.000000 0.500000
O O5 0.178058 0.408030 0.250000
O O6 0.171025 0.250000 0.000000
O O7 0.203384 0.494424 0.964805
O O8 0.373369 0.902508 0.750000
O O9 0.381081 0.750000 0.000000
O O10 0.302636 0.934607 0.974862
O O11 0.397390 0.023806 0.013962
O O12 0.456737 0.101615 0.250000
O O13 0.456614 0.250000 0.000000
O O14 0.500000 0.000000 0.000000
O O15 0.773468 0.250000 0.500000
O O16 0.738362 0.382695 0.250000
#
# Coordination Sequence:
#
# PCOD8233916 Si02
#       5
#     8   8   8   8   8
#     4  10  21  37  58  82 112 147 188 234 286 341
#     4  10  21  38  58  83 113 149 189 235 286 342
#     4  11  22  40  63  89 120 156 194 239 289 342
#     4  12  25  43  64  91 122 157 198 242 290 343
#     4  11  22  38  60  87 117 153 193 238 286 340
#
# _framework density 19.470421000000002
#
# number of rings (size 3 to 8) (size 9 to 14) (size 15 to 20)
#    0.000    1.200    0.000    8.400    0.000    4.000 
#    0.000    4.000    0.000    0.000    0.000    0.000 
#    0.000    0.000    0.000    0.000    0.000    0.000 
#
# Total GULP energy -496129.446716 kJ/mol
# GULP energy per Si atom -12403.236168 kJ/mol
# Density = 1.942611 g / cm^3
# Si number density = 19.470421 Si / 1000 Ang^3
#
#
#
# Elastic Constant Matrix: (Units=GPa)
#
#
# Indices 1 2 3 4 5 6 
#
# 1 97.6627 68.4105 50.8578 0.0000 0.0000 0.0000
# 2 68.4105 111.1273 67.4997 0.0000 0.0000 0.0000
# 3 50.8578 67.4997 142.7678 0.0000 0.0000 0.0000
# 4 0.0000 0.0000 0.0000 39.3831 0.0000 0.0000
# 5 0.0000 0.0000 0.0000 0.0000 36.2258 0.0000
# 6 0.0000 0.0000 0.0000 0.0000 0.0000 14.0355
#
#
#
# Elastic Compliance Matrix: (Units=1/GPa)
#
#
# Indices 1 2 3 4 5 6 
#
# 1 0.018282 -0.010239 -0.001672 0.000000 0.000000 0.000000
# 2 -0.010239 0.018359 -0.005032 0.000000 0.000000 0.000000
# 3 -0.001672 -0.005032 0.009979 0.000000 0.000000 0.000000
# 4 0.000000 0.000000 0.000000 0.025392 0.000000 0.000000
# 5 0.000000 0.000000 0.000000 0.000000 0.027605 0.000000
# 6 0.000000 0.000000 0.000000 0.000000 0.000000 0.071248
#
#
# Mechanical properties :
#
#
# Convention : Reuss Voigt Hill
#
# Bulk Modulus (GPa) = 78.53235 80.56599 79.54917
# Shear Modulus (GPa) = 23.92400 28.91486 26.41943
#
# Velocity S-wave (km/s) = 3.50914 3.85784 3.68761
# Velocity P-wave (km/s) = 7.53926 7.83022 7.68612
#
# Compressibility (1/GPa) = 0.01273361
#
# Stress axis : x y z
#
# Youngs Moduli (GPa) = 54.69804 54.46982 100.20923
#
# Poissons Ratio (x) = 0.55773 0.16750
# Poissons Ratio (y) = 0.56007 0.50429
# Poissons Ratio (z) = 0.09143 0.27411
#
# Static dielectric constant tensor:
#      x y z
#    x 3.697660 0.000000 0.000000 
#    y 0.000000 3.583900 0.000000 
#    z 0.000000 0.000000 3.803670 
# 
# 
# High freq. dielectric constant tensor:
#      x y z
#    x 1.768470 0.000000 0.000000 
#    y 0.000000 1.761130 0.000000 
#    z 0.000000 0.000000 1.783030 
# 
# From -- ./inp_files/8916.got.cif
#   From: 2010.03.12/outbox.cif.g09.slc.cpg/sg57_5_cif.got.tgz:8916.got - 2010.04.16 15:48:40.
