data_PCOD8233870
_publ_section_title
;
Structure prediction by ZEFSAII (Michael W. Deem and Ramdas Pophale) SiO2 
 PCOD8233870
Probable space group: P B C M
;
_chemical_formula_sum "Si O2"
_cell_formula_units_Z 56
_cell_length_a 14.665421
_cell_length_b 22.419893
_cell_length_c 8.924739
_cell_angle_alpha 90.000000
_cell_angle_beta 90.000000
_cell_angle_gamma 90.000000
_cell_volume 2934.428923
_symmetry_space_group_name_H-M "P B C M"
_symmetry_group_IT_number 57
_symmetry_cell_setting 'orthorhombic'
loop_
_space_group_symop_operation_xyz
x,y,z
-x,-y,1/2+z
x,1/2-y,-z
-x,1/2+y,1/2-z
-x,-y,-z
x,y,1/2-z
-x,1/2+y,z
x,1/2-y,1/2+z
loop_
_atom_site_type_symbol
_atom_site_label
_atom_site_fract_x
_atom_site_fract_y
_atom_site_fract_z
Si Si1 0.801241 0.597761 0.581215
Si Si2 0.071144 0.311149 0.573245
Si Si3 0.615022 0.953088 0.075371
Si Si4 0.307818 0.689364 0.576495
Si Si5 0.909225 0.021371 0.420794
Si Si6 0.413082 0.574406 0.926651
Si Si7 0.889193 0.142183 0.924514
O O1 0.815255 0.622881 0.750000
O O2 0.854769 0.638525 0.464455
O O3 0.694383 0.594745 0.537308
O O4 0.835197 0.530196 0.572588
O O5 0.105546 0.250000 0.500000
O O6 0.063631 0.303733 0.750000
O O7 0.972573 0.327427 0.509452
O O8 0.614968 0.968539 0.250000
O O9 0.519456 0.923513 0.025815
O O10 0.633451 0.015147 0.991413
O O11 0.341561 0.750000 0.500000
O O12 0.330976 0.695037 0.750000
O O13 0.363311 0.633198 0.507867
O O14 0.200079 0.681742 0.549280
O O15 0.931773 0.039805 0.250000
O O16 0.868558 0.077243 0.509457
O O17 0.000000 0.000000 0.500000
O O18 0.399648 0.572055 0.750000
O O19 0.914472 0.136289 0.750000
#
# Coordination Sequence:
#
# PCOD8233870 Si02
#       7
#     8   8   8   8   8   8   8
#     4  10  21  37  56  81 113 146 183 227 272 325
#     4  12  25  40  58  77 104 144 187 229 275 326
#     4   9  18  34  59  86 112 144 180 224 277 330
#     4  10  22  37  55  80 111 149 186 229 276 328
#     4  11  21  33  53  81 113 147 184 227 278 325
#     4   9  18  35  57  84 115 144 179 225 278 330
#     4  11  22  37  56  80 112 146 186 229 275 330
#
# _framework density 19.083781999999999
#
# number of rings (size 3 to 8) (size 9 to 14) (size 15 to 20)
#    0.000    1.714    1.429    3.429    0.000    4.000 
#    0.000    0.714    0.000    1.714    0.000    0.000 
#    0.000    0.000    0.000    0.000    0.000    0.000 
#
# Total GULP energy -694553.442817 kJ/mol
# GULP energy per Si atom -12402.740050 kJ/mol
# Density = 1.904035 g / cm^3
# Si number density = 19.083782 Si / 1000 Ang^3
#
#
#
# Elastic Constant Matrix: (Units=GPa)
#
#
# Indices 1 2 3 4 5 6 
#
# 1 93.0043 39.1474 39.0501 0.0000 0.0000 0.0000
# 2 39.1474 112.5724 48.4228 0.0000 0.0000 0.0000
# 3 39.0501 48.4228 96.9879 0.0000 0.0000 0.0000
# 4 0.0000 0.0000 0.0000 36.3738 0.0000 0.0000
# 5 0.0000 0.0000 0.0000 0.0000 19.1827 0.0000
# 6 0.0000 0.0000 0.0000 0.0000 0.0000 22.4322
#
#
#
# Elastic Compliance Matrix: (Units=1/GPa)
#
#
# Indices 1 2 3 4 5 6 
#
# 1 0.013715 -0.003049 -0.004000 0.000000 0.000000 0.000000
# 2 -0.003049 0.011990 -0.004759 0.000000 0.000000 0.000000
# 3 -0.004000 -0.004759 0.014297 0.000000 0.000000 0.000000
# 4 0.000000 0.000000 0.000000 0.027492 0.000000 0.000000
# 5 0.000000 0.000000 0.000000 0.000000 0.052130 0.000000
# 6 0.000000 0.000000 0.000000 0.000000 0.000000 0.044579
#
#
# Mechanical properties :
#
#
# Convention : Reuss Voigt Hill
#
# Bulk Modulus (GPa) = 61.02324 61.75613 61.38968
# Shear Modulus (GPa) = 25.86902 27.32735 26.59819
#
# Velocity S-wave (km/s) = 3.68577 3.78824 3.73736
# Velocity P-wave (km/s) = 7.08231 7.18089 7.13177
#
# Compressibility (1/GPa) = 0.01638720
#
# Stress axis : x y z
#
# Youngs Moduli (GPa) = 72.91308 83.39972 69.94497
#
# Poissons Ratio (x) = 0.25428 0.27977
# Poissons Ratio (y) = 0.22230 0.33286
# Poissons Ratio (z) = 0.29164 0.39689
#
# Static dielectric constant tensor:
#      x y z
#    x 3.499180 0.000000 0.000000 
#    y 0.000000 3.509740 0.000000 
#    z 0.000000 0.000000 3.484690 
# 
# 
# High freq. dielectric constant tensor:
#      x y z
#    x 1.743520 0.000000 0.000000 
#    y 0.000000 1.738060 0.000000 
#    z 0.000000 0.000000 1.742200 
# 
# From -- ./inp_files/5252.got.cif
#   From: 2010.03.12/outbox.cif.g09.slc.cpg/sg57_3_cif.got.tgz:5252.got - 2010.04.16 15:48:40.
