data_PCOD8233611
_publ_section_title
;
Structure prediction by ZEFSAII (Michael W. Deem and Ramdas Pophale) SiO2 
 PCOD8233611
Probable space group: P B C M
;
_chemical_formula_sum "Si O2"
_cell_formula_units_Z 48
_cell_length_a 11.170017
_cell_length_b 9.825885
_cell_length_c 23.268342
_cell_angle_alpha 90.000000
_cell_angle_beta 90.000000
_cell_angle_gamma 90.000000
_cell_volume 2553.823915
_symmetry_space_group_name_H-M "P B C M"
_symmetry_group_IT_number 57
_symmetry_cell_setting 'orthorhombic'
loop_
_space_group_symop_operation_xyz
x,y,z
-x,-y,1/2+z
x,1/2-y,-z
-x,1/2+y,1/2-z
-x,-y,-z
x,y,1/2-z
-x,1/2+y,z
x,1/2-y,1/2+z
loop_
_atom_site_type_symbol
_atom_site_label
_atom_site_fract_x
_atom_site_fract_y
_atom_site_fract_z
Si Si1 0.347853 0.342341 0.750000
Si Si2 0.467533 0.875424 0.959806
Si Si3 0.561492 0.542820 0.750000
Si Si4 0.068544 0.457254 0.184767
Si Si5 0.693027 0.005920 0.367827
Si Si6 0.709279 0.772111 0.933360
Si Si7 0.136302 0.341385 0.660822
O O1 0.426923 0.480627 0.750000
O O2 0.433923 0.208297 0.750000
O O3 0.260836 0.339460 0.695237
O O4 0.360134 0.888130 0.913860
O O5 0.588749 0.856591 0.923979
O O6 0.432511 0.750000 0.000000
O O7 0.500000 0.000000 0.000000
O O8 0.624571 0.487431 0.692591
O O9 0.109958 0.478840 0.250000
O O10 0.166084 0.531832 0.144226
O O11 0.059753 0.295306 0.173094
O O12 0.939694 0.524924 0.174833
O O13 0.681116 0.862981 0.398609
O O14 0.824361 0.847744 0.906020
O O15 0.738372 0.750000 0.000000
#
# Coordination Sequence:
#
# PCOD8233611 Si02
#       7
#     4   8   4   8   8   8   8
#     4  12  22  43  61  93 135 164 205 262 324 390
#     4  11  21  39  65  90 123 172 210 252 320 385
#     4  12  24  39  65  97 131 164 201 268 328 376
#     4  11  20  42  66  86 124 170 207 259 322 368
#     4  11  21  40  62  93 127 163 207 261 317 380
#     4  10  20  39  63  85 123 170 202 255 321 366
#     4  11  22  42  65  88 123 166 215 259 313 380
#
# _framework density 18.795342999999999
#
# number of rings (size 3 to 8) (size 9 to 14) (size 15 to 20)
#    0.000    1.000    9.167    1.000    0.000    0.000 
#    6.000    4.167    0.000    0.000    0.000    0.000 
#    0.000    0.000    0.000    0.000    0.000    0.000 
#
# Total GULP energy -594866.674669 kJ/mol
# GULP energy per Si atom -12393.055722 kJ/mol
# Density = 1.875256 g / cm^3
# Si number density = 18.795343 Si / 1000 Ang^3
#
#
#
# Elastic Constant Matrix: (Units=GPa)
#
#
# Indices 1 2 3 4 5 6 
#
# 1 89.2538 54.7166 29.1012 0.0000 0.0000 0.0000
# 2 54.7166 85.5017 23.2184 0.0000 0.0000 0.0000
# 3 29.1012 23.2184 90.1760 0.0000 0.0000 0.0000
# 4 0.0000 0.0000 0.0000 27.7304 0.0000 0.0000
# 5 0.0000 0.0000 0.0000 0.0000 6.7747 0.0000
# 6 0.0000 0.0000 0.0000 0.0000 0.0000 37.8101
#
#
#
# Elastic Compliance Matrix: (Units=1/GPa)
#
#
# Indices 1 2 3 4 5 6 
#
# 1 0.019298 -0.011460 -0.003277 0.000000 0.000000 0.000000
# 2 -0.011460 0.019380 -0.001292 0.000000 0.000000 0.000000
# 3 -0.003277 -0.001292 0.012480 0.000000 0.000000 0.000000
# 4 0.000000 0.000000 0.000000 0.036061 0.000000 0.000000
# 5 0.000000 0.000000 0.000000 0.000000 0.147608 0.000000
# 6 0.000000 0.000000 0.000000 0.000000 0.000000 0.026448
#
#
# Mechanical properties :
#
#
# Convention : Reuss Voigt Hill
#
# Bulk Modulus (GPa) = 52.35477 53.22265 52.78871
# Shear Modulus (GPa) = 16.68345 24.98940 20.83643
#
# Velocity S-wave (km/s) = 2.98256 3.65026 3.33317
# Velocity P-wave (km/s) = 6.30686 6.79296 6.55442
#
# Compressibility (1/GPa) = 0.01910046
#
# Stress axis : x y z
#
# Youngs Moduli (GPa) = 51.81942 51.59951 80.13090
#
# Poissons Ratio (x) = 0.59131 0.26260
# Poissons Ratio (y) = 0.59383 0.10351
# Poissons Ratio (z) = 0.16982 0.06665
#
# Static dielectric constant tensor:
#      x y z
#    x 3.497390 0.000000 0.000000 
#    y 0.000000 3.402370 0.000000 
#    z 0.000000 0.000000 4.044470 
# 
# 
# High freq. dielectric constant tensor:
#      x y z
#    x 1.720610 0.000000 0.000000 
#    y 0.000000 1.717150 0.000000 
#    z 0.000000 0.000000 1.748560 
# 
# From -- ./inp_files/27132.got.cif
#   From: 2010.03.12/outbox.cif.g09.slc.cpg/sg57_14_cif.got.tgz:27132.got - 2010.04.16 15:48:40.
