data_PCOD8233288
_publ_section_title
;
Structure prediction by ZEFSAII (Michael W. Deem and Ramdas Pophale) SiO2 
 PCOD8233288
Probable space group: P B C M
;
_chemical_formula_sum "Si O2"
_cell_formula_units_Z 60
_cell_length_a 12.461113
_cell_length_b 12.456592
_cell_length_c 20.086503
_cell_angle_alpha 90.000000
_cell_angle_beta 90.000000
_cell_angle_gamma 90.000000
_cell_volume 3117.887265
_symmetry_space_group_name_H-M "P B C M"
_symmetry_group_IT_number 57
_symmetry_cell_setting 'orthorhombic'
loop_
_space_group_symop_operation_xyz
x,y,z
-x,-y,1/2+z
x,1/2-y,-z
-x,1/2+y,1/2-z
-x,-y,-z
x,y,1/2-z
-x,1/2+y,z
x,1/2-y,1/2+z
loop_
_atom_site_type_symbol
_atom_site_label
_atom_site_fract_x
_atom_site_fract_y
_atom_site_fract_z
Si Si1 0.590570 0.996812 0.326426
Si Si2 0.303686 0.712545 0.175005
Si Si3 0.718594 0.934058 0.522975
Si Si4 0.077171 0.885711 0.673601
Si Si5 0.099289 0.204318 0.425966
Si Si6 0.591202 0.386698 0.093050
Si Si7 0.553607 0.750000 0.000000
Si Si8 0.201869 0.416151 0.377891
O O1 0.556361 0.002362 0.250000
O O2 0.486309 0.966288 0.367701
O O3 0.689463 0.912649 0.333654
O O4 0.631798 0.111017 0.355149
O O5 0.342482 0.724555 0.250000
O O6 0.177326 0.693883 0.170124
O O7 0.328376 0.824230 0.140521
O O8 0.817844 0.894344 0.567733
O O9 0.628726 0.842788 0.528562
O O10 0.762087 0.958175 0.449851
O O11 0.667607 0.045689 0.545222
O O12 0.030900 0.886453 0.750000
O O13 0.997475 0.842241 0.617226
O O14 0.112936 0.006359 0.654736
O O15 0.066300 0.250000 0.500000
O O16 0.153052 0.297830 0.382441
O O17 0.521054 0.297777 0.056645
#
# Coordination Sequence:
#
# PCOD8233288 Si02
#       8
#     8   8   8   8   8   8   4   8
#     4  10  20  37  59  82 115 163 205 239 299 374
#     4   9  21  40  56  83 123 155 199 253 299 365
#     4  11  22  39  59  89 120 158 205 255 301 364
#     4  10  23  40  63  90 121 162 208 256 315 376
#     4  10  22  42  64  88 120 156 205 267 309 362
#     4  12  23  33  61  90 122 160 198 251 309 355
#     4  12  22  38  56  90 128 158 196 248 298 368
#     4  10  20  39  61  83 118 157 200 250 305 367
#
# _framework density 19.243801999999999
#
# number of rings (size 3 to 8) (size 9 to 14) (size 15 to 20)
#    0.000    1.600    3.333    2.800    3.733    5.333 
#    0.000    2.667    0.000    0.000    0.000    0.000 
#    0.000    0.000    0.000    0.000    0.000    0.000 
#
# Total GULP energy -743848.473143 kJ/mol
# GULP energy per Si atom -12397.474552 kJ/mol
# Density = 1.920000 g / cm^3
# Si number density = 19.243802 Si / 1000 Ang^3
#
#
#
# Elastic Constant Matrix: (Units=GPa)
#
#
# Indices 1 2 3 4 5 6 
#
# 1 69.0884 22.7227 43.5946 0.0000 0.0000 0.0000
# 2 22.7227 61.8867 31.1130 0.0000 0.0000 0.0000
# 3 43.5946 31.1130 77.8141 0.0000 0.0000 0.0000
# 4 0.0000 0.0000 0.0000 33.1765 0.0000 0.0000
# 5 0.0000 0.0000 0.0000 0.0000 43.9366 0.0000
# 6 0.0000 0.0000 0.0000 0.0000 0.0000 25.8178
#
#
#
# Elastic Compliance Matrix: (Units=1/GPa)
#
#
# Indices 1 2 3 4 5 6 
#
# 1 0.022676 -0.002427 -0.011734 0.000000 0.000000 0.000000
# 2 -0.002427 0.020484 -0.006830 0.000000 0.000000 0.000000
# 3 -0.011734 -0.006830 0.022156 0.000000 0.000000 0.000000
# 4 0.000000 0.000000 0.000000 0.030142 0.000000 0.000000
# 5 0.000000 0.000000 0.000000 0.000000 0.022760 0.000000
# 6 0.000000 0.000000 0.000000 0.000000 0.000000 0.038733
#
#
# Mechanical properties :
#
#
# Convention : Reuss Voigt Hill
#
# Bulk Modulus (GPa) = 42.85677 44.84998 43.85338
# Shear Modulus (GPa) = 24.18834 28.01011 26.09923
#
# Velocity S-wave (km/s) = 3.54918 3.81929 3.68671
# Velocity P-wave (km/s) = 6.25415 6.54264 6.40002
#
# Compressibility (1/GPa) = 0.02333353
#
# Stress axis : x y z
#
# Youngs Moduli (GPa) = 44.09864 48.81960 45.13453
#
# Poissons Ratio (x) = 0.11848 0.52960
# Poissons Ratio (y) = 0.10702 0.30829
# Poissons Ratio (z) = 0.51745 0.33346
#
# Static dielectric constant tensor:
#      x y z
#    x 3.526420 0.000000 0.000000 
#    y 0.000000 3.794090 0.000000 
#    z 0.000000 0.000000 3.586140 
# 
# 
# High freq. dielectric constant tensor:
#      x y z
#    x 1.746440 0.000000 0.000000 
#    y 0.000000 1.748300 0.000000 
#    z 0.000000 0.000000 1.751600 
# 
# From -- ./inp_files/25094.got.cif
#   From: 2010.03.12/outbox.cif.g09.slc.cpg/sg57_13_cif.got.tgz:25094.got - 2010.04.16 15:48:40.
