data_PCOD8233876
_publ_section_title
;
Structure prediction by ZEFSAII (Michael W. Deem and Ramdas Pophale) SiO2 
 PCOD8233876
Probable space group: P B C M
;
_chemical_formula_sum "Si O2"
_cell_formula_units_Z 64
_cell_length_a 23.797433
_cell_length_b 9.230432
_cell_length_c 15.157918
_cell_angle_alpha 90.000000
_cell_angle_beta 90.000000
_cell_angle_gamma 90.000000
_cell_volume 3329.597167
_symmetry_space_group_name_H-M "P B C M"
_symmetry_group_IT_number 57
_symmetry_cell_setting 'orthorhombic'
loop_
_space_group_symop_operation_xyz
x,y,z
-x,-y,1/2+z
x,1/2-y,-z
-x,1/2+y,1/2-z
-x,-y,-z
x,y,1/2-z
-x,1/2+y,z
x,1/2-y,1/2+z
loop_
_atom_site_type_symbol
_atom_site_label
_atom_site_fract_x
_atom_site_fract_y
_atom_site_fract_z
Si Si1 0.944358 0.918133 0.850071
Si Si2 0.446677 0.417206 0.398280
Si Si3 0.055642 0.081865 0.850071
Si Si4 0.553323 0.582794 0.101720
Si Si5 0.857829 0.580716 0.000000
Si Si6 0.323988 0.083304 0.150786
Si Si7 0.323988 0.083305 0.849214
Si Si8 0.741091 0.077340 0.500000
O O1 0.927942 0.961502 0.750000
O O2 0.958463 0.749999 0.858296
O O3 0.892861 0.959942 0.912816
O O4 0.000000 0.999998 0.881897
O O5 0.438487 0.460294 0.500000
O O6 0.459960 0.250000 0.385544
O O7 0.500000 0.499999 0.356749
O O8 0.389504 0.461423 0.349034
O O9 0.072058 0.038496 0.750000
O O10 0.107139 0.040056 0.912816
O O11 0.610496 0.538576 0.150967
O O12 0.840540 0.750000 0.000000
O O13 0.804101 0.479737 0.000001
O O14 0.300619 0.065333 0.250000
O O15 0.317643 0.250000 0.118389
O O16 0.289363 0.979131 0.087539
O O17 0.300619 0.065333 0.750000
O O18 0.289363 0.979131 0.912461
O O19 0.740512 0.250000 0.500000
#
# Coordination Sequence:
#
# PCOD8233876 Si02
#       8
#     8   8   8   8   8   8   8   8
#     4   9  18  33  55  84 115 146 181 224 274 327
#     4   9  17  31  53  82 114 144 179 225 280 342
#     4   9  18  33  55  84 115 146 181 224 274 327
#     4   9  17  31  53  82 114 144 179 225 280 342
#     4  10  21  37  57  79 109 150 195 232 270 332
#     4  10  21  40  64  84 108 149 196 237 283 345
#     4  10  21  40  64  84 108 149 196 237 283 345
#     4  12  26  41  58  83 117 150 190 246 299 340
#
# _framework density 19.221544000000002
#
# number of rings (size 3 to 8) (size 9 to 14) (size 15 to 20)
#    0.000    2.250    1.250    1.500    0.000    4.000 
#    0.000    2.500    0.000    0.000    0.000    0.000 
#    0.000    0.000    0.000    0.000    0.000    0.000 
#
# Total GULP energy -793677.072579 kJ/mol
# GULP energy per Si atom -12401.204259 kJ/mol
# Density = 1.917779 g / cm^3
# Si number density = 19.221544 Si / 1000 Ang^3
#
#
#
# Elastic Constant Matrix: (Units=GPa)
#
#
# Indices 1 2 3 4 5 6 
#
# 1 138.0572 81.0613 65.0248 0.0000 0.0000 0.0000
# 2 81.0613 99.6964 55.4321 0.0000 0.0000 0.0000
# 3 65.0248 55.4321 105.9731 0.0000 0.0000 0.0000
# 4 0.0000 0.0000 0.0000 30.3548 0.0000 0.0000
# 5 0.0000 0.0000 0.0000 0.0000 220.5765 0.0000
# 6 0.0000 0.0000 0.0000 0.0000 0.0000 39.1920
#
#
#
# Elastic Compliance Matrix: (Units=1/GPa)
#
#
# Indices 1 2 3 4 5 6 
#
# 1 0.014959 -0.009954 -0.003972 0.000000 0.000000 0.000000
# 2 -0.009954 0.020768 -0.004755 0.000000 0.000000 0.000000
# 3 -0.003972 -0.004755 0.014361 0.000000 0.000000 0.000000
# 4 0.000000 0.000000 0.000000 0.032944 0.000000 0.000000
# 5 0.000000 0.000000 0.000000 0.000000 0.004534 0.000000
# 6 0.000000 0.000000 0.000000 0.000000 0.000000 0.025515
#
#
# Mechanical properties :
#
#
# Convention : Reuss Voigt Hill
#
# Bulk Modulus (GPa) = 78.58681 82.97369 80.78025
# Shear Modulus (GPa) = 32.32361 67.50523 49.91442
#
# Velocity S-wave (km/s) = 4.10522 5.93261 5.10140
# Velocity P-wave (km/s) = 7.96517 9.49676 8.76449
#
# Compressibility (1/GPa) = 0.01272478
#
# Stress axis : x y z
#
# Youngs Moduli (GPa) = 66.84970 48.15030 69.63363
#
# Poissons Ratio (x) = 0.47931 0.27657
# Poissons Ratio (y) = 0.66545 0.33114
# Poissons Ratio (z) = 0.26551 0.22897
#
# Static dielectric constant tensor:
#      x y z
#    x 3.521240 0.000000 0.000000 
#    y 0.000000 3.319060 0.000000 
#    z 0.000000 0.000000 3.700220 
# 
# 
# High freq. dielectric constant tensor:
#      x y z
#    x 1.745160 0.000000 0.000000 
#    y 0.000000 1.732340 0.000000 
#    z 0.000000 0.000000 1.755860 
# 
# From -- ./inp_files/19477.got.cif
#   From: 2010.03.12/outbox.cif.g09.slc.cpg/sg57_10_cif.got.tgz:19477.got - 2010.04.16 15:48:40.
