data_PCOD8233181
_publ_section_title
;
Structure prediction by ZEFSAII (Michael W. Deem and Ramdas Pophale) SiO2 
 PCOD8233181
Probable space group: P B C M
;
_chemical_formula_sum "Si O2"
_cell_formula_units_Z 56
_cell_length_a 20.992885
_cell_length_b 15.354384
_cell_length_c 8.774153
_cell_angle_alpha 90.000000
_cell_angle_beta 90.000000
_cell_angle_gamma 90.000000
_cell_volume 2828.197458
_symmetry_space_group_name_H-M "P B C M"
_symmetry_group_IT_number 57
_symmetry_cell_setting 'orthorhombic'
loop_
_space_group_symop_operation_xyz
x,y,z
-x,-y,1/2+z
x,1/2-y,-z
-x,1/2+y,1/2-z
-x,-y,-z
x,y,1/2-z
-x,1/2+y,z
x,1/2-y,1/2+z
loop_
_atom_site_type_symbol
_atom_site_label
_atom_site_fract_x
_atom_site_fract_y
_atom_site_fract_z
Si Si1 0.374673 0.338213 0.571337
Si Si2 0.644782 0.341664 0.931078
Si Si3 0.059299 0.160218 0.928640
Si Si4 0.508294 0.093526 0.429293
Si Si5 0.086316 0.658681 0.930773
Si Si6 0.848409 0.993238 0.068655
Si Si7 0.286716 0.003940 0.431225
O O1 0.346635 0.250000 0.500000
O O2 0.367309 0.330221 0.750000
O O3 0.448262 0.348033 0.520318
O O4 0.335329 0.421436 0.512910
O O5 0.649241 0.338610 0.750000
O O6 0.573034 0.362045 0.988578
O O7 0.666482 0.250000 0.000000
O O8 0.693011 0.413291 0.994044
O O9 0.064519 0.171449 0.750000
O O10 0.986795 0.141320 0.978722
O O11 0.101884 0.080196 0.986525
O O12 0.084696 0.250000 0.000000
O O13 0.510052 0.080923 0.250000
O O14 0.500000 0.000000 0.500000
O O15 0.095769 0.658743 0.750000
O O16 0.109536 0.750000 0.000000
O O17 0.129620 0.585800 0.006270
O O18 0.842374 0.996897 0.250000
O O19 0.781741 0.968278 0.993293
O O20 0.285871 0.993839 0.250000
#
# Coordination Sequence:
#
# PCOD8233181 Si02
#       7
#     8   8   8   8   8   8   8
#     4  10  22  39  60  86 116 151 192 237 289 345
#     4  11  23  39  62  89 117 152 193 240 295 351
#     4   9  20  37  60  89 121 154 191 238 287 342
#     4  10  20  36  60  89 118 150 188 237 293 346
#     4  10  20  37  61  90 120 153 192 236 290 343
#     4  11  23  39  59  86 119 155 197 240 288 343
#     4  11  24  42  60  82 116 156 199 244 288 342
#
# _framework density 19.800598999999998
#
# number of rings (size 3 to 8) (size 9 to 14) (size 15 to 20)
#    0.000    1.714    1.429    2.571    0.000    5.143 
#    0.000    5.714    0.000    0.000    0.000    0.000 
#    0.000    0.000    0.000    0.000    0.000    0.000 
#
# Total GULP energy -694651.511449 kJ/mol
# GULP energy per Si atom -12404.491276 kJ/mol
# Density = 1.975553 g / cm^3
# Si number density = 19.800599 Si / 1000 Ang^3
#
#
#
# Elastic Constant Matrix: (Units=GPa)
#
#
# Indices 1 2 3 4 5 6 
#
# 1 67.6052 17.8032 20.1909 0.0000 0.0000 0.0000
# 2 17.8032 115.1417 28.5453 0.0000 0.0000 0.0000
# 3 20.1909 28.5453 51.6387 0.0000 0.0000 0.0000
# 4 0.0000 0.0000 0.0000 39.3132 0.0000 0.0000
# 5 0.0000 0.0000 0.0000 0.0000 30.4944 0.0000
# 6 0.0000 0.0000 0.0000 0.0000 0.0000 15.0919
#
#
#
# Elastic Compliance Matrix: (Units=1/GPa)
#
#
# Indices 1 2 3 4 5 6 
#
# 1 0.016873 -0.001128 -0.005974 0.000000 0.000000 0.000000
# 2 -0.001128 0.010140 -0.005164 0.000000 0.000000 0.000000
# 3 -0.005974 -0.005164 0.024556 0.000000 0.000000 0.000000
# 4 0.000000 0.000000 0.000000 0.025437 0.000000 0.000000
# 5 0.000000 0.000000 0.000000 0.000000 0.032793 0.000000
# 6 0.000000 0.000000 0.000000 0.000000 0.000000 0.066261
#
#
# Mechanical properties :
#
#
# Convention : Reuss Voigt Hill
#
# Bulk Modulus (GPa) = 36.98684 40.82937 38.90811
# Shear Modulus (GPa) = 23.85467 28.16965 26.01216
#
# Velocity S-wave (km/s) = 3.47471 3.77592 3.62844
# Velocity P-wave (km/s) = 5.90071 6.29882 6.10301
#
# Compressibility (1/GPa) = 0.02703664
#
# Stress axis : x y z
#
# Youngs Moduli (GPa) = 59.26653 98.62340 40.72366
#
# Poissons Ratio (x) = 0.11123 0.24328
# Poissons Ratio (y) = 0.06684 0.21030
# Poissons Ratio (z) = 0.35405 0.50930
#
# Static dielectric constant tensor:
#      x y z
#    x 3.753930 0.000000 0.000000 
#    y 0.000000 3.670360 0.000000 
#    z 0.000000 0.000000 3.494940 
# 
# 
# High freq. dielectric constant tensor:
#      x y z
#    x 1.772170 0.000000 0.000000 
#    y 0.000000 1.784020 0.000000 
#    z 0.000000 0.000000 1.773020 
# 
# From -- ./inp_files/8068.got.cif
#   From: 2010.03.12/outbox.cif.g09.slc.cpg/sg57_5_cif.got.tgz:8068.got - 2010.04.16 15:48:40.
