data_PCOD8233815
_publ_section_title
;
Structure prediction by ZEFSAII (Michael W. Deem and Ramdas Pophale) SiO2 
 PCOD8233815
Probable space group: P B C M
;
_chemical_formula_sum "Si O2"
_cell_formula_units_Z 64
_cell_length_a 12.789348
_cell_length_b 28.464586
_cell_length_c 8.726872
_cell_angle_alpha 90.000000
_cell_angle_beta 90.000000
_cell_angle_gamma 90.000000
_cell_volume 3176.960992
_symmetry_space_group_name_H-M "P B C M"
_symmetry_group_IT_number 57
_symmetry_cell_setting 'orthorhombic'
loop_
_space_group_symop_operation_xyz
x,y,z
-x,-y,1/2+z
x,1/2-y,-z
-x,1/2+y,1/2-z
-x,-y,-z
x,y,1/2-z
-x,1/2+y,z
x,1/2-y,1/2+z
loop_
_atom_site_type_symbol
_atom_site_label
_atom_site_fract_x
_atom_site_fract_y
_atom_site_fract_z
Si Si1 0.295006 0.396717 0.571386
Si Si2 0.989036 0.300992 0.931348
Si Si3 0.299214 0.888753 0.929815
Si Si4 0.883225 0.545273 0.572628
Si Si5 0.217723 0.801415 0.069506
Si Si6 0.119368 0.553635 0.573109
Si Si7 0.495707 0.948585 0.930716
Si Si8 0.219751 0.298728 0.573717
O O1 0.271572 0.406661 0.750000
O O2 0.201120 0.415665 0.468654
O O3 0.402690 0.419574 0.516474
O O4 0.301987 0.340391 0.541596
O O5 0.972119 0.302361 0.750000
O O6 0.104988 0.317600 0.981448
O O7 0.973862 0.250000 0.000000
O O8 0.890937 0.326920 0.011707
O O9 0.309336 0.879949 0.750000
O O10 0.394402 0.920878 0.991451
O O11 0.306347 0.838163 0.014108
O O12 0.191181 0.914881 0.965786
O O13 0.873298 0.530315 0.750000
O O14 0.861111 0.500742 0.465969
O O15 0.998289 0.566411 0.539419
O O16 0.217459 0.796660 0.250000
O O17 0.239990 0.750000 0.000000
O O18 0.149158 0.562190 0.750000
O O19 0.491634 0.953851 0.750000
O O20 0.500000 0.000000 0.000000
O O21 0.257157 0.250000 0.500000
O O22 0.209230 0.286179 0.750000
#
# Coordination Sequence:
#
# PCOD8233815 Si02
#       8
#     8   8   8   8   8   8   8   8
#     4  10  21  38  59  84 114 152 193 237 292 350
#     4   9  16  29  49  77 110 150 190 230 276 334
#     4  11  23  39  60  86 116 154 199 246 295 348
#     4  10  21  36  55  84 117 150 188 234 290 353
#     4  11  22  37  57  84 118 157 198 244 293 347
#     4  10  21  37  56  83 117 152 188 235 293 354
#     4  10  23  42  64  87 115 149 193 246 296 349
#     4   9  19  34  54  81 114 152 191 231 282 338
#
# _framework density 20.145036999999999
#
# number of rings (size 3 to 8) (size 9 to 14) (size 15 to 20)
#    0.000    2.000    0.000    4.125    1.750    6.000 
#    0.000    0.625    0.000    1.500    0.000    0.000 
#    0.000    0.000    0.000    0.000    0.000    0.000 
#
# Total GULP energy -793400.272824 kJ/mol
# GULP energy per Si atom -12396.879263 kJ/mol
# Density = 2.009919 g / cm^3
# Si number density = 20.145037 Si / 1000 Ang^3
#
#
#
# Elastic Constant Matrix: (Units=GPa)
#
#
# Indices 1 2 3 4 5 6 
#
# 1 106.3234 78.4306 38.5644 0.0000 0.0000 0.0000
# 2 78.4306 124.7287 34.8194 0.0000 0.0000 0.0000
# 3 38.5644 34.8194 72.6656 0.0000 0.0000 0.0000
# 4 0.0000 0.0000 0.0000 34.1112 0.0000 0.0000
# 5 0.0000 0.0000 0.0000 0.0000 20.7830 0.0000
# 6 0.0000 0.0000 0.0000 0.0000 0.0000 35.6219
#
#
#
# Elastic Compliance Matrix: (Units=1/GPa)
#
#
# Indices 1 2 3 4 5 6 
#
# 1 0.019015 -0.010551 -0.005036 0.000000 0.000000 0.000000
# 2 -0.010551 0.015110 -0.001641 0.000000 0.000000 0.000000
# 3 -0.005036 -0.001641 0.017220 0.000000 0.000000 0.000000
# 4 0.000000 0.000000 0.000000 0.029316 0.000000 0.000000
# 5 0.000000 0.000000 0.000000 0.000000 0.048116 0.000000
# 6 0.000000 0.000000 0.000000 0.000000 0.000000 0.028073
#
#
# Mechanical properties :
#
#
# Convention : Reuss Voigt Hill
#
# Bulk Modulus (GPa) = 59.20523 67.48296 63.34409
# Shear Modulus (GPa) = 25.38916 28.23012 26.80964
#
# Velocity S-wave (km/s) = 3.55395 3.74751 3.65201
# Velocity P-wave (km/s) = 6.80397 7.23163 7.02106
#
# Compressibility (1/GPa) = 0.01689040
#
# Stress axis : x y z
#
# Youngs Moduli (GPa) = 52.59092 66.18162 58.07079
#
# Poissons Ratio (x) = 0.69827 0.29242
# Poissons Ratio (y) = 0.55488 0.09528
# Poissons Ratio (z) = 0.26483 0.10859
#
# Static dielectric constant tensor:
#      x y z
#    x 3.944350 0.000000 0.000000 
#    y 0.000000 3.727210 0.000000 
#    z 0.000000 0.000000 3.560780 
# 
# 
# High freq. dielectric constant tensor:
#      x y z
#    x 1.772650 0.000000 0.000000 
#    y 0.000000 1.790660 0.000000 
#    z 0.000000 0.000000 1.785160 
# 
# From -- ./inp_files/3881.got.cif
#   From: 2010.03.12/outbox.cif.g09.slc.cpg/sg57_2_cif.got.tgz:3881.got - 2010.04.16 15:48:40.
