data_PCOD8233186
_publ_section_title
;
Structure prediction by ZEFSAII (Michael W. Deem and Ramdas Pophale) SiO2 
 PCOD8233186
Probable space group: P B C M
;
_chemical_formula_sum "Si O2"
_cell_formula_units_Z 48
_cell_length_a 18.352546
_cell_length_b 8.799533
_cell_length_c 14.327937
_cell_angle_alpha 90.000000
_cell_angle_beta 90.000000
_cell_angle_gamma 90.000000
_cell_volume 2313.873482
_symmetry_space_group_name_H-M "P B C M"
_symmetry_group_IT_number 57
_symmetry_cell_setting 'orthorhombic'
loop_
_space_group_symop_operation_xyz
x,y,z
-x,-y,1/2+z
x,1/2-y,-z
-x,1/2+y,1/2-z
-x,-y,-z
x,y,1/2-z
-x,1/2+y,z
x,1/2-y,1/2+z
loop_
_atom_site_type_symbol
_atom_site_label
_atom_site_fract_x
_atom_site_fract_y
_atom_site_fract_z
Si Si1 0.953696 0.670371 0.855016
Si Si2 0.178591 0.080046 0.976258
Si Si3 0.391728 0.728675 0.250000
Si Si4 0.693682 0.379817 0.928687
Si Si5 0.484201 0.442141 0.250000
Si Si6 0.564759 0.909514 0.452869
Si Si7 0.903537 0.491356 0.144834
O O1 0.938884 0.612419 0.750000
O O2 0.897442 0.584832 0.921738
O O3 0.945049 0.849326 0.863933
O O4 0.037023 0.635062 0.883226
O O5 0.235629 0.986633 0.912314
O O6 0.207818 0.250000 0.000000
O O7 0.164596 0.989202 0.073614
O O8 0.339101 0.698687 0.336874
O O9 0.464953 0.622460 0.250000
O O10 0.428750 0.898066 0.250000
O O11 0.634533 0.489331 0.974442
O O12 0.716020 0.250000 0.000000
O O13 0.447276 0.375725 0.156692
O O14 0.576693 0.750000 0.500000
O O15 0.500000 0.000000 0.500000
O O16 0.873252 0.465776 0.250000
#
# Coordination Sequence:
#
# PCOD8233186 Si02
#       7
#     8   8   4   8   4   8   8
#     4   9  18  32  56  83 112 149 195 247 296 347
#     4  10  21  37  56  79 118 159 199 237 298 356
#     4  10  22  40  62  88 120 144 192 238 292 350
#     4  11  24  40  57  85 118 155 194 239 290 355
#     4  10  20  36  60  90 112 146 184 234 286 342
#     4  11  21  37  63  87 117 151 190 239 289 343
#     4   9  18  34  54  83 112 148 199 250 290 346
#
# _framework density 20.744436
#
# number of rings (size 3 to 8) (size 9 to 14) (size 15 to 20)
#    0.000    2.000    0.000    4.500    1.167    1.333 
#    1.500    0.000    0.000    0.000    0.000    0.000 
#    0.000    0.000    0.000    0.000    0.000    0.000 
#
# Total GULP energy -595013.983056 kJ/mol
# GULP energy per Si atom -12396.124647 kJ/mol
# Density = 2.069722 g / cm^3
# Si number density = 20.744436 Si / 1000 Ang^3
#
#
#
# Elastic Constant Matrix: (Units=GPa)
#
#
# Indices 1 2 3 4 5 6 
#
# 1 68.5724 16.2336 20.2856 0.0000 0.0000 0.0000
# 2 16.2336 46.4552 22.7323 0.0000 0.0000 0.0000
# 3 20.2856 22.7323 92.1575 0.0000 0.0000 0.0000
# 4 0.0000 0.0000 0.0000 25.6888 0.0000 0.0000
# 5 0.0000 0.0000 0.0000 0.0000 31.1682 0.0000
# 6 0.0000 0.0000 0.0000 0.0000 0.0000 40.1705
#
#
#
# Elastic Compliance Matrix: (Units=1/GPa)
#
#
# Indices 1 2 3 4 5 6 
#
# 1 0.016388 -0.004505 -0.002496 0.000000 0.000000 0.000000
# 2 -0.004505 0.025720 -0.005352 0.000000 0.000000 0.000000
# 3 -0.002496 -0.005352 0.012721 0.000000 0.000000 0.000000
# 4 0.000000 0.000000 0.000000 0.038927 0.000000 0.000000
# 5 0.000000 0.000000 0.000000 0.000000 0.032084 0.000000
# 6 0.000000 0.000000 0.000000 0.000000 0.000000 0.024894
#
#
# Mechanical properties :
#
#
# Convention : Reuss Voigt Hill
#
# Bulk Modulus (GPa) = 33.19973 36.18756 34.69365
# Shear Modulus (GPa) = 26.95683 29.26774 28.11229
#
# Velocity S-wave (km/s) = 3.60873 3.76023 3.68526
# Velocity P-wave (km/s) = 5.77952 6.02784 5.90498
#
# Compressibility (1/GPa) = 0.03012072
#
# Stress axis : x y z
#
# Youngs Moduli (GPa) = 61.01987 38.88079 78.61207
#
# Poissons Ratio (x) = 0.17517 0.19622
# Poissons Ratio (y) = 0.27492 0.42077
# Poissons Ratio (z) = 0.15231 0.20811
#
# Static dielectric constant tensor:
#      x y z
#    x 3.612350 0.000000 0.000000 
#    y 0.000000 4.120960 0.000000 
#    z 0.000000 0.000000 4.129130 
# 
# 
# High freq. dielectric constant tensor:
#      x y z
#    x 1.793850 0.000000 0.000000 
#    y 0.000000 1.810620 0.000000 
#    z 0.000000 0.000000 1.822070 
# 
# From -- ./inp_files/18985.got.cif
#   From: 2010.03.12/outbox.cif.g09.slc.cpg/sg57_10_cif.got.tgz:18985.got - 2010.04.16 15:48:40.
