data_PCOD8233094
_publ_section_title
;
Structure prediction by ZEFSAII (Michael W. Deem and Ramdas Pophale) SiO2 
 PCOD8233094
Probable space group: P B C M
;
_chemical_formula_sum "Si O2"
_cell_formula_units_Z 40
_cell_length_a 9.180918
_cell_length_b 25.314083
_cell_length_c 8.769303
_cell_angle_alpha 90.000000
_cell_angle_beta 90.000000
_cell_angle_gamma 90.000000
_cell_volume 2038.043195
_symmetry_space_group_name_H-M "P B C M"
_symmetry_group_IT_number 57
_symmetry_cell_setting 'orthorhombic'
loop_
_space_group_symop_operation_xyz
x,y,z
-x,-y,1/2+z
x,1/2-y,-z
-x,1/2+y,1/2-z
-x,-y,-z
x,y,1/2-z
-x,1/2+y,z
x,1/2-y,1/2+z
loop_
_atom_site_type_symbol
_atom_site_label
_atom_site_fract_x
_atom_site_fract_y
_atom_site_fract_z
Si Si1 0.657949 0.000234 0.571334
Si Si2 0.644619 0.304943 0.928036
Si Si3 0.835487 0.898353 0.929052
Si Si4 0.828909 0.093881 0.074311
Si Si5 0.339118 0.306141 0.430394
O O1 0.638528 0.998031 0.750000
O O2 0.743634 0.052792 0.528816
O O3 0.500000 0.000000 0.500000
O O4 0.746888 0.949338 0.513835
O O5 0.614268 0.296551 0.750000
O O6 0.769354 0.347631 0.959010
O O7 0.698699 0.250000 0.000000
O O8 0.495270 0.324604 0.005139
O O9 0.814300 0.887661 0.750000
O O10 0.002892 0.907901 0.971057
O O11 0.782376 0.848010 0.022682
O O12 0.804466 0.078285 0.250000
O O13 0.293749 0.250000 0.500000
O O14 0.348149 0.301348 0.250000
#
# Coordination Sequence:
#
# PCOD8233094 Si02
#       5
#     8   8   8   8   8
#     4  11  23  38  60  85 113 149 190 234 281 335
#     4  10  20  36  58  83 111 146 185 230 278 329
#     4  10  22  40  58  82 116 151 186 231 284 336
#     4  10  22  39  59  83 115 149 185 232 285 336
#     4  11  22  37  59  85 113 149 190 233 277 330
#
# _framework density 19.626669
#
# number of rings (size 3 to 8) (size 9 to 14) (size 15 to 20)
#    0.000    1.600    0.000    6.000    0.000    9.600 
#    0.000    2.000    0.000    0.000    0.000    0.000 
#    0.000    0.000    0.000    0.000    0.000    0.000 
#
# Total GULP energy -496231.851858 kJ/mol
# GULP energy per Si atom -12405.796296 kJ/mol
# Density = 1.958200 g / cm^3
# Si number density = 19.626669 Si / 1000 Ang^3
#
#
#
# Elastic Constant Matrix: (Units=GPa)
#
#
# Indices 1 2 3 4 5 6 
#
# 1 147.5463 80.6442 53.8769 0.0000 0.0000 0.0000
# 2 80.6442 119.7699 53.6559 0.0000 0.0000 0.0000
# 3 53.8769 53.6559 100.5591 0.0000 0.0000 0.0000
# 4 0.0000 0.0000 0.0000 35.6866 0.0000 0.0000
# 5 0.0000 0.0000 0.0000 0.0000 31.0648 0.0000
# 6 0.0000 0.0000 0.0000 0.0000 0.0000 43.7847
#
#
#
# Elastic Compliance Matrix: (Units=1/GPa)
#
#
# Indices 1 2 3 4 5 6 
#
# 1 0.011220 -0.006389 -0.002602 0.000000 0.000000 0.000000
# 2 -0.006389 0.014610 -0.004373 0.000000 0.000000 0.000000
# 3 -0.002602 -0.004373 0.013672 0.000000 0.000000 0.000000
# 4 0.000000 0.000000 0.000000 0.028022 0.000000 0.000000
# 5 0.000000 0.000000 0.000000 0.000000 0.032191 0.000000
# 6 0.000000 0.000000 0.000000 0.000000 0.000000 0.022839
#
#
# Mechanical properties :
#
#
# Convention : Reuss Voigt Hill
#
# Bulk Modulus (GPa) = 78.28350 82.69214 80.48782
# Shear Modulus (GPa) = 32.56524 34.08712 33.32618
#
# Velocity S-wave (km/s) = 4.07779 4.17198 4.12516
# Velocity P-wave (km/s) = 7.88315 8.08896 7.98672
#
# Compressibility (1/GPa) = 0.01277408
#
# Stress axis : x y z
#
# Youngs Moduli (GPa) = 89.12972 68.44695 73.14326
#
# Poissons Ratio (x) = 0.43728 0.19034
# Poissons Ratio (y) = 0.56942 0.31983
# Poissons Ratio (z) = 0.23195 0.29929
#
# Static dielectric constant tensor:
#      x y z
#    x 2.237080 0.000000 0.000000 
#    y 0.000000 3.489350 0.000000 
#    z 0.000000 0.000000 3.623330 
# 
# 
# High freq. dielectric constant tensor:
#      x y z
#    x 1.770070 0.000000 0.000000 
#    y 0.000000 1.777540 0.000000 
#    z 0.000000 0.000000 1.769650 
# 
# From -- ./inp_files/1499.got.cif
#   From: 2010.03.12/outbox.cif.g09.slc.cpg/sg57_1_cif.got.tgz:1499.got - 2010.04.16 15:48:40.
