data_PCOD8233569
_publ_section_title
;
Structure prediction by ZEFSAII (Michael W. Deem and Ramdas Pophale) SiO2 
 PCOD8233569
Probable space group: P B C M
;
_chemical_formula_sum "Si O2"
_cell_formula_units_Z 48
_cell_length_a 6.089154
_cell_length_b 14.179244
_cell_length_c 27.290369
_cell_angle_alpha 90.000000
_cell_angle_beta 90.000000
_cell_angle_gamma 90.000000
_cell_volume 2356.239552
_symmetry_space_group_name_H-M "P B C M"
_symmetry_group_IT_number 57
_symmetry_cell_setting 'orthorhombic'
loop_
_space_group_symop_operation_xyz
x,y,z
-x,-y,1/2+z
x,1/2-y,-z
-x,1/2+y,1/2-z
-x,-y,-z
x,y,1/2-z
-x,1/2+y,z
x,1/2-y,1/2+z
loop_
_atom_site_type_symbol
_atom_site_label
_atom_site_fract_x
_atom_site_fract_y
_atom_site_fract_z
Si Si1 0.318721 0.733084 0.806212
Si Si2 0.558739 0.398252 0.059470
Si Si3 0.198513 0.547712 0.470176
Si Si4 0.962708 0.124956 0.129388
Si Si5 0.702472 0.780829 0.126127
Si Si6 0.912388 0.422603 0.141449
O O1 0.310558 0.763994 0.750000
O O2 0.569610 0.717480 0.822661
O O3 0.193465 0.633270 0.812955
O O4 0.208357 0.814684 0.838910
O O5 0.360840 0.471228 0.052975
O O6 0.465358 0.299484 0.080896
O O7 0.738664 0.437952 0.097684
O O8 0.673769 0.382380 0.007200
O O9 0.000000 0.500000 0.500000
O O10 0.119763 0.611768 0.425706
O O11 0.192341 0.178471 0.122448
O O12 0.005909 0.026285 0.157438
O O13 0.879892 0.863655 0.123004
#
# Coordination Sequence:
#
# PCOD8233569 Si02
#       6
#     8   8   8   8   8   8
#     4  10  25  44  65  96 125 162 215 277 339 398
#     4  10  20  38  65  92 131 176 215 261 312 380
#     4  11  21  37  66  95 133 176 221 260 315 390
#     4  11  23  40  69  95 130 172 215 271 323 392
#     4  10  22  41  63  92 133 165 214 273 320 388
#     4  10  21  43  67  90 129 171 214 264 330 384
#
# _framework density 20.371444
#
# number of rings (size 3 to 8) (size 9 to 14) (size 15 to 20)
#    0.000    1.667    3.333    0.000    2.333    3.333 
#    0.000   21.667    0.000    0.000    0.000    0.000 
#    0.000    0.000    0.000    0.000    0.000    0.000 
#
# Total GULP energy -595011.836374 kJ/mol
# GULP energy per Si atom -12396.079924 kJ/mol
# Density = 2.032508 g / cm^3
# Si number density = 20.371444 Si / 1000 Ang^3
#
#
#
# Elastic Constant Matrix: (Units=GPa)
#
#
# Indices 1 2 3 4 5 6 
#
# 1 115.1984 45.1983 57.3284 0.0000 0.0000 0.0000
# 2 45.1983 119.1306 43.2995 0.0000 0.0000 0.0000
# 3 57.3284 43.2995 146.3687 0.0000 0.0000 0.0000
# 4 0.0000 0.0000 0.0000 29.3511 0.0000 0.0000
# 5 0.0000 0.0000 0.0000 0.0000 24.1371 0.0000
# 6 0.0000 0.0000 0.0000 0.0000 0.0000 33.7842
#
#
#
# Elastic Compliance Matrix: (Units=1/GPa)
#
#
# Indices 1 2 3 4 5 6 
#
# 1 0.011731 -0.003116 -0.003673 0.000000 0.000000 0.000000
# 2 -0.003116 0.010233 -0.001807 0.000000 0.000000 0.000000
# 3 -0.003673 -0.001807 0.008805 0.000000 0.000000 0.000000
# 4 0.000000 0.000000 0.000000 0.034070 0.000000 0.000000
# 5 0.000000 0.000000 0.000000 0.000000 0.041430 0.000000
# 6 0.000000 0.000000 0.000000 0.000000 0.000000 0.029600
#
#
# Mechanical properties :
#
#
# Convention : Reuss Voigt Hill
#
# Bulk Modulus (GPa) = 73.64835 74.70555 74.17695
# Shear Modulus (GPa) = 31.72865 33.11257 32.42061
#
# Velocity S-wave (km/s) = 3.95081 4.03605 3.99366
# Velocity P-wave (km/s) = 7.55269 7.64663 7.59980
#
# Compressibility (1/GPa) = 0.01357804
#
# Stress axis : x y z
#
# Youngs Moduli (GPa) = 85.24422 97.72320 113.56977
#
# Poissons Ratio (x) = 0.30448 0.41714
# Poissons Ratio (y) = 0.26560 0.20520
# Poissons Ratio (z) = 0.31310 0.17657
#
# Static dielectric constant tensor:
#      x y z
#    x 4.076200 0.000000 0.000000 
#    y 0.000000 3.611890 0.000000 
#    z 0.000000 0.000000 3.561600 
# 
# 
# High freq. dielectric constant tensor:
#      x y z
#    x 1.820590 0.000000 0.000000 
#    y 0.000000 1.787150 0.000000 
#    z 0.000000 0.000000 1.780190 
# 
# From -- ./inp_files/27933.got.cif
#   From: 2010.03.12/outbox.cif.g09.slc.cpg/sg57_14_cif.got.tgz:27933.got - 2010.04.16 15:48:40.
