data_PCOD8233494
_publ_section_title
;
Structure prediction by ZEFSAII (Michael W. Deem and Ramdas Pophale) SiO2 
 PCOD8233494
Probable space group: P B C M
;
_chemical_formula_sum "Si O2"
_cell_formula_units_Z 44
_cell_length_a 8.404023
_cell_length_b 11.223075
_cell_length_c 22.610263
_cell_angle_alpha 90.000000
_cell_angle_beta 90.000000
_cell_angle_gamma 90.000000
_cell_volume 2132.576953
_symmetry_space_group_name_H-M "P B C M"
_symmetry_group_IT_number 57
_symmetry_cell_setting 'orthorhombic'
loop_
_space_group_symop_operation_xyz
x,y,z
-x,-y,1/2+z
x,1/2-y,-z
-x,1/2+y,1/2-z
-x,-y,-z
x,y,1/2-z
-x,1/2+y,z
x,1/2-y,1/2+z
loop_
_atom_site_type_symbol
_atom_site_label
_atom_site_fract_x
_atom_site_fract_y
_atom_site_fract_z
Si Si1 0.713904 0.015512 0.437744
Si Si2 0.736316 0.250858 0.250000
Si Si3 0.221766 0.218125 0.868647
Si Si4 0.614048 0.634284 0.040497
Si Si5 0.068635 0.642336 0.150328
Si Si6 0.135836 0.482572 0.750000
Si Si7 0.636127 0.725738 0.250000
O O1 0.713267 0.898563 0.398780
O O2 0.715910 0.968514 0.505936
O O3 0.551596 0.088782 0.432426
O O4 0.864079 0.090636 0.412445
O O5 0.784591 0.181726 0.309358
O O6 0.818889 0.379733 0.250000
O O7 0.549170 0.246927 0.250000
O O8 0.283460 0.335203 0.902426
O O9 0.290645 0.204184 0.804204
O O10 0.031734 0.238845 0.866058
O O11 0.581178 0.750000 0.000000
O O12 0.962396 0.550503 0.189929
O O13 0.303525 0.411051 0.750000
#
# Coordination Sequence:
#
# PCOD8233494 Si02
#       7
#     8   4   8   8   8   4   4
#     4  10  20  38  61  82 112 151 187 238 287 326
#     4  11  21  35  54  80 114 151 191 231 284 344
#     4  10  21  38  57  84 117 146 186 233 282 341
#     4   9  20  39  61  85 112 147 193 234 278 339
#     4  10  21  35  56  85 115 150 191 233 287 346
#     4   9  21  39  54  82 124 155 187 241 290 340
#     4  10  22  36  58  86 112 148 192 230 278 342
#
# _framework density 20.632315999999999
#
# number of rings (size 3 to 8) (size 9 to 14) (size 15 to 20)
#    0.000    2.182    0.000    2.727    0.000    6.545 
#    0.000   11.818    0.000    0.000    0.000    0.000 
#    0.000    0.000    0.000    0.000    0.000    0.000 
#
# Total GULP energy -545082.950997 kJ/mol
# GULP energy per Si atom -12388.248886 kJ/mol
# Density = 2.058536 g / cm^3
# Si number density = 20.632316 Si / 1000 Ang^3
#
#
#
# Elastic Constant Matrix: (Units=GPa)
#
#
# Indices 1 2 3 4 5 6 
#
# 1 112.7729 26.1761 43.2576 0.0000 0.0000 0.0000
# 2 26.1761 59.3447 14.4603 0.0000 0.0000 0.0000
# 3 43.2576 14.4603 90.6398 0.0000 0.0000 0.0000
# 4 0.0000 0.0000 0.0000 22.0236 0.0000 0.0000
# 5 0.0000 0.0000 0.0000 0.0000 40.2680 0.0000
# 6 0.0000 0.0000 0.0000 0.0000 0.0000 30.4491
#
#
#
# Elastic Compliance Matrix: (Units=1/GPa)
#
#
# Indices 1 2 3 4 5 6 
#
# 1 0.011680 -0.003947 -0.004945 0.000000 0.000000 0.000000
# 2 -0.003947 0.018866 -0.001126 0.000000 0.000000 0.000000
# 3 -0.004945 -0.001126 0.013572 0.000000 0.000000 0.000000
# 4 0.000000 0.000000 0.000000 0.045406 0.000000 0.000000
# 5 0.000000 0.000000 0.000000 0.000000 0.024834 0.000000
# 6 0.000000 0.000000 0.000000 0.000000 0.000000 0.032842
#
#
# Mechanical properties :
#
#
# Convention : Reuss Voigt Hill
#
# Bulk Modulus (GPa) = 41.52343 47.83839 44.68091
# Shear Modulus (GPa) = 28.52854 30.47234 29.50044
#
# Velocity S-wave (km/s) = 3.72252 3.84724 3.78539
# Velocity P-wave (km/s) = 6.21653 6.55527 6.38815
#
# Compressibility (1/GPa) = 0.02408279
#
# Stress axis : x y z
#
# Youngs Moduli (GPa) = 85.61467 53.00509 73.68031
#
# Poissons Ratio (x) = 0.20922 0.36432
# Poissons Ratio (y) = 0.33793 0.08297
# Poissons Ratio (z) = 0.42333 0.05969
#
# Static dielectric constant tensor:
#      x y z
#    x 3.804260 0.000000 0.000000 
#    y 0.000000 3.749470 0.000000 
#    z 0.000000 0.000000 4.363280 
# 
# 
# High freq. dielectric constant tensor:
#      x y z
#    x 1.802680 0.000000 0.000000 
#    y 0.000000 1.803340 0.000000 
#    z 0.000000 0.000000 1.816720 
# 
# From -- ./inp_files/26634.got.cif
#   From: 2010.03.12/outbox.cif.g09.slc.cpg/sg57_14_cif.got.tgz:26634.got - 2010.04.16 15:48:40.
