data_PCOD8233473
_publ_section_title
;
Structure prediction by ZEFSAII (Michael W. Deem and Ramdas Pophale) SiO2 
 PCOD8233473
Probable space group: P B C M
;
_chemical_formula_sum "Si O2"
_cell_formula_units_Z 48
_cell_length_a 13.907891
_cell_length_b 9.913992
_cell_length_c 17.699705
_cell_angle_alpha 90.000000
_cell_angle_beta 90.000000
_cell_angle_gamma 90.000000
_cell_volume 2440.483471
_symmetry_space_group_name_H-M "P B C M"
_symmetry_group_IT_number 57
_symmetry_cell_setting 'orthorhombic'
loop_
_space_group_symop_operation_xyz
x,y,z
-x,-y,1/2+z
x,1/2-y,-z
-x,1/2+y,1/2-z
-x,-y,-z
x,y,1/2-z
-x,1/2+y,z
x,1/2-y,1/2+z
loop_
_atom_site_type_symbol
_atom_site_label
_atom_site_fract_x
_atom_site_fract_y
_atom_site_fract_z
Si Si1 0.880328 0.032221 0.078155
Si Si2 0.902337 0.994349 0.903607
Si Si3 0.774419 0.759292 0.087461
Si Si4 0.587358 0.390221 0.339712
Si Si5 0.578946 0.805342 0.839608
Si Si6 0.208894 0.775418 0.162926
O O1 0.812892 0.147058 0.111734
O O2 0.836376 0.891140 0.104096
O O3 0.884851 0.048261 0.988145
O O4 0.987455 0.044805 0.111284
O O5 0.873836 0.112789 0.846317
O O6 0.838398 0.865133 0.885267
O O7 0.677549 0.764022 0.135334
O O8 0.746711 0.750000 0.000000
O O9 0.582758 0.394912 0.250000
O O10 0.507393 0.287146 0.371871
O O11 0.569836 0.541733 0.371785
O O12 0.691025 0.338031 0.366696
O O13 0.575860 0.808213 0.750000
O O14 0.215256 0.730551 0.250000
#
# Coordination Sequence:
#
# PCOD8233473 Si02
#       6
#     8   8   8   8   8   8
#     4  10  22  37  61  86 112 156 198 231 277 347
#     4  10  20  41  61  80 115 159 197 228 280 345
#     4  10  21  37  58  86 116 146 193 244 284 332
#     4   9  20  36  58  83 110 150 190 230 284 349
#     4  10  20  38  60  80 110 152 193 232 285 348
#     4  11  22  37  58  89 120 145 189 243 289 334
#
# _framework density 19.668234000000002
#
# number of rings (size 3 to 8) (size 9 to 14) (size 15 to 20)
#    0.000    2.000    1.667    1.500    2.333    4.000 
#    0.000    4.167    0.000    0.000    0.000    0.000 
#    0.000    0.000    0.000    0.000    0.000    0.000 
#
# Total GULP energy -595369.304833 kJ/mol
# GULP energy per Si atom -12403.527184 kJ/mol
# Density = 1.962347 g / cm^3
# Si number density = 19.668234 Si / 1000 Ang^3
#
#
#
# Elastic Constant Matrix: (Units=GPa)
#
#
# Indices 1 2 3 4 5 6 
#
# 1 106.4074 15.8333 20.3304 0.0000 0.0000 0.0000
# 2 15.8333 75.3421 26.7952 0.0000 0.0000 0.0000
# 3 20.3304 26.7952 21.9398 0.0000 0.0000 0.0000
# 4 0.0000 0.0000 0.0000 25.9683 0.0000 0.0000
# 5 0.0000 0.0000 0.0000 0.0000 28.2447 0.0000
# 6 0.0000 0.0000 0.0000 0.0000 0.0000 38.1045
#
#
#
# Elastic Compliance Matrix: (Units=1/GPa)
#
#
# Indices 1 2 3 4 5 6 
#
# 1 0.011673 0.002464 -0.013826 0.000000 0.000000 0.000000
# 2 0.002464 0.023985 -0.031576 0.000000 0.000000 0.000000
# 3 -0.013826 -0.031576 0.096955 0.000000 0.000000 0.000000
# 4 0.000000 0.000000 0.000000 0.038508 0.000000 0.000000
# 5 0.000000 0.000000 0.000000 0.000000 0.035405 0.000000
# 6 0.000000 0.000000 0.000000 0.000000 0.000000 0.026244
#
#
# Mechanical properties :
#
#
# Convention : Reuss Voigt Hill
#
# Bulk Modulus (GPa) = 21.39648 36.62302 29.00975
# Shear Modulus (GPa) = 14.95998 27.84554 21.40276
#
# Velocity S-wave (km/s) = 2.76092 3.76674 3.30235
# Velocity P-wave (km/s) = 4.58976 6.13014 5.41500
#
# Compressibility (1/GPa) = 0.04673666
#
# Stress axis : x y z
#
# Youngs Moduli (GPa) = 85.66926 41.69275 10.31405
#
# Poissons Ratio (x) = -0.10274 0.14260
# Poissons Ratio (y) = -0.21110 0.32568
# Poissons Ratio (z) = 1.18446 1.31650
#
# Static dielectric constant tensor:
#      x y z
#    x 3.682890 0.000000 0.000000 
#    y 0.000000 3.818460 0.000000 
#    z 0.000000 0.000000 3.256190 
# 
# 
# High freq. dielectric constant tensor:
#      x y z
#    x 1.777110 0.000000 0.000000 
#    y 0.000000 1.781320 0.000000 
#    z 0.000000 0.000000 1.734930 
# 
# From -- ./inp_files/22396.got.cif
#   From: 2010.03.12/outbox.cif.g09.slc.cpg/sg57_12_cif.got.tgz:22396.got - 2010.04.16 15:48:40.
