data_PCOD8233451
_publ_section_title
;
Structure prediction by ZEFSAII (Michael W. Deem and Ramdas Pophale) SiO2 
 PCOD8233451
Probable space group: P B C M
;
_chemical_formula_sum "Si O2"
_cell_formula_units_Z 60
_cell_length_a 6.727739
_cell_length_b 23.881071
_cell_length_c 20.271612
_cell_angle_alpha 90.000000
_cell_angle_beta 90.000000
_cell_angle_gamma 90.000000
_cell_volume 3256.950963
_symmetry_space_group_name_H-M "P B C M"
_symmetry_group_IT_number 57
_symmetry_cell_setting 'orthorhombic'
loop_
_space_group_symop_operation_xyz
x,y,z
-x,-y,1/2+z
x,1/2-y,-z
-x,1/2+y,1/2-z
-x,-y,-z
x,y,1/2-z
-x,1/2+y,z
x,1/2-y,1/2+z
loop_
_atom_site_type_symbol
_atom_site_label
_atom_site_fract_x
_atom_site_fract_y
_atom_site_fract_z
Si Si1 0.668694 0.318070 0.898527
Si Si2 0.125991 0.926305 0.053115
Si Si3 0.870376 0.949104 0.568624
Si Si4 0.044915 0.357869 0.673956
Si Si5 0.909587 0.250000 0.000000
Si Si6 0.335773 0.245171 0.173747
Si Si7 0.468701 0.106987 0.003005
Si Si8 0.158952 0.168732 0.915959
O O1 0.538195 0.269526 0.864816
O O2 0.534583 0.367767 0.926884
O O3 0.819376 0.343332 0.845089
O O4 0.776784 0.295413 0.963465
O O5 0.997403 0.882041 0.096337
O O6 0.101863 0.986192 0.089223
O O7 0.357438 0.910257 0.047562
O O8 0.050696 0.928515 0.977651
O O9 0.869742 0.910351 0.633044
O O10 0.668051 0.945402 0.525145
O O11 0.051718 0.375808 0.750000
O O12 0.176840 0.303451 0.659996
O O13 0.045214 0.220523 0.946863
O O14 0.388919 0.250451 0.250000
O O15 0.251684 0.305917 0.151160
O O16 0.334694 0.151663 0.964650
#
# Coordination Sequence:
#
# PCOD8233451 Si02
#       8
#     8   8   8   8   4   8   8   8
#     4  12  20  35  56  86 117 148 187 235 291 345
#     4  10  21  36  59  86 115 146 182 240 294 342
#     4  10  20  38  56  85 117 144 187 236 292 340
#     4  11  22  38  58  82 115 153 193 233 277 343
#     4  12  20  34  56  84 124 146 184 240 296 342
#     4  11  24  39  55  79 117 159 194 232 278 343
#     4  11  19  34  59  86 115 144 181 243 296 341
#     4  11  22  36  54  86 114 151 190 233 285 343
#
# _framework density 18.422139000000001
#
# number of rings (size 3 to 8) (size 9 to 14) (size 15 to 20)
#    0.000    1.067    5.333    3.200    0.000    0.000 
#    0.000    0.667    0.000    0.800    0.000    0.000 
#    0.000    0.000    0.000    0.000    0.000    0.000 
#
# Total GULP energy -744047.422491 kJ/mol
# GULP energy per Si atom -12400.790375 kJ/mol
# Density = 1.838021 g / cm^3
# Si number density = 18.422139 Si / 1000 Ang^3
#
#
#
# Elastic Constant Matrix: (Units=GPa)
#
#
# Indices 1 2 3 4 5 6 
#
# 1 87.6680 14.9677 19.0262 0.0000 0.0000 0.0000
# 2 14.9677 79.4332 24.9599 0.0000 0.0000 0.0000
# 3 19.0262 24.9599 70.0377 0.0000 0.0000 0.0000
# 4 0.0000 0.0000 0.0000 24.1756 0.0000 0.0000
# 5 0.0000 0.0000 0.0000 0.0000 17.5203 0.0000
# 6 0.0000 0.0000 0.0000 0.0000 0.0000 12.6721
#
#
#
# Elastic Compliance Matrix: (Units=1/GPa)
#
#
# Indices 1 2 3 4 5 6 
#
# 1 0.012263 -0.001423 -0.002824 0.000000 0.000000 0.000000
# 2 -0.001423 0.014342 -0.004725 0.000000 0.000000 0.000000
# 3 -0.002824 -0.004725 0.016729 0.000000 0.000000 0.000000
# 4 0.000000 0.000000 0.000000 0.041364 0.000000 0.000000
# 5 0.000000 0.000000 0.000000 0.000000 0.057077 0.000000
# 6 0.000000 0.000000 0.000000 0.000000 0.000000 0.078913
#
#
# Mechanical properties :
#
#
# Convention : Reuss Voigt Hill
#
# Bulk Modulus (GPa) = 39.38582 39.44960 39.41771
# Shear Modulus (GPa) = 20.23518 22.75261 21.49390
#
# Velocity S-wave (km/s) = 3.31783 3.51817 3.41947
# Velocity P-wave (km/s) = 6.00861 6.16150 6.08553
#
# Compressibility (1/GPa) = 0.02538985
#
# Stress axis : x y z
#
# Youngs Moduli (GPa) = 81.54921 69.72553 59.77689
#
# Poissons Ratio (x) = 0.09924 0.16881
# Poissons Ratio (y) = 0.11607 0.28242
# Poissons Ratio (z) = 0.23029 0.32942
#
# Static dielectric constant tensor:
#      x y z
#    x 3.581360 0.000000 0.000000 
#    y 0.000000 3.357680 0.000000 
#    z 0.000000 0.000000 3.086400 
# 
# 
# High freq. dielectric constant tensor:
#      x y z
#    x 1.733750 0.000000 0.000000 
#    y 0.000000 1.712510 0.000000 
#    z 0.000000 0.000000 1.682400 
# 
# From -- ./inp_files/23815.got.cif
#   From: 2010.03.12/outbox.cif.g09.slc.cpg/sg57_12_cif.got.tgz:23815.got - 2010.04.16 15:48:40.
