data_PCOD8233375
_publ_section_title
;
Structure prediction by ZEFSAII (Michael W. Deem and Ramdas Pophale) SiO2 
 PCOD8233375
Probable space group: P B C M
;
_chemical_formula_sum "Si O2"
_cell_formula_units_Z 64
_cell_length_a 11.927993
_cell_length_b 31.224203
_cell_length_c 8.678623
_cell_angle_alpha 90.000000
_cell_angle_beta 90.000000
_cell_angle_gamma 90.000000
_cell_volume 3232.284357
_symmetry_space_group_name_H-M "P B C M"
_symmetry_group_IT_number 57
_symmetry_cell_setting 'orthorhombic'
loop_
_space_group_symop_operation_xyz
x,y,z
-x,-y,1/2+z
x,1/2-y,-z
-x,1/2+y,1/2-z
-x,-y,-z
x,y,1/2-z
-x,1/2+y,z
x,1/2-y,1/2+z
loop_
_atom_site_type_symbol
_atom_site_label
_atom_site_fract_x
_atom_site_fract_y
_atom_site_fract_z
Si Si1 0.990097 0.205192 0.070109
Si Si2 0.755658 0.443344 0.569503
Si Si3 0.375080 0.112660 0.076146
Si Si4 0.124636 0.123136 0.068280
Si Si5 0.397359 0.627326 0.928841
Si Si6 0.616674 0.987643 0.574203
Si Si7 0.987915 0.047454 0.931678
Si Si8 0.731119 0.205144 0.431492
O O1 0.009972 0.208950 0.250000
O O2 0.860782 0.196987 0.028880
O O3 0.058398 0.164627 0.003737
O O4 0.033197 0.250000 0.000000
O O5 0.778237 0.441097 0.750000
O O6 0.656276 0.411086 0.526036
O O7 0.717597 0.490702 0.520320
O O8 0.870424 0.431396 0.483733
O O9 0.407752 0.125971 0.250000
O O10 0.254850 0.132072 0.029442
O O11 0.362804 0.062124 0.062983
O O12 0.470103 0.130211 0.962362
O O13 0.105540 0.116941 0.250000
O O14 0.085077 0.079441 0.987225
O O15 0.377192 0.618636 0.750000
O O16 0.341607 0.671126 0.978326
O O17 0.618598 0.004100 0.750000
O O18 0.500000 0.000000 0.500000
O O19 0.992918 0.043263 0.750000
O O20 0.000000 0.000000 0.000000
O O21 0.691363 0.250000 0.500000
O O22 0.708023 0.202743 0.250000
#
# Coordination Sequence:
#
# PCOD8233375 Si02
#       8
#     8   8   8   8   8   8   8   8
#     4   9  19  36  62  92 120 152 190 241 298 359
#     4  12  24  39  60  86 118 155 199 249 300 352
#     4  10  22  39  59  82 116 160 203 246 297 356
#     4  10  21  40  63  88 120 161 206 251 304 362
#     4  12  24  38  59  87 118 152 197 245 297 357
#     4  11  21  35  56  83 115 155 201 250 300 352
#     4  12  25  41  61  88 122 160 202 249 305 366
#     4  10  20  37  61  89 121 152 188 236 298 361
#
# _framework density 19.800236999999999
#
# number of rings (size 3 to 8) (size 9 to 14) (size 15 to 20)
#    0.000    1.250    1.250    5.625    0.000    4.000 
#    0.000    0.625    0.000    1.500    0.000    0.000 
#    0.000    0.000    0.000    0.000    0.000    0.000 
#
# Total GULP energy -793900.689835 kJ/mol
# GULP energy per Si atom -12404.698279 kJ/mol
# Density = 1.975517 g / cm^3
# Si number density = 19.800237 Si / 1000 Ang^3
#
#
#
# Elastic Constant Matrix: (Units=GPa)
#
#
# Indices 1 2 3 4 5 6 
#
# 1 97.0233 44.8129 38.3757 0.0000 0.0000 0.0000
# 2 44.8129 113.3169 39.3988 0.0000 0.0000 0.0000
# 3 38.3757 39.3988 102.0712 0.0000 0.0000 0.0000
# 4 0.0000 0.0000 0.0000 31.8399 0.0000 0.0000
# 5 0.0000 0.0000 0.0000 0.0000 31.7359 0.0000
# 6 0.0000 0.0000 0.0000 0.0000 0.0000 37.7127
#
#
#
# Elastic Compliance Matrix: (Units=1/GPa)
#
#
# Indices 1 2 3 4 5 6 
#
# 1 0.013620 -0.004165 -0.003513 0.000000 0.000000 0.000000
# 2 -0.004165 0.011466 -0.002860 0.000000 0.000000 0.000000
# 3 -0.003513 -0.002860 0.012222 0.000000 0.000000 0.000000
# 4 0.000000 0.000000 0.000000 0.031407 0.000000 0.000000
# 5 0.000000 0.000000 0.000000 0.000000 0.031510 0.000000
# 6 0.000000 0.000000 0.000000 0.000000 0.000000 0.026516
#
#
# Mechanical properties :
#
#
# Convention : Reuss Voigt Hill
#
# Bulk Modulus (GPa) = 61.60606 61.95404 61.78005
# Shear Modulus (GPa) = 32.63108 32.91264 32.77186
#
# Velocity S-wave (km/s) = 4.06398 4.08147 4.07274
# Velocity P-wave (km/s) = 7.29401 7.31907 7.30655
#
# Compressibility (1/GPa) = 0.01623217
#
# Stress axis : x y z
#
# Youngs Moduli (GPa) = 73.42165 87.21264 81.82046
#
# Poissons Ratio (x) = 0.36322 0.28745
# Poissons Ratio (y) = 0.30578 0.23401
# Poissons Ratio (z) = 0.25794 0.24943
#
# Static dielectric constant tensor:
#      x y z
#    x 3.606660 0.000000 0.000000 
#    y 0.000000 3.514110 0.000000 
#    z 0.000000 0.000000 3.630530 
# 
# 
# High freq. dielectric constant tensor:
#      x y z
#    x 1.776590 0.000000 0.000000 
#    y 0.000000 1.769590 0.000000 
#    z 0.000000 0.000000 1.775080 
# 
# From -- ./inp_files/3884.got.cif
#   From: 2010.03.12/outbox.cif.g09.slc.cpg/sg57_2_cif.got.tgz:3884.got - 2010.04.16 15:48:40.
