data_PCOD8233396
_publ_section_title
;
Structure prediction by ZEFSAII (Michael W. Deem and Ramdas Pophale) SiO2 
 PCOD8233396
Probable space group: P B C M
;
_chemical_formula_sum "Si O2"
_cell_formula_units_Z 40
_cell_length_a 9.019109
_cell_length_b 9.803377
_cell_length_c 22.888727
_cell_angle_alpha 90.000000
_cell_angle_beta 90.000000
_cell_angle_gamma 90.000000
_cell_volume 2023.769186
_symmetry_space_group_name_H-M "P B C M"
_symmetry_group_IT_number 57
_symmetry_cell_setting 'orthorhombic'
loop_
_space_group_symop_operation_xyz
x,y,z
-x,-y,1/2+z
x,1/2-y,-z
-x,1/2+y,1/2-z
-x,-y,-z
x,y,1/2-z
-x,1/2+y,z
x,1/2-y,1/2+z
loop_
_atom_site_type_symbol
_atom_site_label
_atom_site_fract_x
_atom_site_fract_y
_atom_site_fract_z
Si Si1 0.838407 0.091726 0.250000
Si Si2 0.314664 0.261561 0.934683
Si Si3 0.136115 0.921220 0.250000
Si Si4 0.343378 0.732663 0.062760
Si Si5 0.336336 0.016750 0.639144
Si Si6 0.678841 0.028189 0.861110
O O1 0.873220 0.254874 0.250000
O O2 0.746000 0.052513 0.192921
O O3 0.977559 0.991820 0.250000
O O4 0.485976 0.221613 0.942218
O O5 0.256876 0.154493 0.885007
O O6 0.288388 0.409765 0.907858
O O7 0.240668 0.250000 0.000000
O O8 0.221601 0.985643 0.304485
O O9 0.327427 0.578475 0.082502
O O10 0.266349 0.832763 0.108722
O O11 0.265575 0.750000 0.000000
O O12 0.507128 0.035557 0.658645
#
# Coordination Sequence:
#
# PCOD8233396 Si02
#       6
#     4   8   4   8   8   8
#     4  12  27  44  60  82 116 160 205 250 294 344
#     4   9  18  31  57  96 126 145 182 235 296 357
#     4  12  27  44  60  82 116 160 205 250 294 344
#     4   9  16  31  57  90 122 153 186 237 296 347
#     4  10  20  37  62  90 120 153 194 243 291 347
#     4  10  20  37  62  90 120 153 194 243 291 347
#
# _framework density 19.7651
#
# number of rings (size 3 to 8) (size 9 to 14) (size 15 to 20)
#    0.000    2.000    2.000    1.800    2.800    4.800 
#    0.000    0.000    0.000    7.200    0.000    0.000 
#    0.000    0.000    0.000    0.000    0.000    0.000 
#
# Total GULP energy -495719.941605 kJ/mol
# GULP energy per Si atom -12392.998540 kJ/mol
# Density = 1.972011 g / cm^3
# Si number density = 19.765100 Si / 1000 Ang^3
#
#
#
# Elastic Constant Matrix: (Units=GPa)
#
#
# Indices 1 2 3 4 5 6 
#
# 1 56.0567 24.0154 35.8424 0.0000 0.0000 0.0000
# 2 24.0154 96.2884 19.8938 0.0000 0.0000 0.0000
# 3 35.8424 19.8938 116.8354 0.0000 0.0000 0.0000
# 4 0.0000 0.0000 0.0000 35.6397 0.0000 0.0000
# 5 0.0000 0.0000 0.0000 0.0000 -9.8473 0.0000
# 6 0.0000 0.0000 0.0000 0.0000 0.0000 21.5669
#
#
#
# Elastic Compliance Matrix: (Units=1/GPa)
#
#
# Indices 1 2 3 4 5 6 
#
# 1 0.024034 -0.004634 -0.006584 0.000000 0.000000 0.000000
# 2 -0.004634 0.011658 -0.000563 0.000000 0.000000 0.000000
# 3 -0.006584 -0.000563 0.010675 0.000000 0.000000 0.000000
# 4 0.000000 0.000000 0.000000 0.028059 0.000000 0.000000
# 5 0.000000 0.000000 0.000000 0.000000 -0.101550 0.000000
# 6 0.000000 0.000000 0.000000 0.000000 0.000000 0.046367
#
#
# Mechanical properties :
#
#
# Convention : Reuss Voigt Hill
#
# Bulk Modulus (GPa) = 43.85262 47.63152 45.74207
# Shear Modulus (GPa) = 99.19388 22.10046 60.64717
#
# Velocity S-wave (km/s) = 7.09192 3.34751 5.54532
# Velocity P-wave (km/s) = 9.44963 6.25238 8.01211
#
# Compressibility (1/GPa) = 0.02280366
#
# Stress axis : x y z
#
# Youngs Moduli (GPa) = 41.60739 85.78058 93.67843
#
# Poissons Ratio (x) = 0.39751 0.61679
# Poissons Ratio (y) = 0.19281 0.05277
# Poissons Ratio (z) = 0.27395 0.04832
#
# Static dielectric constant tensor:
#      x y z
#    x 3.125720 0.000000 0.000000 
#    y 0.000000 3.704730 0.000000 
#    z 0.000000 0.000000 3.764760 
# 
# 
# High freq. dielectric constant tensor:
#      x y z
#    x 1.709930 0.000000 0.000000 
#    y 0.000000 1.788690 0.000000 
#    z 0.000000 0.000000 1.790520 
# 
# From -- ./inp_files/24173.got.cif
#   From: 2010.03.12/outbox.cif.g09.slc.cpg/sg57_13_cif.got.tgz:24173.got - 2010.04.16 15:48:40.
