data_PCOD8233746
_publ_section_title
;
Structure prediction by ZEFSAII (Michael W. Deem and Ramdas Pophale) SiO2 
 PCOD8233746
Probable space group: P B C M
;
_chemical_formula_sum "Si O2"
_cell_formula_units_Z 56
_cell_length_a 16.433693
_cell_length_b 9.110522
_cell_length_c 17.388357
_cell_angle_alpha 90.000000
_cell_angle_beta 90.000000
_cell_angle_gamma 90.000000
_cell_volume 2603.376492
_symmetry_space_group_name_H-M "P B C M"
_symmetry_group_IT_number 57
_symmetry_cell_setting 'orthorhombic'
loop_
_space_group_symop_operation_xyz
x,y,z
-x,-y,1/2+z
x,1/2-y,-z
-x,1/2+y,1/2-z
-x,-y,-z
x,y,1/2-z
-x,1/2+y,z
x,1/2-y,1/2+z
loop_
_atom_site_type_symbol
_atom_site_label
_atom_site_fract_x
_atom_site_fract_y
_atom_site_fract_z
Si Si1 0.780884 0.606427 0.165391
Si Si2 0.248545 0.070736 0.841649
Si Si3 0.608857 0.503382 0.954969
Si Si4 0.916056 0.408579 0.659228
Si Si5 0.504687 0.248938 0.604216
Si Si6 0.927662 0.080635 0.842105
Si Si7 0.387636 0.494013 0.631120
O O1 0.815030 0.643009 0.250000
O O2 0.764677 0.763886 0.126183
O O3 0.851035 0.511599 0.123661
O O4 0.697496 0.514251 0.175274
O O5 0.268257 0.065129 0.750000
O O6 0.322472 0.002737 0.889547
O O7 0.169610 0.977960 0.864154
O O8 0.548817 0.640672 0.947677
O O9 0.559456 0.352769 0.948786
O O10 0.640754 0.509929 0.041800
O O11 0.925021 0.402403 0.750000
O O12 0.989510 0.507725 0.626618
O O13 0.922360 0.245190 0.624338
O O14 0.444561 0.353641 0.654188
O O15 0.564313 0.143330 0.654867
O O16 0.923973 0.086202 0.750000
#
# Coordination Sequence:
#
# PCOD8233746 Si02
#       7
#     8   8   8   8   8   8   8
#     4  10  21  35  51  78 113 141 171 217 268 313
#     4  10  21  35  51  78 113 141 171 217 268 313
#     4  11  20  36  57  78 102 138 182 223 263 310
#     4   9  17  31  53  78 105 140 177 212 254 310
#     4  10  21  36  57  78 101 136 185 228 259 308
#     4   9  17  31  53  78 105 140 177 212 254 310
#     4  11  20  36  57  78 102 138 182 223 263 310
#
# _framework density 21.510525999999999
#
# number of rings (size 3 to 8) (size 9 to 14) (size 15 to 20)
#    0.000    2.000    1.429    4.286    2.000    3.429 
#    0.000    4.286    0.000    0.857    0.000    0.000 
#    0.000    0.000    0.000    0.000    0.000    0.000 
#
# Total GULP energy -694078.631730 kJ/mol
# GULP energy per Si atom -12394.261281 kJ/mol
# Density = 2.146157 g / cm^3
# Si number density = 21.510526 Si / 1000 Ang^3
#
#
#
# Elastic Constant Matrix: (Units=GPa)
#
#
# Indices 1 2 3 4 5 6 
#
# 1 170.0045 80.9068 30.0318 0.0000 0.0000 0.0000
# 2 80.9068 143.8700 15.3555 0.0000 0.0000 0.0000
# 3 30.0318 15.3555 35.7714 0.0000 0.0000 0.0000
# 4 0.0000 0.0000 0.0000 5.8962 0.0000 0.0000
# 5 0.0000 0.0000 0.0000 0.0000 -3.6758 0.0000
# 6 0.0000 0.0000 0.0000 0.0000 0.0000 82.9467
#
#
#
# Elastic Compliance Matrix: (Units=1/GPa)
#
#
# Indices 1 2 3 4 5 6 
#
# 1 0.009001 -0.004460 -0.005643 0.000000 0.000000 0.000000
# 2 -0.004460 0.009494 -0.000331 0.000000 0.000000 0.000000
# 3 -0.005643 -0.000331 0.032835 0.000000 0.000000 0.000000
# 4 0.000000 0.000000 0.000000 0.169601 0.000000 0.000000
# 5 0.000000 0.000000 0.000000 0.000000 -0.272051 0.000000
# 6 0.000000 0.000000 0.000000 0.000000 0.000000 0.012056
#
#
# Mechanical properties :
#
#
# Convention : Reuss Voigt Hill
#
# Bulk Modulus (GPa) = 32.82692 66.91490 49.87091
# Shear Modulus (GPa) = -621.75638 31.92353 -294.91642
#
# Velocity S-wave (km/s) = -17.01984 3.85657 -11.72181
# Velocity P-wave (km/s) = 19.25979 7.14187 12.64779
#
# Compressibility (1/GPa) = 0.03046280
#
# Stress axis : x y z
#
# Youngs Moduli (GPa) = 111.09297 105.32854 30.45545
#
# Poissons Ratio (x) = 0.46975 0.17185
# Poissons Ratio (y) = 0.49545 0.01009
# Poissons Ratio (z) = 0.62687 0.03489
#
# Static dielectric constant tensor:
#      x y z
#    x 4.016440 0.000000 0.000000 
#    y 0.000000 4.310660 0.000000 
#    z 0.000000 0.000000 3.151850 
# 
# 
# High freq. dielectric constant tensor:
#      x y z
#    x 1.852780 0.000000 0.000000 
#    y 0.000000 1.865220 0.000000 
#    z 0.000000 0.000000 1.780240 
# 
# From -- ./inp_files/25387.got.cif
#   From: 2010.03.12/outbox.cif.g09.slc.cpg/sg57_13_cif.got.tgz:25387.got - 2010.04.16 15:48:40.
