data_PCOD8233690
_publ_section_title
;
Structure prediction by ZEFSAII (Michael W. Deem and Ramdas Pophale) SiO2 
 PCOD8233690
Probable space group: P B C M
;
_chemical_formula_sum "Si O2"
_cell_formula_units_Z 28
_cell_length_a 6.702777
_cell_length_b 9.040188
_cell_length_c 17.624809
_cell_angle_alpha 90.000000
_cell_angle_beta 90.000000
_cell_angle_gamma 90.000000
_cell_volume 1067.964096
_symmetry_space_group_name_H-M "P B C M"
_symmetry_group_IT_number 57
_symmetry_cell_setting 'orthorhombic'
loop_
_space_group_symop_operation_xyz
x,y,z
-x,-y,1/2+z
x,1/2-y,-z
-x,1/2+y,1/2-z
-x,-y,-z
x,y,1/2-z
-x,1/2+y,z
x,1/2-y,1/2+z
loop_
_atom_site_type_symbol
_atom_site_label
_atom_site_fract_x
_atom_site_fract_y
_atom_site_fract_z
Si Si1 0.031072 0.769588 0.409823
Si Si2 0.593263 0.750000 0.000000
Si Si3 0.639225 0.013284 0.592731
Si Si4 0.771652 0.509221 0.662499
O O1 0.047104 0.750000 0.500000
O O2 0.086610 0.622106 0.365792
O O3 0.174308 0.898669 0.373568
O O4 0.814967 0.841594 0.386827
O O5 0.443157 0.626811 0.969600
O O6 0.724583 0.856137 0.943008
O O7 0.463601 0.971410 0.651715
O O8 0.814451 0.540025 0.750000
#
# Coordination Sequence:
#
# PCOD8233690 Si02
#       4
#     8   4   8   8
#     4  12  26  48  77 107 141 194 255 306 355 435
#     4  10  20  40  72 106 132 174 246 298 344 418
#     4  11  22  45  71 103 144 185 238 303 358 427
#     4  12  29  46  69 108 151 194 240 299 380 444
#
# _framework density 26.218111
#
# number of rings (size 3 to 8) (size 9 to 14) (size 15 to 20)
#    0.000    0.571    4.286    3.429    6.000    2.286 
#    0.000    0.000    0.000    0.000    0.000    0.000 
#    0.000    0.000    0.000    0.000    0.000    0.000 
#
# Total GULP energy -347023.442693 kJ/mol
# GULP energy per Si atom -12393.694382 kJ/mol
# Density = 2.615844 g / cm^3
# Si number density = 26.218111 Si / 1000 Ang^3
#
#
#
# Elastic Constant Matrix: (Units=GPa)
#
#
# Indices 1 2 3 4 5 6 
#
# 1 88.6401 35.6547 17.8886 0.0000 0.0000 0.0000
# 2 35.6547 196.1756 56.1479 0.0000 0.0000 0.0000
# 3 17.8886 56.1479 121.7848 0.0000 0.0000 0.0000
# 4 0.0000 0.0000 0.0000 28.8270 0.0000 0.0000
# 5 0.0000 0.0000 0.0000 0.0000 23.0609 0.0000
# 6 0.0000 0.0000 0.0000 0.0000 0.0000 46.3051
#
#
#
# Elastic Compliance Matrix: (Units=1/GPa)
#
#
# Indices 1 2 3 4 5 6 
#
# 1 0.012255 -0.001972 -0.000891 0.000000 0.000000 0.000000
# 2 -0.001972 0.006190 -0.002564 0.000000 0.000000 0.000000
# 3 -0.000891 -0.002564 0.009524 0.000000 0.000000 0.000000
# 4 0.000000 0.000000 0.000000 0.034690 0.000000 0.000000
# 5 0.000000 0.000000 0.000000 0.000000 0.043363 0.000000
# 6 0.000000 0.000000 0.000000 0.000000 0.000000 0.021596
#
#
# Mechanical properties :
#
#
# Convention : Reuss Voigt Hill
#
# Bulk Modulus (GPa) = 58.43017 69.55366 63.99192
# Shear Modulus (GPa) = 34.67966 39.43256 37.05611
#
# Velocity S-wave (km/s) = 3.64089 3.88238 3.76357
# Velocity P-wave (km/s) = 6.32529 6.83254 6.58380
#
# Compressibility (1/GPa) = 0.01711445
#
# Stress axis : x y z
#
# Youngs Moduli (GPa) = 81.60139 161.55594 104.99599
#
# Poissons Ratio (x) = 0.31864 0.09352
# Poissons Ratio (y) = 0.16095 0.26921
# Poissons Ratio (z) = 0.07268 0.41424
#
# Static dielectric constant tensor:
#      x y z
#    x 5.816480 0.000000 0.000000 
#    y 0.000000 5.482090 0.000000 
#    z 0.000000 0.000000 4.168730 
# 
# 
# High freq. dielectric constant tensor:
#      x y z
#    x 2.091760 0.000000 0.000000 
#    y 0.000000 2.102810 0.000000 
#    z 0.000000 0.000000 1.997020 
# 
# From -- ./inp_files/20427.got.cif
#   From: 2010.03.12/outbox.cif.g09.slc.cpg/sg57_11_cif.got.tgz:20427.got - 2010.04.16 15:48:40.
