data_PCOD8233175
_publ_section_title
;
Structure prediction by ZEFSAII (Michael W. Deem and Ramdas Pophale) SiO2 
 PCOD8233175
Probable space group: P B C M
;
_chemical_formula_sum "Si O2"
_cell_formula_units_Z 64
_cell_length_a 11.861156
_cell_length_b 31.440823
_cell_length_c 8.868830
_cell_angle_alpha 90.000000
_cell_angle_beta 90.000000
_cell_angle_gamma 90.000000
_cell_volume 3307.404050
_symmetry_space_group_name_H-M "P B C M"
_symmetry_group_IT_number 57
_symmetry_cell_setting 'orthorhombic'
loop_
_space_group_symop_operation_xyz
x,y,z
-x,-y,1/2+z
x,1/2-y,-z
-x,1/2+y,1/2-z
-x,-y,-z
x,y,1/2-z
-x,1/2+y,z
x,1/2-y,1/2+z
loop_
_atom_site_type_symbol
_atom_site_label
_atom_site_fract_x
_atom_site_fract_y
_atom_site_fract_z
Si Si1 0.735727 0.207090 0.073064
Si Si2 0.005835 0.546159 0.924174
Si Si3 0.880963 0.622782 0.076629
Si Si4 0.593306 0.365653 0.425515
Si Si5 0.371973 0.392943 0.576057
Si Si6 0.740144 0.447963 0.078636
Si Si7 0.612370 0.982281 0.073021
Si Si8 0.993640 0.293659 0.927811
O O1 0.724517 0.211102 0.250000
O O2 0.864445 0.199389 0.022903
O O3 0.688309 0.250000 0.000000
O O4 0.660598 0.169029 0.016521
O O5 0.975124 0.540085 0.750000
O O6 0.130782 0.566016 0.946013
O O7 0.000000 0.500000 0.000000
O O8 0.918469 0.579922 0.992117
O O9 0.916217 0.616483 0.250000
O O10 0.747470 0.630695 0.060097
O O11 0.939127 0.665282 0.009725
O O12 0.592138 0.354179 0.250000
O O13 0.466325 0.366445 0.487395
O O14 0.654451 0.410129 0.457294
O O15 0.408317 0.397859 0.750000
O O16 0.355546 0.438320 0.501374
O O17 0.722258 0.464130 0.250000
O O18 0.714560 0.485793 0.962304
O O19 0.594962 0.976244 0.250000
O O20 0.500000 0.000000 0.000000
O O21 0.008197 0.289417 0.750000
O O22 0.041113 0.250000 0.000000
#
# Coordination Sequence:
#
# PCOD8233175 Si02
#       8
#     8   8   8   8   8   8   8   8
#     4  10  20  36  60  88 118 147 181 227 283 344
#     4  11  23  38  57  83 116 154 195 241 293 349
#     4  10  22  40  60  84 118 157 197 244 296 351
#     4  11  22  37  58  83 112 146 188 234 283 338
#     4  11  23  39  58  81 114 155 197 241 289 341
#     4  10  22  38  56  81 113 147 187 237 287 338
#     4  12  23  36  56  81 111 149 194 240 288 342
#     4   9  19  37  62  91 119 150 188 236 291 348
#
# _framework density 19.350524
#
# number of rings (size 3 to 8) (size 9 to 14) (size 15 to 20)
#    0.000    1.500    1.250    4.125    0.000    6.500 
#    0.000    0.625    0.000    1.500    0.000    0.000 
#    0.000    0.000    0.000    0.000    0.000    0.000 
#
# Total GULP energy -793830.445112 kJ/mol
# GULP energy per Si atom -12403.600705 kJ/mol
# Density = 1.930648 g / cm^3
# Si number density = 19.350524 Si / 1000 Ang^3
#
#
#
# Elastic Constant Matrix: (Units=GPa)
#
#
# Indices 1 2 3 4 5 6 
#
# 1 88.2769 35.1155 29.9657 0.0000 0.0000 0.0000
# 2 35.1155 103.3090 27.1934 0.0000 0.0000 0.0000
# 3 29.9657 27.1934 48.5375 0.0000 0.0000 0.0000
# 4 0.0000 0.0000 0.0000 35.7609 0.0000 0.0000
# 5 0.0000 0.0000 0.0000 0.0000 29.6915 0.0000
# 6 0.0000 0.0000 0.0000 0.0000 0.0000 50.7450
#
#
#
# Elastic Compliance Matrix: (Units=1/GPa)
#
#
# Indices 1 2 3 4 5 6 
#
# 1 0.015160 -0.003155 -0.007592 0.000000 0.000000 0.000000
# 2 -0.003155 0.012011 -0.004781 0.000000 0.000000 0.000000
# 3 -0.007592 -0.004781 0.027968 0.000000 0.000000 0.000000
# 4 0.000000 0.000000 0.000000 0.027964 0.000000 0.000000
# 5 0.000000 0.000000 0.000000 0.000000 0.033680 0.000000
# 6 0.000000 0.000000 0.000000 0.000000 0.000000 0.019706
#
#
# Mechanical properties :
#
#
# Convention : Reuss Voigt Hill
#
# Bulk Modulus (GPa) = 41.52291 47.18582 44.35437
# Shear Modulus (GPa) = 28.47833 33.09607 30.78720
#
# Velocity S-wave (km/s) = 3.84045 4.14012 3.99309
# Velocity P-wave (km/s) = 6.41640 6.87690 6.65064
#
# Compressibility (1/GPa) = 0.02408309
#
# Stress axis : x y z
#
# Youngs Moduli (GPa) = 65.96326 83.26010 35.75453
#
# Poissons Ratio (x) = 0.26265 0.27145
# Poissons Ratio (y) = 0.20809 0.17096
# Poissons Ratio (z) = 0.50079 0.39810
#
# Static dielectric constant tensor:
#      x y z
#    x 3.771010 0.000000 0.000000 
#    y 0.000000 2.194160 0.000000 
#    z 0.000000 0.000000 3.308620 
# 
# 
# High freq. dielectric constant tensor:
#      x y z
#    x 1.758110 0.000000 0.000000 
#    y 0.000000 1.747850 0.000000 
#    z 0.000000 0.000000 1.759950 
# 
# From -- ./inp_files/3847.got.cif
#   From: 2010.03.12/outbox.cif.g09.slc.cpg/sg57_2_cif.got.tgz:3847.got - 2010.04.16 15:48:40.
