data_PCOD8233906
_publ_section_title
;
Structure prediction by ZEFSAII (Michael W. Deem and Ramdas Pophale) SiO2 
 PCOD8233906
Probable space group: P B C M
;
_chemical_formula_sum "Si O2"
_cell_formula_units_Z 56
_cell_length_a 16.323300
_cell_length_b 19.566449
_cell_length_c 8.765566
_cell_angle_alpha 90.000000
_cell_angle_beta 90.000000
_cell_angle_gamma 90.000000
_cell_volume 2799.625508
_symmetry_space_group_name_H-M "P B C M"
_symmetry_group_IT_number 57
_symmetry_cell_setting 'orthorhombic'
loop_
_space_group_symop_operation_xyz
x,y,z
-x,-y,1/2+z
x,1/2-y,-z
-x,1/2+y,1/2-z
-x,-y,-z
x,y,1/2-z
-x,1/2+y,z
x,1/2-y,1/2+z
loop_
_atom_site_type_symbol
_atom_site_label
_atom_site_fract_x
_atom_site_fract_y
_atom_site_fract_z
Si Si1 0.483011 0.181943 0.928927
Si Si2 0.700100 0.680722 0.570570
Si Si3 0.568423 0.452053 0.429494
Si Si4 0.997250 0.576058 0.430692
Si Si5 0.168004 0.427448 0.070488
Si Si6 0.753646 0.053038 0.927730
Si Si7 0.866495 0.325399 0.427920
O O1 0.478701 0.190069 0.750000
O O2 0.391525 0.167251 0.992656
O O3 0.544430 0.123567 0.980637
O O4 0.520279 0.250000 0.000000
O O5 0.736714 0.750000 0.500000
O O6 0.701089 0.689282 0.750000
O O7 0.753859 0.616581 0.519365
O O8 0.500000 0.500000 0.500000
O O9 0.564402 0.461973 0.250000
O O10 0.661337 0.461450 0.488806
O O11 0.008463 0.571745 0.250000
O O12 0.908027 0.604127 0.477836
O O13 0.000000 0.500000 0.500000
O O14 0.061843 0.629713 0.497483
O O15 0.149991 0.423913 0.250000
O O16 0.184532 0.505880 0.023704
O O17 0.760517 0.033584 0.750000
O O18 0.781605 0.131994 0.951891
O O19 0.858426 0.250000 0.500000
O O20 0.886294 0.316283 0.250000
#
# Coordination Sequence:
#
# PCOD8233906 Si02
#       7
#     8   8   8   8   8   8   8
#     4   9  18  34  54  77 110 149 192 239 291 349
#     4   9  19  34  53  80 113 151 192 240 293 351
#     4  10  21  37  57  85 119 155 199 254 306 360
#     4  12  24  41  65  92 122 159 201 249 303 365
#     4  11  22  37  61  89 119 155 199 244 297 362
#     4  10  22  39  60  86 119 159 202 249 306 365
#     4  11  24  43  65  92 126 164 208 258 310 366
#
# _framework density 20.002675
#
# number of rings (size 3 to 8) (size 9 to 14) (size 15 to 20)
#    0.000    1.714    1.429    3.000    0.000    5.143 
#    0.000    4.286    0.000    0.000    0.000    0.000 
#    0.000    0.000    0.000    0.000    0.000    0.000 
#
# Total GULP energy -694282.209303 kJ/mol
# GULP energy per Si atom -12397.896595 kJ/mol
# Density = 1.995715 g / cm^3
# Si number density = 20.002675 Si / 1000 Ang^3
#
#
#
# Elastic Constant Matrix: (Units=GPa)
#
#
# Indices 1 2 3 4 5 6 
#
# 1 111.7897 45.8192 37.6639 0.0000 0.0000 0.0000
# 2 45.8192 108.6013 42.1457 0.0000 0.0000 0.0000
# 3 37.6639 42.1457 74.9757 0.0000 0.0000 0.0000
# 4 0.0000 0.0000 0.0000 37.4705 0.0000 0.0000
# 5 0.0000 0.0000 0.0000 0.0000 24.2043 0.0000
# 6 0.0000 0.0000 0.0000 0.0000 0.0000 36.4183
#
#
#
# Elastic Compliance Matrix: (Units=1/GPa)
#
#
# Indices 1 2 3 4 5 6 
#
# 1 0.011667 -0.003387 -0.003957 0.000000 0.000000 0.000000
# 2 -0.003387 0.012760 -0.005472 0.000000 0.000000 0.000000
# 3 -0.003957 -0.005472 0.018401 0.000000 0.000000 0.000000
# 4 0.000000 0.000000 0.000000 0.026688 0.000000 0.000000
# 5 0.000000 0.000000 0.000000 0.000000 0.041315 0.000000
# 6 0.000000 0.000000 0.000000 0.000000 0.000000 0.027459
#
#
# Mechanical properties :
#
#
# Convention : Reuss Voigt Hill
#
# Bulk Modulus (GPa) = 58.14755 60.73603 59.44179
# Shear Modulus (GPa) = 29.47207 30.93449 30.20328
#
# Velocity S-wave (km/s) = 3.84266 3.93685 3.89004
# Velocity P-wave (km/s) = 6.98721 7.14807 7.06810
#
# Compressibility (1/GPa) = 0.01719763
#
# Stress axis : x y z
#
# Youngs Moduli (GPa) = 85.71470 78.36889 54.34435
#
# Poissons Ratio (x) = 0.26540 0.21504
# Poissons Ratio (y) = 0.29028 0.29735
# Poissons Ratio (z) = 0.33918 0.42880
#
# Static dielectric constant tensor:
#      x y z
#    x 3.895470 0.000000 0.000000 
#    y 0.000000 3.728290 0.000000 
#    z 0.000000 0.000000 3.584700 
# 
# 
# High freq. dielectric constant tensor:
#      x y z
#    x 1.789040 0.000000 0.000000 
#    y 0.000000 1.782470 0.000000 
#    z 0.000000 0.000000 1.776030 
# 
# From -- ./inp_files/5137.got.cif
#   From: 2010.03.12/outbox.cif.g09.slc.cpg/sg57_3_cif.got.tgz:5137.got - 2010.04.16 15:48:40.
