data_PCOD8233027
_publ_section_title
;
Structure prediction by ZEFSAII (Michael W. Deem and Ramdas Pophale) SiO2 
 PCOD8233027
Probable space group: P B C M
;
_chemical_formula_sum "Si O2"
_cell_formula_units_Z 48
_cell_length_a 30.423060
_cell_length_b 9.479261
_cell_length_c 8.499635
_cell_angle_alpha 90.000000
_cell_angle_beta 90.000000
_cell_angle_gamma 90.000000
_cell_volume 2451.193811
_symmetry_space_group_name_H-M "P B C M"
_symmetry_group_IT_number 57
_symmetry_cell_setting 'orthorhombic'
loop_
_space_group_symop_operation_xyz
x,y,z
-x,-y,1/2+z
x,1/2-y,-z
-x,1/2+y,1/2-z
-x,-y,-z
x,y,1/2-z
-x,1/2+y,z
x,1/2-y,1/2+z
loop_
_atom_site_type_symbol
_atom_site_label
_atom_site_fract_x
_atom_site_fract_y
_atom_site_fract_z
Si Si1 0.460287 0.092210 0.936005
Si Si2 0.616855 0.093358 0.936077
Si Si3 0.113871 0.097867 0.563243
Si Si4 0.960583 0.406883 0.064301
Si Si5 0.787060 0.602268 0.935140
Si Si6 0.710196 0.097743 0.062980
O O1 0.462830 0.097452 0.750000
O O2 0.463580 0.250000 0.000000
O O3 0.500000 0.000000 0.000000
O O4 0.415186 0.021029 0.989375
O O5 0.611140 0.095497 0.750000
O O6 0.606755 0.250000 0.000000
O O7 0.665533 0.042283 0.983434
O O8 0.097999 0.250000 0.500000
O O9 0.108861 0.096554 0.750000
O O10 0.163705 0.066916 0.505760
O O11 0.085296 0.973817 0.489281
O O12 0.963256 0.402244 0.250000
O O13 0.964697 0.250000 0.000000
O O14 0.000000 0.500000 0.000000
O O15 0.787257 0.608092 0.750000
O O16 0.751630 0.491370 0.997040
O O17 0.770706 0.750000 0.000000
O O18 0.704059 0.096565 0.250000
O O19 0.721472 0.250000 0.000000
#
# Coordination Sequence:
#
# PCOD8233027 Si02
#       6
#     8   8   8   8   8   8
#     4  12  25  43  64  90 120 154 193 238 287 343
#     4  11  22  39  61  87 117 155 196 241 291 344
#     4  10  20  38  60  86 117 153 193 238 287 342
#     4  12  25  42  62  87 116 151 190 235 285 341
#     4   9  20  36  57  83 115 151 192 236 285 340
#     4  10  20  36  56  83 115 152 194 240 288 342
#
# _framework density 19.582294000000001
#
# number of rings (size 3 to 8) (size 9 to 14) (size 15 to 20)
#    0.000    1.333    0.000    7.500    0.000    3.333 
#    0.000    3.333    0.000    0.000    0.000    0.000 
#    0.000    0.000    0.000    0.000    0.000    0.000 
#
# Total GULP energy -595332.431185 kJ/mol
# GULP energy per Si atom -12402.758983 kJ/mol
# Density = 1.953772 g / cm^3
# Si number density = 19.582294 Si / 1000 Ang^3
#
#
#
# Elastic Constant Matrix: (Units=GPa)
#
#
# Indices 1 2 3 4 5 6 
#
# 1 144.0523 106.0238 51.2772 0.0000 0.0000 0.0000
# 2 106.0238 160.4119 62.7692 0.0000 0.0000 0.0000
# 3 51.2772 62.7692 142.4579 0.0000 0.0000 0.0000
# 4 0.0000 0.0000 0.0000 38.3431 0.0000 0.0000
# 5 0.0000 0.0000 0.0000 0.0000 31.8374 0.0000
# 6 0.0000 0.0000 0.0000 0.0000 0.0000 49.6089
#
#
#
# Elastic Compliance Matrix: (Units=1/GPa)
#
#
# Indices 1 2 3 4 5 6 
#
# 1 0.013668 -0.008590 -0.001135 0.000000 0.000000 0.000000
# 2 -0.008590 0.012931 -0.002606 0.000000 0.000000 0.000000
# 3 -0.001135 -0.002606 0.008576 0.000000 0.000000 0.000000
# 4 0.000000 0.000000 0.000000 0.026080 0.000000 0.000000
# 5 0.000000 0.000000 0.000000 0.000000 0.031410 0.000000
# 6 0.000000 0.000000 0.000000 0.000000 0.000000 0.020158
#
#
# Mechanical properties :
#
#
# Convention : Reuss Voigt Hill
#
# Bulk Modulus (GPa) = 95.10810 98.56250 96.83530
# Shear Modulus (GPa) = 35.46386 39.08136 37.27261
#
# Velocity S-wave (km/s) = 4.26022 4.47223 4.36751
# Velocity P-wave (km/s) = 8.53658 8.78120 8.65975
#
# Compressibility (1/GPa) = 0.01051435
#
# Stress axis : x y z
#
# Youngs Moduli (GPa) = 73.16315 77.33381 116.60070
#
# Poissons Ratio (x) = 0.66428 0.13234
# Poissons Ratio (y) = 0.62845 0.30383
# Poissons Ratio (z) = 0.08304 0.20151
#
# Static dielectric constant tensor:
#      x y z
#    x 3.944700 0.000000 0.000000 
#    y 0.000000 3.806000 0.000000 
#    z 0.000000 0.000000 2.822340 
# 
# 
# High freq. dielectric constant tensor:
#      x y z
#    x 1.779620 0.000000 0.000000 
#    y 0.000000 1.765790 0.000000 
#    z 0.000000 0.000000 1.779850 
# 
# From -- ./inp_files/10006.got.cif
#   From: 2010.03.12/outbox.cif.g09.slc.cpg/sg57_6_cif.got.tgz:10006.got - 2010.04.16 15:48:40.
