data_PCOD8233561
_publ_section_title
;
Structure prediction by ZEFSAII (Michael W. Deem and Ramdas Pophale) SiO2 
 PCOD8233561
Probable space group: P B C M
;
_chemical_formula_sum "Si O2"
_cell_formula_units_Z 40
_cell_length_a 8.540038
_cell_length_b 17.820813
_cell_length_c 12.355632
_cell_angle_alpha 90.000000
_cell_angle_beta 90.000000
_cell_angle_gamma 90.000000
_cell_volume 1880.408826
_symmetry_space_group_name_H-M "P B C M"
_symmetry_group_IT_number 57
_symmetry_cell_setting 'orthorhombic'
loop_
_space_group_symop_operation_xyz
x,y,z
-x,-y,1/2+z
x,1/2-y,-z
-x,1/2+y,1/2-z
-x,-y,-z
x,y,1/2-z
-x,1/2+y,z
x,1/2-y,1/2+z
loop_
_atom_site_type_symbol
_atom_site_label
_atom_site_fract_x
_atom_site_fract_y
_atom_site_fract_z
Si Si1 0.996614 0.698859 0.250000
Si Si2 0.613376 0.935882 0.130606
Si Si3 0.269698 0.537594 0.953016
Si Si4 0.488889 0.652619 0.250000
Si Si5 0.792024 0.947269 0.750000
Si Si6 0.302658 0.202465 0.750000
Si Si7 0.242920 0.819914 0.929744
O O1 0.100660 0.708773 0.143476
O O2 0.919582 0.617336 0.250000
O O3 0.871288 0.765170 0.250000
O O4 0.613489 0.975172 0.250000
O O5 0.441423 0.936317 0.081635
O O6 0.670677 0.849352 0.143216
O O7 0.731122 0.978430 0.051360
O O8 0.178571 0.499553 0.853977
O O9 0.182286 0.613061 0.992276
O O10 0.616163 0.586210 0.250000
O O11 0.569280 0.733139 0.250000
O O12 0.384486 0.646021 0.142089
O O13 0.303925 0.750000 0.000000
#
# Coordination Sequence:
#
# PCOD8233561 Si02
#       7
#     4   8   8   4   4   4   8
#     4  10  26  44  60  88 130 170 216 254 300 380
#     4   9  19  34  64 100 126 154 198 264 325 367
#     4  11  21  37  64  95 129 159 203 261 321 379
#     4  10  20  38  64  92 122 154 214 262 312 368
#     4  11  23  41  65  97 125 159 211 269 316 370
#     4   9  19  39  65  91 123 161 207 261 308 368
#     4  11  25  41  60  87 126 174 207 255 311 374
#
# _framework density 21.27197
#
# number of rings (size 3 to 8) (size 9 to 14) (size 15 to 20)
#    0.600    1.200    1.000    3.600    2.800    4.000 
#    0.000    6.000    0.000    0.000    0.000    0.000 
#    0.000    0.000    0.000    0.000    0.000    0.000 
#
# Total GULP energy -496027.987612 kJ/mol
# GULP energy per Si atom -12400.699690 kJ/mol
# Density = 2.122355 g / cm^3
# Si number density = 21.271970 Si / 1000 Ang^3
#
#
#
# Elastic Constant Matrix: (Units=GPa)
#
#
# Indices 1 2 3 4 5 6 
#
# 1 42.3654 -2.8651 18.2812 0.0000 0.0000 0.0000
# 2 -2.8651 103.2460 52.7763 0.0000 0.0000 0.0000
# 3 18.2812 52.7763 138.1016 0.0000 0.0000 0.0000
# 4 0.0000 0.0000 0.0000 46.7583 0.0000 0.0000
# 5 0.0000 0.0000 0.0000 0.0000 6.1493 0.0000
# 6 0.0000 0.0000 0.0000 0.0000 0.0000 23.3365
#
#
#
# Elastic Compliance Matrix: (Units=1/GPa)
#
#
# Indices 1 2 3 4 5 6 
#
# 1 0.025788 0.003058 -0.004582 0.000000 0.000000 0.000000
# 2 0.003058 0.012400 -0.005143 0.000000 0.000000 0.000000
# 3 -0.004582 -0.005143 0.009813 0.000000 0.000000 0.000000
# 4 0.000000 0.000000 0.000000 0.021387 0.000000 0.000000
# 5 0.000000 0.000000 0.000000 0.000000 0.162620 0.000000
# 6 0.000000 0.000000 0.000000 0.000000 0.000000 0.042851
#
#
# Mechanical properties :
#
#
# Convention : Reuss Voigt Hill
#
# Bulk Modulus (GPa) = 28.84699 46.67753 37.76226
# Shear Modulus (GPa) = 16.68059 29.61685 23.14872
#
# Velocity S-wave (km/s) = 2.80332 3.73539 3.30241
# Velocity P-wave (km/s) = 4.90598 6.37143 5.68611
#
# Compressibility (1/GPa) = 0.03466566
#
# Stress axis : x y z
#
# Youngs Moduli (GPa) = 38.77724 80.64763 101.90344
#
# Poissons Ratio (x) = -0.24662 0.46696
# Poissons Ratio (y) = -0.11858 0.52413
# Poissons Ratio (z) = 0.17769 0.41480
#
# Static dielectric constant tensor:
#      x y z
#    x 3.449750 0.000000 0.000000 
#    y 0.000000 3.840530 0.000000 
#    z 0.000000 0.000000 3.979920 
# 
# 
# High freq. dielectric constant tensor:
#      x y z
#    x 1.804100 0.000000 0.000000 
#    y 0.000000 1.847790 0.000000 
#    z 0.000000 0.000000 1.843510 
# 
# From -- ./inp_files/11630.got.cif
#   From: 2010.03.12/outbox.cif.g09.slc.cpg/sg57_6_cif.got.tgz:11630.got - 2010.04.16 15:48:40.
