data_PCOD8233014
_publ_section_title
;
Structure prediction by ZEFSAII (Michael W. Deem and Ramdas Pophale) SiO2 
 PCOD8233014
Probable space group: P B C M
;
_chemical_formula_sum "Si O2"
_cell_formula_units_Z 40
_cell_length_a 25.423862
_cell_length_b 9.104549
_cell_length_c 8.884381
_cell_angle_alpha 90.000000
_cell_angle_beta 90.000000
_cell_angle_gamma 90.000000
_cell_volume 2056.492523
_symmetry_space_group_name_H-M "P B C M"
_symmetry_group_IT_number 57
_symmetry_cell_setting 'orthorhombic'
loop_
_space_group_symop_operation_xyz
x,y,z
-x,-y,1/2+z
x,1/2-y,-z
-x,1/2+y,1/2-z
-x,-y,-z
x,y,1/2-z
-x,1/2+y,z
x,1/2-y,1/2+z
loop_
_atom_site_type_symbol
_atom_site_label
_atom_site_fract_x
_atom_site_fract_y
_atom_site_fract_z
Si Si1 0.544558 0.905239 0.926025
Si Si2 0.661870 0.905118 0.575416
Si Si3 0.149471 0.094834 0.575042
Si Si4 0.954532 0.092850 0.424084
Si Si5 0.240073 0.591655 0.571810
O O1 0.534041 0.894500 0.750000
O O2 0.603284 0.965240 0.962082
O O3 0.538636 0.750000 0.000000
O O4 0.500000 0.000000 0.000000
O O5 0.674646 0.750000 0.500000
O O6 0.667987 0.872413 0.750000
O O7 0.702593 0.030577 0.524210
O O8 0.136151 0.250000 0.500000
O O9 0.163194 0.117495 0.750000
O O10 0.099932 0.990231 0.552997
O O11 0.198345 0.023113 0.490881
O O12 0.949531 0.250000 0.500000
O O13 0.968609 0.114647 0.250000
O O14 0.000000 0.000000 0.500000
O O15 0.231255 0.750000 0.500000
O O16 0.233425 0.605799 0.750000
#
# Coordination Sequence:
#
# PCOD8233014 Si02
#       5
#     8   8   8   8   8
#     4  10  20  36  56  81 112 147 187 232 282 337
#     4   9  20  37  57  81 110 145 187 232 281 337
#     4  11  24  41  62  89 119 154 193 237 286 340
#     4  11  24  41  63  90 122 157 196 240 288 339
#     4  11  23  39  59  85 116 151 190 235 285 339
#
# _framework density 19.450593000000001
#
# number of rings (size 3 to 8) (size 9 to 14) (size 15 to 20)
#    0.000    1.600    0.000    4.200    0.000   11.200 
#    0.000    2.000    0.000    0.000    0.000    0.000 
#    0.000    0.000    0.000    0.000    0.000    0.000 
#
# Total GULP energy -496084.371891 kJ/mol
# GULP energy per Si atom -12402.109297 kJ/mol
# Density = 1.940632 g / cm^3
# Si number density = 19.450593 Si / 1000 Ang^3
#
#
#
# Elastic Constant Matrix: (Units=GPa)
#
#
# Indices 1 2 3 4 5 6 
#
# 1 121.5193 56.4874 72.2315 0.0000 0.0000 0.0000
# 2 56.4874 118.7426 70.4806 0.0000 0.0000 0.0000
# 3 72.2315 70.4806 126.0304 0.0000 0.0000 0.0000
# 4 0.0000 0.0000 0.0000 39.8343 0.0000 0.0000
# 5 0.0000 0.0000 0.0000 0.0000 32.4227 0.0000
# 6 0.0000 0.0000 0.0000 0.0000 0.0000 27.3661
#
#
#
# Elastic Compliance Matrix: (Units=1/GPa)
#
#
# Indices 1 2 3 4 5 6 
#
# 1 0.013011 -0.002640 -0.005981 0.000000 0.000000 0.000000
# 2 -0.002640 0.013141 -0.005836 0.000000 0.000000 0.000000
# 3 -0.005981 -0.005836 0.014626 0.000000 0.000000 0.000000
# 4 0.000000 0.000000 0.000000 0.025104 0.000000 0.000000
# 5 0.000000 0.000000 0.000000 0.000000 0.030843 0.000000
# 6 0.000000 0.000000 0.000000 0.000000 0.000000 0.036542
#
#
# Mechanical properties :
#
#
# Convention : Reuss Voigt Hill
#
# Bulk Modulus (GPa) = 84.27958 84.96572 84.62265
# Shear Modulus (GPa) = 30.09581 31.06413 30.57997
#
# Velocity S-wave (km/s) = 3.93783 4.00068 3.96938
# Velocity P-wave (km/s) = 8.00622 8.06959 8.03797
#
# Compressibility (1/GPa) = 0.01186527
#
# Stress axis : x y z
#
# Youngs Moduli (GPa) = 76.85666 76.09492 68.36972
#
# Poissons Ratio (x) = 0.20086 0.40892
# Poissons Ratio (y) = 0.20287 0.39903
# Poissons Ratio (z) = 0.45968 0.44412
#
# Static dielectric constant tensor:
#      x y z
#    x 3.764190 0.000000 0.000000 
#    y 0.000000 3.507340 0.000000 
#    z 0.000000 0.000000 3.780100 
# 
# 
# High freq. dielectric constant tensor:
#      x y z
#    x 1.776150 0.000000 0.000000 
#    y 0.000000 1.762320 0.000000 
#    z 0.000000 0.000000 1.772840 
# 
# From -- ./inp_files/8876.got.cif
#   From: 2010.03.12/outbox.cif.g09.slc.cpg/sg57_5_cif.got.tgz:8876.got - 2010.04.16 15:48:40.
