data_PCOD8233785
_publ_section_title
;
Structure prediction by ZEFSAII (Michael W. Deem and Ramdas Pophale) SiO2 
 PCOD8233785
Probable space group: P B C M
;
_chemical_formula_sum "Si O2"
_cell_formula_units_Z 48
_cell_length_a 18.759468
_cell_length_b 8.785799
_cell_length_c 14.883249
_cell_angle_alpha 90.000000
_cell_angle_beta 90.000000
_cell_angle_gamma 90.000000
_cell_volume 2453.011188
_symmetry_space_group_name_H-M "P B C M"
_symmetry_group_IT_number 57
_symmetry_cell_setting 'orthorhombic'
loop_
_space_group_symop_operation_xyz
x,y,z
-x,-y,1/2+z
x,1/2-y,-z
-x,1/2+y,1/2-z
-x,-y,-z
x,y,1/2-z
-x,1/2+y,z
x,1/2-y,1/2+z
loop_
_atom_site_type_symbol
_atom_site_label
_atom_site_fract_x
_atom_site_fract_y
_atom_site_fract_z
Si Si1 0.180988 0.428099 0.991071
Si Si2 0.916400 0.965111 0.148689
Si Si3 0.414497 0.429633 0.353519
Si Si4 0.564096 0.922020 0.853672
Si Si5 0.330291 0.570459 0.508608
Si Si6 0.937752 0.889269 0.851508
O O1 0.150643 0.496475 0.084302
O O2 0.251322 0.519187 0.964557
O O3 0.199154 0.250000 0.000000
O O4 0.123396 0.460219 0.913507
O O5 0.894215 0.010596 0.250000
O O6 0.938087 0.790615 0.141607
O O7 0.984556 0.059418 0.115062
O O8 0.391538 0.447977 0.250000
O O9 0.429469 0.254862 0.377821
O O10 0.484044 0.527969 0.376282
O O11 0.350464 0.490965 0.414456
O O12 0.582205 0.954848 0.750000
O O13 0.617640 0.020465 0.912125
O O14 0.334229 0.750000 0.500000
O O15 0.923918 0.946874 0.750000
#
# Coordination Sequence:
#
# PCOD8233785 Si02
#       6
#     8   8   8   8   8   8
#     4  10  21  36  52  74 107 144 182 222 269 326
#     4   9  18  33  54  78 103 134 174 221 271 323
#     4  10  21  39  63  87 112 145 186 231 277 328
#     4  10  21  39  63  87 112 145 186 231 277 328
#     4  12  25  38  55  82 117 152 187 230 279 332
#     4   9  18  33  54  78 103 134 174 221 271 323
#
# _framework density 19.567785000000001
#
# number of rings (size 3 to 8) (size 9 to 14) (size 15 to 20)
#    0.000    2.000    0.000    3.500    0.000    4.667 
#    0.000    3.333    0.000    0.000    0.000    0.000 
#    0.000    0.000    0.000    0.000    0.000    0.000 
#
# Total GULP energy -595398.857434 kJ/mol
# GULP energy per Si atom -12404.142863 kJ/mol
# Density = 1.952325 g / cm^3
# Si number density = 19.567785 Si / 1000 Ang^3
#
#
#
# Elastic Constant Matrix: (Units=GPa)
#
#
# Indices 1 2 3 4 5 6 
#
# 1 45.8066 5.0274 12.2583 0.0000 0.0000 0.0000
# 2 5.0274 66.5128 12.1276 0.0000 0.0000 0.0000
# 3 12.2583 12.1276 66.6653 0.0000 0.0000 0.0000
# 4 0.0000 0.0000 0.0000 25.9701 0.0000 0.0000
# 5 0.0000 0.0000 0.0000 0.0000 18.1849 0.0000
# 6 0.0000 0.0000 0.0000 0.0000 0.0000 27.3212
#
#
#
# Elastic Compliance Matrix: (Units=1/GPa)
#
#
# Indices 1 2 3 4 5 6 
#
# 1 0.023025 -0.001002 -0.004052 0.000000 0.000000 0.000000
# 2 -0.001002 0.015594 -0.002653 0.000000 0.000000 0.000000
# 3 -0.004052 -0.002653 0.016228 0.000000 0.000000 0.000000
# 4 0.000000 0.000000 0.000000 0.038506 0.000000 0.000000
# 5 0.000000 0.000000 0.000000 0.000000 0.054991 0.000000
# 6 0.000000 0.000000 0.000000 0.000000 0.000000 0.036602
#
#
# Mechanical properties :
#
#
# Convention : Reuss Voigt Hill
#
# Bulk Modulus (GPa) = 25.35801 26.42349 25.89075
# Shear Modulus (GPa) = 23.41897 24.26666 23.84281
#
# Velocity S-wave (km/s) = 3.46325 3.52537 3.49445
# Velocity P-wave (km/s) = 5.38325 5.48670 5.43522
#
# Compressibility (1/GPa) = 0.03943526
#
# Stress axis : x y z
#
# Youngs Moduli (GPa) = 43.43090 64.12691 61.62233
#
# Poissons Ratio (x) = 0.06423 0.24967
# Poissons Ratio (y) = 0.04350 0.16346
# Poissons Ratio (z) = 0.17596 0.17011
#
# Static dielectric constant tensor:
#      x y z
#    x 3.472510 0.000000 0.000000 
#    y 0.000000 3.541960 0.000000 
#    z 0.000000 0.000000 3.855110 
# 
# 
# High freq. dielectric constant tensor:
#      x y z
#    x 1.756090 0.000000 0.000000 
#    y 0.000000 1.761690 0.000000 
#    z 0.000000 0.000000 1.774920 
# 
# From -- ./inp_files/18926.got.cif
#   From: 2010.03.12/outbox.cif.g09.slc.cpg/sg57_10_cif.got.tgz:18926.got - 2010.04.16 15:48:40.
