data_PCOD8233110
_publ_section_title
;
Structure prediction by ZEFSAII (Michael W. Deem and Ramdas Pophale) SiO2 
 PCOD8233110
Probable space group: P B C M
;
_chemical_formula_sum "Si O2"
_cell_formula_units_Z 44
_cell_length_a 8.337892
_cell_length_b 16.013438
_cell_length_c 15.261152
_cell_angle_alpha 90.000000
_cell_angle_beta 90.000000
_cell_angle_gamma 90.000000
_cell_volume 2037.643324
_symmetry_space_group_name_H-M "P B C M"
_symmetry_group_IT_number 57
_symmetry_cell_setting 'orthorhombic'
loop_
_space_group_symop_operation_xyz
x,y,z
-x,-y,1/2+z
x,1/2-y,-z
-x,1/2+y,1/2-z
-x,-y,-z
x,y,1/2-z
-x,1/2+y,z
x,1/2-y,1/2+z
loop_
_atom_site_type_symbol
_atom_site_label
_atom_site_fract_x
_atom_site_fract_y
_atom_site_fract_z
Si Si1 0.784340 0.384336 0.344869
Si Si2 0.029080 0.250000 0.000000
Si Si3 0.866099 0.545278 0.654858
Si Si4 0.789315 0.099421 0.028454
Si Si5 0.388046 0.715851 0.151721
Si Si6 0.269054 0.285622 0.350600
O O1 0.709527 0.414542 0.250000
O O2 0.714863 0.429447 0.433213
O O3 0.752275 0.285041 0.354787
O O4 0.973025 0.400206 0.343242
O O5 0.138822 0.243962 0.086376
O O6 0.925025 0.165981 0.002071
O O7 0.843334 0.500936 0.750000
O O8 0.869652 0.477951 0.577845
O O9 0.726580 0.613444 0.639043
O O10 0.651023 0.139139 0.087885
O O11 0.399709 0.680293 0.250000
O O12 0.555250 0.755169 0.121229
O O13 0.229538 0.260389 0.250000
#
# Coordination Sequence:
#
# PCOD8233110 Si02
#       6
#     8   4   8   8   8   8
#     4  10  20  36  58  84 121 166 196 240 304 365
#     4  12  24  34  66  88 126 160 206 256 302 362
#     4  10  21  39  63  88 124 160 205 258 312 363
#     4  12  21  37  62  97 118 157 210 259 300 362
#     4  10  21  39  63  87 123 163 204 247 303 366
#     4  10  23  42  60  87 126 167 202 249 309 368
#
# _framework density 21.593572000000002
#
# number of rings (size 3 to 8) (size 9 to 14) (size 15 to 20)
#    0.000    1.455    3.636    1.091    2.545    1.455 
#    0.000    2.727    0.000    4.364    0.000    0.000 
#    0.000    0.000    0.000    0.000    0.000    0.000 
#
# Total GULP energy -545219.451169 kJ/mol
# GULP energy per Si atom -12391.351163 kJ/mol
# Density = 2.154442 g / cm^3
# Si number density = 21.593572 Si / 1000 Ang^3
#
#
#
# Elastic Constant Matrix: (Units=GPa)
#
#
# Indices 1 2 3 4 5 6 
#
# 1 77.9478 28.2102 36.1365 0.0000 0.0000 0.0000
# 2 28.2102 47.7612 34.9356 0.0000 0.0000 0.0000
# 3 36.1365 34.9356 180.4959 0.0000 0.0000 0.0000
# 4 0.0000 0.0000 0.0000 39.3805 0.0000 0.0000
# 5 0.0000 0.0000 0.0000 0.0000 29.3391 0.0000
# 6 0.0000 0.0000 0.0000 0.0000 0.0000 13.7426
#
#
#
# Elastic Compliance Matrix: (Units=1/GPa)
#
#
# Indices 1 2 3 4 5 6 
#
# 1 0.016741 -0.008663 -0.001675 0.000000 0.000000 0.000000
# 2 -0.008663 0.028873 -0.003854 0.000000 0.000000 0.000000
# 3 -0.001675 -0.003854 0.006622 0.000000 0.000000 0.000000
# 4 0.000000 0.000000 0.000000 0.025393 0.000000 0.000000
# 5 0.000000 0.000000 0.000000 0.000000 0.034084 0.000000
# 6 0.000000 0.000000 0.000000 0.000000 0.000000 0.072766
#
#
# Mechanical properties :
#
#
# Convention : Reuss Voigt Hill
#
# Bulk Modulus (GPa) = 41.92527 56.08549 49.00538
# Shear Modulus (GPa) = 22.64347 30.28727 26.46537
#
# Velocity S-wave (km/s) = 3.24175 3.74920 3.50467
# Velocity P-wave (km/s) = 5.78530 6.69116 6.25465
#
# Compressibility (1/GPa) = 0.02385196
#
# Stress axis : x y z
#
# Youngs Moduli (GPa) = 59.73446 34.63395 151.02072
#
# Poissons Ratio (x) = 0.30003 0.25294
# Poissons Ratio (y) = 0.51747 0.58206
# Poissons Ratio (z) = 0.10005 0.13349
#
# Static dielectric constant tensor:
#      x y z
#    x 3.664030 0.000000 0.000000 
#    y 0.000000 3.520080 0.000000 
#    z 0.000000 0.000000 4.770030 
# 
# 
# High freq. dielectric constant tensor:
#      x y z
#    x 1.827240 0.000000 0.000000 
#    y 0.000000 1.807920 0.000000 
#    z 0.000000 0.000000 1.890080 
# 
# From -- ./inp_files/16232.got.cif
#   From: 2010.03.12/outbox.cif.g09.slc.cpg/sg57_9_cif.got.tgz:16232.got - 2010.04.16 15:48:40.
