data_PCOD8233929
_publ_section_title
;
Structure prediction by ZEFSAII (Michael W. Deem and Ramdas Pophale) SiO2 
 PCOD8233929
Probable space group: P B C M
;
_chemical_formula_sum "Si O2"
_cell_formula_units_Z 48
_cell_length_a 29.981379
_cell_length_b 9.538995
_cell_length_c 8.596415
_cell_angle_alpha 90.000000
_cell_angle_beta 90.000000
_cell_angle_gamma 90.000000
_cell_volume 2458.507847
_symmetry_space_group_name_H-M "P B C M"
_symmetry_group_IT_number 57
_symmetry_cell_setting 'orthorhombic'
loop_
_space_group_symop_operation_xyz
x,y,z
-x,-y,1/2+z
x,1/2-y,-z
-x,1/2+y,1/2-z
-x,-y,-z
x,y,1/2-z
-x,1/2+y,z
x,1/2-y,1/2+z
loop_
_atom_site_type_symbol
_atom_site_label
_atom_site_fract_x
_atom_site_fract_y
_atom_site_fract_z
Si Si1 0.136492 0.101040 0.566998
Si Si2 0.385987 0.098690 0.934281
Si Si3 0.460363 0.906227 0.434744
Si Si4 0.710032 0.605019 0.067456
Si Si5 0.964101 0.897147 0.066985
Si Si6 0.790696 0.097478 0.931250
O O1 0.152588 0.250000 0.500000
O O2 0.140035 0.112292 0.750000
O O3 0.086135 0.065345 0.512198
O O4 0.167194 0.976428 0.508258
O O5 0.392925 0.097835 0.750000
O O6 0.401141 0.250000 0.000000
O O7 0.334974 0.066637 0.976863
O O8 0.414137 0.974974 0.011762
O O9 0.464206 0.750000 0.500000
O O10 0.463064 0.900702 0.250000
O O11 0.500000 0.000000 0.500000
O O12 0.699749 0.621441 0.250000
O O13 0.745543 0.485300 0.031529
O O14 0.729674 0.750000 0.000000
O O15 0.967085 0.895177 0.250000
O O16 0.978740 0.750000 0.000000
O O17 0.000000 0.000000 0.000000
O O18 0.800154 0.106755 0.750000
O O19 0.784526 0.250000 0.000000
#
# Coordination Sequence:
#
# PCOD8233929 Si02
#       6
#     8   8   8   8   8   8
#     4  10  21  38  60  84 112 147 190 234 282 339
#     4  11  22  39  63  91 121 157 197 241 290 343
#     4  12  25  43  64  90 122 158 199 244 293 347
#     4  10  21  38  60  87 116 152 195 239 287 344
#     4  10  21  37  58  84 113 148 187 232 282 338
#     4  11  24  39  58  84 116 152 192 238 290 341
#
# _framework density 19.524037
#
# number of rings (size 3 to 8) (size 9 to 14) (size 15 to 20)
#    0.000    1.333    0.000    7.000    0.000    7.333 
#    0.000    1.667    0.000    0.000    0.000    0.000 
#    0.000    0.000    0.000    0.000    0.000    0.000 
#
# Total GULP energy -595401.025490 kJ/mol
# GULP energy per Si atom -12404.188031 kJ/mol
# Density = 1.947960 g / cm^3
# Si number density = 19.524037 Si / 1000 Ang^3
#
#
#
# Elastic Constant Matrix: (Units=GPa)
#
#
# Indices 1 2 3 4 5 6 
#
# 1 97.2808 83.7270 49.7119 0.0000 0.0000 0.0000
# 2 83.7270 167.8245 66.8152 0.0000 0.0000 0.0000
# 3 49.7119 66.8152 126.1649 0.0000 0.0000 0.0000
# 4 0.0000 0.0000 0.0000 40.1431 0.0000 0.0000
# 5 0.0000 0.0000 0.0000 0.0000 34.0504 0.0000
# 6 0.0000 0.0000 0.0000 0.0000 0.0000 32.5048
#
#
#
# Elastic Compliance Matrix: (Units=1/GPa)
#
#
# Indices 1 2 3 4 5 6 
#
# 1 0.018934 -0.008206 -0.003115 0.000000 0.000000 0.000000
# 2 -0.008206 0.011107 -0.002649 0.000000 0.000000 0.000000
# 3 -0.003115 -0.002649 0.010556 0.000000 0.000000 0.000000
# 4 0.000000 0.000000 0.000000 0.024911 0.000000 0.000000
# 5 0.000000 0.000000 0.000000 0.000000 0.029368 0.000000
# 6 0.000000 0.000000 0.000000 0.000000 0.000000 0.030765
#
#
# Mechanical properties :
#
#
# Convention : Reuss Voigt Hill
#
# Bulk Modulus (GPa) = 78.99988 87.97539 83.48763
# Shear Modulus (GPa) = 31.68588 34.07409 32.87999
#
# Velocity S-wave (km/s) = 4.03291 4.18214 4.10820
# Velocity P-wave (km/s) = 7.88902 8.27516 8.08439
#
# Compressibility (1/GPa) = 0.01265825
#
# Stress axis : x y z
#
# Youngs Moduli (GPa) = 52.81556 90.03243 94.73179
#
# Poissons Ratio (x) = 0.73881 0.29505
# Poissons Ratio (y) = 0.43341 0.25093
# Poissons Ratio (z) = 0.16450 0.23848
#
# Static dielectric constant tensor:
#      x y z
#    x 3.437130 0.000000 0.000000 
#    y 0.000000 3.624090 0.000000 
#    z 0.000000 0.000000 3.700680 
# 
# 
# High freq. dielectric constant tensor:
#      x y z
#    x 1.772850 0.000000 0.000000 
#    y 0.000000 1.763910 0.000000 
#    z 0.000000 0.000000 1.781690 
# 
# From -- ./inp_files/9917.got.cif
#   From: 2010.03.12/outbox.cif.g09.slc.cpg/sg57_5_cif.got.tgz:9917.got - 2010.04.16 15:48:40.
