data_PCOD8233557
_publ_section_title
;
Structure prediction by ZEFSAII (Michael W. Deem and Ramdas Pophale) SiO2 
 PCOD8233557
Probable space group: P B C M
;
_chemical_formula_sum "Si O2"
_cell_formula_units_Z 64
_cell_length_a 8.935037
_cell_length_b 15.223569
_cell_length_c 22.166694
_cell_angle_alpha 90.000000
_cell_angle_beta 90.000000
_cell_angle_gamma 90.000000
_cell_volume 3015.183594
_symmetry_space_group_name_H-M "P B C M"
_symmetry_group_IT_number 57
_symmetry_cell_setting 'orthorhombic'
loop_
_space_group_symop_operation_xyz
x,y,z
-x,-y,1/2+z
x,1/2-y,-z
-x,1/2+y,1/2-z
-x,-y,-z
x,y,1/2-z
-x,1/2+y,z
x,1/2-y,1/2+z
loop_
_atom_site_type_symbol
_atom_site_label
_atom_site_fract_x
_atom_site_fract_y
_atom_site_fract_z
Si Si1 0.828090 0.811019 0.638477
Si Si2 0.848099 0.886742 0.987720
Si Si3 0.687515 0.858786 0.389867
Si Si4 0.842232 0.293121 0.681522
Si Si5 0.642777 0.965694 0.681000
Si Si6 0.334786 0.857712 0.384303
Si Si7 0.190965 0.588177 0.497356
Si Si8 0.676354 0.444444 0.869703
O O1 0.786051 0.836677 0.570287
O O2 0.751005 0.717397 0.653761
O O3 0.765474 0.887976 0.681434
O O4 0.003962 0.798954 0.645625
O O5 0.025821 0.872484 0.990900
O O6 0.764713 0.846391 0.045185
O O7 0.811202 0.988620 0.979772
O O8 0.510989 0.848379 0.392098
O O9 0.730591 0.954583 0.363821
O O10 0.874007 0.265873 0.750000
O O11 0.730271 0.223786 0.652071
O O12 0.765002 0.388695 0.679969
O O13 0.596036 0.985458 0.750000
O O14 0.500053 0.935545 0.641853
O O15 0.710747 0.053909 0.651656
O O16 0.270595 0.854814 0.451605
O O17 0.285097 0.594960 0.435613
#
# Coordination Sequence:
#
# PCOD8233557 Si02
#       8
#     8   8   8   8   8   8   8   8
#     4  12  23  42  63  96 130 175 219 272 323 400
#     4  10  20  38  63  97 136 170 204 270 330 401
#     4  10  24  39  66  98 133 168 211 263 338 391
#     4  12  26  45  66  92 129 176 226 270 323 387
#     4  11  24  43  67  93 128 175 222 274 332 390
#     4  11  24  43  67  97 132 170 219 277 326 403
#     4  10  20  39  68  98 130 168 212 267 341 392
#     4  10  23  43  66  94 128 169 214 272 328 393
#
# _framework density 21.225905000000001
#
# number of rings (size 3 to 8) (size 9 to 14) (size 15 to 20)
#    0.000    1.250    2.500    3.000    1.750    3.000 
#    2.250    8.125    0.000    0.000    0.000    0.000 
#    0.000    0.000    0.000    0.000    0.000    0.000 
#
# Total GULP energy -793838.980505 kJ/mol
# GULP energy per Si atom -12403.734070 kJ/mol
# Density = 2.117759 g / cm^3
# Si number density = 21.225905 Si / 1000 Ang^3
#
#
#
# Elastic Constant Matrix: (Units=GPa)
#
#
# Indices 1 2 3 4 5 6 
#
# 1 83.2692 26.4362 30.3179 0.0000 0.0000 0.0000
# 2 26.4362 88.2250 35.0796 0.0000 0.0000 0.0000
# 3 30.3179 35.0796 92.8080 0.0000 0.0000 0.0000
# 4 0.0000 0.0000 0.0000 23.9137 0.0000 0.0000
# 5 0.0000 0.0000 0.0000 0.0000 21.1247 0.0000
# 6 0.0000 0.0000 0.0000 0.0000 0.0000 32.4503
#
#
#
# Elastic Compliance Matrix: (Units=1/GPa)
#
#
# Indices 1 2 3 4 5 6 
#
# 1 0.014210 -0.002839 -0.003569 0.000000 0.000000 0.000000
# 2 -0.002839 0.013907 -0.004329 0.000000 0.000000 0.000000
# 3 -0.003569 -0.004329 0.013577 0.000000 0.000000 0.000000
# 4 0.000000 0.000000 0.000000 0.041817 0.000000 0.000000
# 5 0.000000 0.000000 0.000000 0.000000 0.047338 0.000000
# 6 0.000000 0.000000 0.000000 0.000000 0.000000 0.030816
#
#
# Mechanical properties :
#
#
# Convention : Reuss Voigt Hill
#
# Bulk Modulus (GPa) = 49.45623 49.77442 49.61532
# Shear Modulus (GPa) = 26.33258 26.99564 26.66411
#
# Velocity S-wave (km/s) = 3.52602 3.57013 3.54814
# Velocity P-wave (km/s) = 6.31883 6.36359 6.34125
#
# Compressibility (1/GPa) = 0.02021990
#
# Stress axis : x y z
#
# Youngs Moduli (GPa) = 70.37316 71.90830 73.65330
#
# Poissons Ratio (x) = 0.20414 0.26287
# Poissons Ratio (y) = 0.19978 0.31885
# Poissons Ratio (z) = 0.25116 0.31129
#
# Static dielectric constant tensor:
#      x y z
#    x 3.748370 0.000000 0.000000 
#    y 0.000000 4.030230 0.000000 
#    z 0.000000 0.000000 3.699320 
# 
# 
# High freq. dielectric constant tensor:
#      x y z
#    x 1.834320 0.000000 0.000000 
#    y 0.000000 1.844560 0.000000 
#    z 0.000000 0.000000 1.825760 
# 
# From -- ./inp_files/26865.got.cif
#   From: 2010.03.12/outbox.cif.g09.slc.cpg/sg57_14_cif.got.tgz:26865.got - 2010.04.16 15:48:40.
