data_PCOD8233668
_publ_section_title
;
Structure prediction by ZEFSAII (Michael W. Deem and Ramdas Pophale) SiO2 
 PCOD8233668
Probable space group: P B C M
;
_chemical_formula_sum "Si O2"
_cell_formula_units_Z 40
_cell_length_a 9.376020
_cell_length_b 8.591152
_cell_length_c 22.673348
_cell_angle_alpha 90.000000
_cell_angle_beta 90.000000
_cell_angle_gamma 90.000000
_cell_volume 1826.356614
_symmetry_space_group_name_H-M "P B C M"
_symmetry_group_IT_number 57
_symmetry_cell_setting 'orthorhombic'
loop_
_space_group_symop_operation_xyz
x,y,z
-x,-y,1/2+z
x,1/2-y,-z
-x,1/2+y,1/2-z
-x,-y,-z
x,y,1/2-z
-x,1/2+y,z
x,1/2-y,1/2+z
loop_
_atom_site_type_symbol
_atom_site_label
_atom_site_fract_x
_atom_site_fract_y
_atom_site_fract_z
Si Si1 0.436157 0.034415 0.436102
Si Si2 0.917524 0.013769 0.121953
Si Si3 0.666273 0.230060 0.126067
Si Si4 0.149473 0.298482 0.937440
Si Si5 0.782383 0.327023 0.250000
Si Si6 0.006175 0.559518 0.250000
O O1 0.545837 0.099077 0.386593
O O2 0.314190 0.161345 0.445248
O O3 0.500000 0.000000 0.500000
O O4 0.366742 0.876641 0.413689
O O5 0.855226 0.850162 0.103660
O O6 0.814896 0.156375 0.104473
O O7 0.068242 0.054866 0.091714
O O8 0.927379 0.986594 0.191485
O O9 0.682935 0.281619 0.194434
O O10 0.081108 0.250000 0.000000
O O11 0.835005 0.510632 0.250000
O O12 0.939205 0.239881 0.250000
#
# Coordination Sequence:
#
# PCOD8233668 Si02
#       6
#     8   8   8   8   4   4
#     4  12  25  44  65  89 130 177 214 263 326 383
#     4  11  23  41  67  98 127 165 215 266 319 384
#     4  11  24  42  64  94 127 169 218 264 320 384
#     4  12  24  40  63  94 128 167 213 267 321 378
#     4  10  22  40  66  96 130 166 212 266 320 386
#     4  10  20  40  64  92 128 164 198 254 326 376
#
# _framework density 21.901527999999999
#
# number of rings (size 3 to 8) (size 9 to 14) (size 15 to 20)
#    0.000    0.800    0.000    9.600    0.000    2.400 
#    0.000    4.000    0.000    0.000    0.000    0.000 
#    0.000    0.000    0.000    0.000    0.000    0.000 
#
# Total GULP energy -495787.765475 kJ/mol
# GULP energy per Si atom -12394.694137 kJ/mol
# Density = 2.185168 g / cm^3
# Si number density = 21.901528 Si / 1000 Ang^3
#
#
#
# Elastic Constant Matrix: (Units=GPa)
#
#
# Indices 1 2 3 4 5 6 
#
# 1 114.7147 45.1053 74.3545 0.0000 0.0000 0.0000
# 2 45.1053 85.8048 57.7015 0.0000 0.0000 0.0000
# 3 74.3545 57.7015 140.1149 0.0000 0.0000 0.0000
# 4 0.0000 0.0000 0.0000 30.7030 0.0000 0.0000
# 5 0.0000 0.0000 0.0000 0.0000 30.8842 0.0000
# 6 0.0000 0.0000 0.0000 0.0000 0.0000 58.2683
#
#
#
# Elastic Compliance Matrix: (Units=1/GPa)
#
#
# Indices 1 2 3 4 5 6 
#
# 1 0.013913 -0.003248 -0.006045 0.000000 0.000000 0.000000
# 2 -0.003248 0.016876 -0.005226 0.000000 0.000000 0.000000
# 3 -0.006045 -0.005226 0.012497 0.000000 0.000000 0.000000
# 4 0.000000 0.000000 0.000000 0.032570 0.000000 0.000000
# 5 0.000000 0.000000 0.000000 0.000000 0.032379 0.000000
# 6 0.000000 0.000000 0.000000 0.000000 0.000000 0.017162
#
#
# Mechanical properties :
#
#
# Convention : Reuss Voigt Hill
#
# Bulk Modulus (GPa) = 70.19108 77.21746 73.70427
# Shear Modulus (GPa) = 31.40967 34.86930 33.13949
#
# Velocity S-wave (km/s) = 3.79110 3.99443 3.89410
# Velocity P-wave (km/s) = 7.16110 7.52378 7.34468
#
# Compressibility (1/GPa) = 0.01424682
#
# Stress axis : x y z
#
# Youngs Moduli (GPa) = 71.87540 59.25446 80.01669
#
# Poissons Ratio (x) = 0.19247 0.48374
# Poissons Ratio (y) = 0.23347 0.41819
# Poissons Ratio (z) = 0.43452 0.30968
#
# Static dielectric constant tensor:
#      x y z
#    x 4.111380 0.000000 0.000000 
#    y 0.000000 4.122610 0.000000 
#    z 0.000000 0.000000 3.886620 
# 
# 
# High freq. dielectric constant tensor:
#      x y z
#    x 1.853410 0.000000 0.000000 
#    y 0.000000 1.875020 0.000000 
#    z 0.000000 0.000000 1.874260 
# 
# From -- ./inp_files/26537.got.cif
#   From: 2010.03.12/outbox.cif.g09.slc.cpg/sg57_14_cif.got.tgz:26537.got - 2010.04.16 15:48:40.
