data_PCOD8233969
_publ_section_title
;
Structure prediction by ZEFSAII (Michael W. Deem and Ramdas Pophale) SiO2 
 PCOD8233969
Probable space group: P B C M
;
_chemical_formula_sum "Si O2"
_cell_formula_units_Z 36
_cell_length_a 6.664177
_cell_length_b 12.314852
_cell_length_c 21.088290
_cell_angle_alpha 90.000000
_cell_angle_beta 90.000000
_cell_angle_gamma 90.000000
_cell_volume 1730.681238
_symmetry_space_group_name_H-M "P B C M"
_symmetry_group_IT_number 57
_symmetry_cell_setting 'orthorhombic'
loop_
_space_group_symop_operation_xyz
x,y,z
-x,-y,1/2+z
x,1/2-y,-z
-x,1/2+y,1/2-z
-x,-y,-z
x,y,1/2-z
-x,1/2+y,z
x,1/2-y,1/2+z
loop_
_atom_site_type_symbol
_atom_site_label
_atom_site_fract_x
_atom_site_fract_y
_atom_site_fract_z
Si Si1 0.483106 0.405751 0.905148
Si Si2 0.770338 0.595884 0.893783
Si Si3 0.720675 0.750000 0.500000
Si Si4 0.157373 0.522816 0.823012
Si Si5 0.558428 0.278841 0.179523
O O1 0.621573 0.506812 0.925256
O O2 0.418781 0.340290 0.967285
O O3 0.290326 0.438871 0.862986
O O4 0.616237 0.324926 0.862357
O O5 0.646681 0.664607 0.842856
O O6 0.946485 0.532905 0.858671
O O7 0.849250 0.680057 0.948611
O O8 0.130085 0.482386 0.750000
O O9 0.255169 0.640810 0.823634
O O10 0.519785 0.237202 0.250000
#
# Coordination Sequence:
#
# PCOD8233969 Si02
#       5
#     8   8   4   8   8
#     4  10  21  38  59  83 113 150 191 235 284 337
#     4  10  21  38  58  82 113 151 191 234 281 333
#     4  10  22  40  58  80 114 154 192 234 284 338
#     4  10  21  37  59  88 116 146 189 236 286 341
#     4   9  19  36  57  83 115 147 182 230 286 340
#
# _framework density 20.801058000000001
#
# number of rings (size 3 to 8) (size 9 to 14) (size 15 to 20)
#    0.000    2.222    0.000    2.000    0.000    7.111 
#    0.000   15.556    0.000    0.000    0.000    0.000 
#    0.000    0.000    0.000    0.000    0.000    0.000 
#
# Total GULP energy -446259.688965 kJ/mol
# GULP energy per Si atom -12396.102471 kJ/mol
# Density = 2.075371 g / cm^3
# Si number density = 20.801058 Si / 1000 Ang^3
#
#
#
# Elastic Constant Matrix: (Units=GPa)
#
#
# Indices 1 2 3 4 5 6 
#
# 1 73.8229 16.3647 31.3017 0.0000 0.0000 0.0000
# 2 16.3647 83.2834 37.4269 0.0000 0.0000 0.0000
# 3 31.3017 37.4269 109.8429 0.0000 0.0000 0.0000
# 4 0.0000 0.0000 0.0000 43.3993 0.0000 0.0000
# 5 0.0000 0.0000 0.0000 0.0000 16.4470 0.0000
# 6 0.0000 0.0000 0.0000 0.0000 0.0000 14.1838
#
#
#
# Elastic Compliance Matrix: (Units=1/GPa)
#
#
# Indices 1 2 3 4 5 6 
#
# 1 0.015518 -0.001254 -0.003995 0.000000 0.000000 0.000000
# 2 -0.001254 0.014280 -0.004508 0.000000 0.000000 0.000000
# 3 -0.003995 -0.004508 0.011778 0.000000 0.000000 0.000000
# 4 0.000000 0.000000 0.000000 0.023042 0.000000 0.000000
# 5 0.000000 0.000000 0.000000 0.000000 0.060801 0.000000
# 6 0.000000 0.000000 0.000000 0.000000 0.000000 0.070503
#
#
# Mechanical properties :
#
#
# Convention : Reuss Voigt Hill
#
# Bulk Modulus (GPa) = 45.32707 48.57065 46.94886
# Shear Modulus (GPa) = 22.44272 26.92975 24.68623
#
# Velocity S-wave (km/s) = 3.28826 3.60201 3.44870
# Velocity P-wave (km/s) = 6.02121 6.37966 6.20302
#
# Compressibility (1/GPa) = 0.02206187
#
# Stress axis : x y z
#
# Youngs Moduli (GPa) = 64.44241 70.03043 84.90145
#
# Poissons Ratio (x) = 0.08781 0.33916
# Poissons Ratio (y) = 0.08081 0.38275
# Poissons Ratio (z) = 0.25743 0.31571
#
# Static dielectric constant tensor:
#      x y z
#    x 3.344120 0.000000 0.000000 
#    y 0.000000 3.926440 0.000000 
#    z 0.000000 0.000000 3.967070 
# 
# 
# High freq. dielectric constant tensor:
#      x y z
#    x 1.780500 0.000000 0.000000 
#    y 0.000000 1.829950 0.000000 
#    z 0.000000 0.000000 1.827550 
# 
# From -- ./inp_files/23448.got.cif
#   From: 2010.03.12/outbox.cif.g09.slc.cpg/sg57_12_cif.got.tgz:23448.got - 2010.04.16 15:48:40.
