data_PCOD8233667
_publ_section_title
;
Structure prediction by ZEFSAII (Michael W. Deem and Ramdas Pophale) SiO2 
 PCOD8233667
Probable space group: P B C M
;
_chemical_formula_sum "Si O2"
_cell_formula_units_Z 44
_cell_length_a 17.306468
_cell_length_b 9.433496
_cell_length_c 13.720240
_cell_angle_alpha 90.000000
_cell_angle_beta 90.000000
_cell_angle_gamma 90.000000
_cell_volume 2239.973197
_symmetry_space_group_name_H-M "P B C M"
_symmetry_group_IT_number 57
_symmetry_cell_setting 'orthorhombic'
loop_
_space_group_symop_operation_xyz
x,y,z
-x,-y,1/2+z
x,1/2-y,-z
-x,1/2+y,1/2-z
-x,-y,-z
x,y,1/2-z
-x,1/2+y,z
x,1/2-y,1/2+z
loop_
_atom_site_type_symbol
_atom_site_label
_atom_site_fract_x
_atom_site_fract_y
_atom_site_fract_z
Si Si1 0.418258 0.132692 0.570956
Si Si2 0.321406 0.505398 0.750000
Si Si3 0.849211 0.000108 0.250000
Si Si4 0.086629 0.771260 0.614383
Si Si5 0.588803 0.127085 0.565396
Si Si6 0.146239 0.544037 0.750000
Si Si7 0.948706 0.727862 0.250000
Si Si8 0.686310 0.835594 0.250000
O O1 0.381701 0.250000 0.500000
O O2 0.504760 0.179190 0.606508
O O3 0.359467 0.107102 0.657858
O O4 0.426312 0.989455 0.514215
O O5 0.361286 0.568277 0.845867
O O6 0.236725 0.566206 0.750000
O O7 0.316432 0.335268 0.750000
O O8 0.919068 0.888492 0.250000
O O9 0.770129 0.909974 0.250000
O O10 0.857801 0.100981 0.153886
O O11 0.088144 0.750000 0.500000
O O12 0.113479 0.619833 0.654504
O O13 0.000033 0.800469 0.653434
O O14 0.629628 0.250000 0.500000
O O15 0.123331 0.379127 0.750000
#
# Coordination Sequence:
#
# PCOD8233667 Si02
#       8
#     8   4   4   8   8   4   4   4
#     4  10  21  41  62  88 122 162 208 258 302 362
#     4  12  23  40  64  91 126 168 203 253 327 365
#     4  10  23  40  62  97 124 160 204 247 311 369
#     4  10  22  42  64  87 123 161 206 249 301 365
#     4  10  23  40  63  91 121 159 213 259 302 367
#     4  10  23  38  60  91 128 154 196 265 299 357
#     4  10  20  40  64  92 124 158 200 254 300 364
#     4  12  23  40  66  89 128 168 203 251 321 375
#
# _framework density 19.643093
#
# number of rings (size 3 to 8) (size 9 to 14) (size 15 to 20)
#    0.000    1.818    2.727    2.727    0.000    8.727 
#    0.000    0.909    0.000    0.000    0.000    0.000 
#    0.000    0.000    0.000    0.000    0.000    0.000 
#
# Total GULP energy -545273.996576 kJ/mol
# GULP energy per Si atom -12392.590831 kJ/mol
# Density = 1.959838 g / cm^3
# Si number density = 19.643093 Si / 1000 Ang^3
#
#
#
# Elastic Constant Matrix: (Units=GPa)
#
#
# Indices 1 2 3 4 5 6 
#
# 1 112.8483 31.2047 63.3979 0.0000 0.0000 0.0000
# 2 31.2047 115.7464 51.2354 0.0000 0.0000 0.0000
# 3 63.3979 51.2354 165.4410 0.0000 0.0000 0.0000
# 4 0.0000 0.0000 0.0000 20.9441 0.0000 0.0000
# 5 0.0000 0.0000 0.0000 0.0000 3.3571 0.0000
# 6 0.0000 0.0000 0.0000 0.0000 0.0000 35.0898
#
#
#
# Elastic Compliance Matrix: (Units=1/GPa)
#
#
# Indices 1 2 3 4 5 6 
#
# 1 0.011466 -0.001328 -0.003983 0.000000 0.000000 0.000000
# 2 -0.001328 0.010166 -0.002639 0.000000 0.000000 0.000000
# 3 -0.003983 -0.002639 0.008388 0.000000 0.000000 0.000000
# 4 0.000000 0.000000 0.000000 0.047746 0.000000 0.000000
# 5 0.000000 0.000000 0.000000 0.000000 0.297875 0.000000
# 6 0.000000 0.000000 0.000000 0.000000 0.000000 0.028498
#
#
# Mechanical properties :
#
#
# Convention : Reuss Voigt Hill
#
# Bulk Modulus (GPa) = 70.82262 76.19015 73.50639
# Shear Modulus (GPa) = 11.77174 28.42471 20.09822
#
# Velocity S-wave (km/s) = 2.45068 3.80815 3.20217
# Velocity P-wave (km/s) = 6.64385 7.62938 7.15361
#
# Compressibility (1/GPa) = 0.01411978
#
# Stress axis : x y z
#
# Youngs Moduli (GPa) = 87.21336 98.36740 119.21901
#
# Poissons Ratio (x) = 0.13067 0.47479
# Poissons Ratio (y) = 0.11585 0.31465
# Poissons Ratio (z) = 0.34733 0.25962
#
# Static dielectric constant tensor:
#      x y z
#    x 3.625750 0.000000 0.000000 
#    y 0.000000 3.649540 0.000000 
#    z 0.000000 0.000000 2.767660 
# 
# 
# High freq. dielectric constant tensor:
#      x y z
#    x 1.762170 0.000000 0.000000 
#    y 0.000000 1.783100 0.000000 
#    z 0.000000 0.000000 1.755680 
# 
# From -- ./inp_files/18921.got.cif
#   From: 2010.03.12/outbox.cif.g09.slc.cpg/sg57_10_cif.got.tgz:18921.got - 2010.04.16 15:48:40.
