data_PCOD8233092
_publ_section_title
;
Structure prediction by ZEFSAII (Michael W. Deem and Ramdas Pophale) SiO2 
 PCOD8233092
Probable space group: P B C M
;
_chemical_formula_sum "Si O2"
_cell_formula_units_Z 64
_cell_length_a 25.502217
_cell_length_b 14.442607
_cell_length_c 8.966972
_cell_angle_alpha 90.000000
_cell_angle_beta 90.000000
_cell_angle_gamma 90.000000
_cell_volume 3302.701656
_symmetry_space_group_name_H-M "P B C M"
_symmetry_group_IT_number 57
_symmetry_cell_setting 'orthorhombic'
loop_
_space_group_symop_operation_xyz
x,y,z
-x,-y,1/2+z
x,1/2-y,-z
-x,1/2+y,1/2-z
-x,-y,-z
x,y,1/2-z
-x,1/2+y,z
x,1/2-y,1/2+z
loop_
_atom_site_type_symbol
_atom_site_label
_atom_site_fract_x
_atom_site_fract_y
_atom_site_fract_z
Si Si1 0.640174 0.851465 0.926340
Si Si2 0.116975 0.164959 0.083955
Si Si3 0.821527 0.018085 0.919102
Si Si4 0.991360 0.595181 0.078544
Si Si5 0.628303 0.151471 0.076629
Si Si6 0.894637 0.158727 0.422255
Si Si7 0.286626 0.495965 0.422452
Si Si8 0.556052 0.007096 0.574136
O O1 0.647903 0.838919 0.750000
O O2 0.588996 0.913881 0.963061
O O3 0.634161 0.750000 0.000000
O O4 0.690185 0.906791 0.991234
O O5 0.104650 0.197080 0.250000
O O6 0.160467 0.086922 0.078948
O O7 0.060799 0.140684 0.007275
O O8 0.143500 0.250000 0.000000
O O9 0.812641 0.053381 0.750000
O O10 0.868486 0.072883 0.996131
O O11 0.768679 0.026468 0.011563
O O12 0.979971 0.572602 0.250000
O O13 0.042587 0.658215 0.057142
O O14 0.000000 0.500000 0.000000
O O15 0.614189 0.166230 0.250000
O O16 0.679100 0.087785 0.056996
O O17 0.638938 0.250000 0.000000
O O18 0.580996 0.099489 0.994766
O O19 0.872010 0.250000 0.500000
O O20 0.878344 0.157621 0.250000
O O21 0.281263 0.467898 0.250000
O O22 0.550843 0.021028 0.750000
O O23 0.500000 0.000000 0.500000
#
# Coordination Sequence:
#
# PCOD8233092 Si02
#       8
#     8   8   8   8   8   8   8   8
#     4  10  21  38  61  88 117 155 200 244 293 345
#     4  10  22  38  57  83 112 145 184 227 279 337
#     4  11  23  40  60  83 116 150 188 238 288 344
#     4  10  20  36  58  83 111 145 184 226 279 339
#     4  10  21  38  61  87 116 153 196 243 293 347
#     4  11  23  38  59  85 113 148 187 232 284 343
#     4  10  22  40  61  85 115 150 193 243 294 348
#     4  10  21  37  58  87 125 163 201 244 289 341
#
# _framework density 19.378074999999999
#
# number of rings (size 3 to 8) (size 9 to 14) (size 15 to 20)
#    0.000    1.750    1.250    2.625    0.000    6.500 
#    0.000    3.750    0.000    0.000    0.000    0.000 
#    0.000    0.000    0.000    0.000    0.000    0.000 
#
# Total GULP energy -793615.548993 kJ/mol
# GULP energy per Si atom -12400.242953 kJ/mol
# Density = 1.933397 g / cm^3
# Si number density = 19.378075 Si / 1000 Ang^3
#
#
#
# Elastic Constant Matrix: (Units=GPa)
#
#
# Indices 1 2 3 4 5 6 
#
# 1 88.0742 10.3351 41.3986 0.0000 0.0000 0.0000
# 2 10.3351 105.8411 57.2492 0.0000 0.0000 0.0000
# 3 41.3986 57.2492 120.9279 0.0000 0.0000 0.0000
# 4 0.0000 0.0000 0.0000 39.3405 0.0000 0.0000
# 5 0.0000 0.0000 0.0000 0.0000 32.9746 0.0000
# 6 0.0000 0.0000 0.0000 0.0000 0.0000 8.0043
#
#
#
# Elastic Compliance Matrix: (Units=1/GPa)
#
#
# Indices 1 2 3 4 5 6 
#
# 1 0.013734 0.001616 -0.005467 0.000000 0.000000 0.000000
# 2 0.001616 0.012890 -0.006656 0.000000 0.000000 0.000000
# 3 -0.005467 -0.006656 0.013292 0.000000 0.000000 0.000000
# 4 0.000000 0.000000 0.000000 0.025419 0.000000 0.000000
# 5 0.000000 0.000000 0.000000 0.000000 0.030326 0.000000
# 6 0.000000 0.000000 0.000000 0.000000 0.000000 0.124932
#
#
# Mechanical properties :
#
#
# Convention : Reuss Voigt Hill
#
# Bulk Modulus (GPa) = 52.90137 59.20100 56.05119
# Shear Modulus (GPa) = 20.16877 29.78790 24.97834
#
# Velocity S-wave (km/s) = 3.22965 3.92496 3.59416
# Velocity P-wave (km/s) = 6.42389 7.15243 6.79793
#
# Compressibility (1/GPa) = 0.01890310
#
# Stress axis : x y z
#
# Youngs Moduli (GPa) = 72.81188 77.57724 75.23458
#
# Poissons Ratio (x) = -0.12535 0.41128
# Poissons Ratio (y) = -0.11765 0.50074
# Poissons Ratio (z) = 0.39804 0.51633
#
# Static dielectric constant tensor:
#      x y z
#    x 3.237300 0.000000 0.000000 
#    y 0.000000 3.498610 0.000000 
#    z 0.000000 0.000000 3.691770 
# 
# 
# High freq. dielectric constant tensor:
#      x y z
#    x 1.752160 0.000000 0.000000 
#    y 0.000000 1.757910 0.000000 
#    z 0.000000 0.000000 1.767700 
# 
# From -- ./inp_files/9322.got.cif
#   From: 2010.03.12/outbox.cif.g09.slc.cpg/sg57_5_cif.got.tgz:9322.got - 2010.04.16 15:48:40.
