data_PCOD8233989
_publ_section_title
;
Structure prediction by ZEFSAII (Michael W. Deem and Ramdas Pophale) SiO2 
 PCOD8233989
Probable space group: P B C M
;
_chemical_formula_sum "Si O2"
_cell_formula_units_Z 64
_cell_length_a 11.822417
_cell_length_b 30.666898
_cell_length_c 8.782491
_cell_angle_alpha 90.000000
_cell_angle_beta 90.000000
_cell_angle_gamma 90.000000
_cell_volume 3184.152327
_symmetry_space_group_name_H-M "P B C M"
_symmetry_group_IT_number 57
_symmetry_cell_setting 'orthorhombic'
loop_
_space_group_symop_operation_xyz
x,y,z
-x,-y,1/2+z
x,1/2-y,-z
-x,1/2+y,1/2-z
-x,-y,-z
x,y,1/2-z
-x,1/2+y,z
x,1/2-y,1/2+z
loop_
_atom_site_type_symbol
_atom_site_label
_atom_site_fract_x
_atom_site_fract_y
_atom_site_fract_z
Si Si1 0.234917 0.793987 0.929002
Si Si2 0.238790 0.545695 0.074746
Si Si3 0.989881 0.176036 0.928706
Si Si4 0.375342 0.378460 0.073029
Si Si5 0.763524 0.704964 0.929129
Si Si6 0.000082 0.084313 0.075216
Si Si7 0.360144 0.874316 0.073962
Si Si8 0.760715 0.954747 0.928141
O O1 0.238953 0.790090 0.750000
O O2 0.288093 0.750000 0.000000
O O3 0.105550 0.797775 0.981966
O O4 0.306629 0.835529 0.977998
O O5 0.273823 0.551492 0.250000
O O6 0.104647 0.551817 0.051804
O O7 0.307982 0.580003 0.975685
O O8 0.272858 0.497869 0.019514
O O9 0.971512 0.182543 0.750000
O O10 0.109759 0.194590 0.985212
O O11 0.981836 0.125083 0.965595
O O12 0.346982 0.387062 0.250000
O O13 0.318189 0.333742 0.015607
O O14 0.507387 0.374965 0.042200
O O15 0.327641 0.417644 0.972932
O O16 0.758643 0.709663 0.750000
O O17 0.719832 0.750000 0.000000
O O18 0.007884 0.100586 0.250000
O O19 0.113044 0.059424 0.025063
O O20 0.332159 0.866135 0.250000
O O21 0.751924 0.964525 0.750000
#
# Coordination Sequence:
#
# PCOD8233989 Si02
#       8
#     8   8   8   8   8   8   8   8
#     4  12  25  42  64  92 128 163 205 252 305 366
#     4  11  23  40  63  91 126 164 202 250 310 368
#     4  11  21  36  63  93 125 163 201 246 305 367
#     4  10  23  44  64  87 121 161 207 258 308 362
#     4  10  22  39  61  91 123 159 198 245 303 360
#     4  10  21  37  60  92 126 161 199 249 306 367
#     4  11  24  43  66  90 120 160 210 260 308 363
#     4  11  23  39  63  94 125 161 206 251 305 368
#
# _framework density 20.099540999999999
#
# number of rings (size 3 to 8) (size 9 to 14) (size 15 to 20)
#    0.000    1.250    2.500    3.375    0.000    5.500 
#    0.000    1.250    0.000    0.000    0.000    0.000 
#    0.000    0.000    0.000    0.000    0.000    0.000 
#
# Total GULP energy -794043.309852 kJ/mol
# GULP energy per Si atom -12406.926716 kJ/mol
# Density = 2.005379 g / cm^3
# Si number density = 20.099541 Si / 1000 Ang^3
#
#
#
# Elastic Constant Matrix: (Units=GPa)
#
#
# Indices 1 2 3 4 5 6 
#
# 1 101.4299 40.9066 41.4438 0.0000 0.0000 0.0000
# 2 40.9066 136.3192 36.2533 0.0000 0.0000 0.0000
# 3 41.4438 36.2533 86.9158 0.0000 0.0000 0.0000
# 4 0.0000 0.0000 0.0000 40.3013 0.0000 0.0000
# 5 0.0000 0.0000 0.0000 0.0000 14.4831 0.0000
# 6 0.0000 0.0000 0.0000 0.0000 0.0000 -3.2163
#
#
#
# Elastic Compliance Matrix: (Units=1/GPa)
#
#
# Indices 1 2 3 4 5 6 
#
# 1 0.012976 -0.002529 -0.005133 0.000000 0.000000 0.000000
# 2 -0.002529 0.008744 -0.002441 0.000000 0.000000 0.000000
# 3 -0.005133 -0.002441 0.014971 0.000000 0.000000 0.000000
# 4 0.000000 0.000000 0.000000 0.024813 0.000000 0.000000
# 5 0.000000 0.000000 0.000000 0.000000 0.069046 0.000000
# 6 0.000000 0.000000 0.000000 0.000000 0.000000 -0.310913
#
#
# Mechanical properties :
#
#
# Convention : Reuss Voigt Hill
#
# Bulk Modulus (GPa) = 60.65933 62.43025 61.54479
# Shear Modulus (GPa) = -32.32846 24.05103 -4.13871
#
# Velocity S-wave (km/s) = -4.01486 3.46294 -1.43652
# Velocity P-wave (km/s) = 2.95852 6.86420 5.28536
#
# Compressibility (1/GPa) = 0.01648551
#
# Stress axis : x y z
#
# Youngs Moduli (GPa) = 77.06510 114.36628 66.79588
#
# Poissons Ratio (x) = 0.28922 0.34283
# Poissons Ratio (y) = 0.19489 0.16307
# Poissons Ratio (z) = 0.39554 0.27920
#
# Static dielectric constant tensor:
#      x y z
#    x 3.720020 0.000000 0.000000 
#    y 0.000000 3.753830 0.000000 
#    z 0.000000 0.000000 3.650440 
# 
# 
# High freq. dielectric constant tensor:
#      x y z
#    x 1.783840 0.000000 0.000000 
#    y 0.000000 1.796700 0.000000 
#    z 0.000000 0.000000 1.788610 
# 
# From -- ./inp_files/3895.got.cif
#   From: 2010.03.12/outbox.cif.g09.slc.cpg/sg57_2_cif.got.tgz:3895.got - 2010.04.16 15:48:40.
