data_PCOD8233954
_publ_section_title
;
Structure prediction by ZEFSAII (Michael W. Deem and Ramdas Pophale) SiO2 
 PCOD8233954
Probable space group: P B C M
;
_chemical_formula_sum "Si O2"
_cell_formula_units_Z 40
_cell_length_a 25.245282
_cell_length_b 9.095973
_cell_length_c 8.769596
_cell_angle_alpha 90.000000
_cell_angle_beta 90.000000
_cell_angle_gamma 90.000000
_cell_volume 2013.765868
_symmetry_space_group_name_H-M "P B C M"
_symmetry_group_IT_number 57
_symmetry_cell_setting 'orthorhombic'
loop_
_space_group_symop_operation_xyz
x,y,z
-x,-y,1/2+z
x,1/2-y,-z
-x,1/2+y,1/2-z
-x,-y,-z
x,y,1/2-z
-x,1/2+y,z
x,1/2-y,1/2+z
loop_
_atom_site_type_symbol
_atom_site_label
_atom_site_fract_x
_atom_site_fract_y
_atom_site_fract_z
Si Si1 0.651706 0.092902 0.928226
Si Si2 0.745137 0.909405 0.430995
Si Si3 0.836091 0.089827 0.572971
Si Si4 0.044547 0.595062 0.575937
Si Si5 0.546855 0.908664 0.573106
O O1 0.664713 0.109536 0.750000
O O2 0.601632 0.990335 0.957546
O O3 0.638745 0.250000 0.000000
O O4 0.701517 0.024240 0.013574
O O5 0.733240 0.750000 0.500000
O O6 0.744261 0.897214 0.250000
O O7 0.801730 0.968139 0.486692
O O8 0.827605 0.250000 0.500000
O O9 0.819632 0.100159 0.750000
O O10 0.896243 0.031300 0.555038
O O11 0.042661 0.750000 0.500000
O O12 0.029171 0.612862 0.750000
O O13 0.000000 0.500000 0.500000
O O14 0.550796 0.750000 0.500000
O O15 0.534471 0.890278 0.750000
O O16 0.500000 0.000000 0.500000
#
# Coordination Sequence:
#
# PCOD8233954 Si02
#       5
#     8   8   8   8   8
#     4  11  24  42  64  91 122 159 200 244 294 351
#     4  12  25  41  62  88 119 155 195 244 296 350
#     4  10  21  39  61  86 116 153 195 240 291 349
#     4  10  21  37  59  85 116 153 194 240 291 347
#     4  11  24  41  64  92 125 162 202 248 298 351
#
# _framework density 19.863284
#
# number of rings (size 3 to 8) (size 9 to 14) (size 15 to 20)
#    0.000    1.200    0.000    6.000    0.000    9.600 
#    0.000    0.000    0.000    0.000    0.000    0.000 
#    0.000    0.000    0.000    0.000    0.000    0.000 
#
# Total GULP energy -496175.725253 kJ/mol
# GULP energy per Si atom -12404.393131 kJ/mol
# Density = 1.981807 g / cm^3
# Si number density = 19.863284 Si / 1000 Ang^3
#
#
#
# Elastic Constant Matrix: (Units=GPa)
#
#
# Indices 1 2 3 4 5 6 
#
# 1 111.2779 48.4078 82.0200 0.0000 0.0000 0.0000
# 2 48.4078 120.7067 75.4638 0.0000 0.0000 0.0000
# 3 82.0200 75.4638 182.2911 0.0000 0.0000 0.0000
# 4 0.0000 0.0000 0.0000 42.4218 0.0000 0.0000
# 5 0.0000 0.0000 0.0000 0.0000 34.5124 0.0000
# 6 0.0000 0.0000 0.0000 0.0000 0.0000 74.6178
#
#
#
# Elastic Compliance Matrix: (Units=1/GPa)
#
#
# Indices 1 2 3 4 5 6 
#
# 1 0.013881 -0.002243 -0.005317 0.000000 0.000000 0.000000
# 2 -0.002243 0.011540 -0.003768 0.000000 0.000000 0.000000
# 3 -0.005317 -0.003768 0.009438 0.000000 0.000000 0.000000
# 4 0.000000 0.000000 0.000000 0.023573 0.000000 0.000000
# 5 0.000000 0.000000 0.000000 0.000000 0.028975 0.000000
# 6 0.000000 0.000000 0.000000 0.000000 0.000000 0.013402
#
#
# Mechanical properties :
#
#
# Convention : Reuss Voigt Hill
#
# Bulk Modulus (GPa) = 81.94704 91.78432 86.86568
# Shear Modulus (GPa) = 39.20567 44.20266 41.70417
#
# Velocity S-wave (km/s) = 4.44754 4.72247 4.58707
# Velocity P-wave (km/s) = 8.22917 8.72032 8.47830
#
# Compressibility (1/GPa) = 0.01220300
#
# Stress axis : x y z
#
# Youngs Moduli (GPa) = 72.03877 86.65772 105.95306
#
# Poissons Ratio (x) = 0.19434 0.56340
# Poissons Ratio (y) = 0.16155 0.39924
# Poissons Ratio (z) = 0.38306 0.32653
#
# Static dielectric constant tensor:
#      x y z
#    x 3.688360 0.000000 0.000000 
#    y 0.000000 3.674510 0.000000 
#    z 0.000000 0.000000 3.896390 
# 
# 
# High freq. dielectric constant tensor:
#      x y z
#    x 1.792120 0.000000 0.000000 
#    y 0.000000 1.780890 0.000000 
#    z 0.000000 0.000000 1.797330 
# 
# From -- ./inp_files/8878.got.cif
#   From: 2010.03.12/outbox.cif.g09.slc.cpg/sg57_5_cif.got.tgz:8878.got - 2010.04.16 15:48:40.
