data_PCOD8233315
_publ_section_title
;
Structure prediction by ZEFSAII (Michael W. Deem and Ramdas Pophale) SiO2 
 PCOD8233315
Probable space group: P B C M
;
_chemical_formula_sum "Si O2"
_cell_formula_units_Z 64
_cell_length_a 23.460499
_cell_length_b 14.710303
_cell_length_c 9.323497
_cell_angle_alpha 90.000000
_cell_angle_beta 90.000000
_cell_angle_gamma 90.000000
_cell_volume 3217.641828
_symmetry_space_group_name_H-M "P B C M"
_symmetry_group_IT_number 57
_symmetry_cell_setting 'orthorhombic'
loop_
_space_group_symop_operation_xyz
x,y,z
-x,-y,1/2+z
x,1/2-y,-z
-x,1/2+y,1/2-z
-x,-y,-z
x,y,1/2-z
-x,1/2+y,z
x,1/2-y,1/2+z
loop_
_atom_site_type_symbol
_atom_site_label
_atom_site_fract_x
_atom_site_fract_y
_atom_site_fract_z
Si Si1 0.044043 0.159062 0.920100
Si Si2 0.871744 0.532741 0.080430
Si Si3 0.651333 0.655431 0.581315
Si Si4 0.610224 0.328723 0.905852
Si Si5 0.256448 0.668833 0.092793
Si Si6 0.760441 0.964859 0.079823
Si Si7 0.087750 0.664094 0.913236
Si Si8 0.441396 0.013033 0.581213
O O1 0.057603 0.163941 0.750000
O O2 0.977683 0.142635 0.951519
O O3 0.065281 0.250000 0.000000
O O4 0.075724 0.075832 0.995544
O O5 0.874898 0.555267 0.250000
O O6 0.874509 0.424415 0.052315
O O7 0.813951 0.572864 0.010733
O O8 0.654373 0.750000 0.500000
O O9 0.651973 0.674334 0.750000
O O10 0.705500 0.594135 0.537725
O O11 0.593184 0.603486 0.535811
O O12 0.581634 0.319801 0.750000
O O13 0.676899 0.312385 0.895089
O O14 0.598040 0.428664 0.966633
O O15 0.581044 0.250000 0.000000
O O16 0.228260 0.674120 0.250000
O O17 0.248079 0.568679 0.027463
O O18 0.228066 0.750000 0.000000
O O19 0.772161 0.959423 0.250000
O O20 0.092868 0.693128 0.750000
O O21 0.111725 0.750000 0.000000
O O22 0.453188 0.014598 0.750000
O O23 0.500000 0.000000 0.500000
#
# Coordination Sequence:
#
# PCOD8233315 Si02
#       8
#     8   8   8   8   8   8   8   8
#     4  10  20  37  60  84 111 149 194 240 292 347
#     4  11  23  37  55  85 120 151 191 243 291 343
#     4  10  22  42  64  84 112 151 195 238 282 333
#     4   9  17  32  54  79 107 139 174 216 267 323
#     4   9  17  32  55  79 104 138 178 221 273 331
#     4  10  21  39  59  79 110 154 195 234 285 342
#     4   9  20  37  58  84 116 153 193 238 289 347
#     4  10  21  38  59  84 116 149 183 228 279 334
#
# _framework density 19.890343000000001
#
# number of rings (size 3 to 8) (size 9 to 14) (size 15 to 20)
#    0.000    2.250    1.250    1.125    0.000    5.000 
#    0.000    6.250    0.000    0.000    0.000    0.000 
#    0.000    0.000    0.000    0.000    0.000    0.000 
#
# Total GULP energy -793425.904893 kJ/mol
# GULP energy per Si atom -12397.279764 kJ/mol
# Density = 1.984507 g / cm^3
# Si number density = 19.890343 Si / 1000 Ang^3
#
#
#
# Elastic Constant Matrix: (Units=GPa)
#
#
# Indices 1 2 3 4 5 6 
#
# 1 87.2170 34.5710 44.4268 0.0000 0.0000 0.0000
# 2 34.5710 117.4128 52.1580 0.0000 0.0000 0.0000
# 3 44.4268 52.1580 79.5883 0.0000 0.0000 0.0000
# 4 0.0000 0.0000 0.0000 40.6849 0.0000 0.0000
# 5 0.0000 0.0000 0.0000 0.0000 27.6332 0.0000
# 6 0.0000 0.0000 0.0000 0.0000 0.0000 11.8242
#
#
#
# Elastic Compliance Matrix: (Units=1/GPa)
#
#
# Indices 1 2 3 4 5 6 
#
# 1 0.016113 -0.001056 -0.008302 0.000000 0.000000 0.000000
# 2 -0.001056 0.012084 -0.007330 0.000000 0.000000 0.000000
# 3 -0.008302 -0.007330 0.022003 0.000000 0.000000 0.000000
# 4 0.000000 0.000000 0.000000 0.024579 0.000000 0.000000
# 5 0.000000 0.000000 0.000000 0.000000 0.036188 0.000000
# 6 0.000000 0.000000 0.000000 0.000000 0.000000 0.084572
#
#
# Mechanical properties :
#
#
# Convention : Reuss Voigt Hill
#
# Bulk Modulus (GPa) = 59.44094 60.72552 60.08323
# Shear Modulus (GPa) = 21.31980 26.23262 23.77621
#
# Velocity S-wave (km/s) = 3.27749 3.63555 3.46116
# Velocity P-wave (km/s) = 6.65370 6.94402 6.80041
#
# Compressibility (1/GPa) = 0.01682342
#
# Stress axis : x y z
#
# Youngs Moduli (GPa) = 62.06004 82.75429 45.44928
#
# Poissons Ratio (x) = 0.08741 0.37734
# Poissons Ratio (y) = 0.06555 0.33312
# Poissons Ratio (z) = 0.51525 0.60655
#
# Static dielectric constant tensor:
#      x y z
#    x 3.470500 0.000000 0.000000 
#    y 0.000000 3.743360 0.000000 
#    z 0.000000 0.000000 3.711080 
# 
# 
# High freq. dielectric constant tensor:
#      x y z
#    x 1.769280 0.000000 0.000000 
#    y 0.000000 1.779880 0.000000 
#    z 0.000000 0.000000 1.770670 
# 
# From -- ./inp_files/9266.got.cif
#   From: 2010.03.12/outbox.cif.g09.slc.cpg/sg57_5_cif.got.tgz:9266.got - 2010.04.16 15:48:40.
