data_PCOD8233657
_publ_section_title
;
Structure prediction by ZEFSAII (Michael W. Deem and Ramdas Pophale) SiO2 
 PCOD8233657
Probable space group: P B C M
;
_chemical_formula_sum "Si O2"
_cell_formula_units_Z 40
_cell_length_a 21.156101
_cell_length_b 9.555956
_cell_length_c 9.933163
_cell_angle_alpha 90.000000
_cell_angle_beta 90.000000
_cell_angle_gamma 90.000000
_cell_volume 2008.155482
_symmetry_space_group_name_H-M "P B C M"
_symmetry_group_IT_number 57
_symmetry_cell_setting 'orthorhombic'
loop_
_space_group_symop_operation_xyz
x,y,z
-x,-y,1/2+z
x,1/2-y,-z
-x,1/2+y,1/2-z
-x,-y,-z
x,y,1/2-z
-x,1/2+y,z
x,1/2-y,1/2+z
loop_
_atom_site_type_symbol
_atom_site_label
_atom_site_fract_x
_atom_site_fract_y
_atom_site_fract_z
Si Si1 0.140192 0.090837 0.480121
Si Si2 0.652080 0.250000 0.000000
Si Si3 0.568238 0.175064 0.750000
Si Si4 0.646204 0.750000 0.500000
Si Si5 0.076178 0.040516 0.750000
Si Si6 0.725803 0.503290 0.091269
Si Si7 0.564197 0.668384 0.250000
Si Si8 0.045335 0.139705 0.250000
O O1 0.162184 0.250000 0.500000
O O2 0.120823 0.021249 0.620855
O O3 0.198448 0.007903 0.415027
O O4 0.080323 0.082707 0.381874
O O5 0.605958 0.265033 0.124808
O O6 0.701392 0.374885 0.004991
O O7 0.503297 0.258758 0.750000
O O8 0.560553 0.003676 0.750000
O O9 0.694279 0.622534 0.498136
O O10 0.600260 0.733825 0.374966
O O11 0.042295 0.191831 0.750000
O O12 0.025415 0.917053 0.750000
O O13 0.704271 0.503636 0.250000
#
# Coordination Sequence:
#
# PCOD8233657 Si02
#       8
#     8   4   4   4   4   8   4   4
#     4  10  21  38  67  92 127 170 217 271 324 388
#     4  12  25  48  68  94 139 174 210 278 336 386
#     4  12  28  48  68  98 137 174 222 270 323 391
#     4  12  23  44  74  96 131 172 220 268 326 402
#     4  10  22  38  60  96 121 174 224 256 327 383
#     4  12  24  46  68 100 134 170 221 277 337 394
#     4  12  28  46  67 106 133 172 223 268 323 391
#     4  10  20  40  61  84 135 172 209 274 317 379
#
# _framework density 19.918778
#
# number of rings (size 3 to 8) (size 9 to 14) (size 15 to 20)
#    0.000    0.800    6.000    1.200    2.800    3.200 
#    3.600    0.000    0.000    0.000    0.000    0.000 
#    0.000    0.000    0.000    0.000    0.000    0.000 
#
# Total GULP energy -495704.988154 kJ/mol
# GULP energy per Si atom -12392.624704 kJ/mol
# Density = 1.987344 g / cm^3
# Si number density = 19.918778 Si / 1000 Ang^3
#
#
#
# Elastic Constant Matrix: (Units=GPa)
#
#
# Indices 1 2 3 4 5 6 
#
# 1 108.4500 53.7045 36.8067 0.0000 0.0000 0.0000
# 2 53.7045 119.5918 50.4074 0.0000 0.0000 0.0000
# 3 36.8067 50.4074 133.3473 0.0000 0.0000 0.0000
# 4 0.0000 0.0000 0.0000 28.7606 0.0000 0.0000
# 5 0.0000 0.0000 0.0000 0.0000 23.1765 0.0000
# 6 0.0000 0.0000 0.0000 0.0000 0.0000 38.0010
#
#
#
# Elastic Compliance Matrix: (Units=1/GPa)
#
#
# Indices 1 2 3 4 5 6 
#
# 1 0.012115 -0.004795 -0.001531 0.000000 0.000000 0.000000
# 2 -0.004795 0.011844 -0.003154 0.000000 0.000000 0.000000
# 3 -0.001531 -0.003154 0.009114 0.000000 0.000000 0.000000
# 4 0.000000 0.000000 0.000000 0.034770 0.000000 0.000000
# 5 0.000000 0.000000 0.000000 0.000000 0.043147 0.000000
# 6 0.000000 0.000000 0.000000 0.000000 0.000000 0.026315
#
#
# Mechanical properties :
#
#
# Convention : Reuss Voigt Hill
#
# Bulk Modulus (GPa) = 70.85638 71.46959 71.16298
# Shear Modulus (GPa) = 31.06161 32.68565 31.87363
#
# Velocity S-wave (km/s) = 3.95323 4.05525 4.00456
# Velocity P-wave (km/s) = 7.51580 7.60823 7.56216
#
# Compressibility (1/GPa) = 0.01411306
#
# Stress axis : x y z
#
# Youngs Moduli (GPa) = 82.54192 84.42838 109.71976
#
# Poissons Ratio (x) = 0.40483 0.16803
# Poissons Ratio (y) = 0.39578 0.34604
# Poissons Ratio (z) = 0.12641 0.26627
#
# Static dielectric constant tensor:
#      x y z
#    x 3.706820 0.000000 0.000000 
#    y 0.000000 3.703970 0.000000 
#    z 0.000000 0.000000 3.727430 
# 
# 
# High freq. dielectric constant tensor:
#      x y z
#    x 1.794810 0.000000 0.000000 
#    y 0.000000 1.769120 0.000000 
#    z 0.000000 0.000000 1.789920 
# 
# From -- ./inp_files/9057.got.cif
#   From: 2010.03.12/outbox.cif.g09.slc.cpg/sg57_5_cif.got.tgz:9057.got - 2010.04.16 15:48:40.
