data_PCOD8233710
_publ_section_title
;
Structure prediction by ZEFSAII (Michael W. Deem and Ramdas Pophale) SiO2 
 PCOD8233710
Probable space group: P B C M
;
_chemical_formula_sum "Si O2"
_cell_formula_units_Z 60
_cell_length_a 9.179587
_cell_length_b 11.133691
_cell_length_c 29.521154
_cell_angle_alpha 90.000000
_cell_angle_beta 90.000000
_cell_angle_gamma 90.000000
_cell_volume 3017.141208
_symmetry_space_group_name_H-M "P B C M"
_symmetry_group_IT_number 57
_symmetry_cell_setting 'orthorhombic'
loop_
_space_group_symop_operation_xyz
x,y,z
-x,-y,1/2+z
x,1/2-y,-z
-x,1/2+y,1/2-z
-x,-y,-z
x,y,1/2-z
-x,1/2+y,z
x,1/2-y,1/2+z
loop_
_atom_site_type_symbol
_atom_site_label
_atom_site_fract_x
_atom_site_fract_y
_atom_site_fract_z
Si Si1 0.707200 0.965829 0.157311
Si Si2 0.817567 0.733490 0.300338
Si Si3 0.704981 0.750000 0.500000
Si Si4 0.444946 0.288884 0.410020
Si Si5 0.087304 0.055281 0.041575
Si Si6 0.751988 0.117767 0.607781
Si Si7 0.059533 0.661591 0.371665
Si Si8 0.408839 0.419458 0.658323
O O1 0.779900 0.873846 0.192651
O O2 0.649168 0.891429 0.114487
O O3 0.832912 0.057969 0.144464
O O4 0.566766 0.037722 0.176856
O O5 0.884313 0.719115 0.250000
O O6 0.664888 0.660936 0.302800
O O7 0.923339 0.674936 0.337747
O O8 0.601671 0.700639 0.538649
O O9 0.799186 0.855727 0.519990
O O10 0.616080 0.310360 0.411521
O O11 0.420384 0.158484 0.387836
O O12 0.989728 0.129332 0.077453
O O13 0.169199 0.948638 0.066885
O O14 0.000000 0.000000 0.000000
O O15 0.864642 0.209579 0.630023
O O16 0.696823 0.030904 0.647670
#
# Coordination Sequence:
#
# PCOD8233710 Si02
#       8
#     8   8   4   8   8   8   8   8
#     4  10  22  42  69  91 123 166 213 262 320 386
#     4  11  25  43  68  99 128 162 208 270 333 400
#     4  12  22  38  56  90 132 170 212 280 312 370
#     4  10  21  39  66  89 125 167 220 267 322 372
#     4  12  24  38  59  91 136 176 221 264 321 384
#     4  11  22  40  66  91 123 175 216 266 323 385
#     4  12  23  43  67  96 131 175 215 265 333 399
#     4  10  20  46  67  92 125 170 214 265 325 390
#
# _framework density 19.886374
#
# number of rings (size 3 to 8) (size 9 to 14) (size 15 to 20)
#    0.000    1.067    4.000    3.200    0.000    2.667 
#    0.000    0.000    0.000    0.000    0.000    0.000 
#    0.000    0.000    0.000    0.000    0.000    0.000 
#
# Total GULP energy -744007.947084 kJ/mol
# GULP energy per Si atom -12400.132451 kJ/mol
# Density = 1.984111 g / cm^3
# Si number density = 19.886374 Si / 1000 Ang^3
#
#
#
# Elastic Constant Matrix: (Units=GPa)
#
#
# Indices 1 2 3 4 5 6 
#
# 1 91.9870 37.9696 30.4579 0.0000 0.0000 0.0000
# 2 37.9696 97.0916 25.2285 0.0000 0.0000 0.0000
# 3 30.4579 25.2285 70.1130 0.0000 0.0000 0.0000
# 4 0.0000 0.0000 0.0000 14.7837 0.0000 0.0000
# 5 0.0000 0.0000 0.0000 0.0000 25.4217 0.0000
# 6 0.0000 0.0000 0.0000 0.0000 0.0000 63.3407
#
#
#
# Elastic Compliance Matrix: (Units=1/GPa)
#
#
# Indices 1 2 3 4 5 6 
#
# 1 0.014191 -0.004355 -0.004598 0.000000 0.000000 0.000000
# 2 -0.004355 0.012698 -0.002677 0.000000 0.000000 0.000000
# 3 -0.004598 -0.002677 0.017223 0.000000 0.000000 0.000000
# 4 0.000000 0.000000 0.000000 0.067642 0.000000 0.000000
# 5 0.000000 0.000000 0.000000 0.000000 0.039336 0.000000
# 6 0.000000 0.000000 0.000000 0.000000 0.000000 0.015788
#
#
# Mechanical properties :
#
#
# Convention : Reuss Voigt Hill
#
# Bulk Modulus (GPa) = 47.95551 49.61151 48.78351
# Shear Modulus (GPa) = 25.36915 31.74493 28.55704
#
# Velocity S-wave (km/s) = 3.57558 3.99973 3.79358
# Velocity P-wave (km/s) = 6.41977 6.80677 6.61610
#
# Compressibility (1/GPa) = 0.02085266
#
# Stress axis : x y z
#
# Youngs Moduli (GPa) = 70.46680 78.75038 58.06069
#
# Poissons Ratio (x) = 0.34296 0.26695
# Poissons Ratio (y) = 0.30688 0.15545
# Poissons Ratio (z) = 0.32399 0.21084
#
# Static dielectric constant tensor:
#      x y z
#    x 3.817930 0.000000 0.000000 
#    y 0.000000 3.820170 0.000000 
#    z 0.000000 0.000000 3.246000 
# 
# 
# High freq. dielectric constant tensor:
#      x y z
#    x 1.792180 0.000000 0.000000 
#    y 0.000000 1.795200 0.000000 
#    z 0.000000 0.000000 1.752580 
# 
# From -- ./inp_files/28411.got.cif
#   From: 2010.03.12/outbox.cif.g09.slc.cpg/sg57_15_cif.got.tgz:28411.got - 2010.04.16 15:48:40.
