data_PCOD8233994
_publ_section_title
;
Structure prediction by ZEFSAII (Michael W. Deem and Ramdas Pophale) SiO2 
 PCOD8233994
Probable space group: P B C M
;
_chemical_formula_sum "Si O2"
_cell_formula_units_Z 36
_cell_length_a 21.147736
_cell_length_b 9.099228
_cell_length_c 9.080105
_cell_angle_alpha 90.000000
_cell_angle_beta 90.000000
_cell_angle_gamma 90.000000
_cell_volume 1747.267095
_symmetry_space_group_name_H-M "P B C M"
_symmetry_group_IT_number 57
_symmetry_cell_setting 'orthorhombic'
loop_
_space_group_symop_operation_xyz
x,y,z
-x,-y,1/2+z
x,1/2-y,-z
-x,1/2+y,1/2-z
-x,-y,-z
x,y,1/2-z
-x,1/2+y,z
x,1/2-y,1/2+z
loop_
_atom_site_type_symbol
_atom_site_label
_atom_site_fract_x
_atom_site_fract_y
_atom_site_fract_z
Si Si1 0.661519 0.593674 0.076435
Si Si2 0.911939 0.007514 0.405220
Si Si3 0.556259 0.408497 0.928988
Si Si4 0.997165 0.750000 0.500000
Si Si5 0.194946 0.400354 0.917506
O O1 0.642393 0.601371 0.250000
O O2 0.733954 0.541860 0.057685
O O3 0.649730 0.750000 0.000000
O O4 0.621956 0.475487 0.985263
O O5 0.875484 0.007738 0.250000
O O6 0.857396 0.017975 0.529265
O O7 0.952942 0.858243 0.407194
O O8 0.957712 0.147676 0.402477
O O9 0.553025 0.404941 0.750000
O O10 0.549777 0.250000 0.000000
O O11 0.500000 0.500000 0.000000
O O12 0.181658 0.366514 0.750000
O O13 0.182593 0.250000 0.000000
#
# Coordination Sequence:
#
# PCOD8233994 Si02
#       5
#     8   8   8   4   8
#     4  10  21  40  64  93 126 165 210 260 309 368
#     4  11  22  39  61  86 117 156 202 253 310 371
#     4  12  25  43  67  97 132 171 211 257 306 363
#     4  10  24  38  58  88 118 154 198 256 310 374
#     4  10  21  37  61  89 121 159 205 253 305 366
#
# _framework density 20.603605000000002
#
# number of rings (size 3 to 8) (size 9 to 14) (size 15 to 20)
#    0.000    1.333    1.111    4.667    0.000    7.111 
#    2.000    0.000    0.000    0.000    0.000    0.000 
#    0.000    0.000    0.000    0.000    0.000    0.000 
#
# Total GULP energy -446178.344119 kJ/mol
# GULP energy per Si atom -12393.842892 kJ/mol
# Density = 2.055671 g / cm^3
# Si number density = 20.603605 Si / 1000 Ang^3
#
#
#
# Elastic Constant Matrix: (Units=GPa)
#
#
# Indices 1 2 3 4 5 6 
#
# 1 131.1501 57.5222 77.1880 0.0000 0.0000 0.0000
# 2 57.5222 122.7250 57.9780 0.0000 0.0000 0.0000
# 3 77.1880 57.9780 186.0195 0.0000 0.0000 0.0000
# 4 0.0000 0.0000 0.0000 21.8153 0.0000 0.0000
# 5 0.0000 0.0000 0.0000 0.0000 28.1736 0.0000
# 6 0.0000 0.0000 0.0000 0.0000 0.0000 23.0319
#
#
#
# Elastic Compliance Matrix: (Units=1/GPa)
#
#
# Indices 1 2 3 4 5 6 
#
# 1 0.011310 -0.003616 -0.003566 0.000000 0.000000 0.000000
# 2 -0.003616 0.010712 -0.001838 0.000000 0.000000 0.000000
# 3 -0.003566 -0.001838 0.007428 0.000000 0.000000 0.000000
# 4 0.000000 0.000000 0.000000 0.045839 0.000000 0.000000
# 5 0.000000 0.000000 0.000000 0.000000 0.035494 0.000000
# 6 0.000000 0.000000 0.000000 0.000000 0.000000 0.043418
#
#
# Mechanical properties :
#
#
# Convention : Reuss Voigt Hill
#
# Bulk Modulus (GPa) = 87.64784 91.69677 89.67231
# Shear Modulus (GPa) = 28.40193 31.08457 29.74325
#
# Velocity S-wave (km/s) = 3.71683 3.88841 3.80359
# Velocity P-wave (km/s) = 7.81359 8.04745 7.93138
#
# Compressibility (1/GPa) = 0.01140929
#
# Stress axis : x y z
#
# Youngs Moduli (GPa) = 88.42063 93.35653 134.62186
#
# Poissons Ratio (x) = 0.33761 0.48002
# Poissons Ratio (y) = 0.31976 0.24743
# Poissons Ratio (z) = 0.31528 0.17159
#
# Static dielectric constant tensor:
#      x y z
#    x 3.982950 0.000000 0.000000 
#    y 0.000000 3.795900 0.000000 
#    z 0.000000 0.000000 4.133340 
# 
# 
# High freq. dielectric constant tensor:
#      x y z
#    x 1.818130 0.000000 0.000000 
#    y 0.000000 1.794180 0.000000 
#    z 0.000000 0.000000 1.821470 
# 
# From -- ./inp_files/7644.got.cif
#   From: 2010.03.12/outbox.cif.g09.slc.cpg/sg57_4_cif.got.tgz:7644.got - 2010.04.16 15:48:40.
