data_PCOD8233968
_publ_section_title
;
Structure prediction by ZEFSAII (Michael W. Deem and Ramdas Pophale) SiO2 
 PCOD8233968
Probable space group: P B C M
;
_chemical_formula_sum "Si O2"
_cell_formula_units_Z 48
_cell_length_a 28.704270
_cell_length_b 8.970872
_cell_length_c 9.419271
_cell_angle_alpha 90.000000
_cell_angle_beta 90.000000
_cell_angle_gamma 90.000000
_cell_volume 2425.484248
_symmetry_space_group_name_H-M "P B C M"
_symmetry_group_IT_number 57
_symmetry_cell_setting 'orthorhombic'
loop_
_space_group_symop_operation_xyz
x,y,z
-x,-y,1/2+z
x,1/2-y,-z
-x,1/2+y,1/2-z
-x,-y,-z
x,y,1/2-z
-x,1/2+y,z
x,1/2-y,1/2+z
loop_
_atom_site_type_symbol
_atom_site_label
_atom_site_fract_x
_atom_site_fract_y
_atom_site_fract_z
Si Si1 0.098237 0.073306 0.483090
Si Si2 0.287728 0.900900 0.082116
Si Si3 0.961809 0.420593 0.250000
Si Si4 0.798137 0.607776 0.408257
Si Si5 0.359896 0.097042 0.914788
Si Si6 0.060015 0.932286 0.750000
Si Si7 0.464891 0.399899 0.086536
O O1 0.088530 0.250000 0.500000
O O2 0.150132 0.043633 0.428256
O O3 0.059674 0.001322 0.384245
O O4 0.093707 0.976025 0.622893
O O5 0.299020 0.881077 0.250000
O O6 0.239018 0.982347 0.056686
O O7 0.280550 0.750000 0.000000
O O8 0.329704 0.981162 0.002434
O O9 0.954143 0.241947 0.250000
O O10 0.016402 0.455269 0.250000
O O11 0.786729 0.750000 0.500000
O O12 0.792573 0.666401 0.250000
O O13 0.343221 0.117032 0.750000
O O14 0.412648 0.034111 0.915016
O O15 0.355479 0.250000 0.000000
O O16 0.481645 0.377483 0.250000
O O17 0.464141 0.250000 0.000000
O O18 0.500000 0.500000 0.000000
#
# Coordination Sequence:
#
# PCOD8233968 Si02
#       7
#     8   8   4   8   8   4   8
#     4  11  23  43  65  93 125 160 206 255 305 369
#     4  11  24  41  61  91 125 162 204 255 309 367
#     4  12  24  44  64  92 130 160 208 252 307 372
#     4  10  23  42  66  92 121 158 201 246 300 365
#     4  10  21  39  62  89 120 161 208 258 310 372
#     4  12  26  40  66  94 122 170 202 254 311 362
#     4  10  21  37  59  87 121 160 207 256 312 372
#
# _framework density 19.789864000000001
#
# number of rings (size 3 to 8) (size 9 to 14) (size 15 to 20)
#    0.000    1.333    0.833    4.500    3.500    6.667 
#    0.000    0.000    0.000    0.000    0.000    0.000 
#    0.000    0.000    0.000    0.000    0.000    0.000 
#
# Total GULP energy -595027.566837 kJ/mol
# GULP energy per Si atom -12396.407642 kJ/mol
# Density = 1.974482 g / cm^3
# Si number density = 19.789864 Si / 1000 Ang^3
#
#
#
# Elastic Constant Matrix: (Units=GPa)
#
#
# Indices 1 2 3 4 5 6 
#
# 1 93.1639 51.9508 40.3462 0.0000 0.0000 0.0000
# 2 51.9508 112.3797 41.5205 0.0000 0.0000 0.0000
# 3 40.3462 41.5205 106.0257 0.0000 0.0000 0.0000
# 4 0.0000 0.0000 0.0000 41.3229 0.0000 0.0000
# 5 0.0000 0.0000 0.0000 0.0000 39.6467 0.0000
# 6 0.0000 0.0000 0.0000 0.0000 0.0000 16.6208
#
#
#
# Elastic Compliance Matrix: (Units=1/GPa)
#
#
# Indices 1 2 3 4 5 6 
#
# 1 0.015573 -0.005857 -0.003632 0.000000 0.000000 0.000000
# 2 -0.005857 0.012606 -0.002708 0.000000 0.000000 0.000000
# 3 -0.003632 -0.002708 0.011874 0.000000 0.000000 0.000000
# 4 0.000000 0.000000 0.000000 0.024200 0.000000 0.000000
# 5 0.000000 0.000000 0.000000 0.000000 0.025223 0.000000
# 6 0.000000 0.000000 0.000000 0.000000 0.000000 0.060165
#
#
# Mechanical properties :
#
#
# Convention : Reuss Voigt Hill
#
# Bulk Modulus (GPa) = 63.86093 64.35605 64.10849
# Shear Modulus (GPa) = 27.89308 31.36822 29.63065
#
# Velocity S-wave (km/s) = 3.75835 3.98561 3.87365
# Velocity P-wave (km/s) = 7.15355 7.33283 7.24374
#
# Compressibility (1/GPa) = 0.01565903
#
# Stress axis : x y z
#
# Youngs Moduli (GPa) = 64.21439 79.32419 84.21491
#
# Poissons Ratio (x) = 0.46460 0.30590
# Poissons Ratio (y) = 0.37610 0.22806
# Poissons Ratio (z) = 0.23325 0.21481
#
# Static dielectric constant tensor:
#      x y z
#    x 4.191230 0.000000 0.000000 
#    y 0.000000 -1.579320 0.000000 
#    z 0.000000 0.000000 3.940420 
# 
# 
# High freq. dielectric constant tensor:
#      x y z
#    x 1.783270 0.000000 0.000000 
#    y 0.000000 1.768410 0.000000 
#    z 0.000000 0.000000 1.797750 
# 
# From -- ./inp_files/10134.got.cif
#   From: 2010.03.12/outbox.cif.g09.slc.cpg/sg57_6_cif.got.tgz:10134.got - 2010.04.16 15:48:40.
