data_PCOD8233467
_publ_section_title
;
Structure prediction by ZEFSAII (Michael W. Deem and Ramdas Pophale) SiO2 
 PCOD8233467
Probable space group: P B C M
;
_chemical_formula_sum "Si O2"
_cell_formula_units_Z 48
_cell_length_a 16.687559
_cell_length_b 15.765312
_cell_length_c 9.111748
_cell_angle_alpha 90.000000
_cell_angle_beta 90.000000
_cell_angle_gamma 90.000000
_cell_volume 2397.160342
_symmetry_space_group_name_H-M "P B C M"
_symmetry_group_IT_number 57
_symmetry_cell_setting 'orthorhombic'
loop_
_space_group_symop_operation_xyz
x,y,z
-x,-y,1/2+z
x,1/2-y,-z
-x,1/2+y,1/2-z
-x,-y,-z
x,y,1/2-z
-x,1/2+y,z
x,1/2-y,1/2+z
loop_
_atom_site_type_symbol
_atom_site_label
_atom_site_fract_x
_atom_site_fract_y
_atom_site_fract_z
Si Si1 0.839409 0.587329 0.081073
Si Si2 0.687402 0.165157 0.575735
Si Si3 0.828742 0.082798 0.420565
Si Si4 0.004663 0.835706 0.580866
Si Si5 0.675186 0.666589 0.082988
Si Si6 0.584786 0.000915 0.923299
O O1 0.847559 0.556386 0.250000
O O2 0.771261 0.658880 0.067187
O O3 0.922938 0.623463 0.018873
O O4 0.810729 0.509980 0.981667
O O5 0.651826 0.250000 0.500000
O O6 0.692810 0.177320 0.750000
O O7 0.776139 0.150268 0.510653
O O8 0.631655 0.086073 0.530928
O O9 0.805283 0.088346 0.250000
O O10 0.922620 0.100091 0.446009
O O11 0.025867 0.750000 0.500000
O O12 0.992343 0.813473 0.750000
O O13 0.649493 0.679314 0.250000
O O14 0.633671 0.581416 0.020905
O O15 0.644397 0.750000 0.000000
O O16 0.573067 0.998355 0.750000
O O17 0.500000 0.000000 0.000000
#
# Coordination Sequence:
#
# PCOD8233467 Si02
#       6
#     8   8   8   8   8   8
#     4  10  20  38  59  81 118 160 199 250 304 354
#     4  11  23  42  65  91 124 163 204 250 303 360
#     4  11  22  36  57  88 119 157 208 251 299 358
#     4  10  22  36  53  81 117 157 202 251 301 354
#     4  10  21  39  62  90 121 158 200 242 298 358
#     4  10  23  43  65  90 123 158 196 245 305 364
#
# _framework density 20.023692
#
# number of rings (size 3 to 8) (size 9 to 14) (size 15 to 20)
#    0.000    1.667    1.667    2.500    0.000    6.667 
#    0.000    3.333    0.000    0.000    0.000    0.000 
#    0.000    0.000    0.000    0.000    0.000    0.000 
#
# Total GULP energy -595372.056427 kJ/mol
# GULP energy per Si atom -12403.584509 kJ/mol
# Density = 1.997812 g / cm^3
# Si number density = 20.023692 Si / 1000 Ang^3
#
#
#
# Elastic Constant Matrix: (Units=GPa)
#
#
# Indices 1 2 3 4 5 6 
#
# 1 111.3985 42.8156 36.9434 0.0000 0.0000 0.0000
# 2 42.8156 148.3740 55.1425 0.0000 0.0000 0.0000
# 3 36.9434 55.1425 67.9854 0.0000 0.0000 0.0000
# 4 0.0000 0.0000 0.0000 36.9805 0.0000 0.0000
# 5 0.0000 0.0000 0.0000 0.0000 32.4511 0.0000
# 6 0.0000 0.0000 0.0000 0.0000 0.0000 21.2040
#
#
#
# Elastic Compliance Matrix: (Units=1/GPa)
#
#
# Indices 1 2 3 4 5 6 
#
# 1 0.011145 -0.001382 -0.004935 0.000000 0.000000 0.000000
# 2 -0.001382 0.009819 -0.007214 0.000000 0.000000 0.000000
# 3 -0.004935 -0.007214 0.023242 0.000000 0.000000 0.000000
# 4 0.000000 0.000000 0.000000 0.027041 0.000000 0.000000
# 5 0.000000 0.000000 0.000000 0.000000 0.030816 0.000000
# 6 0.000000 0.000000 0.000000 0.000000 0.000000 0.047161
#
#
# Mechanical properties :
#
#
# Convention : Reuss Voigt Hill
#
# Bulk Modulus (GPa) = 58.32769 66.39567 62.36168
# Shear Modulus (GPa) = 27.47261 30.98419 29.22840
#
# Velocity S-wave (km/s) = 3.70808 3.93794 3.82473
# Velocity P-wave (km/s) = 6.89389 7.34214 7.12154
#
# Compressibility (1/GPa) = 0.01714452
#
# Stress axis : x y z
#
# Youngs Moduli (GPa) = 89.72999 101.83984 43.02605
#
# Poissons Ratio (x) = 0.14072 0.21234
# Poissons Ratio (y) = 0.12399 0.31037
# Poissons Ratio (z) = 0.44284 0.73463
#
# Static dielectric constant tensor:
#      x y z
#    x 3.633590 0.000000 0.000000 
#    y 0.000000 3.658940 0.000000 
#    z 0.000000 0.000000 3.564360 
# 
# 
# High freq. dielectric constant tensor:
#      x y z
#    x 1.782360 0.000000 0.000000 
#    y 0.000000 1.787200 0.000000 
#    z 0.000000 0.000000 1.775220 
# 
# From -- ./inp_files/6485.got.cif
#   From: 2010.03.12/outbox.cif.g09.slc.cpg/sg57_4_cif.got.tgz:6485.got - 2010.04.16 15:48:40.
