data_PCOD8233151
_publ_section_title
;
Structure prediction by ZEFSAII (Michael W. Deem and Ramdas Pophale) SiO2 
 PCOD8233151
Probable space group: P B C M
;
_chemical_formula_sum "Si O2"
_cell_formula_units_Z 64
_cell_length_a 23.801257
_cell_length_b 15.097862
_cell_length_c 8.621885
_cell_angle_alpha 90.000000
_cell_angle_beta 90.000000
_cell_angle_gamma 90.000000
_cell_volume 3098.257938
_symmetry_space_group_name_H-M "P B C M"
_symmetry_group_IT_number 57
_symmetry_cell_setting 'orthorhombic'
loop_
_space_group_symop_operation_xyz
x,y,z
-x,-y,1/2+z
x,1/2-y,-z
-x,1/2+y,1/2-z
-x,-y,-z
x,y,1/2-z
-x,1/2+y,z
x,1/2-y,1/2+z
loop_
_atom_site_type_symbol
_atom_site_label
_atom_site_fract_x
_atom_site_fract_y
_atom_site_fract_z
Si Si1 0.894753 0.151939 0.066543
Si Si2 0.803734 0.487164 0.933641
Si Si3 0.495309 0.402748 0.432807
Si Si4 0.861997 0.651943 0.433878
Si Si5 0.629740 0.655746 0.567564
Si Si6 0.015968 0.154524 0.431395
Si Si7 0.315222 0.512424 0.932971
Si Si8 0.394061 0.659710 0.433065
O O1 0.889552 0.160442 0.250000
O O2 0.956462 0.108906 0.020694
O O3 0.848206 0.084622 0.000546
O O4 0.884990 0.250000 0.000000
O O5 0.805043 0.490400 0.750000
O O6 0.816520 0.584888 0.997986
O O7 0.743038 0.456455 0.991787
O O8 0.500000 0.500000 0.500000
O O9 0.507078 0.403759 0.250000
O O10 0.434749 0.363644 0.473736
O O11 0.540654 0.341691 0.518921
O O12 0.851359 0.750000 0.500000
O O13 0.855393 0.655971 0.250000
O O14 0.924165 0.614001 0.486580
O O15 0.647131 0.750000 0.500000
O O16 0.640697 0.651578 0.750000
O O17 0.670451 0.586575 0.484390
O O18 0.010841 0.250000 0.500000
O O19 0.019312 0.164541 0.250000
O O20 0.310425 0.518345 0.750000
O O21 0.364223 0.575832 0.992186
O O22 0.367045 0.750000 0.500000
O O23 0.386995 0.656021 0.250000
#
# Coordination Sequence:
#
# PCOD8233151 Si02
#       8
#     8   8   8   8   8   8   8   8
#     4   9  19  36  59  86 118 156 194 241 297 356
#     4  11  24  41  60  85 119 157 202 251 302 360
#     4  11  22  38  65  98 134 170 204 247 302 361
#     4  10  20  36  59  87 119 155 197 245 298 358
#     4  11  24  42  66  96 128 164 204 249 302 361
#     4   8  15  30  53  83 117 151 190 236 292 355
#     4  12  26  45  66  88 119 159 208 260 311 363
#     4  12  25  43  67  96 129 165 208 254 305 365
#
# _framework density 20.656770999999999
#
# number of rings (size 3 to 8) (size 9 to 14) (size 15 to 20)
#    0.000    1.500    1.250    4.125    0.000    5.500 
#    0.000    3.750    0.000    0.000    0.000    0.000 
#    0.000    0.000    0.000    0.000    0.000    0.000 
#
# Total GULP energy -793431.108811 kJ/mol
# GULP energy per Si atom -12397.361075 kJ/mol
# Density = 2.060976 g / cm^3
# Si number density = 20.656771 Si / 1000 Ang^3
#
#
#
# Elastic Constant Matrix: (Units=GPa)
#
#
# Indices 1 2 3 4 5 6 
#
# 1 79.3907 9.7792 18.3730 0.0000 0.0000 0.0000
# 2 9.7792 84.3606 26.8775 0.0000 0.0000 0.0000
# 3 18.3730 26.8775 66.4646 0.0000 0.0000 0.0000
# 4 0.0000 0.0000 0.0000 33.1324 0.0000 0.0000
# 5 0.0000 0.0000 0.0000 0.0000 24.4576 0.0000
# 6 0.0000 0.0000 0.0000 0.0000 0.0000 26.6189
#
#
#
# Elastic Compliance Matrix: (Units=1/GPa)
#
#
# Indices 1 2 3 4 5 6 
#
# 1 0.013470 -0.000431 -0.003550 0.000000 0.000000 0.000000
# 2 -0.000431 0.013621 -0.005389 0.000000 0.000000 0.000000
# 3 -0.003550 -0.005389 0.018206 0.000000 0.000000 0.000000
# 4 0.000000 0.000000 0.000000 0.030182 0.000000 0.000000
# 5 0.000000 0.000000 0.000000 0.000000 0.040887 0.000000
# 6 0.000000 0.000000 0.000000 0.000000 0.000000 0.037567
#
#
# Mechanical properties :
#
#
# Convention : Reuss Voigt Hill
#
# Bulk Modulus (GPa) = 37.65217 37.80835 37.73026
# Shear Modulus (GPa) = 27.54444 28.52087 28.03265
#
# Velocity S-wave (km/s) = 3.65558 3.71981 3.68784
# Velocity P-wave (km/s) = 6.00706 6.06566 6.03643
#
# Compressibility (1/GPa) = 0.02655889
#
# Stress axis : x y z
#
# Youngs Moduli (GPa) = 74.23668 73.41738 54.92678
#
# Poissons Ratio (x) = 0.03162 0.19496
# Poissons Ratio (y) = 0.03197 0.29600
# Poissons Ratio (z) = 0.26351 0.39565
#
# Static dielectric constant tensor:
#      x y z
#    x 4.176090 0.000000 0.000000 
#    y 0.000000 3.668980 0.000000 
#    z 0.000000 0.000000 3.757730 
# 
# 
# High freq. dielectric constant tensor:
#      x y z
#    x 1.818190 0.000000 0.000000 
#    y 0.000000 1.804010 0.000000 
#    z 0.000000 0.000000 1.814520 
# 
# From -- ./inp_files/9446.got.cif
#   From: 2010.03.12/outbox.cif.g09.slc.cpg/sg57_5_cif.got.tgz:9446.got - 2010.04.16 15:48:40.
