data_PCOD8233613
_publ_section_title
;
Structure prediction by ZEFSAII (Michael W. Deem and Ramdas Pophale) SiO2 
 PCOD8233613
Probable space group: P B C M
;
_chemical_formula_sum "Si O2"
_cell_formula_units_Z 40
_cell_length_a 12.252142
_cell_length_b 18.758312
_cell_length_c 8.795144
_cell_angle_alpha 90.000000
_cell_angle_beta 90.000000
_cell_angle_gamma 90.000000
_cell_volume 2021.383568
_symmetry_space_group_name_H-M "P B C M"
_symmetry_group_IT_number 57
_symmetry_cell_setting 'orthorhombic'
loop_
_space_group_symop_operation_xyz
x,y,z
-x,-y,1/2+z
x,1/2-y,-z
-x,1/2+y,1/2-z
-x,-y,-z
x,y,1/2-z
-x,1/2+y,z
x,1/2-y,1/2+z
loop_
_atom_site_type_symbol
_atom_site_label
_atom_site_fract_x
_atom_site_fract_y
_atom_site_fract_z
Si Si1 0.332452 0.601450 0.425301
Si Si2 0.302028 0.056763 0.569608
Si Si3 0.055908 0.431012 0.430610
Si Si4 0.469563 0.174698 0.570460
Si Si5 0.104341 0.674876 0.425842
O O1 0.368215 0.608237 0.250000
O O2 0.342851 0.520660 0.487178
O O3 0.408510 0.652706 0.524121
O O4 0.207611 0.623771 0.446919
O O5 0.301694 0.056332 0.750000
O O6 0.180404 0.072978 0.510802
O O7 0.384340 0.116398 0.505876
O O8 0.048895 0.436160 0.250000
O O9 0.000000 0.500000 0.500000
O O10 0.998084 0.359572 0.488559
O O11 0.436986 0.250000 0.500000
O O12 0.462987 0.181139 0.750000
O O13 0.132533 0.750000 0.500000
O O14 0.074520 0.685163 0.250000
#
# Coordination Sequence:
#
# PCOD8233613 Si02
#       5
#     8   8   8   8   8
#     4  10  20  39  63  87 118 152 195 248 301 353
#     4   9  20  39  62  87 118 154 194 247 298 349
#     4  11  21  39  63  89 121 158 198 245 298 355
#     4  11  23  39  59  85 119 157 197 241 296 352
#     4  11  23  39  60  89 123 159 199 248 303 356
#
# _framework density 19.788426999999999
#
# number of rings (size 3 to 8) (size 9 to 14) (size 15 to 20)
#    0.000    1.600    2.000    3.000    0.000    4.000 
#    0.000    7.000    0.000    0.000    0.000    0.000 
#    0.000    0.000    0.000    0.000    0.000    0.000 
#
# Total GULP energy -496192.315613 kJ/mol
# GULP energy per Si atom -12404.807890 kJ/mol
# Density = 1.974339 g / cm^3
# Si number density = 19.788427 Si / 1000 Ang^3
#
#
#
# Elastic Constant Matrix: (Units=GPa)
#
#
# Indices 1 2 3 4 5 6 
#
# 1 80.7698 29.6003 28.2403 0.0000 0.0000 0.0000
# 2 29.6003 137.8068 34.9016 0.0000 0.0000 0.0000
# 3 28.2403 34.9016 74.6754 0.0000 0.0000 0.0000
# 4 0.0000 0.0000 0.0000 35.3159 0.0000 0.0000
# 5 0.0000 0.0000 0.0000 0.0000 24.4273 0.0000
# 6 0.0000 0.0000 0.0000 0.0000 0.0000 34.2071
#
#
#
# Elastic Compliance Matrix: (Units=1/GPa)
#
#
# Indices 1 2 3 4 5 6 
#
# 1 0.014733 -0.001989 -0.004642 0.000000 0.000000 0.000000
# 2 -0.001989 0.008499 -0.003220 0.000000 0.000000 0.000000
# 3 -0.004642 -0.003220 0.016652 0.000000 0.000000 0.000000
# 4 0.000000 0.000000 0.000000 0.028316 0.000000 0.000000
# 5 0.000000 0.000000 0.000000 0.000000 0.040938 0.000000
# 6 0.000000 0.000000 0.000000 0.000000 0.000000 0.029234
#
#
# Mechanical properties :
#
#
# Convention : Reuss Voigt Hill
#
# Bulk Modulus (GPa) = 49.54989 53.19295 51.37142
# Shear Modulus (GPa) = 30.33968 32.15739 31.24854
#
# Velocity S-wave (km/s) = 3.91986 4.03558 3.97814
# Velocity P-wave (km/s) = 6.75139 6.97522 6.86422
#
# Compressibility (1/GPa) = 0.02018168
#
# Stress axis : x y z
#
# Youngs Moduli (GPa) = 67.87591 117.65664 60.05344
#
# Poissons Ratio (x) = 0.23401 0.27877
# Poissons Ratio (y) = 0.13500 0.19339
# Poissons Ratio (z) = 0.31508 0.37888
#
# Static dielectric constant tensor:
#      x y z
#    x 3.736240 0.000000 0.000000 
#    y 0.000000 3.794570 0.000000 
#    z 0.000000 0.000000 3.498620 
# 
# 
# High freq. dielectric constant tensor:
#      x y z
#    x 1.777920 0.000000 0.000000 
#    y 0.000000 1.785070 0.000000 
#    z 0.000000 0.000000 1.759020 
# 
# From -- ./inp_files/2626.got.cif
#   From: 2010.03.12/outbox.cif.g09.slc.cpg/sg57_2_cif.got.tgz:2626.got - 2010.04.16 15:48:40.
