data_PCOD8233069
_publ_section_title
;
Structure prediction by ZEFSAII (Michael W. Deem and Ramdas Pophale) SiO2 
 PCOD8233069
Probable space group: P B C M
;
_chemical_formula_sum "Si O2"
_cell_formula_units_Z 56
_cell_length_a 16.355759
_cell_length_b 9.908063
_cell_length_c 17.121873
_cell_angle_alpha 90.000000
_cell_angle_beta 90.000000
_cell_angle_gamma 90.000000
_cell_volume 2774.666134
_symmetry_space_group_name_H-M "P B C M"
_symmetry_group_IT_number 57
_symmetry_cell_setting 'orthorhombic'
loop_
_space_group_symop_operation_xyz
x,y,z
-x,-y,1/2+z
x,1/2-y,-z
-x,1/2+y,1/2-z
-x,-y,-z
x,y,1/2-z
-x,1/2+y,z
x,1/2-y,1/2+z
loop_
_atom_site_type_symbol
_atom_site_label
_atom_site_fract_x
_atom_site_fract_y
_atom_site_fract_z
Si Si1 0.494974 0.869712 0.553319
Si Si2 0.691035 0.185521 0.417210
Si Si3 0.938127 0.506482 0.343306
Si Si4 0.644073 0.838554 0.841397
Si Si5 0.253004 0.082186 0.658284
Si Si6 0.923566 0.808827 0.342370
Si Si7 0.761863 0.435560 0.159333
O O1 0.526941 0.750000 0.500000
O O2 0.405240 0.841546 0.586818
O O3 0.555254 0.875498 0.626287
O O4 0.500000 0.000000 0.500000
O O5 0.717731 0.250000 0.500000
O O6 0.717739 0.292925 0.352388
O O7 0.736905 0.046715 0.397597
O O8 0.941346 0.506392 0.250000
O O9 0.944478 0.659855 0.375298
O O10 0.853819 0.439791 0.374794
O O11 0.012755 0.417711 0.377585
O O12 0.637518 0.861639 0.750000
O O13 0.673605 0.686627 0.859979
O O14 0.708224 0.944582 0.879108
O O15 0.253575 0.040795 0.750000
O O16 0.168058 0.151111 0.634024
O O17 0.931750 0.805743 0.250000
O O18 0.768730 0.467065 0.250000
#
# Coordination Sequence:
#
# PCOD8233069 Si02
#       7
#     8   8   8   8   8   8   8
#     4  11  23  41  60  82 113 151 197 243 286 347
#     4  11  24  39  55  81 114 151 195 242 285 345
#     4   9  17  30  52  85 119 148 182 227 280 339
#     4  10  20  36  60  86 117 150 188 243 301 352
#     4  10  20  36  58  87 118 149 191 240 290 346
#     4   9  17  30  52  86 119 147 183 229 282 339
#     4  10  20  36  57  85 119 151 185 234 291 342
#
# _framework density 20.182607999999998
#
# number of rings (size 3 to 8) (size 9 to 14) (size 15 to 20)
#    0.000    2.000    1.429    3.000    2.000    1.143 
#    0.000    3.571    0.000    0.857    0.000    0.000 
#    0.000    0.000    0.000    0.000    0.000    0.000 
#
# Total GULP energy -694298.760116 kJ/mol
# GULP energy per Si atom -12398.192145 kJ/mol
# Density = 2.013667 g / cm^3
# Si number density = 20.182608 Si / 1000 Ang^3
#
#
#
# Elastic Constant Matrix: (Units=GPa)
#
#
# Indices 1 2 3 4 5 6 
#
# 1 133.0636 71.8220 35.9896 0.0000 0.0000 0.0000
# 2 71.8220 162.9751 34.0887 0.0000 0.0000 0.0000
# 3 35.9896 34.0887 26.5925 0.0000 0.0000 0.0000
# 4 0.0000 0.0000 0.0000 29.8625 0.0000 0.0000
# 5 0.0000 0.0000 0.0000 0.0000 13.3043 0.0000
# 6 0.0000 0.0000 0.0000 0.0000 0.0000 38.9351
#
#
#
# Elastic Compliance Matrix: (Units=1/GPa)
#
#
# Indices 1 2 3 4 5 6 
#
# 1 0.012686 -0.002732 -0.013667 0.000000 0.000000 0.000000
# 2 -0.002732 0.008972 -0.007804 0.000000 0.000000 0.000000
# 3 -0.013667 -0.007804 0.066105 0.000000 0.000000 0.000000
# 4 0.000000 0.000000 0.000000 0.033487 0.000000 0.000000
# 5 0.000000 0.000000 0.000000 0.000000 0.075164 0.000000
# 6 0.000000 0.000000 0.000000 0.000000 0.000000 0.025684
#
#
# Mechanical properties :
#
#
# Convention : Reuss Voigt Hill
#
# Bulk Modulus (GPa) = 25.40820 67.38132 46.39476
# Shear Modulus (GPa) = 17.62903 28.46912 23.04907
#
# Velocity S-wave (km/s) = 2.95867 3.75984 3.38305
# Velocity P-wave (km/s) = 4.92830 7.23235 6.18850
#
# Compressibility (1/GPa) = 0.03935737
#
# Stress axis : x y z
#
# Youngs Moduli (GPa) = 78.82425 111.45513 15.12746
#
# Poissons Ratio (x) = 0.30451 0.20675
# Poissons Ratio (y) = 0.21536 0.11805
# Poissons Ratio (z) = 1.07731 0.86977
#
# Static dielectric constant tensor:
#      x y z
#    x 3.820920 0.000000 0.000000 
#    y 0.000000 3.863620 0.000000 
#    z 0.000000 0.000000 3.260630 
# 
# 
# High freq. dielectric constant tensor:
#      x y z
#    x 1.797760 0.000000 0.000000 
#    y 0.000000 1.804950 0.000000 
#    z 0.000000 0.000000 1.743800 
# 
# From -- ./inp_files/25366.got.cif
#   From: 2010.03.12/outbox.cif.g09.slc.cpg/sg57_13_cif.got.tgz:25366.got - 2010.04.16 15:48:40.
