data_PCOD8233428
_publ_section_title
;
Structure prediction by ZEFSAII (Michael W. Deem and Ramdas Pophale) SiO2 
 PCOD8233428
Probable space group: P B C M
;
_chemical_formula_sum "Si O2"
_cell_formula_units_Z 44
_cell_length_a 9.832357
_cell_length_b 7.979330
_cell_length_c 26.684855
_cell_angle_alpha 90.000000
_cell_angle_beta 90.000000
_cell_angle_gamma 90.000000
_cell_volume 2093.576875
_symmetry_space_group_name_H-M "P B C M"
_symmetry_group_IT_number 57
_symmetry_cell_setting 'orthorhombic'
loop_
_space_group_symop_operation_xyz
x,y,z
-x,-y,1/2+z
x,1/2-y,-z
-x,1/2+y,1/2-z
-x,-y,-z
x,y,1/2-z
-x,1/2+y,z
x,1/2-y,1/2+z
loop_
_atom_site_type_symbol
_atom_site_label
_atom_site_fract_x
_atom_site_fract_y
_atom_site_fract_z
Si Si1 0.590613 0.528423 0.450809
Si Si2 0.195277 0.680731 0.693143
Si Si3 0.066848 0.143164 0.347576
Si Si4 0.189968 0.250000 0.000000
Si Si5 0.642320 0.304806 0.897568
Si Si6 0.122668 0.442958 0.089155
O O1 0.500000 0.500000 0.500000
O O2 0.715471 0.649056 0.461570
O O3 0.505936 0.611111 0.404463
O O4 0.653676 0.353640 0.433818
O O5 0.244767 0.698743 0.750000
O O6 0.162789 0.484300 0.682809
O O7 0.319817 0.748286 0.658991
O O8 0.061324 0.794982 0.685471
O O9 0.150185 0.303926 0.367200
O O10 0.010932 0.047959 0.396906
O O11 0.093678 0.136090 0.965341
O O12 0.746586 0.442604 0.917014
#
# Coordination Sequence:
#
# PCOD8233428 Si02
#       6
#     8   8   8   4   8   8
#     4  12  21  37  59  87 112 159 197 250 294 359
#     4  10  20  37  64  90 116 157 196 241 298 354
#     4   9  20  39  57  85 126 153 196 238 298 347
#     4  12  22  34  60  82 116 152 214 226 308 348
#     4  11  22  38  60  87 122 147 207 249 297 348
#     4  10  21  36  56  86 117 162 188 253 285 358
#
# _framework density 21.016662
#
# number of rings (size 3 to 8) (size 9 to 14) (size 15 to 20)
#    0.000    1.455    3.636    1.636    0.000    0.727 
#    0.000    1.818    0.000    0.000    0.000    0.000 
#    0.000    0.000    0.000    0.000    0.000    0.000 
#
# Total GULP energy -545548.455025 kJ/mol
# GULP energy per Si atom -12398.828523 kJ/mol
# Density = 2.096883 g / cm^3
# Si number density = 21.016662 Si / 1000 Ang^3
#
#
#
# Elastic Constant Matrix: (Units=GPa)
#
#
# Indices 1 2 3 4 5 6 
#
# 1 41.6101 26.1190 40.1729 0.0000 0.0000 0.0000
# 2 26.1190 129.0296 51.6053 0.0000 0.0000 0.0000
# 3 40.1729 51.6053 132.5650 0.0000 0.0000 0.0000
# 4 0.0000 0.0000 0.0000 25.6819 0.0000 0.0000
# 5 0.0000 0.0000 0.0000 0.0000 31.1329 0.0000
# 6 0.0000 0.0000 0.0000 0.0000 0.0000 37.6954
#
#
#
# Elastic Compliance Matrix: (Units=1/GPa)
#
#
# Indices 1 2 3 4 5 6 
#
# 1 0.035177 -0.003384 -0.009343 0.000000 0.000000 0.000000
# 2 -0.003384 0.009505 -0.002675 0.000000 0.000000 0.000000
# 3 -0.009343 -0.002675 0.011416 0.000000 0.000000 0.000000
# 4 0.000000 0.000000 0.000000 0.038938 0.000000 0.000000
# 5 0.000000 0.000000 0.000000 0.000000 0.032120 0.000000
# 6 0.000000 0.000000 0.000000 0.000000 0.000000 0.026528
#
#
# Mechanical properties :
#
#
# Convention : Reuss Voigt Hill
#
# Bulk Modulus (GPa) = 39.53374 59.88880 49.71127
# Shear Modulus (GPa) = 25.91765 31.25588 28.58676
#
# Velocity S-wave (km/s) = 3.51550 3.86060 3.69208
# Velocity P-wave (km/s) = 5.94389 6.95917 6.47147
#
# Compressibility (1/GPa) = 0.02529485
#
# Stress axis : x y z
#
# Youngs Moduli (GPa) = 28.42775 105.20908 87.59730
#
# Poissons Ratio (x) = 0.35604 0.81840
# Poissons Ratio (y) = 0.09620 0.23428
# Poissons Ratio (z) = 0.26559 0.28139
#
# Static dielectric constant tensor:
#      x y z
#    x 3.578540 0.000000 0.000000 
#    y 0.000000 4.274620 0.000000 
#    z 0.000000 0.000000 3.678010 
# 
# 
# High freq. dielectric constant tensor:
#      x y z
#    x 1.794440 0.000000 0.000000 
#    y 0.000000 1.851810 0.000000 
#    z 0.000000 0.000000 1.805290 
# 
# From -- ./inp_files/27035.got.cif
#   From: 2010.03.12/outbox.cif.g09.slc.cpg/sg57_14_cif.got.tgz:27035.got - 2010.04.16 15:48:40.
