data_PCOD8233062
_publ_section_title
;
Structure prediction by ZEFSAII (Michael W. Deem and Ramdas Pophale) SiO2 
 PCOD8233062
Probable space group: P B C M
;
_chemical_formula_sum "Si O2"
_cell_formula_units_Z 56
_cell_length_a 16.090829
_cell_length_b 19.383548
_cell_length_c 9.024391
_cell_angle_alpha 90.000000
_cell_angle_beta 90.000000
_cell_angle_gamma 90.000000
_cell_volume 2814.683695
_symmetry_space_group_name_H-M "P B C M"
_symmetry_group_IT_number 57
_symmetry_cell_setting 'orthorhombic'
loop_
_space_group_symop_operation_xyz
x,y,z
-x,-y,1/2+z
x,1/2-y,-z
-x,1/2+y,1/2-z
-x,-y,-z
x,y,1/2-z
-x,1/2+y,z
x,1/2-y,1/2+z
loop_
_atom_site_type_symbol
_atom_site_label
_atom_site_fract_x
_atom_site_fract_y
_atom_site_fract_z
Si Si1 0.797967 0.820088 0.074422
Si Si2 0.499138 0.572500 0.081595
Si Si3 0.071128 0.543675 0.578070
Si Si4 0.245698 0.553186 0.076688
Si Si5 0.360066 0.823719 0.922166
Si Si6 0.014908 0.315370 0.082267
Si Si7 0.684878 0.570051 0.080253
O O1 0.786513 0.815697 0.250000
O O2 0.892973 0.834261 0.024076
O O3 0.765116 0.750000 0.000000
O O4 0.746354 0.882847 0.011868
O O5 0.470645 0.558091 0.250000
O O6 0.437332 0.630661 0.014031
O O7 0.592665 0.602146 0.073878
O O8 0.500000 0.500000 0.000000
O O9 0.077386 0.521947 0.750000
O O10 0.158488 0.534158 0.498105
O O11 0.000000 0.500000 0.500000
O O12 0.048465 0.623148 0.559372
O O13 0.239154 0.535875 0.250000
O O14 0.275225 0.632288 0.051718
O O15 0.314692 0.504852 0.998915
O O16 0.374389 0.808605 0.750000
O O17 0.352924 0.750000 0.000000
O O18 0.023920 0.292611 0.250000
O O19 0.976076 0.250000 0.000000
O O20 0.715034 0.563094 0.250000
#
# Coordination Sequence:
#
# PCOD8233062 Si02
#       7
#     8   8   8   8   8   8   8
#     4  10  20  36  57  83 118 156 196 243 300 358
#     4  10  21  39  62  89 119 155 200 248 302 364
#     4  11  23  39  60  89 122 155 200 251 302 361
#     4  11  23  40  61  86 119 160 203 249 305 362
#     4  10  23  42  63  89 123 161 205 253 306 364
#     4   9  20  37  57  80 109 149 192 237 290 352
#     4  11  22  36  60  90 119 153 200 248 300 364
#
# _framework density 19.895664
#
# number of rings (size 3 to 8) (size 9 to 14) (size 15 to 20)
#    0.000    1.714    1.429    2.571    0.000    6.286 
#    0.000    4.286    0.000    0.000    0.000    0.000 
#    0.000    0.000    0.000    0.000    0.000    0.000 
#
# Total GULP energy -694397.721515 kJ/mol
# GULP energy per Si atom -12399.959313 kJ/mol
# Density = 1.985038 g / cm^3
# Si number density = 19.895664 Si / 1000 Ang^3
#
#
#
# Elastic Constant Matrix: (Units=GPa)
#
#
# Indices 1 2 3 4 5 6 
#
# 1 93.3149 30.0203 39.8818 0.0000 0.0000 0.0000
# 2 30.0203 94.2298 49.8211 0.0000 0.0000 0.0000
# 3 39.8818 49.8211 106.7685 0.0000 0.0000 0.0000
# 4 0.0000 0.0000 0.0000 41.6982 0.0000 0.0000
# 5 0.0000 0.0000 0.0000 0.0000 26.2947 0.0000
# 6 0.0000 0.0000 0.0000 0.0000 0.0000 24.8549
#
#
#
# Elastic Compliance Matrix: (Units=1/GPa)
#
#
# Indices 1 2 3 4 5 6 
#
# 1 0.013058 -0.002099 -0.003898 0.000000 0.000000 0.000000
# 2 -0.002099 0.014426 -0.005947 0.000000 0.000000 0.000000
# 3 -0.003898 -0.005947 0.013597 0.000000 0.000000 0.000000
# 4 0.000000 0.000000 0.000000 0.023982 0.000000 0.000000
# 5 0.000000 0.000000 0.000000 0.000000 0.038030 0.000000
# 6 0.000000 0.000000 0.000000 0.000000 0.000000 0.040234
#
#
# Mechanical properties :
#
#
# Convention : Reuss Voigt Hill
#
# Bulk Modulus (GPa) = 58.16737 59.30663 58.73700
# Shear Modulus (GPa) = 28.91084 30.20890 29.55987
#
# Velocity S-wave (km/s) = 3.81612 3.90085 3.85872
# Velocity P-wave (km/s) = 6.97974 7.08254 7.03133
#
# Compressibility (1/GPa) = 0.01719177
#
# Stress axis : x y z
#
# Youngs Moduli (GPa) = 76.58344 69.32165 73.54411
#
# Poissons Ratio (x) = 0.14551 0.28668
# Poissons Ratio (y) = 0.16075 0.43739
# Poissons Ratio (z) = 0.29853 0.41228
#
# Static dielectric constant tensor:
#      x y z
#    x 3.771140 0.000000 0.000000 
#    y 0.000000 3.631900 0.000000 
#    z 0.000000 0.000000 3.727300 
# 
# 
# High freq. dielectric constant tensor:
#      x y z
#    x 1.781230 0.000000 0.000000 
#    y 0.000000 1.775470 0.000000 
#    z 0.000000 0.000000 1.780630 
# 
# From -- ./inp_files/5195.got.cif
#   From: 2010.03.12/outbox.cif.g09.slc.cpg/sg57_3_cif.got.tgz:5195.got - 2010.04.16 15:48:40.
