data_PCOD8233385
_publ_section_title
;
Structure prediction by ZEFSAII (Michael W. Deem and Ramdas Pophale) SiO2 
 PCOD8233385
Probable space group: P B C M
;
_chemical_formula_sum "Si O2"
_cell_formula_units_Z 48
_cell_length_a 11.772752
_cell_length_b 15.781847
_cell_length_c 14.319262
_cell_angle_alpha 90.000000
_cell_angle_beta 90.000000
_cell_angle_gamma 90.000000
_cell_volume 2660.458321
_symmetry_space_group_name_H-M "P B C M"
_symmetry_group_IT_number 57
_symmetry_cell_setting 'orthorhombic'
loop_
_space_group_symop_operation_xyz
x,y,z
-x,-y,1/2+z
x,1/2-y,-z
-x,1/2+y,1/2-z
-x,-y,-z
x,y,1/2-z
-x,1/2+y,z
x,1/2-y,1/2+z
loop_
_atom_site_type_symbol
_atom_site_label
_atom_site_fract_x
_atom_site_fract_y
_atom_site_fract_z
Si Si1 0.341540 0.043075 0.642789
Si Si2 0.418077 0.855091 0.643055
Si Si3 0.912270 0.122843 0.516530
Si Si4 0.632838 0.843380 0.983568
Si Si5 0.155782 0.063070 0.511501
Si Si6 0.814445 0.230345 0.139874
O O1 0.362322 0.065532 0.750000
O O2 0.411811 0.110573 0.579220
O O3 0.207764 0.050634 0.616047
O O4 0.377690 0.948554 0.615734
O O5 0.452912 0.851588 0.750000
O O6 0.530747 0.834100 0.587595
O O7 0.319725 0.785941 0.622010
O O8 0.881234 0.155308 0.412889
O O9 0.852272 0.179981 0.595954
O O10 0.048906 0.125713 0.521933
O O11 0.874826 0.026590 0.534806
O O12 0.680017 0.750000 0.000000
O O13 0.743773 0.895729 0.946938
O O14 0.843339 0.227137 0.250000
#
# Coordination Sequence:
#
# PCOD8233385 Si02
#       6
#     8   8   8   8   8   8
#     4   9  19  36  60  83 112 150 193 231 287 352
#     4  10  20  38  58  85 115 151 193 240 291 344
#     4  10  20  37  62  82 120 149 193 244 281 347
#     4  10  22  35  58  82 118 150 191 234 290 340
#     4   9  21  37  56  85 115 155 189 229 298 340
#     4  10  21  36  61  88 113 150 195 238 291 341
#
# _framework density 18.042005
#
# number of rings (size 3 to 8) (size 9 to 14) (size 15 to 20)
#    1.000    1.333    1.667    0.500    4.667    1.333 
#    0.000    4.167    0.000    0.000    0.000    0.000 
#    0.000    0.000    0.000    0.000    0.000    0.000 
#
# Total GULP energy -594670.532226 kJ/mol
# GULP energy per Si atom -12388.969421 kJ/mol
# Density = 1.800094 g / cm^3
# Si number density = 18.042005 Si / 1000 Ang^3
#
#
#
# Elastic Constant Matrix: (Units=GPa)
#
#
# Indices 1 2 3 4 5 6 
#
# 1 125.1011 56.9078 41.0119 0.0000 0.0000 0.0000
# 2 56.9078 108.0456 42.4817 0.0000 0.0000 0.0000
# 3 41.0119 42.4817 74.0940 0.0000 0.0000 0.0000
# 4 0.0000 0.0000 0.0000 15.6357 0.0000 0.0000
# 5 0.0000 0.0000 0.0000 0.0000 23.8425 0.0000
# 6 0.0000 0.0000 0.0000 0.0000 0.0000 16.7664
#
#
#
# Elastic Compliance Matrix: (Units=1/GPa)
#
#
# Indices 1 2 3 4 5 6 
#
# 1 0.011226 -0.004480 -0.003646 0.000000 0.000000 0.000000
# 2 -0.004480 0.013736 -0.005396 0.000000 0.000000 0.000000
# 3 -0.003646 -0.005396 0.018608 0.000000 0.000000 0.000000
# 4 0.000000 0.000000 0.000000 0.063956 0.000000 0.000000
# 5 0.000000 0.000000 0.000000 0.000000 0.041942 0.000000
# 6 0.000000 0.000000 0.000000 0.000000 0.000000 0.059643
#
#
# Mechanical properties :
#
#
# Convention : Reuss Voigt Hill
#
# Bulk Modulus (GPa) = 60.50277 65.33817 62.92047
# Shear Modulus (GPa) = 20.68983 22.37154 21.53069
#
# Velocity S-wave (km/s) = 3.39006 3.52514 3.45826
# Velocity P-wave (km/s) = 6.99503 7.27062 7.13416
#
# Compressibility (1/GPa) = 0.01652817
#
# Stress axis : x y z
#
# Youngs Moduli (GPa) = 89.07576 72.79882 53.73967
#
# Poissons Ratio (x) = 0.32611 0.19591
# Poissons Ratio (y) = 0.39902 0.29000
# Poissons Ratio (z) = 0.32473 0.39284
#
# Static dielectric constant tensor:
#      x y z
#    x 3.273850 0.000000 0.000000 
#    y 0.000000 3.396470 0.000000 
#    z 0.000000 0.000000 3.131040 
# 
# 
# High freq. dielectric constant tensor:
#      x y z
#    x 1.697290 0.000000 0.000000 
#    y 0.000000 1.708980 0.000000 
#    z 0.000000 0.000000 1.675400 
# 
# From -- ./inp_files/17814.got.cif
#   From: 2010.03.12/outbox.cif.g09.slc.cpg/sg57_9_cif.got.tgz:17814.got - 2010.04.16 15:48:40.
