data_PCOD8233793
_publ_section_title
;
Structure prediction by ZEFSAII (Michael W. Deem and Ramdas Pophale) SiO2 
 PCOD8233793
Probable space group: P B C M
;
_chemical_formula_sum "Si O2"
_cell_formula_units_Z 56
_cell_length_a 30.898017
_cell_length_b 5.099859
_cell_length_c 17.106804
_cell_angle_alpha 90.000000
_cell_angle_beta 90.000000
_cell_angle_gamma 90.000000
_cell_volume 2695.613708
_symmetry_space_group_name_H-M "P B C M"
_symmetry_group_IT_number 57
_symmetry_cell_setting 'orthorhombic'
loop_
_space_group_symop_operation_xyz
x,y,z
-x,-y,1/2+z
x,1/2-y,-z
-x,1/2+y,1/2-z
-x,-y,-z
x,y,1/2-z
-x,1/2+y,z
x,1/2-y,1/2+z
loop_
_atom_site_type_symbol
_atom_site_label
_atom_site_fract_x
_atom_site_fract_y
_atom_site_fract_z
Si Si1 0.667621 0.269133 0.591747
Si Si2 0.527434 0.849153 0.840739
Si Si3 0.812797 0.904260 0.660573
Si Si4 0.757237 0.087520 0.338560
Si Si5 0.027914 0.536739 0.660322
Si Si6 0.892357 0.997803 0.551087
Si Si7 0.620269 0.732618 0.091987
O O1 0.660886 0.250000 0.500000
O O2 0.717486 0.328768 0.607832
O O3 0.637595 0.496940 0.628940
O O4 0.650410 0.997271 0.628581
O O5 0.539716 0.831056 0.750000
O O6 0.492995 0.626884 0.863557
O O7 0.570394 0.813394 0.890251
O O8 0.826840 0.841318 0.750000
O O9 0.777653 0.687670 0.632765
O O10 0.853583 0.890154 0.604208
O O11 0.793723 0.193246 0.653996
O O12 0.740367 0.062382 0.250000
O O13 0.043487 0.559376 0.750000
O O14 0.068561 0.591825 0.605528
O O15 0.008541 0.252042 0.642105
O O16 0.907515 0.750000 0.500000
O O17 0.878032 0.250000 0.500000
O O18 0.626558 0.750000 0.000000
#
# Coordination Sequence:
#
# PCOD8233793 Si02
#       7
#     8   8   8   8   8   8   8
#     4  10  21  36  54  80 112 143 177 225 279 330
#     4  10  21  36  54  78 106 137 176 223 273 320
#     4  10  22  41  60  82 116 154 193 237 284 343
#     4  10  21  37  60  85 109 146 193 235 279 335
#     4  10  22  41  64  88 118 160 202 239 290 353
#     4  12  25  39  60  91 122 154 195 244 296 344
#     4  10  21  36  54  78 108 143 181 218 268 332
#
# _framework density 20.774488999999999
#
# number of rings (size 3 to 8) (size 9 to 14) (size 15 to 20)
#    0.000    1.714    0.000    3.857    0.000    5.143 
#    0.000    5.714    0.000    0.000    0.000    0.000 
#    0.000    0.000    0.000    0.000    0.000    0.000 
#
# Total GULP energy -694582.994817 kJ/mol
# GULP energy per Si atom -12403.267765 kJ/mol
# Density = 2.072721 g / cm^3
# Si number density = 20.774489 Si / 1000 Ang^3
#
#
#
# Elastic Constant Matrix: (Units=GPa)
#
#
# Indices 1 2 3 4 5 6 
#
# 1 90.3425 20.1982 33.2826 0.0000 0.0000 0.0000
# 2 20.1982 119.2841 32.5369 0.0000 0.0000 0.0000
# 3 33.2826 32.5369 41.1263 0.0000 0.0000 0.0000
# 4 0.0000 0.0000 0.0000 22.6088 0.0000 0.0000
# 5 0.0000 0.0000 0.0000 0.0000 51.8970 0.0000
# 6 0.0000 0.0000 0.0000 0.0000 0.0000 31.6678
#
#
#
# Elastic Compliance Matrix: (Units=1/GPa)
#
#
# Indices 1 2 3 4 5 6 
#
# 1 0.015872 0.001041 -0.013668 0.000000 0.000000 0.000000
# 2 0.001041 0.010759 -0.009354 0.000000 0.000000 0.000000
# 3 -0.013668 -0.009354 0.042777 0.000000 0.000000 0.000000
# 4 0.000000 0.000000 0.000000 0.044231 0.000000 0.000000
# 5 0.000000 0.000000 0.000000 0.000000 0.019269 0.000000
# 6 0.000000 0.000000 0.000000 0.000000 0.000000 0.031578
#
#
# Mechanical properties :
#
#
# Convention : Reuss Voigt Hill
#
# Bulk Modulus (GPa) = 39.30068 46.97648 43.13858
# Shear Modulus (GPa) = 23.04918 32.21708 27.63313
#
# Velocity S-wave (km/s) = 3.33452 3.94229 3.65108
# Velocity P-wave (km/s) = 5.81242 6.58665 6.21161
#
# Compressibility (1/GPa) = 0.02544485
#
# Stress axis : x y z
#
# Youngs Moduli (GPa) = 63.00554 92.94950 23.37730
#
# Poissons Ratio (x) = -0.09673 0.31952
# Poissons Ratio (y) = -0.06557 0.21866
# Poissons Ratio (z) = 0.86115 0.86942
#
# Static dielectric constant tensor:
#      x y z
#    x 3.494510 0.000000 0.000000 
#    y 0.000000 4.200190 0.000000 
#    z 0.000000 0.000000 3.685920 
# 
# 
# High freq. dielectric constant tensor:
#      x y z
#    x 1.811430 0.000000 0.000000 
#    y 0.000000 1.836760 0.000000 
#    z 0.000000 0.000000 1.800340 
# 
# From -- ./inp_files/19649.got.cif
#   From: 2010.03.12/outbox.cif.g09.slc.cpg/sg57_10_cif.got.tgz:19649.got - 2010.04.16 15:48:40.
