data_PCOD8233450
_publ_section_title
;
Structure prediction by ZEFSAII (Michael W. Deem and Ramdas Pophale) SiO2 
 PCOD8233450
Probable space group: P B C M
;
_chemical_formula_sum "Si O2"
_cell_formula_units_Z 48
_cell_length_a 28.230864
_cell_length_b 9.149613
_cell_length_c 9.562732
_cell_angle_alpha 90.000000
_cell_angle_beta 90.000000
_cell_angle_gamma 90.000000
_cell_volume 2470.067831
_symmetry_space_group_name_H-M "P B C M"
_symmetry_group_IT_number 57
_symmetry_cell_setting 'orthorhombic'
loop_
_space_group_symop_operation_xyz
x,y,z
-x,-y,1/2+z
x,1/2-y,-z
-x,1/2+y,1/2-z
-x,-y,-z
x,y,1/2-z
-x,1/2+y,z
x,1/2-y,1/2+z
loop_
_atom_site_type_symbol
_atom_site_label
_atom_site_fract_x
_atom_site_fract_y
_atom_site_fract_z
Si Si1 0.227879 0.609394 0.586343
Si Si2 0.392302 0.584888 0.523612
Si Si3 0.533763 0.351685 0.250000
Si Si4 0.963489 0.599700 0.416187
Si Si5 0.559863 0.021670 0.250000
Si Si6 0.879882 0.385264 0.091365
Si Si7 0.306371 0.111534 0.093789
O O1 0.244601 0.750000 0.500000
O O2 0.235317 0.642662 0.750000
O O3 0.173531 0.570584 0.549594
O O4 0.259897 0.473109 0.537920
O O5 0.374074 0.750000 0.500000
O O6 0.439988 0.585537 0.614669
O O7 0.405486 0.503249 0.381036
O O8 0.350661 0.497731 0.597757
O O9 0.533676 0.176970 0.250000
O O10 0.479104 0.395511 0.250000
O O11 0.961717 0.750000 0.500000
O O12 0.976873 0.619246 0.250000
O O13 0.911971 0.527162 0.430450
O O14 0.000000 0.500000 0.500000
O O15 0.882177 0.329406 0.250000
O O16 0.898963 0.250000 0.000000
O O17 0.297143 0.168211 0.250000
O O18 0.317363 0.250000 0.000000
#
# Coordination Sequence:
#
# PCOD8233450 Si02
#       7
#     8   8   4   8   4   8   8
#     4   9  19  38  61  86 114 149 189 233 282 341
#     4  10  21  39  59  82 110 148 186 225 272 327
#     4  10  20  38  56  84 114 142 182 224 273 322
#     4  11  23  38  57  84 117 158 200 247 298 350
#     4  10  22  34  60  84 110 146 180 222 271 332
#     4   9  19  36  59  85 115 149 191 237 287 342
#     4  11  24  39  57  83 115 146 184 233 281 330
#
# _framework density 19.432665
#
# number of rings (size 3 to 8) (size 9 to 14) (size 15 to 20)
#    0.000    2.000    0.833    2.000    1.167    5.333 
#    0.000    0.000    0.000    0.000    0.000    0.000 
#    0.000    0.000    0.000    0.000    0.000    0.000 
#
# Total GULP energy -595280.609551 kJ/mol
# GULP energy per Si atom -12401.679366 kJ/mol
# Density = 1.938844 g / cm^3
# Si number density = 19.432665 Si / 1000 Ang^3
#
#
#
# Elastic Constant Matrix: (Units=GPa)
#
#
# Indices 1 2 3 4 5 6 
#
# 1 73.9829 40.2076 24.4041 0.0000 0.0000 0.0000
# 2 40.2076 99.0205 40.5382 0.0000 0.0000 0.0000
# 3 24.4041 40.5382 95.5905 0.0000 0.0000 0.0000
# 4 0.0000 0.0000 0.0000 34.0019 0.0000 0.0000
# 5 0.0000 0.0000 0.0000 0.0000 51.8608 0.0000
# 6 0.0000 0.0000 0.0000 0.0000 0.0000 33.2547
#
#
#
# Elastic Compliance Matrix: (Units=1/GPa)
#
#
# Indices 1 2 3 4 5 6 
#
# 1 0.017588 -0.006418 -0.001769 0.000000 0.000000 0.000000
# 2 -0.006418 0.014562 -0.004537 0.000000 0.000000 0.000000
# 3 -0.001769 -0.004537 0.012837 0.000000 0.000000 0.000000
# 4 0.000000 0.000000 0.000000 0.029410 0.000000 0.000000
# 5 0.000000 0.000000 0.000000 0.000000 0.019282 0.000000
# 6 0.000000 0.000000 0.000000 0.000000 0.000000 0.030071
#
#
# Mechanical properties :
#
#
# Convention : Reuss Voigt Hill
#
# Bulk Modulus (GPa) = 51.17614 53.21044 52.19329
# Shear Modulus (GPa) = 32.11088 34.71975 33.41532
#
# Velocity S-wave (km/s) = 4.06940 4.23149 4.15124
# Velocity P-wave (km/s) = 6.96221 7.16348 7.06356
#
# Compressibility (1/GPa) = 0.01954036
#
# Stress axis : x y z
#
# Youngs Moduli (GPa) = 56.85772 68.67061 77.90014
#
# Poissons Ratio (x) = 0.44070 0.13777
# Poissons Ratio (y) = 0.36489 0.35345
# Poissons Ratio (z) = 0.10056 0.31157
#
# Static dielectric constant tensor:
#      x y z
#    x 3.570510 0.000000 0.000000 
#    y 0.000000 3.437700 0.000000 
#    z 0.000000 0.000000 3.779430 
# 
# 
# High freq. dielectric constant tensor:
#      x y z
#    x 1.761370 0.000000 0.000000 
#    y 0.000000 1.746070 0.000000 
#    z 0.000000 0.000000 1.768640 
# 
# From -- ./inp_files/10132.got.cif
#   From: 2010.03.12/outbox.cif.g09.slc.cpg/sg57_6_cif.got.tgz:10132.got - 2010.04.16 15:48:40.
