data_PCOD8233075
_publ_section_title
;
Structure prediction by ZEFSAII (Michael W. Deem and Ramdas Pophale) SiO2 
 PCOD8233075
Probable space group: P B C M
;
_chemical_formula_sum "Si O2"
_cell_formula_units_Z 56
_cell_length_a 31.805231
_cell_length_b 5.234078
_cell_length_c 15.621768
_cell_angle_alpha 90.000000
_cell_angle_beta 90.000000
_cell_angle_gamma 90.000000
_cell_volume 2600.572276
_symmetry_space_group_name_H-M "P B C M"
_symmetry_group_IT_number 57
_symmetry_cell_setting 'orthorhombic'
loop_
_space_group_symop_operation_xyz
x,y,z
-x,-y,1/2+z
x,1/2-y,-z
-x,1/2+y,1/2-z
-x,-y,-z
x,y,1/2-z
-x,1/2+y,z
x,1/2-y,1/2+z
loop_
_atom_site_type_symbol
_atom_site_label
_atom_site_fract_x
_atom_site_fract_y
_atom_site_fract_z
Si Si1 0.251388 0.497611 0.554736
Si Si2 0.833910 0.452095 0.148567
Si Si3 0.389149 0.535953 0.149237
Si Si4 0.337938 0.034025 0.350251
Si Si5 0.023724 0.450049 0.147870
Si Si6 0.881167 0.547751 0.647841
Si Si7 0.518068 0.014676 0.095707
O O1 0.239222 0.250000 0.500000
O O2 0.214263 0.550496 0.621059
O O3 0.293443 0.436371 0.605519
O O4 0.258757 0.750000 0.500000
O O5 0.835468 0.451540 0.250000
O O6 0.857993 0.700278 0.112243
O O7 0.856894 0.200195 0.111785
O O8 0.399410 0.546207 0.250000
O O9 0.361428 0.777143 0.119891
O O10 0.431931 0.542619 0.095570
O O11 0.365274 0.278515 0.123239
O O12 0.329598 0.027125 0.250000
O O13 0.023431 0.449999 0.250000
O O14 0.071274 0.454810 0.113093
O O15 0.999302 0.697600 0.112430
O O16 0.880941 0.546236 0.750000
O O17 0.503254 0.756450 0.143870
O O18 0.500000 0.000000 0.000000
#
# Coordination Sequence:
#
# PCOD8233075 Si02
#       7
#     8   8   8   8   8   8   8
#     4  12  25  42  59  91 120 147 189 238 295 347
#     4  10  20  36  58  79 111 155 191 235 283 344
#     4  10  21  39  64  88 115 154 198 238 277 334
#     4  10  22  43  65  89 119 155 195 236 288 349
#     4   9  15  23  38  65 107 148 179 229 292 342
#     4   9  17  29  48  77 107 148 200 232 280 352
#     4  10  21  38  54  85 119 155 191 232 283 331
#
# _framework density 21.533723999999999
#
# number of rings (size 3 to 8) (size 9 to 14) (size 15 to 20)
#    0.000    2.000    0.000    3.857    0.000    4.000 
#   15.429    5.714    0.000    0.000    0.000    0.000 
#    0.000   40.000    0.000    0.000    0.000    0.000 
#
# Total GULP energy -694498.613758 kJ/mol
# GULP energy per Si atom -12401.760960 kJ/mol
# Density = 2.148471 g / cm^3
# Si number density = 21.533724 Si / 1000 Ang^3
#
#
#
# Elastic Constant Matrix: (Units=GPa)
#
#
# Indices 1 2 3 4 5 6 
#
# 1 164.5228 57.8531 29.3949 0.0000 0.0000 0.0000
# 2 57.8531 193.5670 16.9293 0.0000 0.0000 0.0000
# 3 29.3949 16.9293 16.6880 0.0000 0.0000 0.0000
# 4 0.0000 0.0000 0.0000 4.1004 0.0000 0.0000
# 5 0.0000 0.0000 0.0000 0.0000 9.6125 0.0000
# 6 0.0000 0.0000 0.0000 0.0000 0.0000 45.1925
#
#
#
# Elastic Compliance Matrix: (Units=1/GPa)
#
#
# Indices 1 2 3 4 5 6 
#
# 1 0.009234 -0.001468 -0.014777 0.000000 0.000000 0.000000
# 2 -0.001468 0.005902 -0.003403 0.000000 0.000000 0.000000
# 3 -0.014777 -0.003403 0.089404 0.000000 0.000000 0.000000
# 4 0.000000 0.000000 0.000000 0.243878 0.000000 0.000000
# 5 0.000000 0.000000 0.000000 0.000000 0.104031 0.000000
# 6 0.000000 0.000000 0.000000 0.000000 0.000000 0.022128
#
#
# Mechanical properties :
#
#
# Convention : Reuss Voigt Hill
#
# Bulk Modulus (GPa) = 15.32657 64.79249 40.05953
# Shear Modulus (GPa) = 9.33496 29.82113 19.57804
#
# Velocity S-wave (km/s) = 2.08433 3.72540 3.01853
# Velocity P-wave (km/s) = 3.59521 6.97560 5.54908
#
# Compressibility (1/GPa) = 0.06524618
#
# Stress axis : x y z
#
# Youngs Moduli (GPa) = 108.29035 169.42279 11.18518
#
# Poissons Ratio (x) = 0.24864 0.16528
# Poissons Ratio (y) = 0.15893 0.03806
# Poissons Ratio (z) = 1.60022 0.57649
#
# Static dielectric constant tensor:
#      x y z
#    x 3.913630 0.000000 0.000000 
#    y 0.000000 -9.542540 0.000000 
#    z 0.000000 0.000000 3.386140 
# 
# 
# High freq. dielectric constant tensor:
#      x y z
#    x 1.858560 0.000000 0.000000 
#    y 0.000000 1.872730 0.000000 
#    z 0.000000 0.000000 1.807940 
# 
# From -- ./inp_files/19632.got.cif
#   From: 2010.03.12/outbox.cif.g09.slc.cpg/sg57_10_cif.got.tgz:19632.got - 2010.04.16 15:48:40.
