data_PCOD8233878
_publ_section_title
;
Structure prediction by ZEFSAII (Michael W. Deem and Ramdas Pophale) SiO2 
 PCOD8233878
Probable space group: P B C M
;
_chemical_formula_sum "Si O2"
_cell_formula_units_Z 64
_cell_length_a 14.414075
_cell_length_b 27.896043
_cell_length_c 8.658595
_cell_angle_alpha 90.000000
_cell_angle_beta 90.000000
_cell_angle_gamma 90.000000
_cell_volume 3481.583437
_symmetry_space_group_name_H-M "P B C M"
_symmetry_group_IT_number 57
_symmetry_cell_setting 'orthorhombic'
loop_
_space_group_symop_operation_xyz
x,y,z
-x,-y,1/2+z
x,1/2-y,-z
-x,1/2+y,1/2-z
-x,-y,-z
x,y,1/2-z
-x,1/2+y,z
x,1/2-y,1/2+z
loop_
_atom_site_type_symbol
_atom_site_label
_atom_site_fract_x
_atom_site_fract_y
_atom_site_fract_z
Si Si1 0.356442 0.301169 0.933626
Si Si2 0.466019 0.111091 0.931027
Si Si3 0.351324 0.473665 0.569652
Si Si4 0.160093 0.469483 0.070412
Si Si5 0.853608 0.078026 0.428795
Si Si6 0.642504 0.076528 0.430122
Si Si7 0.028733 0.383278 0.071730
Si Si8 0.854143 0.799898 0.930268
O O1 0.368677 0.302489 0.750000
O O2 0.250495 0.312259 0.985024
O O3 0.387370 0.250000 0.000000
O O4 0.422439 0.339629 0.012398
O O5 0.448776 0.104723 0.750000
O O6 0.424012 0.066815 0.024618
O O7 0.575596 0.111040 0.970805
O O8 0.359367 0.485126 0.750000
O O9 0.248934 0.454064 0.529798
O O10 0.373848 0.521232 0.473788
O O11 0.188980 0.467641 0.250000
O O12 0.127929 0.522790 0.024768
O O13 0.077624 0.433421 0.029826
O O14 0.875894 0.086347 0.250000
O O15 0.747877 0.091923 0.468527
O O16 0.920847 0.112046 0.527484
O O17 0.620989 0.082711 0.250000
O O18 0.038706 0.370369 0.250000
O O19 0.075646 0.341242 0.976625
O O20 0.855583 0.793301 0.750000
O O21 0.889134 0.750000 0.000000
#
# Coordination Sequence:
#
# PCOD8233878 Si02
#       8
#     8   8   8   8   8   8   8   8
#     4  10  21  38  59  84 111 140 172 212 261 314
#     4  12  23  35  54  79 107 141 179 219 261 313
#     4  11  21  33  51  77 108 142 179 220 264 314
#     4   9  19  34  50  74 108 144 178 215 259 309
#     4   9  19  35  53  73 103 141 179 219 262 305
#     4  10  21  38  55  74 104 141 180 223 266 311
#     4  11  21  32  52  79 107 139 177 217 259 310
#     4  10  21  37  57  80 108 138 171 211 259 312
#
# _framework density 18.382439999999999
#
# number of rings (size 3 to 8) (size 9 to 14) (size 15 to 20)
#    0.000    1.750    0.000    6.000    0.000    7.000 
#    0.000    0.000    0.000    0.750    0.000    0.000 
#    0.000    0.000    0.000    0.000    0.000    0.000 
#
# Total GULP energy -793874.675196 kJ/mol
# GULP energy per Si atom -12404.291800 kJ/mol
# Density = 1.834060 g / cm^3
# Si number density = 18.382440 Si / 1000 Ang^3
#
#
#
# Elastic Constant Matrix: (Units=GPa)
#
#
# Indices 1 2 3 4 5 6 
#
# 1 101.7469 53.7079 27.8659 0.0000 0.0000 0.0000
# 2 53.7079 79.4012 21.6428 0.0000 0.0000 0.0000
# 3 27.8659 21.6428 58.9710 0.0000 0.0000 0.0000
# 4 0.0000 0.0000 0.0000 29.2873 0.0000 0.0000
# 5 0.0000 0.0000 0.0000 0.0000 30.0531 0.0000
# 6 0.0000 0.0000 0.0000 0.0000 0.0000 22.8753
#
#
#
# Elastic Compliance Matrix: (Units=1/GPa)
#
#
# Indices 1 2 3 4 5 6 
#
# 1 0.016097 -0.009795 -0.004012 0.000000 0.000000 0.000000
# 2 -0.009795 0.019954 -0.002695 0.000000 0.000000 0.000000
# 3 -0.004012 -0.002695 0.019842 0.000000 0.000000 0.000000
# 4 0.000000 0.000000 0.000000 0.034145 0.000000 0.000000
# 5 0.000000 0.000000 0.000000 0.000000 0.033274 0.000000
# 6 0.000000 0.000000 0.000000 0.000000 0.000000 0.043715
#
#
# Mechanical properties :
#
#
# Convention : Reuss Voigt Hill
#
# Bulk Modulus (GPa) = 43.68596 49.61691 46.65144
# Shear Modulus (GPa) = 24.07764 25.56996 24.82380
#
# Velocity S-wave (km/s) = 3.62307 3.73366 3.67878
# Velocity P-wave (km/s) = 6.42797 6.75552 6.59378
#
# Compressibility (1/GPa) = 0.02289065
#
# Stress axis : x y z
#
# Youngs Moduli (GPa) = 62.12194 50.11464 50.39759
#
# Poissons Ratio (x) = 0.49087 0.20218
# Poissons Ratio (y) = 0.60848 0.13582
# Poissons Ratio (z) = 0.24922 0.13505
#
# Static dielectric constant tensor:
#      x y z
#    x 3.494690 0.000000 0.000000 
#    y 0.000000 3.349700 0.000000 
#    z 0.000000 0.000000 3.410470 
# 
# 
# High freq. dielectric constant tensor:
#      x y z
#    x 1.713390 0.000000 0.000000 
#    y 0.000000 1.691420 0.000000 
#    z 0.000000 0.000000 1.723390 
# 
# From -- ./inp_files/5731.got.cif
#   From: 2010.03.12/outbox.cif.g09.slc.cpg/sg57_3_cif.got.tgz:5731.got - 2010.04.16 15:48:40.
