data_PCOD8233377
_publ_section_title
;
Structure prediction by ZEFSAII (Michael W. Deem and Ramdas Pophale) SiO2 
 PCOD8233377
Probable space group: P B C M
;
_chemical_formula_sum "Si O2"
_cell_formula_units_Z 64
_cell_length_a 14.825460
_cell_length_b 24.823867
_cell_length_c 8.842685
_cell_angle_alpha 90.000000
_cell_angle_beta 90.000000
_cell_angle_gamma 90.000000
_cell_volume 3254.331334
_symmetry_space_group_name_H-M "P B C M"
_symmetry_group_IT_number 57
_symmetry_cell_setting 'orthorhombic'
loop_
_space_group_symop_operation_xyz
x,y,z
-x,-y,1/2+z
x,1/2-y,-z
-x,1/2+y,1/2-z
-x,-y,-z
x,y,1/2-z
-x,1/2+y,z
x,1/2-y,1/2+z
loop_
_atom_site_type_symbol
_atom_site_label
_atom_site_fract_x
_atom_site_fract_y
_atom_site_fract_z
Si Si1 0.283527 0.595154 0.071939
Si Si2 0.016797 0.164824 0.921566
Si Si3 0.181917 0.805456 0.429748
Si Si4 0.480814 0.558143 0.069857
Si Si5 0.796613 0.805917 0.569863
Si Si6 0.777317 0.991043 0.578995
Si Si7 0.942685 0.545023 0.921239
Si Si8 0.657971 0.606655 0.421060
O O1 0.276479 0.604031 0.250000
O O2 0.385405 0.582765 0.017614
O O3 0.246537 0.647642 0.989333
O O4 0.224049 0.543804 0.024582
O O5 0.035705 0.183965 0.750000
O O6 0.004340 0.100784 0.928770
O O7 0.922111 0.187727 0.983435
O O8 0.099941 0.184028 0.022808
O O9 0.218664 0.750000 0.500000
O O10 0.188028 0.804405 0.250000
O O11 0.484425 0.551467 0.250000
O O12 0.556074 0.602328 0.013341
O O13 0.500000 0.500000 0.000000
O O14 0.762421 0.750000 0.500000
O O15 0.794344 0.804089 0.750000
O O16 0.727659 0.851342 0.500419
O O17 0.800084 0.008846 0.750000
O O18 0.851293 0.949588 0.515917
O O19 0.687155 0.956009 0.570269
O O20 0.921069 0.528270 0.750000
O O21 0.000000 0.500000 0.000000
O O22 0.654081 0.626980 0.250000
#
# Coordination Sequence:
#
# PCOD8233377 Si02
#       8
#     8   8   8   8   8   8   8   8
#     4  11  23  38  61  93 123 156 198 249 302 360
#     4  10  22  39  59  85 115 152 197 244 290 346
#     4  11  24  43  64  86 117 158 202 250 300 354
#     4  10  20  37  61  90 121 154 194 242 296 357
#     4  11  22  38  60  86 116 156 198 241 291 347
#     4  11  20  35  58  84 119 160 197 239 296 355
#     4  11  22  35  53  82 121 159 199 243 295 357
#     4   9  19  36  58  84 118 156 191 234 294 353
#
# _framework density 19.666098000000002
#
# number of rings (size 3 to 8) (size 9 to 14) (size 15 to 20)
#    0.000    1.500    2.500    3.000    0.000    4.000 
#    0.000    1.875    0.000    1.500    0.000    0.000 
#    0.000    0.000    0.000    0.000    0.000    0.000 
#
# Total GULP energy -793400.093757 kJ/mol
# GULP energy per Si atom -12396.876465 kJ/mol
# Density = 1.962134 g / cm^3
# Si number density = 19.666098 Si / 1000 Ang^3
#
#
#
# Elastic Constant Matrix: (Units=GPa)
#
#
# Indices 1 2 3 4 5 6 
#
# 1 112.8319 56.0203 38.7070 0.0000 0.0000 0.0000
# 2 56.0203 126.5964 38.2124 0.0000 0.0000 0.0000
# 3 38.7070 38.2124 71.9025 0.0000 0.0000 0.0000
# 4 0.0000 0.0000 0.0000 33.5051 0.0000 0.0000
# 5 0.0000 0.0000 0.0000 0.0000 22.2716 0.0000
# 6 0.0000 0.0000 0.0000 0.0000 0.0000 21.8018
#
#
#
# Elastic Compliance Matrix: (Units=1/GPa)
#
#
# Indices 1 2 3 4 5 6 
#
# 1 0.012473 -0.004160 -0.004504 0.000000 0.000000 0.000000
# 2 -0.004160 0.010796 -0.003498 0.000000 0.000000 0.000000
# 3 -0.004504 -0.003498 0.018191 0.000000 0.000000 0.000000
# 4 0.000000 0.000000 0.000000 0.029846 0.000000 0.000000
# 5 0.000000 0.000000 0.000000 0.000000 0.044900 0.000000
# 6 0.000000 0.000000 0.000000 0.000000 0.000000 0.045868
#
#
# Mechanical properties :
#
#
# Convention : Reuss Voigt Hill
#
# Bulk Modulus (GPa) = 58.35456 64.13446 61.24451
# Shear Modulus (GPa) = 26.02670 27.40843 26.71756
#
# Velocity S-wave (km/s) = 3.64184 3.73726 3.68986
# Velocity P-wave (km/s) = 6.88630 7.16278 7.02590
#
# Compressibility (1/GPa) = 0.01713662
#
# Stress axis : x y z
#
# Youngs Moduli (GPa) = 80.17166 92.62837 54.97167
#
# Poissons Ratio (x) = 0.38534 0.24758
# Poissons Ratio (y) = 0.33352 0.19229
# Poissons Ratio (z) = 0.36108 0.32401
#
# Static dielectric constant tensor:
#      x y z
#    x 4.058630 0.000000 0.000000 
#    y 0.000000 3.666430 0.000000 
#    z 0.000000 0.000000 3.068080 
# 
# 
# High freq. dielectric constant tensor:
#      x y z
#    x 1.770190 0.000000 0.000000 
#    y 0.000000 1.765840 0.000000 
#    z 0.000000 0.000000 1.758700 
# 
# From -- ./inp_files/5554.got.cif
#   From: 2010.03.12/outbox.cif.g09.slc.cpg/sg57_3_cif.got.tgz:5554.got - 2010.04.16 15:48:40.
