data_PCOD8233644
_publ_section_title
;
Structure prediction by ZEFSAII (Michael W. Deem and Ramdas Pophale) SiO2 
 PCOD8233644
Probable space group: P B C M
;
_chemical_formula_sum "Si O2"
_cell_formula_units_Z 32
_cell_length_a 10.962373
_cell_length_b 15.425817
_cell_length_c 9.408488
_cell_angle_alpha 90.000000
_cell_angle_beta 90.000000
_cell_angle_gamma 90.000000
_cell_volume 1591.008813
_symmetry_space_group_name_H-M "P B C M"
_symmetry_group_IT_number 57
_symmetry_cell_setting 'orthorhombic'
loop_
_space_group_symop_operation_xyz
x,y,z
-x,-y,1/2+z
x,1/2-y,-z
-x,1/2+y,1/2-z
-x,-y,-z
x,y,1/2-z
-x,1/2+y,z
x,1/2-y,1/2+z
loop_
_atom_site_type_symbol
_atom_site_label
_atom_site_fract_x
_atom_site_fract_y
_atom_site_fract_z
Si Si1 0.927614 0.306797 0.250000
Si Si2 0.509365 0.647500 0.250000
Si Si3 0.736312 0.940240 0.750000
Si Si4 0.789614 0.735394 0.750000
Si Si5 0.875845 0.450442 0.027914
Si Si6 0.222696 0.629878 0.250000
Si Si7 0.367908 0.250000 0.500000
O O1 0.898734 0.361184 0.110024
O O2 0.844156 0.221995 0.250000
O O3 0.069237 0.284995 0.250000
O O4 0.587393 0.557503 0.250000
O O5 0.366611 0.638708 0.250000
O O6 0.544998 0.694126 0.398362
O O7 0.775324 0.839741 0.750000
O O8 0.785022 0.986822 0.889376
O O9 0.722908 0.697177 0.891792
O O10 0.813495 0.427974 0.881861
O O11 0.000000 0.500000 0.000000
#
# Coordination Sequence:
#
# PCOD8233644 Si02
#       7
#     4   4   4   4   8   4   4
#     4  11  25  38  67  98 129 166 216 280 325 387
#     4  10  23  42  65  92 134 169 222 263 313 398
#     4   9  22  43  60  88 138 169 212 268 319 394
#     4  10  20  39  68  98 122 167 214 271 327 370
#     4  11  24  43  63  95 134 172 212 274 332 392
#     4  12  26  40  68  98 125 177 220 270 330 379
#     4   8  20  38  62  94 124 162 210 274 302 380
#
# _framework density 20.113023999999999
#
# number of rings (size 3 to 8) (size 9 to 14) (size 15 to 20)
#    0.000    2.000    0.000    3.750   14.000    1.000 
#    0.000    0.000    0.000    0.000    0.000    0.000 
#    0.000    0.000    0.000    0.000    0.000    0.000 
#
# Total GULP energy -396546.514584 kJ/mol
# GULP energy per Si atom -12392.078581 kJ/mol
# Density = 2.006725 g / cm^3
# Si number density = 20.113024 Si / 1000 Ang^3
#
#
#
# Elastic Constant Matrix: (Units=GPa)
#
#
# Indices 1 2 3 4 5 6 
#
# 1 212.5337 55.8110 92.6437 0.0000 0.0000 0.0000
# 2 55.8110 90.6919 61.8675 0.0000 0.0000 0.0000
# 3 92.6437 61.8675 195.7915 0.0000 0.0000 0.0000
# 4 0.0000 0.0000 0.0000 23.0164 0.0000 0.0000
# 5 0.0000 0.0000 0.0000 0.0000 59.2456 0.0000
# 6 0.0000 0.0000 0.0000 0.0000 0.0000 32.3709
#
#
#
# Elastic Compliance Matrix: (Units=1/GPa)
#
#
# Indices 1 2 3 4 5 6 
#
# 1 0.006297 -0.002349 -0.002237 0.000000 0.000000 0.000000
# 2 -0.002349 0.014932 -0.003607 0.000000 0.000000 0.000000
# 3 -0.002237 -0.003607 0.007306 0.000000 0.000000 0.000000
# 4 0.000000 0.000000 0.000000 0.043447 0.000000 0.000000
# 5 0.000000 0.000000 0.000000 0.000000 0.016879 0.000000
# 6 0.000000 0.000000 0.000000 0.000000 0.000000 0.030892
#
#
# Mechanical properties :
#
#
# Convention : Reuss Voigt Hill
#
# Bulk Modulus (GPa) = 82.31229 102.18462 92.24846
# Shear Modulus (GPa) = 35.66578 42.17289 38.91933
#
# Velocity S-wave (km/s) = 4.21559 4.58405 4.40367
# Velocity P-wave (km/s) = 8.04417 8.88445 8.47473
#
# Compressibility (1/GPa) = 0.01214885
#
# Stress axis : x y z
#
# Youngs Moduli (GPa) = 158.79848 66.96821 136.87455
#
# Poissons Ratio (x) = 0.15730 0.30626
# Poissons Ratio (y) = 0.37301 0.49371
# Poissons Ratio (z) = 0.35531 0.24155
#
# Static dielectric constant tensor:
#      x y z
#    x 3.947930 0.000000 0.000000 
#    y 0.000000 3.644480 0.000000 
#    z 0.000000 0.000000 4.036600 
# 
# 
# High freq. dielectric constant tensor:
#      x y z
#    x 1.795680 0.000000 0.000000 
#    y 0.000000 1.768250 0.000000 
#    z 0.000000 0.000000 1.815040 
# 
# From -- ./inp_files/2474.got.cif
#   From: 2010.03.12/outbox.cif.g09.slc.cpg/sg57_2_cif.got.tgz:2474.got - 2010.04.16 15:48:40.
