data_PCOD8233885
_publ_section_title
;
Structure prediction by ZEFSAII (Michael W. Deem and Ramdas Pophale) SiO2 
 PCOD8233885
Probable space group: P B C M
;
_chemical_formula_sum "Si O2"
_cell_formula_units_Z 48
_cell_length_a 30.231080
_cell_length_b 9.382872
_cell_length_c 8.636818
_cell_angle_alpha 90.000000
_cell_angle_beta 90.000000
_cell_angle_gamma 90.000000
_cell_volume 2449.871031
_symmetry_space_group_name_H-M "P B C M"
_symmetry_group_IT_number 57
_symmetry_cell_setting 'orthorhombic'
loop_
_space_group_symop_operation_xyz
x,y,z
-x,-y,1/2+z
x,1/2-y,-z
-x,1/2+y,1/2-z
-x,-y,-z
x,y,1/2-z
-x,1/2+y,z
x,1/2-y,1/2+z
loop_
_atom_site_type_symbol
_atom_site_label
_atom_site_fract_x
_atom_site_fract_y
_atom_site_fract_z
Si Si1 0.037181 0.596133 0.427847
Si Si2 0.380340 0.908297 0.565497
Si Si3 0.793837 0.603953 0.430427
Si Si4 0.865050 0.096131 0.428807
Si Si5 0.540285 0.909271 0.934878
Si Si6 0.693236 0.902463 0.565693
O O1 0.034682 0.750000 0.500000
O O2 0.026160 0.614146 0.250000
O O3 0.086135 0.526838 0.452129
O O4 0.000000 0.500000 0.500000
O O5 0.387386 0.750000 0.500000
O O6 0.385357 0.905030 0.750000
O O7 0.415178 0.015964 0.490683
O O8 0.332708 0.968302 0.515291
O O9 0.811805 0.750000 0.500000
O O10 0.794525 0.621613 0.250000
O O11 0.826871 0.482393 0.480154
O O12 0.743915 0.571146 0.485216
O O13 0.867313 0.250000 0.500000
O O14 0.851793 0.102457 0.250000
O O15 0.538491 0.904432 0.750000
O O16 0.537753 0.750000 0.000000
O O17 0.500000 0.000000 0.000000
O O18 0.676752 0.750000 0.500000
O O19 0.686140 0.905848 0.750000
#
# Coordination Sequence:
#
# PCOD8233885 Si02
#       6
#     8   8   8   8   8   8
#     4  10  21  37  57  81 109 144 184 230 280 336
#     4  12  25  42  63  90 122 159 200 245 294 347
#     4  10  21  37  59  85 115 150 191 236 285 339
#     4  10  21  37  57  81 111 146 186 230 282 338
#     4  12  25  44  67  94 126 162 202 246 295 349
#     4  10  21  39  61  87 117 153 194 239 289 343
#
# _framework density 19.592866999999998
#
# number of rings (size 3 to 8) (size 9 to 14) (size 15 to 20)
#    0.000    1.333    0.000    6.000    0.000    5.333 
#    0.000    0.000    0.000    0.000    0.000    0.000 
#    0.000    0.000    0.000    0.000    0.000    0.000 
#
# Total GULP energy -595264.783731 kJ/mol
# GULP energy per Si atom -12401.349661 kJ/mol
# Density = 1.954827 g / cm^3
# Si number density = 19.592867 Si / 1000 Ang^3
#
#
#
# Elastic Constant Matrix: (Units=GPa)
#
#
# Indices 1 2 3 4 5 6 
#
# 1 106.2104 57.0200 46.9801 0.0000 0.0000 0.0000
# 2 57.0200 114.6144 47.6320 0.0000 0.0000 0.0000
# 3 46.9801 47.6320 122.5273 0.0000 0.0000 0.0000
# 4 0.0000 0.0000 0.0000 42.4105 0.0000 0.0000
# 5 0.0000 0.0000 0.0000 0.0000 44.4976 0.0000
# 6 0.0000 0.0000 0.0000 0.0000 0.0000 44.3412
#
#
#
# Elastic Compliance Matrix: (Units=1/GPa)
#
#
# Indices 1 2 3 4 5 6 
#
# 1 0.013780 -0.005558 -0.003123 0.000000 0.000000 0.000000
# 2 -0.005558 0.012648 -0.002786 0.000000 0.000000 0.000000
# 3 -0.003123 -0.002786 0.010442 0.000000 0.000000 0.000000
# 4 0.000000 0.000000 0.000000 0.023579 0.000000 0.000000
# 5 0.000000 0.000000 0.000000 0.000000 0.022473 0.000000
# 6 0.000000 0.000000 0.000000 0.000000 0.000000 0.022552
#
#
# Mechanical properties :
#
#
# Convention : Reuss Voigt Hill
#
# Bulk Modulus (GPa) = 71.75363 71.84624 71.79993
# Shear Modulus (GPa) = 37.57888 39.03118 38.30503
#
# Velocity S-wave (km/s) = 4.38423 4.46815 4.42639
# Velocity P-wave (km/s) = 7.89497 7.96042 7.92776
#
# Compressibility (1/GPa) = 0.01393658
#
# Stress axis : x y z
#
# Youngs Moduli (GPa) = 72.56634 79.06670 95.76792
#
# Poissons Ratio (x) = 0.43943 0.29911
# Poissons Ratio (y) = 0.40330 0.26678
# Poissons Ratio (z) = 0.22664 0.22026
#
# Static dielectric constant tensor:
#      x y z
#    x 4.016510 0.000000 0.000000 
#    y 0.000000 3.628890 0.000000 
#    z 0.000000 0.000000 3.803850 
# 
# 
# High freq. dielectric constant tensor:
#      x y z
#    x 1.779040 0.000000 0.000000 
#    y 0.000000 1.763060 0.000000 
#    z 0.000000 0.000000 1.785490 
# 
# From -- ./inp_files/9946.got.cif
#   From: 2010.03.12/outbox.cif.g09.slc.cpg/sg57_5_cif.got.tgz:9946.got - 2010.04.16 15:48:40.
