data_PCOD8233580
_publ_section_title
;
Structure prediction by ZEFSAII (Michael W. Deem and Ramdas Pophale) SiO2 
 PCOD8233580
Probable space group: P B C M
;
_chemical_formula_sum "Si O2"
_cell_formula_units_Z 52
_cell_length_a 14.171544
_cell_length_b 8.832260
_cell_length_c 21.324700
_cell_angle_alpha 90.000000
_cell_angle_beta 90.000000
_cell_angle_gamma 90.000000
_cell_volume 2669.143633
_symmetry_space_group_name_H-M "P B C M"
_symmetry_group_IT_number 57
_symmetry_cell_setting 'orthorhombic'
loop_
_space_group_symop_operation_xyz
x,y,z
-x,-y,1/2+z
x,1/2-y,-z
-x,1/2+y,1/2-z
-x,-y,-z
x,y,1/2-z
-x,1/2+y,z
x,1/2-y,1/2+z
loop_
_atom_site_type_symbol
_atom_site_label
_atom_site_fract_x
_atom_site_fract_y
_atom_site_fract_z
Si Si1 0.363148 0.240744 0.250000
Si Si2 0.398952 0.638255 0.614226
Si Si3 0.580264 0.032697 0.074045
Si Si4 0.295469 0.067411 0.462449
Si Si5 0.274257 0.160448 0.627467
Si Si6 0.969847 0.250000 0.000000
Si Si7 0.447578 0.591806 0.750000
Si Si8 0.121376 0.469251 0.448750
O O1 0.290155 0.247811 0.308477
O O2 0.439468 0.377160 0.250000
O O3 0.424559 0.087386 0.250000
O O4 0.477517 0.516199 0.595074
O O5 0.300965 0.557800 0.593537
O O6 0.400922 0.668823 0.688711
O O7 0.416538 0.786835 0.573633
O O8 0.651839 0.976396 0.127778
O O9 0.613955 0.966705 0.007074
O O10 0.298967 0.235647 0.433363
O O11 0.195167 0.049549 0.494953
O O12 0.170633 0.084022 0.616970
O O13 0.908702 0.353450 0.951509
O O14 0.031431 0.137926 0.957413
#
# Coordination Sequence:
#
# PCOD8233580 Si02
#       8
#     4   8   8   8   8   4   4   8
#     4  12  24  42  60  78 120 173 213 263 284 347
#     4  12  23  37  55  80 117 163 212 252 298 350
#     4  11  23  36  55  79 115 161 197 261 302 353
#     4  11  22  38  56  88 123 149 198 245 315 367
#     4  11  22  40  60  86 121 162 204 252 299 368
#     4  10  20  38  66  94 124 148 178 242 322 384
#     4  12  24  40  56  78 114 171 227 247 290 345
#     4  10  21  38  63  96 122 151 187 242 315 386
#
# _framework density 19.481902999999999
#
# number of rings (size 3 to 8) (size 9 to 14) (size 15 to 20)
#    0.000    0.923    4.615    4.154    4.308    1.231 
#    0.000    0.000    0.000    0.923    0.000    0.000 
#    0.000    0.000    0.000    0.000    0.000    0.000 
#
# Total GULP energy -644446.787578 kJ/mol
# GULP energy per Si atom -12393.207453 kJ/mol
# Density = 1.943756 g / cm^3
# Si number density = 19.481903 Si / 1000 Ang^3
#
#
#
# Elastic Constant Matrix: (Units=GPa)
#
#
# Indices 1 2 3 4 5 6 
#
# 1 60.0916 38.8512 38.1530 0.0000 0.0000 0.0000
# 2 38.8512 123.7481 18.2716 0.0000 0.0000 0.0000
# 3 38.1530 18.2716 96.1802 0.0000 0.0000 0.0000
# 4 0.0000 0.0000 0.0000 26.3328 0.0000 0.0000
# 5 0.0000 0.0000 0.0000 0.0000 17.5001 0.0000
# 6 0.0000 0.0000 0.0000 0.0000 0.0000 33.1802
#
#
#
# Elastic Compliance Matrix: (Units=1/GPa)
#
#
# Indices 1 2 3 4 5 6 
#
# 1 0.027283 -0.007169 -0.009461 0.000000 0.000000 0.000000
# 2 -0.007169 0.010198 0.000906 0.000000 0.000000 0.000000
# 3 -0.009461 0.000906 0.013978 0.000000 0.000000 0.000000
# 4 0.000000 0.000000 0.000000 0.037976 0.000000 0.000000
# 5 0.000000 0.000000 0.000000 0.000000 0.057143 0.000000
# 6 0.000000 0.000000 0.000000 0.000000 0.000000 0.030138
#
#
# Mechanical properties :
#
#
# Convention : Reuss Voigt Hill
#
# Bulk Modulus (GPa) = 49.96913 52.28574 51.12743
# Shear Modulus (GPa) = 23.27403 27.71887 25.49645
#
# Velocity S-wave (km/s) = 3.46012 3.77610 3.62155
# Velocity P-wave (km/s) = 6.45507 6.77556 6.61726
#
# Compressibility (1/GPa) = 0.02001236
#
# Stress axis : x y z
#
# Youngs Moduli (GPa) = 36.65319 98.06110 71.54166
#
# Poissons Ratio (x) = 0.70296 0.67684
# Poissons Ratio (y) = 0.26275 -0.06484
# Poissons Ratio (z) = 0.34677 -0.08888
#
# Static dielectric constant tensor:
#      x y z
#    x 3.508030 0.000000 0.000000 
#    y 0.000000 3.731980 0.000000 
#    z 0.000000 0.000000 3.657730 
# 
# 
# High freq. dielectric constant tensor:
#      x y z
#    x 1.733630 0.000000 0.000000 
#    y 0.000000 1.777350 0.000000 
#    z 0.000000 0.000000 1.740580 
# 
# From -- ./inp_files/25338.got.cif
#   From: 2010.03.12/outbox.cif.g09.slc.cpg/sg57_13_cif.got.tgz:25338.got - 2010.04.16 15:48:40.
