data_PCOD8233980
_publ_section_title
;
Structure prediction by ZEFSAII (Michael W. Deem and Ramdas Pophale) SiO2 
 PCOD8233980
Probable space group: P B C M
;
_chemical_formula_sum "Si O2"
_cell_formula_units_Z 44
_cell_length_a 25.879728
_cell_length_b 8.964572
_cell_length_c 9.230534
_cell_angle_alpha 90.000000
_cell_angle_beta 90.000000
_cell_angle_gamma 90.000000
_cell_volume 2141.490211
_symmetry_space_group_name_H-M "P B C M"
_symmetry_group_IT_number 57
_symmetry_cell_setting 'orthorhombic'
loop_
_space_group_symop_operation_xyz
x,y,z
-x,-y,1/2+z
x,1/2-y,-z
-x,1/2+y,1/2-z
-x,-y,-z
x,y,1/2-z
-x,1/2+y,z
x,1/2-y,1/2+z
loop_
_atom_site_type_symbol
_atom_site_label
_atom_site_fract_x
_atom_site_fract_y
_atom_site_fract_z
Si Si1 0.457739 0.904263 0.582673
Si Si2 0.002935 0.750000 0.000000
Si Si3 0.158134 0.599002 0.584870
Si Si4 0.072465 0.009113 0.596538
Si Si5 0.724118 0.094310 0.919395
Si Si6 0.356673 0.100666 0.917326
O O1 0.451396 0.750000 0.500000
O O2 0.474577 0.878323 0.750000
O O3 0.500000 0.000000 0.500000
O O4 0.403302 0.985697 0.574995
O O5 0.039325 0.642640 0.092962
O O6 0.966013 0.851355 0.097955
O O7 0.148459 0.750000 0.500000
O O8 0.145446 0.631278 0.750000
O O9 0.116676 0.478521 0.526800
O O10 0.216596 0.542504 0.564256
O O11 0.101934 0.010524 0.750000
O O12 0.708559 0.111064 0.750000
O O13 0.713799 0.250000 0.000000
O O14 0.691934 0.966084 0.997653
O O15 0.342019 0.134698 0.750000
O O16 0.373979 0.250000 0.000000
#
# Coordination Sequence:
#
# PCOD8233980 Si02
#       6
#     8   4   8   8   8   8
#     4  11  24  41  64  95 131 171 215 261 312 365
#     4  10  24  38  58  88 118 150 196 240 294 356
#     4  10  21  37  60  88 118 152 196 245 297 359
#     4  11  22  39  61  86 116 154 194 242 295 355
#     4  10  21  39  63  90 119 156 202 255 307 366
#     4  11  24  41  63  92 126 166 209 258 310 367
#
# _framework density 20.546437999999998
#
# number of rings (size 3 to 8) (size 9 to 14) (size 15 to 20)
#    0.000    1.455    0.909    3.818    0.000   11.636 
#    1.636    0.000    0.000    0.000    0.000    0.000 
#    0.000    0.000    0.000    0.000    0.000    0.000 
#
# Total GULP energy -545566.353926 kJ/mol
# GULP energy per Si atom -12399.235317 kJ/mol
# Density = 2.049967 g / cm^3
# Si number density = 20.546438 Si / 1000 Ang^3
#
#
#
# Elastic Constant Matrix: (Units=GPa)
#
#
# Indices 1 2 3 4 5 6 
#
# 1 99.4530 35.0642 67.1510 0.0000 0.0000 0.0000
# 2 35.0642 108.7255 59.7781 0.0000 0.0000 0.0000
# 3 67.1510 59.7781 193.1450 0.0000 0.0000 0.0000
# 4 0.0000 0.0000 0.0000 27.0611 0.0000 0.0000
# 5 0.0000 0.0000 0.0000 0.0000 31.0764 0.0000
# 6 0.0000 0.0000 0.0000 0.0000 0.0000 11.3223
#
#
#
# Elastic Compliance Matrix: (Units=1/GPa)
#
#
# Indices 1 2 3 4 5 6 
#
# 1 0.013542 -0.002143 -0.004045 0.000000 0.000000 0.000000
# 2 -0.002143 0.011423 -0.002790 0.000000 0.000000 0.000000
# 3 -0.004045 -0.002790 0.007447 0.000000 0.000000 0.000000
# 4 0.000000 0.000000 0.000000 0.036953 0.000000 0.000000
# 5 0.000000 0.000000 0.000000 0.000000 0.032179 0.000000
# 6 0.000000 0.000000 0.000000 0.000000 0.000000 0.088321
#
#
# Mechanical properties :
#
#
# Convention : Reuss Voigt Hill
#
# Bulk Modulus (GPa) = 69.17913 80.58999 74.88456
# Shear Modulus (GPa) = 23.51393 29.84731 26.68062
#
# Velocity S-wave (km/s) = 3.38661 3.81553 3.60745
# Velocity P-wave (km/s) = 7.00249 7.66287 7.34011
#
# Compressibility (1/GPa) = 0.01445523
#
# Stress axis : x y z
#
# Youngs Moduli (GPa) = 73.84604 87.54446 134.27844
#
# Poissons Ratio (x) = 0.18765 0.54311
# Poissons Ratio (y) = 0.15828 0.37465
# Poissons Ratio (z) = 0.29868 0.24426
#
# Static dielectric constant tensor:
#      x y z
#    x 3.855920 0.000000 0.000000 
#    y 0.000000 3.239730 0.000000 
#    z 0.000000 0.000000 3.967190 
# 
# 
# High freq. dielectric constant tensor:
#      x y z
#    x 1.810530 0.000000 0.000000 
#    y 0.000000 1.795450 0.000000 
#    z 0.000000 0.000000 1.820760 
# 
# From -- ./inp_files/9862.got.cif
#   From: 2010.03.12/outbox.cif.g09.slc.cpg/sg57_5_cif.got.tgz:9862.got - 2010.04.16 15:48:40.
