data_PCOD8233310
_publ_section_title
;
Structure prediction by ZEFSAII (Michael W. Deem and Ramdas Pophale) SiO2 
 PCOD8233310
Probable space group: P B C M
;
_chemical_formula_sum "Si O2"
_cell_formula_units_Z 64
_cell_length_a 21.737104
_cell_length_b 16.712908
_cell_length_c 8.689621
_cell_angle_alpha 90.000000
_cell_angle_beta 90.000000
_cell_angle_gamma 90.000000
_cell_volume 3156.854319
_symmetry_space_group_name_H-M "P B C M"
_symmetry_group_IT_number 57
_symmetry_cell_setting 'orthorhombic'
loop_
_space_group_symop_operation_xyz
x,y,z
-x,-y,1/2+z
x,1/2-y,-z
-x,1/2+y,1/2-z
-x,-y,-z
x,y,1/2-z
-x,1/2+y,z
x,1/2-y,1/2+z
loop_
_atom_site_type_symbol
_atom_site_label
_atom_site_fract_x
_atom_site_fract_y
_atom_site_fract_z
Si Si1 0.626021 0.334956 0.071388
Si Si2 0.231338 0.832585 0.069548
Si Si3 0.003368 0.667394 0.429124
Si Si4 0.775591 0.832406 0.429855
Si Si5 0.885508 0.579397 0.426917
Si Si6 0.635410 0.662327 0.933647
Si Si7 0.124571 0.920028 0.571378
Si Si8 0.432290 0.495988 0.565888
O O1 0.612040 0.326193 0.250000
O O2 0.697476 0.345428 0.033746
O O3 0.596897 0.418544 0.009774
O O4 0.601401 0.250000 0.000000
O O5 0.216442 0.837488 0.250000
O O6 0.207972 0.750000 0.000000
O O7 0.193781 0.896968 0.972742
O O8 0.986903 0.750000 0.500000
O O9 0.993505 0.669102 0.250000
O O10 0.949072 0.612581 0.497914
O O11 0.073659 0.646410 0.468048
O O12 0.799529 0.750000 0.500000
O O13 0.775826 0.823491 0.250000
O O14 0.823764 0.898947 0.480540
O O15 0.706135 0.852127 0.484830
O O16 0.875055 0.602119 0.250000
O O17 0.894915 0.486656 0.451594
O O18 0.626310 0.664437 0.750000
O O19 0.613380 0.750000 0.000000
O O20 0.599338 0.585048 0.000455
O O21 0.122267 0.946340 0.750000
O O22 0.500000 0.500000 0.500000
O O23 0.431045 0.490433 0.750000
#
# Coordination Sequence:
#
# PCOD8233310 Si02
#       8
#     8   8   8   8   8   8   8   8
#     4   9  21  40  63  91 124 163 206 254 308 363
#     4  10  20  37  59  87 117 152 194 242 297 357
#     4  10  23  40  58  79 108 148 194 242 295 354
#     4  10  21  38  60  89 120 154 197 246 300 360
#     4  11  23  38  57  83 114 152 194 243 299 356
#     4  10  22  41  65  94 127 167 211 259 315 373
#     4  11  23  38  56  83 115 150 193 244 297 355
#     4  11  24  42  64  94 130 169 212 259 308 369
#
# _framework density 20.273344000000002
#
# number of rings (size 3 to 8) (size 9 to 14) (size 15 to 20)
#    0.000    1.750    0.000    3.375    1.750    7.500 
#    0.000    1.250    0.000    0.000    0.000    0.000 
#    0.000    0.000    0.000    0.000    0.000    0.000 
#
# Total GULP energy -793049.822870 kJ/mol
# GULP energy per Si atom -12391.403482 kJ/mol
# Density = 2.022720 g / cm^3
# Si number density = 20.273344 Si / 1000 Ang^3
#
#
#
# Elastic Constant Matrix: (Units=GPa)
#
#
# Indices 1 2 3 4 5 6 
#
# 1 98.9957 51.2650 43.4927 0.0000 0.0000 0.0000
# 2 51.2650 139.6961 41.2911 0.0000 0.0000 0.0000
# 3 43.4927 41.2911 50.5459 0.0000 0.0000 0.0000
# 4 0.0000 0.0000 0.0000 39.4753 0.0000 0.0000
# 5 0.0000 0.0000 0.0000 0.0000 28.4261 0.0000
# 6 0.0000 0.0000 0.0000 0.0000 0.0000 40.1098
#
#
#
# Elastic Compliance Matrix: (Units=1/GPa)
#
#
# Indices 1 2 3 4 5 6 
#
# 1 0.016882 -0.002507 -0.012478 0.000000 0.000000 0.000000
# 2 -0.002507 0.009809 -0.005856 0.000000 0.000000 0.000000
# 3 -0.012478 -0.005856 0.035305 0.000000 0.000000 0.000000
# 4 0.000000 0.000000 0.000000 0.025332 0.000000 0.000000
# 5 0.000000 0.000000 0.000000 0.000000 0.035179 0.000000
# 6 0.000000 0.000000 0.000000 0.000000 0.000000 0.024932
#
#
# Mechanical properties :
#
#
# Convention : Reuss Voigt Hill
#
# Bulk Modulus (GPa) = 49.22842 62.37059 55.79951
# Shear Modulus (GPa) = 25.52418 31.81482 28.66950
#
# Velocity S-wave (km/s) = 3.55209 3.96573 3.76460
# Velocity P-wave (km/s) = 6.41547 7.19729 6.81759
#
# Compressibility (1/GPa) = 0.02031347
#
# Stress axis : x y z
#
# Youngs Moduli (GPa) = 59.23535 101.94371 28.32467
#
# Poissons Ratio (x) = 0.25557 0.35344
# Poissons Ratio (y) = 0.14850 0.16587
# Poissons Ratio (z) = 0.73915 0.59700
#
# Static dielectric constant tensor:
#      x y z
#    x 3.849600 0.000000 0.000000 
#    y 0.000000 3.760920 0.000000 
#    z 0.000000 0.000000 3.682340 
# 
# 
# High freq. dielectric constant tensor:
#      x y z
#    x 1.798700 0.000000 0.000000 
#    y 0.000000 1.801490 0.000000 
#    z 0.000000 0.000000 1.793550 
# 
# From -- ./inp_files/9285.got.cif
#   From: 2010.03.12/outbox.cif.g09.slc.cpg/sg57_5_cif.got.tgz:9285.got - 2010.04.16 15:48:40.
