data_PCOD8233227
_publ_section_title
;
Structure prediction by ZEFSAII (Michael W. Deem and Ramdas Pophale) SiO2 
 PCOD8233227
Probable space group: P B C M
;
_chemical_formula_sum "Si O2"
_cell_formula_units_Z 60
_cell_length_a 8.822760
_cell_length_b 13.290871
_cell_length_c 24.787942
_cell_angle_alpha 90.000000
_cell_angle_beta 90.000000
_cell_angle_gamma 90.000000
_cell_volume 2906.687745
_symmetry_space_group_name_H-M "P B C M"
_symmetry_group_IT_number 57
_symmetry_cell_setting 'orthorhombic'
loop_
_space_group_symop_operation_xyz
x,y,z
-x,-y,1/2+z
x,1/2-y,-z
-x,1/2+y,1/2-z
-x,-y,-z
x,y,1/2-z
-x,1/2+y,z
x,1/2-y,1/2+z
loop_
_atom_site_type_symbol
_atom_site_label
_atom_site_fract_x
_atom_site_fract_y
_atom_site_fract_z
Si Si1 0.014672 0.489917 0.128373
Si Si2 0.110714 0.750000 0.000000
Si Si3 0.657538 0.710804 0.901403
Si Si4 0.266804 0.016060 0.952173
Si Si5 0.145695 0.380215 0.950084
Si Si6 0.672915 0.295597 0.911679
Si Si7 0.894473 0.689199 0.810818
Si Si8 0.851133 0.341668 0.809929
O O1 0.102265 0.465410 0.073422
O O2 0.982885 0.385746 0.159499
O O3 0.126243 0.544504 0.170788
O O4 0.878922 0.562188 0.107618
O O5 0.223887 0.722966 0.949781
O O6 0.011496 0.846708 0.980440
O O7 0.624544 0.600968 0.926383
O O8 0.769188 0.775301 0.939474
O O9 0.497573 0.764383 0.901359
O O10 0.735054 0.698940 0.842498
O O11 0.330776 0.905288 0.940582
O O12 0.246151 0.041800 0.015319
O O13 0.739995 0.289203 0.851891
O O14 0.858200 0.653269 0.750000
O O15 0.981128 0.794443 0.810099
O O16 0.779142 0.337547 0.750000
#
# Coordination Sequence:
#
# PCOD8233227 Si02
#       8
#     8   4   8   8   8   8   8   8
#     4  10  20  36  61  98 115 155 209 262 311 370
#     4  12  22  38  62  90 130 160 218 258 316 372
#     4  11  23  42  61  89 132 165 218 257 317 395
#     4  10  22  38  61  87 125 171 213 248 320 374
#     4  12  21  38  65  90 128 171 209 263 312 381
#     4  11  26  40  58  96 130 172 209 263 327 390
#     4  10  21  39  68  92 117 162 213 267 317 370
#     4  10  20  40  63  88 121 160 210 268 320 370
#
# _framework density 20.642052
#
# number of rings (size 3 to 8) (size 9 to 14) (size 15 to 20)
#    0.000    1.333    5.333    0.800    3.733    1.067 
#    2.400    0.000    0.000    0.000    0.000    0.000 
#    0.000    0.000    0.000    0.000    0.000    0.000 
#
# Total GULP energy -743380.177746 kJ/mol
# GULP energy per Si atom -12389.669629 kJ/mol
# Density = 2.059507 g / cm^3
# Si number density = 20.642052 Si / 1000 Ang^3
#
#
#
# Elastic Constant Matrix: (Units=GPa)
#
#
# Indices 1 2 3 4 5 6 
#
# 1 81.7995 28.6339 42.9448 0.0000 0.0000 0.0000
# 2 28.6339 65.2374 40.4351 0.0000 0.0000 0.0000
# 3 42.9448 40.4351 151.9985 0.0000 0.0000 0.0000
# 4 0.0000 0.0000 0.0000 32.6477 0.0000 0.0000
# 5 0.0000 0.0000 0.0000 0.0000 21.2197 0.0000
# 6 0.0000 0.0000 0.0000 0.0000 0.0000 23.7409
#
#
#
# Elastic Compliance Matrix: (Units=1/GPa)
#
#
# Indices 1 2 3 4 5 6 
#
# 1 0.015569 -0.004918 -0.003090 0.000000 0.000000 0.000000
# 2 -0.004918 0.019909 -0.003907 0.000000 0.000000 0.000000
# 3 -0.003090 -0.003907 0.008491 0.000000 0.000000 0.000000
# 4 0.000000 0.000000 0.000000 0.030630 0.000000 0.000000
# 5 0.000000 0.000000 0.000000 0.000000 0.047126 0.000000
# 6 0.000000 0.000000 0.000000 0.000000 0.000000 0.042121
#
#
# Mechanical properties :
#
#
# Convention : Reuss Voigt Hill
#
# Bulk Modulus (GPa) = 49.65531 58.11812 53.88671
# Shear Modulus (GPa) = 25.72150 27.98977 26.85563
#
# Velocity S-wave (km/s) = 3.53381 3.68633 3.61087
# Velocity P-wave (km/s) = 6.38420 6.80698 6.59898
#
# Compressibility (1/GPa) = 0.02013883
#
# Stress axis : x y z
#
# Youngs Moduli (GPa) = 64.22991 50.22938 117.76565
#
# Poissons Ratio (x) = 0.24703 0.36395
# Poissons Ratio (y) = 0.31588 0.46007
# Poissons Ratio (z) = 0.19850 0.19623
#
# Static dielectric constant tensor:
#      x y z
#    x 3.372080 0.000000 0.000000 
#    y 0.000000 3.845060 0.000000 
#    z 0.000000 0.000000 3.970510 
# 
# 
# High freq. dielectric constant tensor:
#      x y z
#    x 1.765800 0.000000 0.000000 
#    y 0.000000 1.816660 0.000000 
#    z 0.000000 0.000000 1.814740 
# 
# From -- ./inp_files/26844.got.cif
#   From: 2010.03.12/outbox.cif.g09.slc.cpg/sg57_14_cif.got.tgz:26844.got - 2010.04.16 15:48:40.
