data_PCOD8233643
_publ_section_title
;
Structure prediction by ZEFSAII (Michael W. Deem and Ramdas Pophale) SiO2 
 PCOD8233643
Probable space group: P B C M
;
_chemical_formula_sum "Si O2"
_cell_formula_units_Z 48
_cell_length_a 11.207679
_cell_length_b 12.191657
_cell_length_c 17.151006
_cell_angle_alpha 90.000000
_cell_angle_beta 90.000000
_cell_angle_gamma 90.000000
_cell_volume 2343.516515
_symmetry_space_group_name_H-M "P B C M"
_symmetry_group_IT_number 57
_symmetry_cell_setting 'orthorhombic'
loop_
_space_group_symop_operation_xyz
x,y,z
-x,-y,1/2+z
x,1/2-y,-z
-x,1/2+y,1/2-z
-x,-y,-z
x,y,1/2-z
-x,1/2+y,z
x,1/2-y,1/2+z
loop_
_atom_site_type_symbol
_atom_site_label
_atom_site_fract_x
_atom_site_fract_y
_atom_site_fract_z
Si Si1 0.363806 0.788080 0.410905
Si Si2 0.169737 0.643165 0.336015
Si Si3 0.799676 0.902808 0.163690
Si Si4 0.723419 0.507102 0.155332
Si Si5 0.989103 0.995906 0.591652
Si Si6 0.623103 0.734833 0.408035
O O1 0.355802 0.750000 0.500000
O O2 0.248873 0.738692 0.369975
O O3 0.488882 0.747046 0.374442
O O4 0.355043 0.917652 0.391919
O O5 0.131628 0.679390 0.250000
O O6 0.245898 0.529414 0.335138
O O7 0.046573 0.621468 0.383026
O O8 0.809782 0.852963 0.250000
O O9 0.705280 0.834716 0.116288
O O10 0.932222 0.902476 0.125405
O O11 0.713206 0.497234 0.250000
O O12 0.858498 0.493487 0.126889
O O13 0.675896 0.622855 0.124729
O O14 0.000000 0.000000 0.500000
O O15 0.617068 0.750000 0.500000
#
# Coordination Sequence:
#
# PCOD8233643 Si02
#       6
#     8   8   8   8   8   8
#     4  11  26  43  67  94 134 174 219 269 325 386
#     4   9  20  40  65  91 126 171 210 254 325 391
#     4   9  20  40  65  91 126 171 210 254 325 391
#     4  12  26  42  66 104 134 164 224 280 320 382
#     4  10  20  39  68  97 132 167 217 267 327 390
#     4  11  26  43  67  94 134 174 219 269 325 386
#
# _framework density 20.482042
#
# number of rings (size 3 to 8) (size 9 to 14) (size 15 to 20)
#    1.000    0.667    0.000    4.000    4.667    5.333 
#    0.000    6.667    0.000    0.000    0.000    0.000 
#    0.000    0.000    0.000    0.000    0.000    0.000 
#
# Total GULP energy -594696.388529 kJ/mol
# GULP energy per Si atom -12389.508094 kJ/mol
# Density = 2.043542 g / cm^3
# Si number density = 20.482042 Si / 1000 Ang^3
#
#
#
# Elastic Constant Matrix: (Units=GPa)
#
#
# Indices 1 2 3 4 5 6 
#
# 1 103.3495 5.8262 35.4040 0.0000 0.0000 0.0000
# 2 5.8262 48.3059 20.7108 0.0000 0.0000 0.0000
# 3 35.4040 20.7108 95.6334 0.0000 0.0000 0.0000
# 4 0.0000 0.0000 0.0000 35.0345 0.0000 0.0000
# 5 0.0000 0.0000 0.0000 0.0000 -52.1962 0.0000
# 6 0.0000 0.0000 0.0000 0.0000 0.0000 35.4595
#
#
#
# Elastic Compliance Matrix: (Units=1/GPa)
#
#
# Indices 1 2 3 4 5 6 
#
# 1 0.011091 0.000466 -0.004207 0.000000 0.000000 0.000000
# 2 0.000466 0.022840 -0.005119 0.000000 0.000000 0.000000
# 3 -0.004207 -0.005119 0.013123 0.000000 0.000000 0.000000
# 4 0.000000 0.000000 0.000000 0.028543 0.000000 0.000000
# 5 0.000000 0.000000 0.000000 0.000000 -0.019158 0.000000
# 6 0.000000 0.000000 0.000000 0.000000 0.000000 0.028201
#
#
# Mechanical properties :
#
#
# Convention : Reuss Voigt Hill
#
# Bulk Modulus (GPa) = 34.09026 41.24122 37.66574
# Shear Modulus (GPa) = 44.58860 16.01608 30.30234
#
# Velocity S-wave (km/s) = 4.67085 2.79938 3.85055
# Velocity P-wave (km/s) = 6.76530 5.53423 6.18049
#
# Compressibility (1/GPa) = 0.02933389
#
# Stress axis : x y z
#
# Youngs Moduli (GPa) = 90.16537 43.78310 76.20491
#
# Poissons Ratio (x) = -0.02040 0.32058
# Poissons Ratio (y) = -0.04201 0.39008
# Poissons Ratio (z) = 0.37930 0.22412
#
# Static dielectric constant tensor:
#      x y z
#    x 3.940610 0.000000 0.000000 
#    y 0.000000 3.038560 0.000000 
#    z 0.000000 0.000000 3.738300 
# 
# 
# High freq. dielectric constant tensor:
#      x y z
#    x 1.803420 0.000000 0.000000 
#    y 0.000000 1.795700 0.000000 
#    z 0.000000 0.000000 1.814520 
# 
# From -- ./inp_files/18390.got.cif
#   From: 2010.03.12/outbox.cif.g09.slc.cpg/sg57_10_cif.got.tgz:18390.got - 2010.04.16 15:48:40.
