data_PCOD8233550
_publ_section_title
;
Structure prediction by ZEFSAII (Michael W. Deem and Ramdas Pophale) SiO2 
 PCOD8233550
Probable space group: P B C M
;
_chemical_formula_sum "Si O2"
_cell_formula_units_Z 48
_cell_length_a 9.580235
_cell_length_b 13.612842
_cell_length_c 17.460988
_cell_angle_alpha 90.000000
_cell_angle_beta 90.000000
_cell_angle_gamma 90.000000
_cell_volume 2277.161224
_symmetry_space_group_name_H-M "P B C M"
_symmetry_group_IT_number 57
_symmetry_cell_setting 'orthorhombic'
loop_
_space_group_symop_operation_xyz
x,y,z
-x,-y,1/2+z
x,1/2-y,-z
-x,1/2+y,1/2-z
-x,-y,-z
x,y,1/2-z
-x,1/2+y,z
x,1/2-y,1/2+z
loop_
_atom_site_type_symbol
_atom_site_label
_atom_site_fract_x
_atom_site_fract_y
_atom_site_fract_z
Si Si1 0.341629 0.179182 0.340871
Si Si2 0.845292 0.330204 0.434606
Si Si3 0.346486 0.717078 0.161448
Si Si4 0.147351 0.148002 0.899005
Si Si5 0.844007 0.555655 0.437543
Si Si6 0.115563 0.557547 0.337432
O O1 0.330544 0.168307 0.250000
O O2 0.500018 0.191648 0.369532
O O3 0.254071 0.271269 0.370499
O O4 0.282413 0.080248 0.379952
O O5 0.831798 0.250000 0.500000
O O6 0.713831 0.314860 0.378399
O O7 0.839518 0.442426 0.465113
O O8 0.988887 0.313423 0.387593
O O9 0.355823 0.741214 0.250000
O O10 0.243680 0.627762 0.141647
O O11 0.172399 0.052677 0.847071
O O12 0.167760 0.125482 0.988977
O O13 0.988825 0.579225 0.394845
O O14 0.065638 0.573847 0.250000
#
# Coordination Sequence:
#
# PCOD8233550 Si02
#       6
#     8   8   8   8   8   8
#     4  11  24  41  59  86 122 161 201 247 302 362
#     4  11  22  39  63  89 119 154 196 247 300 357
#     4  10  23  40  59  85 121 159 200 247 300 360
#     4  11  22  39  62  91 122 157 199 251 304 359
#     4  11  23  39  62  90 121 155 202 253 299 358
#     4  10  20  38  63  89 118 158 202 249 300 356
#
# _framework density 21.078876999999999
#
# number of rings (size 3 to 8) (size 9 to 14) (size 15 to 20)
#    0.000    1.333    0.000    7.500    0.000    8.000 
#    0.000    5.833    0.000    0.000    0.000    0.000 
#    0.000    0.000    0.000    0.000    0.000    0.000 
#
# Total GULP energy -595332.037580 kJ/mol
# GULP energy per Si atom -12402.750783 kJ/mol
# Density = 2.103090 g / cm^3
# Si number density = 21.078877 Si / 1000 Ang^3
#
#
#
# Elastic Constant Matrix: (Units=GPa)
#
#
# Indices 1 2 3 4 5 6 
#
# 1 137.6155 30.9563 36.0277 0.0000 0.0000 0.0000
# 2 30.9563 63.7195 17.9057 0.0000 0.0000 0.0000
# 3 36.0277 17.9057 68.7286 0.0000 0.0000 0.0000
# 4 0.0000 0.0000 0.0000 34.4986 0.0000 0.0000
# 5 0.0000 0.0000 0.0000 0.0000 27.4005 0.0000
# 6 0.0000 0.0000 0.0000 0.0000 0.0000 22.8184
#
#
#
# Elastic Compliance Matrix: (Units=1/GPa)
#
#
# Indices 1 2 3 4 5 6 
#
# 1 0.009021 -0.003295 -0.003870 0.000000 0.000000 0.000000
# 2 -0.003295 0.018137 -0.002998 0.000000 0.000000 0.000000
# 3 -0.003870 -0.002998 0.017360 0.000000 0.000000 0.000000
# 4 0.000000 0.000000 0.000000 0.028987 0.000000 0.000000
# 5 0.000000 0.000000 0.000000 0.000000 0.036496 0.000000
# 6 0.000000 0.000000 0.000000 0.000000 0.000000 0.043824
#
#
# Mechanical properties :
#
#
# Convention : Reuss Voigt Hill
#
# Bulk Modulus (GPa) = 41.33723 48.87143 45.10433
# Shear Modulus (GPa) = 27.44006 29.28843 28.36424
#
# Velocity S-wave (km/s) = 3.61193 3.73160 3.67225
# Velocity P-wave (km/s) = 6.08671 6.46543 6.27893
#
# Compressibility (1/GPa) = 0.02419127
#
# Stress axis : x y z
#
# Youngs Moduli (GPa) = 110.85111 55.13586 57.60393
#
# Poissons Ratio (x) = 0.18167 0.22295
# Poissons Ratio (y) = 0.36526 0.17269
# Poissons Ratio (z) = 0.42904 0.16529
#
# Static dielectric constant tensor:
#      x y z
#    x 4.008170 0.000000 0.000000 
#    y 0.000000 3.930610 0.000000 
#    z 0.000000 0.000000 3.923150 
# 
# 
# High freq. dielectric constant tensor:
#      x y z
#    x 1.820940 0.000000 0.000000 
#    y 0.000000 1.832360 0.000000 
#    z 0.000000 0.000000 1.835690 
# 
# From -- ./inp_files/20962.got.cif
#   From: 2010.03.12/outbox.cif.g09.slc.cpg/sg57_11_cif.got.tgz:20962.got - 2010.04.16 15:48:40.
