data_PCOD8233637
_publ_section_title
;
Structure prediction by ZEFSAII (Michael W. Deem and Ramdas Pophale) SiO2 
 PCOD8233637
Probable space group: P B C M
;
_chemical_formula_sum "Si O2"
_cell_formula_units_Z 36
_cell_length_a 7.851986
_cell_length_b 22.077533
_cell_length_c 9.577871
_cell_angle_alpha 90.000000
_cell_angle_beta 90.000000
_cell_angle_gamma 90.000000
_cell_volume 1660.347691
_symmetry_space_group_name_H-M "P B C M"
_symmetry_group_IT_number 57
_symmetry_cell_setting 'orthorhombic'
loop_
_space_group_symop_operation_xyz
x,y,z
-x,-y,1/2+z
x,1/2-y,-z
-x,1/2+y,1/2-z
-x,-y,-z
x,y,1/2-z
-x,1/2+y,z
x,1/2-y,1/2+z
loop_
_atom_site_type_symbol
_atom_site_label
_atom_site_fract_x
_atom_site_fract_y
_atom_site_fract_z
Si Si1 0.422823 0.815334 0.518685
Si Si2 0.271300 0.969696 0.250000
Si Si3 0.098581 0.334877 0.250000
Si Si4 0.556572 0.618379 0.750000
Si Si5 0.900950 0.589335 0.250000
Si Si6 0.299868 0.292706 0.750000
Si Si7 0.113710 0.891856 0.487241
O O1 0.335712 0.750000 0.500000
O O2 0.497206 0.841503 0.377853
O O3 0.583258 0.805821 0.617915
O O4 0.270739 0.859217 0.567939
O O5 0.468880 0.948125 0.250000
O O6 0.178383 0.945153 0.387603
O O7 0.259274 0.042690 0.250000
O O8 0.239401 0.389272 0.250000
O O9 0.205153 0.272079 0.250000
O O10 0.986447 0.342442 0.109431
O O11 0.849743 0.658859 0.250000
O O12 0.004160 0.577062 0.391876
#
# Coordination Sequence:
#
# PCOD8233637 Si02
#       7
#     8   4   4   4   4   4   8
#     4  11  21  40  60  90 126 169 200 249 321 388
#     4   9  22  46  63  90 127 178 209 251 325 381
#     4  11  22  43  60  98 126 165 205 265 326 378
#     4  10  20  39  66  84 123 169 206 251 316 375
#     4  12  24  39  64  99 128 160 222 272 295 370
#     4  12  26  37  63  95 138 158 204 267 322 370
#     4  10  24  40  68  90 128 168 215 259 322 372
#
# _framework density 21.682205
#
# number of rings (size 3 to 8) (size 9 to 14) (size 15 to 20)
#    0.000    1.333    2.222    3.333    3.111    0.000 
#    0.000   14.444    0.000    0.000    0.000    0.000 
#    0.000    0.000    0.000    0.000    0.000    0.000 
#
# Total GULP energy -446190.179616 kJ/mol
# GULP energy per Si atom -12394.171656 kJ/mol
# Density = 2.163286 g / cm^3
# Si number density = 21.682205 Si / 1000 Ang^3
#
#
#
# Elastic Constant Matrix: (Units=GPa)
#
#
# Indices 1 2 3 4 5 6 
#
# 1 79.2861 8.4819 11.8837 0.0000 0.0000 0.0000
# 2 8.4819 53.2614 8.4410 0.0000 0.0000 0.0000
# 3 11.8837 8.4410 102.1890 0.0000 0.0000 0.0000
# 4 0.0000 0.0000 0.0000 18.1155 0.0000 0.0000
# 5 0.0000 0.0000 0.0000 0.0000 40.0265 0.0000
# 6 0.0000 0.0000 0.0000 0.0000 0.0000 25.9190
#
#
#
# Elastic Compliance Matrix: (Units=1/GPa)
#
#
# Indices 1 2 3 4 5 6 
#
# 1 0.013015 -0.001857 -0.001360 0.000000 0.000000 0.000000
# 2 -0.001857 0.019289 -0.001377 0.000000 0.000000 0.000000
# 3 -0.001360 -0.001377 0.010058 0.000000 0.000000 0.000000
# 4 0.000000 0.000000 0.000000 0.055201 0.000000 0.000000
# 5 0.000000 0.000000 0.000000 0.000000 0.024983 0.000000
# 6 0.000000 0.000000 0.000000 0.000000 0.000000 0.038582
#
#
# Mechanical properties :
#
#
# Convention : Reuss Voigt Hill
#
# Bulk Modulus (GPa) = 30.14504 32.48330 31.31417
# Shear Modulus (GPa) = 27.56711 30.54087 29.05399
#
# Velocity S-wave (km/s) = 3.56956 3.75716 3.66456
# Velocity P-wave (km/s) = 5.56078 5.81685 5.69026
#
# Compressibility (1/GPa) = 0.03317295
#
# Stress axis : x y z
#
# Youngs Moduli (GPa) = 76.83392 51.84209 99.42598
#
# Poissons Ratio (x) = 0.09628 0.13523
# Poissons Ratio (y) = 0.14269 0.13695
# Poissons Ratio (z) = 0.10451 0.07141
#
# Static dielectric constant tensor:
#      x y z
#    x 4.218460 0.000000 0.000000 
#    y 0.000000 3.857850 0.000000 
#    z 0.000000 0.000000 3.653510 
# 
# 
# High freq. dielectric constant tensor:
#      x y z
#    x 1.857080 0.000000 0.000000 
#    y 0.000000 1.838790 0.000000 
#    z 0.000000 0.000000 1.861280 
# 
# From -- ./inp_files/1386.got.cif
#   From: 2010.03.12/outbox.cif.g09.slc.cpg/sg57_1_cif.got.tgz:1386.got - 2010.04.16 15:48:40.
