data_PCOD8233593
_publ_section_title
;
Structure prediction by ZEFSAII (Michael W. Deem and Ramdas Pophale) SiO2 
 PCOD8233593
Probable space group: P B C M
;
_chemical_formula_sum "Si O2"
_cell_formula_units_Z 64
_cell_length_a 19.922886
_cell_length_b 8.828629
_cell_length_c 18.569814
_cell_angle_alpha 90.000000
_cell_angle_beta 90.000000
_cell_angle_gamma 90.000000
_cell_volume 3266.277436
_symmetry_space_group_name_H-M "P B C M"
_symmetry_group_IT_number 57
_symmetry_cell_setting 'orthorhombic'
loop_
_space_group_symop_operation_xyz
x,y,z
-x,-y,1/2+z
x,1/2-y,-z
-x,1/2+y,1/2-z
-x,-y,-z
x,y,1/2-z
-x,1/2+y,z
x,1/2-y,1/2+z
loop_
_atom_site_type_symbol
_atom_site_label
_atom_site_fract_x
_atom_site_fract_y
_atom_site_fract_z
Si Si1 0.427878 0.882806 0.551760
Si Si2 0.186007 0.710510 0.664925
Si Si3 0.574190 0.878968 0.945158
Si Si4 0.676011 0.739775 0.666848
Si Si5 0.928232 0.692823 0.922523
Si Si6 0.678932 0.117428 0.333245
Si Si7 0.181756 0.365248 0.665133
Si Si8 0.931221 0.166916 0.425375
O O1 0.445995 0.750000 0.500000
O O2 0.500812 0.942125 0.582126
O O3 0.382849 0.826870 0.618465
O O4 0.389424 0.999634 0.497920
O O5 0.180890 0.717471 0.750000
O O6 0.255191 0.791315 0.640452
O O7 0.177719 0.538114 0.636991
O O8 0.125245 0.805520 0.633421
O O9 0.617957 0.821827 0.878182
O O10 0.557950 0.750000 0.000000
O O11 0.660364 0.775444 0.750000
O O12 0.683945 0.561632 0.653510
O O13 0.745475 0.810384 0.641202
O O14 0.872679 0.750088 0.866899
O O15 0.937168 0.513386 0.930610
O O16 0.998575 0.765412 0.897605
O O17 0.905404 0.750000 0.000000
O O18 0.663892 0.154999 0.250000
O O19 0.171942 0.357224 0.750000
O O20 0.911504 0.250000 0.500000
#
# Coordination Sequence:
#
# PCOD8233593 Si02
#       8
#     8   8   8   8   8   8   8   8
#     4  10  22  37  59  86 116 154 193 243 296 356
#     4  10  22  40  60  85 118 153 194 244 293 350
#     4  10  20  39  59  83 117 150 193 244 296 354
#     4  10  21  38  60  84 114 154 197 246 298 357
#     4  11  22  39  62  88 120 156 195 243 294 347
#     4  10  21  39  59  83 117 155 197 244 301 359
#     4  10  22  40  60  86 118 153 197 245 294 351
#     4  11  22  39  62  88 121 156 196 244 294 349
#
# _framework density 19.594170999999999
#
# number of rings (size 3 to 8) (size 9 to 14) (size 15 to 20)
#    0.000    1.750    1.250    3.750    1.750    3.500 
#    2.250    0.000    0.000    0.000    0.000    0.000 
#    0.000    0.000    0.000    0.000    0.000    0.000 
#
# Total GULP energy -793064.157733 kJ/mol
# GULP energy per Si atom -12391.627465 kJ/mol
# Density = 1.954957 g / cm^3
# Si number density = 19.594171 Si / 1000 Ang^3
#
#
#
# Elastic Constant Matrix: (Units=GPa)
#
#
# Indices 1 2 3 4 5 6 
#
# 1 128.7343 56.0151 66.7347 0.0000 0.0000 0.0000
# 2 56.0151 99.4404 28.4258 0.0000 0.0000 0.0000
# 3 66.7347 28.4258 64.5884 0.0000 0.0000 0.0000
# 4 0.0000 0.0000 0.0000 32.5376 0.0000 0.0000
# 5 0.0000 0.0000 0.0000 0.0000 51.3267 0.0000
# 6 0.0000 0.0000 0.0000 0.0000 0.0000 19.6470
#
#
#
# Elastic Compliance Matrix: (Units=1/GPa)
#
#
# Indices 1 2 3 4 5 6 
#
# 1 0.019374 -0.005938 -0.017404 0.000000 0.000000 0.000000
# 2 -0.005938 0.013324 0.000272 0.000000 0.000000 0.000000
# 3 -0.017404 0.000272 0.033346 0.000000 0.000000 0.000000
# 4 0.000000 0.000000 0.000000 0.030734 0.000000 0.000000
# 5 0.000000 0.000000 0.000000 0.000000 0.019483 0.000000
# 6 0.000000 0.000000 0.000000 0.000000 0.000000 0.050898
#
#
# Mechanical properties :
#
#
# Convention : Reuss Voigt Hill
#
# Bulk Modulus (GPa) = 50.24691 66.12380 58.18536
# Shear Modulus (GPa) = 22.73402 30.14142 26.43772
#
# Velocity S-wave (km/s) = 3.40993 3.92635 3.67722
# Velocity P-wave (km/s) = 6.41895 7.37394 6.91296
#
# Compressibility (1/GPa) = 0.01990172
#
# Stress axis : x y z
#
# Youngs Moduli (GPa) = 51.61518 75.05451 29.98871
#
# Poissons Ratio (x) = 0.44570 0.52194
# Poissons Ratio (y) = 0.30651 -0.00815
# Poissons Ratio (z) = 0.89834 -0.02040
#
# Static dielectric constant tensor:
#      x y z
#    x 3.564270 0.000000 0.000000 
#    y 0.000000 3.740140 0.000000 
#    z 0.000000 0.000000 3.365920 
# 
# 
# High freq. dielectric constant tensor:
#      x y z
#    x 1.767030 0.000000 0.000000 
#    y 0.000000 1.781490 0.000000 
#    z 0.000000 0.000000 1.753100 
# 
# From -- ./inp_files/25599.got.cif
#   From: 2010.03.12/outbox.cif.g09.slc.cpg/sg57_13_cif.got.tgz:25599.got - 2010.04.16 15:48:40.
