data_PCOD8233575
_publ_section_title
;
Structure prediction by ZEFSAII (Michael W. Deem and Ramdas Pophale) SiO2 
 PCOD8233575
Probable space group: P B C M
;
_chemical_formula_sum "Si O2"
_cell_formula_units_Z 64
_cell_length_a 9.679534
_cell_length_b 21.560383
_cell_length_c 14.212979
_cell_angle_alpha 90.000000
_cell_angle_beta 90.000000
_cell_angle_gamma 90.000000
_cell_volume 2966.169982
_symmetry_space_group_name_H-M "P B C M"
_symmetry_group_IT_number 57
_symmetry_cell_setting 'orthorhombic'
loop_
_space_group_symop_operation_xyz
x,y,z
-x,-y,1/2+z
x,1/2-y,-z
-x,1/2+y,1/2-z
-x,-y,-z
x,y,1/2-z
-x,1/2+y,z
x,1/2-y,1/2+z
loop_
_atom_site_type_symbol
_atom_site_label
_atom_site_fract_x
_atom_site_fract_y
_atom_site_fract_z
Si Si1 0.654381 0.969929 0.355814
Si Si2 0.027522 0.344715 0.954716
Si Si3 0.946193 0.720190 0.642354
Si Si4 0.652051 0.484770 0.143316
Si Si5 0.227072 0.577912 0.023700
Si Si6 0.455978 0.818909 0.518474
Si Si7 0.311235 0.370282 0.858965
Si Si8 0.338534 0.334396 0.353711
O O1 0.645946 0.995074 0.250000
O O2 0.497323 0.961559 0.393175
O O3 0.730571 0.903218 0.363273
O O4 0.737277 0.020217 0.412221
O O5 0.994718 0.287529 0.884517
O O6 0.923795 0.401688 0.939531
O O7 0.183698 0.363331 0.930730
O O8 0.000072 0.327890 0.064370
O O9 0.989682 0.703008 0.750000
O O10 0.778487 0.718447 0.631458
O O11 0.683793 0.465780 0.250000
O O12 0.647040 0.558542 0.130935
O O13 0.768101 0.449077 0.082346
O O14 0.327791 0.636297 0.036099
O O15 0.397322 0.750000 0.500000
O O16 0.562853 0.826320 0.606137
O O17 0.535600 0.832374 0.423318
O O18 0.274641 0.353238 0.750000
O O19 0.403186 0.327359 0.250000
#
# Coordination Sequence:
#
# PCOD8233575 Si02
#       8
#     8   8   8   8   8   8   8   8
#     4  10  20  38  65  97 128 163 212 271 334 388
#     4  11  25  41  64  92 129 176 217 259 322 394
#     4  10  22  43  66  89 124 172 221 269 316 379
#     4  10  21  40  67  96 130 171 211 268 337 391
#     4  12  25  40  65  93 138 171 215 268 331 394
#     4  12  24  38  63  96 127 168 221 270 320 389
#     4  11  23  43  66  93 129 170 219 272 327 390
#     4  10  20  39  69  97 121 158 216 277 321 374
#
# _framework density 21.576647000000001
#
# number of rings (size 3 to 8) (size 9 to 14) (size 15 to 20)
#    0.000    1.250    3.750    2.250    1.750    3.500 
#    0.000    0.000    0.000    0.000    0.000    0.000 
#    0.000    0.000    0.000    0.000    0.000    0.000 
#
# Total GULP energy -793262.681211 kJ/mol
# GULP energy per Si atom -12394.729394 kJ/mol
# Density = 2.152754 g / cm^3
# Si number density = 21.576647 Si / 1000 Ang^3
#
#
#
# Elastic Constant Matrix: (Units=GPa)
#
#
# Indices 1 2 3 4 5 6 
#
# 1 25.9443 -1.2178 7.9279 0.0000 0.0000 0.0000
# 2 -1.2178 50.3926 23.4684 0.0000 0.0000 0.0000
# 3 7.9279 23.4684 109.0691 0.0000 0.0000 0.0000
# 4 0.0000 0.0000 0.0000 25.9224 0.0000 0.0000
# 5 0.0000 0.0000 0.0000 0.0000 2.5671 0.0000
# 6 0.0000 0.0000 0.0000 0.0000 0.0000 37.3561
#
#
#
# Elastic Compliance Matrix: (Units=1/GPa)
#
#
# Indices 1 2 3 4 5 6 
#
# 1 0.039715 0.002561 -0.003438 0.000000 0.000000 0.000000
# 2 0.002561 0.022219 -0.004967 0.000000 0.000000 0.000000
# 3 -0.003438 -0.004967 0.010487 0.000000 0.000000 0.000000
# 4 0.000000 0.000000 0.000000 0.038577 0.000000 0.000000
# 5 0.000000 0.000000 0.000000 0.000000 0.389539 0.000000
# 6 0.000000 0.000000 0.000000 0.000000 0.000000 0.026769
#
#
# Mechanical properties :
#
#
# Convention : Reuss Voigt Hill
#
# Bulk Modulus (GPa) = 16.46547 27.30700 21.88624
# Shear Modulus (GPa) = 8.94073 23.51762 16.22917
#
# Velocity S-wave (km/s) = 2.03782 3.30503 2.74554
# Velocity P-wave (km/s) = 3.63107 5.21992 4.49623
#
# Compressibility (1/GPa) = 0.06073316
#
# Stress axis : x y z
#
# Youngs Moduli (GPa) = 25.17952 45.00594 95.35481
#
# Poissons Ratio (x) = -0.11525 0.32781
# Poissons Ratio (y) = -0.06448 0.47363
# Poissons Ratio (z) = 0.08656 0.22355
#
# Static dielectric constant tensor:
#      x y z
#    x 3.521430 0.000000 0.000000 
#    y 0.000000 4.274000 0.000000 
#    z 0.000000 0.000000 3.990800 
# 
# 
# High freq. dielectric constant tensor:
#      x y z
#    x 1.808070 0.000000 0.000000 
#    y 0.000000 1.860110 0.000000 
#    z 0.000000 0.000000 1.861440 
# 
# From -- ./inp_files/16975.got.cif
#   From: 2010.03.12/outbox.cif.g09.slc.cpg/sg57_9_cif.got.tgz:16975.got - 2010.04.16 15:48:40.
