data_PCOD8233218
_publ_section_title
;
Structure prediction by ZEFSAII (Michael W. Deem and Ramdas Pophale) SiO2 
 PCOD8233218
Probable space group: P B C M
;
_chemical_formula_sum "Si O2"
_cell_formula_units_Z 64
_cell_length_a 11.665996
_cell_length_b 18.678269
_cell_length_c 12.583135
_cell_angle_alpha 90.000000
_cell_angle_beta 90.000000
_cell_angle_gamma 90.000000
_cell_volume 2741.872810
_symmetry_space_group_name_H-M "P B C M"
_symmetry_group_IT_number 57
_symmetry_cell_setting 'orthorhombic'
loop_
_space_group_symop_operation_xyz
x,y,z
-x,-y,1/2+z
x,1/2-y,-z
-x,1/2+y,1/2-z
-x,-y,-z
x,y,1/2-z
-x,1/2+y,z
x,1/2-y,1/2+z
loop_
_atom_site_type_symbol
_atom_site_label
_atom_site_fract_x
_atom_site_fract_y
_atom_site_fract_z
Si Si1 0.126238 0.184354 0.375083
Si Si2 0.288202 0.791864 0.122493
Si Si3 0.608097 0.356970 0.876529
Si Si4 0.318126 0.486376 0.375845
Si Si5 0.621236 0.712000 0.376940
Si Si6 0.036188 0.689829 0.628755
Si Si7 0.481002 0.359549 0.376316
Si Si8 0.918444 0.564184 0.526964
O O1 0.126016 0.181122 0.250000
O O2 0.254039 0.193359 0.420831
O O3 0.082306 0.109165 0.418437
O O4 0.044029 0.247392 0.418983
O O5 0.292958 0.793907 0.250000
O O6 0.314084 0.710108 0.082540
O O7 0.163277 0.813033 0.076642
O O8 0.386985 0.848558 0.080168
O O9 0.608915 0.355115 0.750000
O O10 0.653082 0.433746 0.915492
O O11 0.476055 0.345138 0.916881
O O12 0.295259 0.482672 0.250000
O O13 0.423956 0.434803 0.409138
O O14 0.205272 0.462005 0.437092
O O15 0.619873 0.712052 0.250000
O O16 0.594489 0.792428 0.419128
O O17 0.055493 0.708411 0.750000
O O18 0.973125 0.613889 0.618207
O O19 0.485732 0.353932 0.250000
O O20 0.000000 0.500000 0.500000
#
# Coordination Sequence:
#
# PCOD8233218 Si02
#       8
#     8   8   8   8   8   8   8   8
#     4  10  22  41  66  88 113 160 212 260 307 358
#     4   8  15  30  57  90 121 155 205 255 298 356
#     4   8  15  29  55  90 122 155 196 246 303 370
#     4  10  20  36  61  90 126 167 203 246 316 389
#     4   8  14  30  56  85 112 143 197 256 301 350
#     4  10  21  40  67  93 119 162 211 255 306 366
#     4   8  14  28  55  90 120 150 192 246 303 363
#     4  12  27  42  57  87 129 164 206 257 309 370
#
# _framework density 23.341708000000001
#
# number of rings (size 3 to 8) (size 9 to 14) (size 15 to 20)
#    0.000    2.750    0.000    3.000    1.750    3.000 
#    2.250    0.625    0.000    0.000    0.000    0.000 
#    0.000    0.000    0.000    0.000    0.000    0.000 
#
# Total GULP energy -793559.153660 kJ/mol
# GULP energy per Si atom -12399.361776 kJ/mol
# Density = 2.328858 g / cm^3
# Si number density = 23.341708 Si / 1000 Ang^3
#
#
#
# Elastic Constant Matrix: (Units=GPa)
#
#
# Indices 1 2 3 4 5 6 
#
# 1 216.8787 102.9288 25.5220 0.0000 0.0000 0.0000
# 2 102.9288 195.7310 26.2826 0.0000 0.0000 0.0000
# 3 25.5220 26.2826 36.2150 0.0000 0.0000 0.0000
# 4 0.0000 0.0000 0.0000 43.7815 0.0000 0.0000
# 5 0.0000 0.0000 0.0000 0.0000 29.9711 0.0000
# 6 0.0000 0.0000 0.0000 0.0000 0.0000 45.0242
#
#
#
# Elastic Compliance Matrix: (Units=1/GPa)
#
#
# Indices 1 2 3 4 5 6 
#
# 1 0.006307 -0.003013 -0.002258 0.000000 0.000000 0.000000
# 2 -0.003013 0.007100 -0.003029 0.000000 0.000000 0.000000
# 3 -0.002258 -0.003029 0.031403 0.000000 0.000000 0.000000
# 4 0.000000 0.000000 0.000000 0.022841 0.000000 0.000000
# 5 0.000000 0.000000 0.000000 0.000000 0.033365 0.000000
# 6 0.000000 0.000000 0.000000 0.000000 0.000000 0.022210
#
#
# Mechanical properties :
#
#
# Convention : Reuss Voigt Hill
#
# Bulk Modulus (GPa) = 35.45001 84.25461 59.85231
# Shear Modulus (GPa) = 33.50537 43.36145 38.43341
#
# Velocity S-wave (km/s) = 3.79282 4.31476 4.06218
# Velocity P-wave (km/s) = 5.86524 7.81008 6.90646
#
# Compressibility (1/GPa) = 0.02820874
#
# Stress axis : x y z
#
# Youngs Moduli (GPa) = 158.56304 140.83605 31.84459
#
# Poissons Ratio (x) = 0.42438 0.07189
# Poissons Ratio (y) = 0.47780 0.09647
# Poissons Ratio (z) = 0.35798 0.42666
#
# Static dielectric constant tensor:
#      x y z
#    x 4.635210 0.000000 0.000000 
#    y 0.000000 4.202550 0.000000 
#    z 0.000000 0.000000 4.342610 
# 
# 
# High freq. dielectric constant tensor:
#      x y z
#    x 1.932730 0.000000 0.000000 
#    y 0.000000 1.906130 0.000000 
#    z 0.000000 0.000000 1.964010 
# 
# From -- ./inp_files/18015.got.cif
#   From: 2010.03.12/outbox.cif.g09.slc.cpg/sg57_10_cif.got.tgz:18015.got - 2010.04.16 15:48:40.
