data_PCOD8233782
_publ_section_title
;
Structure prediction by ZEFSAII (Michael W. Deem and Ramdas Pophale) SiO2 
 PCOD8233782
Probable space group: P B C M
;
_chemical_formula_sum "Si O2"
_cell_formula_units_Z 32
_cell_length_a 7.543413
_cell_length_b 24.554126
_cell_length_c 9.143240
_cell_angle_alpha 90.000000
_cell_angle_beta 90.000000
_cell_angle_gamma 90.000000
_cell_volume 1693.528406
_symmetry_space_group_name_H-M "P B C M"
_symmetry_group_IT_number 57
_symmetry_cell_setting 'orthorhombic'
loop_
_space_group_symop_operation_xyz
x,y,z
-x,-y,1/2+z
x,1/2-y,-z
-x,1/2+y,1/2-z
-x,-y,-z
x,y,1/2-z
-x,1/2+y,z
x,1/2-y,1/2+z
loop_
_atom_site_type_symbol
_atom_site_label
_atom_site_fract_x
_atom_site_fract_y
_atom_site_fract_z
Si Si1 0.300947 0.886100 0.079784
Si Si2 0.700417 0.890551 0.078335
Si Si3 0.998616 0.307280 0.422136
Si Si4 0.314447 0.005647 0.420795
O O1 0.312352 0.873949 0.250000
O O2 0.501051 0.879395 0.017110
O O3 0.165774 0.842160 0.011399
O O4 0.220087 0.946966 0.054059
O O5 0.699157 0.904069 0.250000
O O6 0.818889 0.838337 0.041924
O O7 0.785281 0.943405 0.996516
O O8 0.003963 0.250000 0.500000
O O9 0.977759 0.298311 0.250000
O O10 0.340455 0.017697 0.250000
O O11 0.500000 0.000000 0.500000
#
# Coordination Sequence:
#
# PCOD8233782 Si02
#       4
#     8   8   8   8
#     4   8  16  32  51  71  98 129 157 193 244 293
#     4   9  18  33  52  73 100 131 159 197 249 294
#     4  10  21  36  51  69  96 130 168 206 243 286
#     4   9  16  29  51  77 103 129 160 198 243 298
#
# _framework density 18.895461000000001
#
# number of rings (size 3 to 8) (size 9 to 14) (size 15 to 20)
#    0.000    3.000    0.000    2.250    0.000    3.000 
#    0.000    6.250    0.000    0.000    0.000    0.000 
#    0.000    0.000    0.000    0.000    0.000    0.000 
#
# Total GULP energy -396483.045412 kJ/mol
# GULP energy per Si atom -12390.095169 kJ/mol
# Density = 1.885245 g / cm^3
# Si number density = 18.895461 Si / 1000 Ang^3
#
#
#
# Elastic Constant Matrix: (Units=GPa)
#
#
# Indices 1 2 3 4 5 6 
#
# 1 97.3736 77.6093 29.6186 0.0000 0.0000 0.0000
# 2 77.6093 189.0258 61.1993 0.0000 0.0000 0.0000
# 3 29.6186 61.1993 55.5764 0.0000 0.0000 0.0000
# 4 0.0000 0.0000 0.0000 38.3968 0.0000 0.0000
# 5 0.0000 0.0000 0.0000 0.0000 12.9515 0.0000
# 6 0.0000 0.0000 0.0000 0.0000 0.0000 28.3341
#
#
#
# Elastic Compliance Matrix: (Units=1/GPa)
#
#
# Indices 1 2 3 4 5 6 
#
# 1 0.015398 -0.005696 -0.001934 0.000000 0.000000 0.000000
# 2 -0.005696 0.010328 -0.008338 0.000000 0.000000 0.000000
# 3 -0.001934 -0.008338 0.028205 0.000000 0.000000 0.000000
# 4 0.000000 0.000000 0.000000 0.026044 0.000000 0.000000
# 5 0.000000 0.000000 0.000000 0.000000 0.077211 0.000000
# 6 0.000000 0.000000 0.000000 0.000000 0.000000 0.035293
#
#
# Mechanical properties :
#
#
# Convention : Reuss Voigt Hill
#
# Bulk Modulus (GPa) = 45.46222 75.42556 60.44389
# Shear Modulus (GPa) = 21.57534 27.50638 24.54086
#
# Velocity S-wave (km/s) = 3.38276 3.81952 3.60775
# Velocity P-wave (km/s) = 6.27451 7.71075 7.02941
#
# Compressibility (1/GPa) = 0.02199629
#
# Stress axis : x y z
#
# Youngs Moduli (GPa) = 64.94500 96.82167 35.45444
#
# Poissons Ratio (x) = 0.55147 0.06857
# Poissons Ratio (y) = 0.36991 0.29561
# Poissons Ratio (z) = 0.12560 0.80728
#
# Static dielectric constant tensor:
#      x y z
#    x 3.497380 0.000000 0.000000 
#    y 0.000000 3.311710 0.000000 
#    z 0.000000 0.000000 3.432850 
# 
# 
# High freq. dielectric constant tensor:
#      x y z
#    x 1.722760 0.000000 0.000000 
#    y 0.000000 1.740720 0.000000 
#    z 0.000000 0.000000 1.705700 
# 
# From -- ./inp_files/1241.got.cif
#   From: 2010.03.12/outbox.cif.g09.slc.cpg/sg57_1_cif.got.tgz:1241.got - 2010.04.16 15:48:40.
