data_PCOD8233733
_publ_section_title
;
Structure prediction by ZEFSAII (Michael W. Deem and Ramdas Pophale) SiO2 
 PCOD8233733
Probable space group: P B C M
;
_chemical_formula_sum "Si O2"
_cell_formula_units_Z 64
_cell_length_a 8.166558
_cell_length_b 23.013072
_cell_length_c 17.050275
_cell_angle_alpha 90.000000
_cell_angle_beta 90.000000
_cell_angle_gamma 90.000000
_cell_volume 3204.387545
_symmetry_space_group_name_H-M "P B C M"
_symmetry_group_IT_number 57
_symmetry_cell_setting 'orthorhombic'
loop_
_space_group_symop_operation_xyz
x,y,z
-x,-y,1/2+z
x,1/2-y,-z
-x,1/2+y,1/2-z
-x,-y,-z
x,y,1/2-z
-x,1/2+y,z
x,1/2-y,1/2+z
loop_
_atom_site_type_symbol
_atom_site_label
_atom_site_fract_x
_atom_site_fract_y
_atom_site_fract_z
Si Si1 0.375590 0.579362 0.060068
Si Si2 0.532101 0.016943 0.840163
Si Si3 0.916482 0.905745 0.990837
Si Si4 0.832440 0.474227 0.066064
Si Si5 0.305796 0.686894 0.157583
Si Si6 0.593828 0.878100 0.424550
Si Si7 0.014757 0.287001 0.577754
Si Si8 0.375759 0.250735 0.406775
O O1 0.506553 0.539781 0.106133
O O2 0.290803 0.622603 0.120975
O O3 0.249346 0.534450 0.020452
O O4 0.449029 0.616128 0.987860
O O5 0.511736 0.000253 0.750000
O O6 0.716134 0.038459 0.859733
O O7 0.409551 0.069538 0.861658
O O8 0.002267 0.855017 0.942062
O O9 0.891797 0.959315 0.931044
O O10 0.754034 0.877663 0.023288
O O11 0.020658 0.927436 0.066800
O O12 0.304988 0.681116 0.250000
O O13 0.145044 0.724953 0.132698
O O14 0.481380 0.712656 0.131571
O O15 0.591124 0.816940 0.378329
O O16 0.990892 0.250000 0.500000
O O17 0.191892 0.271442 0.617860
O O18 0.392648 0.250000 0.500000
#
# Coordination Sequence:
#
# PCOD8233733 Si02
#       8
#     8   8   8   8   8   8   8   8
#     4  11  19  39  62  89 118 160 208 251 300 368
#     4  11  23  38  57  90 127 161 198 248 313 376
#     4  11  18  37  62  90 115 150 207 259 299 348
#     4  10  21  34  64  88 118 156 204 254 300 368
#     4  12  26  41  61  95 133 161 198 261 327 374
#     4  11  20  39  67  89 113 159 215 255 295 365
#     4  11  23  39  67  95 118 161 215 260 302 370
#     4  11  22  41  68  92 118 165 217 259 304 364
#
# _framework density 19.972615000000001
#
# number of rings (size 3 to 8) (size 9 to 14) (size 15 to 20)
#    0.000    1.000    7.500    1.500    0.000    1.000 
#    0.000    1.250    0.000    0.000    0.000    0.000 
#    0.000    0.000    0.000    0.000    0.000    0.000 
#
# Total GULP energy -793242.996949 kJ/mol
# GULP energy per Si atom -12394.421827 kJ/mol
# Density = 1.992716 g / cm^3
# Si number density = 19.972615 Si / 1000 Ang^3
#
#
#
# Elastic Constant Matrix: (Units=GPa)
#
#
# Indices 1 2 3 4 5 6 
#
# 1 100.0502 22.6228 23.3640 0.0000 0.0000 0.0000
# 2 22.6228 110.5313 20.4430 0.0000 0.0000 0.0000
# 3 23.3640 20.4430 78.2397 0.0000 0.0000 0.0000
# 4 0.0000 0.0000 0.0000 15.5369 0.0000 0.0000
# 5 0.0000 0.0000 0.0000 0.0000 20.2239 0.0000
# 6 0.0000 0.0000 0.0000 0.0000 0.0000 23.4444
#
#
#
# Elastic Compliance Matrix: (Units=1/GPa)
#
#
# Indices 1 2 3 4 5 6 
#
# 1 0.011052 -0.001736 -0.002847 0.000000 0.000000 0.000000
# 2 -0.001736 0.009779 -0.002037 0.000000 0.000000 0.000000
# 3 -0.002847 -0.002037 0.014164 0.000000 0.000000 0.000000
# 4 0.000000 0.000000 0.000000 0.064363 0.000000 0.000000
# 5 0.000000 0.000000 0.000000 0.000000 0.049446 0.000000
# 6 0.000000 0.000000 0.000000 0.000000 0.000000 0.042654
#
#
# Mechanical properties :
#
#
# Convention : Reuss Voigt Hill
#
# Bulk Modulus (GPa) = 45.96386 46.85341 46.40864
# Shear Modulus (GPa) = 23.59054 26.66713 25.12883
#
# Velocity S-wave (km/s) = 3.44051 3.65798 3.55091
# Velocity P-wave (km/s) = 6.23267 6.43046 6.33234
#
# Compressibility (1/GPa) = 0.02175622
#
# Stress axis : x y z
#
# Youngs Moduli (GPa) = 90.47936 102.25825 70.60348
#
# Poissons Ratio (x) = 0.17747 0.20100
# Poissons Ratio (y) = 0.15703 0.14381
# Poissons Ratio (z) = 0.25759 0.20829
#
# Static dielectric constant tensor:
#      x y z
#    x 4.049880 0.000000 0.000000 
#    y 0.000000 3.995960 0.000000 
#    z 0.000000 0.000000 3.175960 
# 
# 
# High freq. dielectric constant tensor:
#      x y z
#    x 1.795430 0.000000 0.000000 
#    y 0.000000 1.791240 0.000000 
#    z 0.000000 0.000000 1.729710 
# 
# From -- ./inp_files/21496.got.cif
#   From: 2010.03.12/outbox.cif.g09.slc.cpg/sg57_11_cif.got.tgz:21496.got - 2010.04.16 15:48:40.
