data_PCOD8233028
_publ_section_title
;
Structure prediction by ZEFSAII (Michael W. Deem and Ramdas Pophale) SiO2 
 PCOD8233028
Probable space group: P B C M
;
_chemical_formula_sum "Si O2"
_cell_formula_units_Z 64
_cell_length_a 15.034675
_cell_length_b 24.385095
_cell_length_c 8.544943
_cell_angle_alpha 90.000000
_cell_angle_beta 90.000000
_cell_angle_gamma 90.000000
_cell_volume 3132.763906
_symmetry_space_group_name_H-M "P B C M"
_symmetry_group_IT_number 57
_symmetry_cell_setting 'orthorhombic'
loop_
_space_group_symop_operation_xyz
x,y,z
-x,-y,1/2+z
x,1/2-y,-z
-x,1/2+y,1/2-z
-x,-y,-z
x,y,1/2-z
-x,1/2+y,z
x,1/2-y,1/2+z
loop_
_atom_site_type_symbol
_atom_site_label
_atom_site_fract_x
_atom_site_fract_y
_atom_site_fract_z
Si Si1 0.807326 0.189583 0.429591
Si Si2 0.997454 0.807097 0.571912
Si Si3 0.286671 0.990742 0.435665
Si Si4 0.511862 0.811156 0.566741
Si Si5 0.905384 0.986465 0.928702
Si Si6 0.854849 0.877165 0.429603
Si Si7 0.651974 0.374855 0.067661
Si Si8 0.672116 0.887424 0.935751
O O1 0.799279 0.250000 0.500000
O O2 0.773676 0.191524 0.250000
O O3 0.748530 0.149473 0.534782
O O4 0.906596 0.162753 0.435184
O O5 0.024254 0.750000 0.500000
O O6 0.961453 0.804775 0.750000
O O7 0.922580 0.827820 0.453491
O O8 0.278476 0.990412 0.250000
O O9 0.184558 0.985899 0.502564
O O10 0.345757 0.938707 0.490893
O O11 0.332994 0.048163 0.488837
O O12 0.521756 0.750000 0.500000
O O13 0.519926 0.804866 0.750000
O O14 0.418661 0.838878 0.525834
O O15 0.587491 0.852959 0.503733
O O16 0.913099 0.002984 0.750000
O O17 0.890512 0.922119 0.949482
O O18 0.000000 0.000000 0.000000
O O19 0.856556 0.897090 0.250000
O O20 0.755987 0.859241 0.479376
O O21 0.628716 0.371587 0.250000
O O22 0.682999 0.883185 0.750000
#
# Coordination Sequence:
#
# PCOD8233028 Si02
#       8
#     8   8   8   8   8   8   8   8
#     4  10  21  37  56  80 112 152 196 244 296 352
#     4  10  21  37  56  81 113 153 197 246 296 354
#     4   8  18  37  59  85 117 156 197 240 296 355
#     4  11  24  42  65  91 118 153 196 247 303 362
#     4  10  20  36  56  83 118 158 203 248 294 346
#     4  11  22  36  57  85 117 155 195 241 295 353
#     4  11  22  37  60  88 120 155 192 242 297 359
#     4   9  20  42  65  84 116 156 198 248 302 356
#
# _framework density 20.429245999999999
#
# number of rings (size 3 to 8) (size 9 to 14) (size 15 to 20)
#    0.000    2.000    0.000    4.125    1.750    3.500 
#    0.000    6.875    0.000    0.000    0.000    0.000 
#    0.000    0.000    0.000    0.000    0.000    0.000 
#
# Total GULP energy -793119.012997 kJ/mol
# GULP energy per Si atom -12392.484578 kJ/mol
# Density = 2.038275 g / cm^3
# Si number density = 20.429246 Si / 1000 Ang^3
#
#
#
# Elastic Constant Matrix: (Units=GPa)
#
#
# Indices 1 2 3 4 5 6 
#
# 1 104.9753 64.9553 27.2217 0.0000 0.0000 0.0000
# 2 64.9553 115.3603 19.0695 0.0000 0.0000 0.0000
# 3 27.2217 19.0695 51.9758 0.0000 0.0000 0.0000
# 4 0.0000 0.0000 0.0000 19.8733 0.0000 0.0000
# 5 0.0000 0.0000 0.0000 0.0000 25.1028 0.0000
# 6 0.0000 0.0000 0.0000 0.0000 0.0000 -6.3925
#
#
#
# Elastic Compliance Matrix: (Units=1/GPa)
#
#
# Indices 1 2 3 4 5 6 
#
# 1 0.015915 -0.008073 -0.005373 0.000000 0.000000 0.000000
# 2 -0.008073 0.013323 -0.000660 0.000000 0.000000 0.000000
# 3 -0.005373 -0.000660 0.022296 0.000000 0.000000 0.000000
# 4 0.000000 0.000000 0.000000 0.050319 0.000000 0.000000
# 5 0.000000 0.000000 0.000000 0.000000 0.039836 0.000000
# 6 0.000000 0.000000 0.000000 0.000000 0.000000 -0.156433
#
#
# Mechanical properties :
#
#
# Convention : Reuss Voigt Hill
#
# Bulk Modulus (GPa) = 42.87882 54.97828 48.92855
# Shear Modulus (GPa) = 235.38171 18.45436 126.91804
#
# Velocity S-wave (km/s) = 10.74561 3.00881 7.89053
# Velocity P-wave (km/s) = 13.22846 6.24824 10.34487
#
# Compressibility (1/GPa) = 0.02332154
#
# Stress axis : x y z
#
# Youngs Moduli (GPa) = 62.83562 75.05774 44.85084
#
# Poissons Ratio (x) = 0.60592 0.24099
# Poissons Ratio (y) = 0.50725 0.02961
# Poissons Ratio (z) = 0.33763 0.04955
#
# Static dielectric constant tensor:
#      x y z
#    x 3.962850 0.000000 0.000000 
#    y 0.000000 3.835700 0.000000 
#    z 0.000000 0.000000 3.578870 
# 
# 
# High freq. dielectric constant tensor:
#      x y z
#    x 1.804320 0.000000 0.000000 
#    y 0.000000 1.792750 0.000000 
#    z 0.000000 0.000000 1.789780 
# 
# From -- ./inp_files/5549.got.cif
#   From: 2010.03.12/outbox.cif.g09.slc.cpg/sg57_3_cif.got.tgz:5549.got - 2010.04.16 15:48:40.
