data_PCOD8233577
_publ_section_title
;
Structure prediction by ZEFSAII (Michael W. Deem and Ramdas Pophale) SiO2 
 PCOD8233577
Probable space group: P B C M
;
_chemical_formula_sum "Si O2"
_cell_formula_units_Z 48
_cell_length_a 18.981478
_cell_length_b 12.915766
_cell_length_c 9.871158
_cell_angle_alpha 90.000000
_cell_angle_beta 90.000000
_cell_angle_gamma 90.000000
_cell_volume 2420.016335
_symmetry_space_group_name_H-M "P B C M"
_symmetry_group_IT_number 57
_symmetry_cell_setting 'orthorhombic'
loop_
_space_group_symop_operation_xyz
x,y,z
-x,-y,1/2+z
x,1/2-y,-z
-x,1/2+y,1/2-z
-x,-y,-z
x,y,1/2-z
-x,1/2+y,z
x,1/2-y,1/2+z
loop_
_atom_site_type_symbol
_atom_site_label
_atom_site_fract_x
_atom_site_fract_y
_atom_site_fract_z
Si Si1 0.958628 0.886682 0.250000
Si Si2 0.835430 0.250000 0.000000
Si Si3 0.237647 0.955848 0.591283
Si Si4 0.138737 0.369894 0.001789
Si Si5 0.044846 0.425474 0.750000
Si Si6 0.931942 0.226169 0.250000
Si Si7 0.397620 0.005181 0.598122
Si Si8 0.523932 0.848848 0.907397
O O1 0.910833 0.904344 0.378044
O O2 0.988621 0.771224 0.250000
O O3 0.031624 0.951912 0.250000
O O4 0.787735 0.351521 0.982462
O O5 0.887245 0.237265 0.875774
O O6 0.215502 0.953547 0.750000
O O7 0.207104 0.056604 0.513805
O O8 0.321022 0.958518 0.573336
O O9 0.163869 0.250000 0.000000
O O10 0.091331 0.390951 0.874147
O O11 0.960468 0.391923 0.750000
O O12 0.402460 0.055069 0.750000
O O13 0.413077 0.088250 0.480340
O O14 0.451779 0.911422 0.587358
O O15 0.544221 0.823566 0.750000
O O16 0.510409 0.750000 0.000000
#
# Coordination Sequence:
#
# PCOD8233577 Si02
#       8
#     4   4   8   8   4   4   8   8
#     4  12  22  40  64  86 116 164 206 272 330 382
#     4  12  24  42  64  96 132 168 218 270 324 402
#     4  11  24  45  67  93 136 178 214 268 333 388
#     4  12  23  43  63  93 125 166 218 268 329 403
#     4  12  24  40  62  90 122 156 216 270 332 386
#     4  12  22  40  62  94 122 158 212 272 326 382
#     4   9  21  41  65  94 132 178 217 265 319 381
#     4  10  20  38  66 101 134 168 222 266 315 378
#
# _framework density 19.834576999999999
#
# number of rings (size 3 to 8) (size 9 to 14) (size 15 to 20)
#    0.000    1.000    3.333    4.000    1.167    1.333 
#    3.000    0.000    0.000    0.000    0.000    0.000 
#    0.000    0.000    0.000    0.000    0.000    0.000 
#
# Total GULP energy -595002.612643 kJ/mol
# GULP energy per Si atom -12395.887763 kJ/mol
# Density = 1.978943 g / cm^3
# Si number density = 19.834577 Si / 1000 Ang^3
#
#
#
# Elastic Constant Matrix: (Units=GPa)
#
#
# Indices 1 2 3 4 5 6 
#
# 1 106.3749 34.6709 55.6379 0.0000 0.0000 0.0000
# 2 34.6709 101.5623 45.5609 0.0000 0.0000 0.0000
# 3 55.6379 45.5609 160.2009 0.0000 0.0000 0.0000
# 4 0.0000 0.0000 0.0000 36.6920 0.0000 0.0000
# 5 0.0000 0.0000 0.0000 0.0000 14.9662 0.0000
# 6 0.0000 0.0000 0.0000 0.0000 0.0000 17.9298
#
#
#
# Elastic Compliance Matrix: (Units=1/GPa)
#
#
# Indices 1 2 3 4 5 6 
#
# 1 0.012042 -0.002562 -0.003454 0.000000 0.000000 0.000000
# 2 -0.002562 0.011831 -0.002475 0.000000 0.000000 0.000000
# 3 -0.003454 -0.002475 0.008146 0.000000 0.000000 0.000000
# 4 0.000000 0.000000 0.000000 0.027254 0.000000 0.000000
# 5 0.000000 0.000000 0.000000 0.000000 0.066817 0.000000
# 6 0.000000 0.000000 0.000000 0.000000 0.000000 0.055773
#
#
# Mechanical properties :
#
#
# Convention : Reuss Voigt Hill
#
# Bulk Modulus (GPa) = 66.49874 71.09750 68.79812
# Shear Modulus (GPa) = 24.52713 29.40217 26.96465
#
# Velocity S-wave (km/s) = 3.52033 3.85433 3.69111
# Velocity P-wave (km/s) = 7.07976 7.46531 7.27509
#
# Compressibility (1/GPa) = 0.01503788
#
# Stress axis : x y z
#
# Youngs Moduli (GPa) = 83.04272 84.52423 122.76653
#
# Poissons Ratio (x) = 0.21651 0.42400
# Poissons Ratio (y) = 0.21271 0.30386
# Poissons Ratio (z) = 0.28680 0.20920
#
# Static dielectric constant tensor:
#      x y z
#    x 3.500460 0.000000 0.000000 
#    y 0.000000 3.773220 0.000000 
#    z 0.000000 0.000000 3.727020 
# 
# 
# High freq. dielectric constant tensor:
#      x y z
#    x 1.770350 0.000000 0.000000 
#    y 0.000000 1.784150 0.000000 
#    z 0.000000 0.000000 1.786480 
# 
# From -- ./inp_files/6648.got.cif
#   From: 2010.03.12/outbox.cif.g09.slc.cpg/sg57_4_cif.got.tgz:6648.got - 2010.04.16 15:48:40.
