data_PCOD8233284
_publ_section_title
;
Structure prediction by ZEFSAII (Michael W. Deem and Ramdas Pophale) SiO2 
 PCOD8233284
Probable space group: P B C M
;
_chemical_formula_sum "Si O2"
_cell_formula_units_Z 56
_cell_length_a 21.786552
_cell_length_b 13.969085
_cell_length_c 9.312524
_cell_angle_alpha 90.000000
_cell_angle_beta 90.000000
_cell_angle_gamma 90.000000
_cell_volume 2834.156761
_symmetry_space_group_name_H-M "P B C M"
_symmetry_group_IT_number 57
_symmetry_cell_setting 'orthorhombic'
loop_
_space_group_symop_operation_xyz
x,y,z
-x,-y,1/2+z
x,1/2-y,-z
-x,1/2+y,1/2-z
-x,-y,-z
x,y,1/2-z
-x,1/2+y,z
x,1/2-y,1/2+z
loop_
_atom_site_type_symbol
_atom_site_label
_atom_site_fract_x
_atom_site_fract_y
_atom_site_fract_z
Si Si1 0.329575 0.150499 0.079353
Si Si2 0.559277 0.976881 0.908841
Si Si3 0.911239 0.529440 0.916884
Si Si4 0.796592 0.951139 0.584763
Si Si5 0.631038 0.329426 0.406664
Si Si6 0.232346 0.835697 0.086244
Si Si7 0.967251 0.147731 0.580678
O O1 0.332213 0.164208 0.250000
O O2 0.393147 0.100825 0.025654
O O3 0.269830 0.088437 0.036344
O O4 0.323679 0.250000 0.000000
O O5 0.538204 0.944158 0.750000
O O6 0.595701 0.073611 0.899425
O O7 0.500000 0.000000 0.000000
O O8 0.901231 0.502874 0.750000
O O9 0.963929 0.608463 0.934679
O O10 0.851322 0.584511 0.981696
O O11 0.923985 0.431720 0.005513
O O12 0.809115 0.922004 0.750000
O O13 0.800942 0.064772 0.563268
O O14 0.595083 0.250000 0.500000
O O15 0.637263 0.284258 0.250000
O O16 0.698269 0.348493 0.472486
O O17 0.231513 0.804432 0.250000
O O18 0.198557 0.750000 0.000000
O O19 0.961278 0.250000 0.500000
O O20 0.949166 0.158522 0.750000
#
# Coordination Sequence:
#
# PCOD8233284 Si02
#       7
#     8   8   8   8   8   8   8
#     4  10  22  41  61  82 113 153 195 240 288 342
#     4  10  21  38  58  80 110 146 186 233 286 342
#     4  10  22  38  58  88 121 153 196 244 290 345
#     4  10  20  37  59  81 114 156 192 232 288 346
#     4   9  17  32  53  76 103 134 171 216 269 328
#     4   9  17  31  52  77 104 138 176 217 270 331
#     4  10  21  39  62  86 117 157 198 243 292 343
#
# _framework density 19.758963999999999
#
# number of rings (size 3 to 8) (size 9 to 14) (size 15 to 20)
#    0.000    2.286    1.429    0.857    0.000    5.714 
#    0.000    7.143    0.000    0.000    0.000    0.000 
#    0.000    0.000    0.000    0.000    0.000    0.000 
#
# Total GULP energy -693937.869300 kJ/mol
# GULP energy per Si atom -12391.747666 kJ/mol
# Density = 1.971399 g / cm^3
# Si number density = 19.758964 Si / 1000 Ang^3
#
#
#
# Elastic Constant Matrix: (Units=GPa)
#
#
# Indices 1 2 3 4 5 6 
#
# 1 114.1962 23.4621 52.7142 0.0000 0.0000 0.0000
# 2 23.4621 82.4784 44.7509 0.0000 0.0000 0.0000
# 3 52.7142 44.7509 90.6260 0.0000 0.0000 0.0000
# 4 0.0000 0.0000 0.0000 36.0411 0.0000 0.0000
# 5 0.0000 0.0000 0.0000 0.0000 37.5479 0.0000
# 6 0.0000 0.0000 0.0000 0.0000 0.0000 5.0946
#
#
#
# Elastic Compliance Matrix: (Units=1/GPa)
#
#
# Indices 1 2 3 4 5 6 
#
# 1 0.011987 0.000510 -0.007224 0.000000 0.000000 0.000000
# 2 0.000510 0.016583 -0.008485 0.000000 0.000000 0.000000
# 3 -0.007224 -0.008485 0.019426 0.000000 0.000000 0.000000
# 4 0.000000 0.000000 0.000000 0.027746 0.000000 0.000000
# 5 0.000000 0.000000 0.000000 0.000000 0.026633 0.000000
# 6 0.000000 0.000000 0.000000 0.000000 0.000000 0.196285
#
#
# Mechanical properties :
#
#
# Convention : Reuss Voigt Hill
#
# Bulk Modulus (GPa) = 56.82682 58.79499 57.81091
# Shear Modulus (GPa) = 14.92869 26.82827 20.87848
#
# Velocity S-wave (km/s) = 2.75169 3.68880 3.25415
# Velocity P-wave (km/s) = 6.23844 6.92558 6.59097
#
# Compressibility (1/GPa) = 0.01759732
#
# Stress axis : x y z
#
# Youngs Moduli (GPa) = 83.42484 60.30160 51.47633
#
# Poissons Ratio (x) = -0.03074 0.37187
# Poissons Ratio (y) = -0.04253 0.43679
# Poissons Ratio (z) = 0.60267 0.51168
#
# Static dielectric constant tensor:
#      x y z
#    x 2.880860 0.000000 0.000000 
#    y 0.000000 3.561320 0.000000 
#    z 0.000000 0.000000 3.709800 
# 
# 
# High freq. dielectric constant tensor:
#      x y z
#    x 1.773670 0.000000 0.000000 
#    y 0.000000 1.764790 0.000000 
#    z 0.000000 0.000000 1.766160 
# 
# From -- ./inp_files/8119.got.cif
#   From: 2010.03.12/outbox.cif.g09.slc.cpg/sg57_5_cif.got.tgz:8119.got - 2010.04.16 15:48:40.
