data_PCOD8233446
_publ_section_title
;
Structure prediction by ZEFSAII (Michael W. Deem and Ramdas Pophale) SiO2 
 PCOD8233446
Probable space group: P B C M
;
_chemical_formula_sum "Si O2"
_cell_formula_units_Z 48
_cell_length_a 27.329893
_cell_length_b 9.882028
_cell_length_c 9.331430
_cell_angle_alpha 90.000000
_cell_angle_beta 90.000000
_cell_angle_gamma 90.000000
_cell_volume 2520.183791
_symmetry_space_group_name_H-M "P B C M"
_symmetry_group_IT_number 57
_symmetry_cell_setting 'orthorhombic'
loop_
_space_group_symop_operation_xyz
x,y,z
-x,-y,1/2+z
x,1/2-y,-z
-x,1/2+y,1/2-z
-x,-y,-z
x,y,1/2-z
-x,1/2+y,z
x,1/2-y,1/2+z
loop_
_atom_site_type_symbol
_atom_site_label
_atom_site_fract_x
_atom_site_fract_y
_atom_site_fract_z
Si Si1 0.888764 0.400553 0.521416
Si Si2 0.357011 0.887023 0.083818
Si Si3 0.967643 0.340955 0.750000
Si Si4 0.186221 0.374295 0.090755
Si Si5 0.529175 0.386868 0.084158
Si Si6 0.702532 0.886131 0.078826
Si Si7 0.944051 0.462322 0.250000
O O1 0.866492 0.250000 0.500000
O O2 0.937807 0.389450 0.613439
O O3 0.846915 0.492089 0.589104
O O4 0.906383 0.473089 0.379125
O O5 0.339449 0.877278 0.250000
O O6 0.413922 0.924038 0.078173
O O7 0.345875 0.750000 0.000000
O O8 0.328199 0.997766 0.994918
O O9 0.974670 0.178334 0.750000
O O10 0.020576 0.409020 0.750000
O O11 0.188279 0.316619 0.250000
O O12 0.240664 0.414480 0.041248
O O13 0.164256 0.250000 0.000000
O O14 0.511738 0.374948 0.250000
O O15 0.517882 0.250000 0.000000
O O16 0.500000 0.500000 0.000000
O O17 0.692694 0.879286 0.250000
O O18 0.685413 0.750000 0.000000
#
# Coordination Sequence:
#
# PCOD8233446 Si02
#       7
#     8   8   4   8   8   8   4
#     4  10  21  38  57  81 113 146 182 228 275 329
#     4  10  21  38  59  86 117 153 195 241 290 345
#     4  10  20  38  56  78 112 144 180 230 271 326
#     4  10  22  39  59  84 113 145 185 231 279 333
#     4  10  21  37  58  84 117 154 197 243 291 344
#     4  10  21  38  59  84 114 150 190 238 290 345
#     4  10  22  34  56  84 108 144 184 220 277 328
#
# _framework density 19.046230999999999
#
# number of rings (size 3 to 8) (size 9 to 14) (size 15 to 20)
#    0.000    2.000    0.833    2.000    1.167    5.333 
#    0.000    0.000    0.000    0.000    0.000    0.000 
#    0.000    0.000    0.000    0.000    0.000    0.000 
#
# Total GULP energy -595139.767433 kJ/mol
# GULP energy per Si atom -12398.745155 kJ/mol
# Density = 1.900288 g / cm^3
# Si number density = 19.046231 Si / 1000 Ang^3
#
#
#
# Elastic Constant Matrix: (Units=GPa)
#
#
# Indices 1 2 3 4 5 6 
#
# 1 55.8411 56.0520 32.9379 0.0000 0.0000 0.0000
# 2 56.0520 108.2400 43.1701 0.0000 0.0000 0.0000
# 3 32.9379 43.1701 131.6382 0.0000 0.0000 0.0000
# 4 0.0000 0.0000 0.0000 38.1585 0.0000 0.0000
# 5 0.0000 0.0000 0.0000 0.0000 63.1392 0.0000
# 6 0.0000 0.0000 0.0000 0.0000 0.0000 31.9842
#
#
#
# Elastic Compliance Matrix: (Units=1/GPa)
#
#
# Indices 1 2 3 4 5 6 
#
# 1 0.038706 -0.018616 -0.003580 0.000000 0.000000 0.000000
# 2 -0.018616 0.019583 -0.001764 0.000000 0.000000 0.000000
# 3 -0.003580 -0.001764 0.009071 0.000000 0.000000 0.000000
# 4 0.000000 0.000000 0.000000 0.026206 0.000000 0.000000
# 5 0.000000 0.000000 0.000000 0.000000 0.015838 0.000000
# 6 0.000000 0.000000 0.000000 0.000000 0.000000 0.031265
#
#
# Mechanical properties :
#
#
# Convention : Reuss Voigt Hill
#
# Bulk Modulus (GPa) = 51.44137 62.22659 56.83398
# Shear Modulus (GPa) = 25.63201 37.56033 31.59617
#
# Velocity S-wave (km/s) = 3.67247 4.44561 4.07740
# Velocity P-wave (km/s) = 6.71193 7.68723 7.21608
#
# Compressibility (1/GPa) = 0.01943961
#
# Stress axis : x y z
#
# Youngs Moduli (GPa) = 25.83590 51.06580 110.24414
#
# Poissons Ratio (x) = 0.95064 0.39465
# Poissons Ratio (y) = 0.48096 0.19447
# Poissons Ratio (z) = 0.09249 0.09008
#
# Static dielectric constant tensor:
#      x y z
#    x 3.313350 0.000000 0.000000 
#    y 0.000000 3.169660 0.000000 
#    z 0.000000 0.000000 5.570890 
# 
# 
# High freq. dielectric constant tensor:
#      x y z
#    x 1.728390 0.000000 0.000000 
#    y 0.000000 1.743560 0.000000 
#    z 0.000000 0.000000 1.764840 
# 
# From -- ./inp_files/10112.got.cif
#   From: 2010.03.12/outbox.cif.g09.slc.cpg/sg57_6_cif.got.tgz:10112.got - 2010.04.16 15:48:40.
