data_PCOD8233137
_publ_section_title
;
Structure prediction by ZEFSAII (Michael W. Deem and Ramdas Pophale) SiO2 
 PCOD8233137
Probable space group: P B C M
;
_chemical_formula_sum "Si O2"
_cell_formula_units_Z 48
_cell_length_a 9.024784
_cell_length_b 18.461285
_cell_length_c 15.381207
_cell_angle_alpha 90.000000
_cell_angle_beta 90.000000
_cell_angle_gamma 90.000000
_cell_volume 2562.649201
_symmetry_space_group_name_H-M "P B C M"
_symmetry_group_IT_number 57
_symmetry_cell_setting 'orthorhombic'
loop_
_space_group_symop_operation_xyz
x,y,z
-x,-y,1/2+z
x,1/2-y,-z
-x,1/2+y,1/2-z
-x,-y,-z
x,y,1/2-z
-x,1/2+y,z
x,1/2-y,1/2+z
loop_
_atom_site_type_symbol
_atom_site_label
_atom_site_fract_x
_atom_site_fract_y
_atom_site_fract_z
Si Si1 0.906245 0.544476 0.928228
Si Si2 0.650414 0.565765 0.346684
Si Si3 0.801875 0.077156 0.649824
Si Si4 0.302955 0.166168 0.494411
Si Si5 0.640462 0.167214 0.510410
Si Si6 0.687082 0.429738 0.848673
O O1 0.795785 0.493522 0.875801
O O2 0.021347 0.577389 0.858975
O O3 0.816851 0.614085 0.962037
O O4 0.000000 0.500000 0.000000
O O5 0.707225 0.579677 0.250000
O O6 0.741150 0.499321 0.388690
O O7 0.683664 0.641411 0.394253
O O8 0.480149 0.540814 0.350414
O O9 0.754697 0.088022 0.750000
O O10 0.732447 0.140200 0.592537
O O11 0.252143 0.250000 0.500000
O O12 0.467328 0.154693 0.533784
O O13 0.677978 0.250000 0.500000
O O14 0.698120 0.133377 0.419896
O O15 0.725653 0.402614 0.750000
#
# Coordination Sequence:
#
# PCOD8233137 Si02
#       6
#     8   8   8   8   8   8
#     4  12  21  36  57  85 117 155 190 237 284 345
#     4   9  18  35  59  85 110 143 193 243 285 337
#     4  11  22  37  58  85 115 152 195 241 287 340
#     4  10  21  38  60  83 115 153 190 236 297 352
#     4  10  21  38  60  86 115 152 194 244 294 343
#     4  10  20  36  59  85 114 150 193 237 285 343
#
# _framework density 18.730618
#
# number of rings (size 3 to 8) (size 9 to 14) (size 15 to 20)
#    0.000    1.667    3.333    1.500    0.000    4.000 
#    0.000    5.000    0.000    0.000    0.000    0.000 
#    0.000    0.000    0.000    0.000    0.000    0.000 
#
# Total GULP energy -594997.816187 kJ/mol
# GULP energy per Si atom -12395.787837 kJ/mol
# Density = 1.868799 g / cm^3
# Si number density = 18.730618 Si / 1000 Ang^3
#
#
#
# Elastic Constant Matrix: (Units=GPa)
#
#
# Indices 1 2 3 4 5 6 
#
# 1 99.3401 72.2282 50.7902 0.0000 0.0000 0.0000
# 2 72.2282 143.6335 64.9710 0.0000 0.0000 0.0000
# 3 50.7902 64.9710 105.6650 0.0000 0.0000 0.0000
# 4 0.0000 0.0000 0.0000 18.9218 0.0000 0.0000
# 5 0.0000 0.0000 0.0000 0.0000 29.1445 0.0000
# 6 0.0000 0.0000 0.0000 0.0000 0.0000 17.2066
#
#
#
# Elastic Compliance Matrix: (Units=1/GPa)
#
#
# Indices 1 2 3 4 5 6 
#
# 1 0.017031 -0.006734 -0.004046 0.000000 0.000000 0.000000
# 2 -0.006734 0.012308 -0.004331 0.000000 0.000000 0.000000
# 3 -0.004046 -0.004331 0.014071 0.000000 0.000000 0.000000
# 4 0.000000 0.000000 0.000000 0.052849 0.000000 0.000000
# 5 0.000000 0.000000 0.000000 0.000000 0.034312 0.000000
# 6 0.000000 0.000000 0.000000 0.000000 0.000000 0.058117
#
#
# Mechanical properties :
#
#
# Convention : Reuss Voigt Hill
#
# Bulk Modulus (GPa) = 75.82163 80.51306 78.16735
# Shear Modulus (GPa) = 22.39080 23.76452 23.07766
#
# Velocity S-wave (km/s) = 3.46122 3.56582 3.51391
# Velocity P-wave (km/s) = 7.51940 7.74800 7.63455
#
# Compressibility (1/GPa) = 0.01318885
#
# Stress axis : x y z
#
# Youngs Moduli (GPa) = 58.71523 81.25069 71.06687
#
# Poissons Ratio (x) = 0.54718 0.28751
# Poissons Ratio (y) = 0.39542 0.30776
# Poissons Ratio (z) = 0.23754 0.35186
#
# Static dielectric constant tensor:
#      x y z
#    x 3.633850 0.000000 0.000000 
#    y 0.000000 3.362490 0.000000 
#    z 0.000000 0.000000 3.577910 
# 
# 
# High freq. dielectric constant tensor:
#      x y z
#    x 1.736660 0.000000 0.000000 
#    y 0.000000 1.712890 0.000000 
#    z 0.000000 0.000000 1.730180 
# 
# From -- ./inp_files/16319.got.cif
#   From: 2010.03.12/outbox.cif.g09.slc.cpg/sg57_9_cif.got.tgz:16319.got - 2010.04.16 15:48:40.
