data_PCOD8233986
_publ_section_title
;
Structure prediction by ZEFSAII (Michael W. Deem and Ramdas Pophale) SiO2 
 PCOD8233986
Probable space group: P B C M
;
_chemical_formula_sum "Si O2"
_cell_formula_units_Z 64
_cell_length_a 11.895100
_cell_length_b 30.873500
_cell_length_c 8.682221
_cell_angle_alpha 90.000000
_cell_angle_beta 90.000000
_cell_angle_gamma 90.000000
_cell_volume 3188.488098
_symmetry_space_group_name_H-M "P B C M"
_symmetry_group_IT_number 57
_symmetry_cell_setting 'orthorhombic'
loop_
_space_group_symop_operation_xyz
x,y,z
-x,-y,1/2+z
x,1/2-y,-z
-x,1/2+y,1/2-z
-x,-y,-z
x,y,1/2-z
-x,1/2+y,z
x,1/2-y,1/2+z
loop_
_atom_site_type_symbol
_atom_site_label
_atom_site_fract_x
_atom_site_fract_y
_atom_site_fract_z
Si Si1 0.230077 0.459810 0.931503
Si Si2 0.009327 0.073868 0.929775
Si Si3 0.005997 0.174062 0.931000
Si Si4 0.365459 0.376813 0.567157
Si Si5 0.223364 0.951501 0.570164
Si Si6 0.770449 0.705524 0.431569
Si Si7 0.620245 0.128534 0.069529
Si Si8 0.237361 0.795799 0.431484
O O1 0.244696 0.466170 0.750000
O O2 0.303096 0.419604 0.995371
O O3 0.099551 0.452354 0.970857
O O4 0.274692 0.502385 0.019530
O O5 0.032562 0.066305 0.750000
O O6 0.017106 0.123990 0.975529
O O7 0.887085 0.056338 0.970030
O O8 0.020244 0.181690 0.750000
O O9 0.886046 0.190945 0.992058
O O10 0.100059 0.200858 0.020210
O O11 0.358994 0.376613 0.750000
O O12 0.302284 0.334391 0.501167
O O13 0.493311 0.377041 0.509204
O O14 0.193181 0.951017 0.750000
O O15 0.314530 0.915282 0.528256
O O16 0.720887 0.750000 0.500000
O O17 0.761354 0.707597 0.250000
O O18 0.624041 0.138546 0.250000
O O19 0.672974 0.168752 0.981627
O O20 0.274321 0.750000 0.500000
O O21 0.237273 0.792644 0.250000
#
# Coordination Sequence:
#
# PCOD8233986 Si02
#       8
#     8   8   8   8   8   8   8   8
#     4  11  22  39  62  88 120 157 196 240 294 353
#     4  11  21  37  61  89 122 154 192 242 293 352
#     4  10  21  37  60  89 121 153 190 238 293 351
#     4   9  21  41  62  85 115 155 199 246 294 344
#     4  11  23  38  60  90 121 156 196 241 295 353
#     4  11  22  38  61  88 120 154 195 238 291 350
#     4  10  22  42  64  85 116 156 201 247 293 346
#     4  11  23  40  61  90 122 155 195 240 295 350
#
# _framework density 20.072209000000001
#
# number of rings (size 3 to 8) (size 9 to 14) (size 15 to 20)
#    0.000    1.500    2.500    2.625    0.000    4.000 
#    0.000    3.750    0.000    0.000    0.000    0.000 
#    0.000    0.000    0.000    0.000    0.000    0.000 
#
# Total GULP energy -793975.983513 kJ/mol
# GULP energy per Si atom -12405.874742 kJ/mol
# Density = 2.002652 g / cm^3
# Si number density = 20.072209 Si / 1000 Ang^3
#
#
#
# Elastic Constant Matrix: (Units=GPa)
#
#
# Indices 1 2 3 4 5 6 
#
# 1 126.0306 51.9589 20.0128 0.0000 0.0000 0.0000
# 2 51.9589 158.1158 34.6385 0.0000 0.0000 0.0000
# 3 20.0128 34.6385 44.3869 0.0000 0.0000 0.0000
# 4 0.0000 0.0000 0.0000 33.3678 0.0000 0.0000
# 5 0.0000 0.0000 0.0000 0.0000 11.7441 0.0000
# 6 0.0000 0.0000 0.0000 0.0000 0.0000 377.8146
#
#
#
# Elastic Compliance Matrix: (Units=1/GPa)
#
#
# Indices 1 2 3 4 5 6 
#
# 1 0.009352 -0.002593 -0.002193 0.000000 0.000000 0.000000
# 2 -0.002593 0.008347 -0.005345 0.000000 0.000000 0.000000
# 3 -0.002193 -0.005345 0.027689 0.000000 0.000000 0.000000
# 4 0.000000 0.000000 0.000000 0.029969 0.000000 0.000000
# 5 0.000000 0.000000 0.000000 0.000000 0.085149 0.000000
# 6 0.000000 0.000000 0.000000 0.000000 0.000000 0.002647
#
#
# Mechanical properties :
#
#
# Convention : Reuss Voigt Hill
#
# Bulk Modulus (GPa) = 39.79879 60.19486 49.99682
# Shear Modulus (GPa) = 26.07003 99.38017 62.72510
#
# Velocity S-wave (km/s) = 3.60781 7.04406 5.59621
# Velocity P-wave (km/s) = 6.10131 9.80881 8.16819
#
# Compressibility (1/GPa) = 0.02512639
#
# Stress axis : x y z
#
# Youngs Moduli (GPa) = 106.93221 119.79745 36.11505
#
# Poissons Ratio (x) = 0.31059 0.07921
# Poissons Ratio (y) = 0.27724 0.19304
# Poissons Ratio (z) = 0.23452 0.64034
#
# Static dielectric constant tensor:
#      x y z
#    x 3.653710 0.000000 0.000000 
#    y 0.000000 3.946670 0.000000 
#    z 0.000000 0.000000 3.446900 
# 
# 
# High freq. dielectric constant tensor:
#      x y z
#    x 1.777560 0.000000 0.000000 
#    y 0.000000 1.803650 0.000000 
#    z 0.000000 0.000000 1.772730 
# 
# From -- ./inp_files/3844.got.cif
#   From: 2010.03.12/outbox.cif.g09.slc.cpg/sg57_2_cif.got.tgz:3844.got - 2010.04.16 15:48:40.
