data_PCOD8233154
_publ_section_title
;
Structure prediction by ZEFSAII (Michael W. Deem and Ramdas Pophale) SiO2 
 PCOD8233154
Probable space group: P B C M
;
_chemical_formula_sum "Si O2"
_cell_formula_units_Z 40
_cell_length_a 12.606599
_cell_length_b 17.273243
_cell_length_c 8.897864
_cell_angle_alpha 90.000000
_cell_angle_beta 90.000000
_cell_angle_gamma 90.000000
_cell_volume 1937.570818
_symmetry_space_group_name_H-M "P B C M"
_symmetry_group_IT_number 57
_symmetry_cell_setting 'orthorhombic'
loop_
_space_group_symop_operation_xyz
x,y,z
-x,-y,1/2+z
x,1/2-y,-z
-x,1/2+y,1/2-z
-x,-y,-z
x,y,1/2-z
-x,1/2+y,z
x,1/2-y,1/2+z
loop_
_atom_site_type_symbol
_atom_site_label
_atom_site_fract_x
_atom_site_fract_y
_atom_site_fract_z
Si Si1 0.938319 0.931559 0.582685
Si Si2 0.135793 0.826972 0.585484
Si Si3 0.466607 0.080167 0.573098
Si Si4 0.751130 0.663300 0.929759
Si Si5 0.328277 0.667006 0.573239
O O1 0.897667 0.956903 0.750000
O O2 0.843208 0.894004 0.486504
O O3 0.025287 0.867388 0.604133
O O4 0.000000 0.000000 0.500000
O O5 0.104889 0.750000 0.500000
O O6 0.183360 0.808335 0.750000
O O7 0.225361 0.878481 0.494695
O O8 0.464797 0.067309 0.750000
O O9 0.357157 0.119497 0.519297
O O10 0.559278 0.136911 0.518080
O O11 0.500000 0.000000 0.500000
O O12 0.757733 0.671860 0.750000
O O13 0.756359 0.750000 0.000000
O O14 0.310664 0.750000 0.500000
O O15 0.322102 0.667031 0.750000
#
# Coordination Sequence:
#
# PCOD8233154 Si02
#       5
#     8   8   8   8   8
#     4  11  25  42  63  92 127 166 210 263 321 378
#     4  10  21  37  59  87 118 155 198 247 302 363
#     4  10  24  41  61  91 126 163 208 260 315 374
#     4  11  24  44  68  96 130 171 220 268 321 388
#     4  10  20  36  59  88 118 155 199 246 301 364
#
# _framework density 20.644407999999999
#
# number of rings (size 3 to 8) (size 9 to 14) (size 15 to 20)
#    0.000    1.600    0.000    4.800    2.800    8.000 
#    0.000    0.000    0.000    0.000    0.000    0.000 
#    0.000    0.000    0.000    0.000    0.000    0.000 
#
# Total GULP energy -495529.785175 kJ/mol
# GULP energy per Si atom -12388.244629 kJ/mol
# Density = 2.059742 g / cm^3
# Si number density = 20.644408 Si / 1000 Ang^3
#
#
#
# Elastic Constant Matrix: (Units=GPa)
#
#
# Indices 1 2 3 4 5 6 
#
# 1 127.6637 31.1697 36.9319 0.0000 0.0000 0.0000
# 2 31.1697 84.5364 38.7788 0.0000 0.0000 0.0000
# 3 36.9319 38.7788 105.2638 0.0000 0.0000 0.0000
# 4 0.0000 0.0000 0.0000 30.4962 0.0000 0.0000
# 5 0.0000 0.0000 0.0000 0.0000 6.2548 0.0000
# 6 0.0000 0.0000 0.0000 0.0000 0.0000 39.9582
#
#
#
# Elastic Compliance Matrix: (Units=1/GPa)
#
#
# Indices 1 2 3 4 5 6 
#
# 1 0.009065 -0.002266 -0.002346 0.000000 0.000000 0.000000
# 2 -0.002266 0.014801 -0.004658 0.000000 0.000000 0.000000
# 3 -0.002346 -0.004658 0.012039 0.000000 0.000000 0.000000
# 4 0.000000 0.000000 0.000000 0.032791 0.000000 0.000000
# 5 0.000000 0.000000 0.000000 0.000000 0.159878 0.000000
# 6 0.000000 0.000000 0.000000 0.000000 0.000000 0.025026
#
#
# Mechanical properties :
#
#
# Convention : Reuss Voigt Hill
#
# Bulk Modulus (GPa) = 57.58375 59.02496 58.30435
# Shear Modulus (GPa) = 17.99028 29.38073 23.68550
#
# Velocity S-wave (km/s) = 2.95521 3.77660 3.39087
# Velocity P-wave (km/s) = 6.29270 6.90437 6.60562
#
# Compressibility (1/GPa) = 0.01736601
#
# Stress axis : x y z
#
# Youngs Moduli (GPa) = 110.31474 67.56096 83.06534
#
# Poissons Ratio (x) = 0.15312 0.19483
# Poissons Ratio (y) = 0.25002 0.38689
# Poissons Ratio (z) = 0.25874 0.31467
#
# Static dielectric constant tensor:
#      x y z
#    x 4.834870 0.000000 0.000000 
#    y 0.000000 3.236270 0.000000 
#    z 0.000000 0.000000 4.235280 
# 
# 
# High freq. dielectric constant tensor:
#      x y z
#    x 1.833900 0.000000 0.000000 
#    y 0.000000 1.798660 0.000000 
#    z 0.000000 0.000000 1.821840 
# 
# From -- ./inp_files/2613.got.cif
#   From: 2010.03.12/outbox.cif.g09.slc.cpg/sg57_2_cif.got.tgz:2613.got - 2010.04.16 15:48:40.
