data_PCOD8233572
_publ_section_title
;
Structure prediction by ZEFSAII (Michael W. Deem and Ramdas Pophale) SiO2 
 PCOD8233572
Probable space group: P B C M
;
_chemical_formula_sum "Si O2"
_cell_formula_units_Z 64
_cell_length_a 12.030112
_cell_length_b 31.363493
_cell_length_c 8.568434
_cell_angle_alpha 90.000000
_cell_angle_beta 90.000000
_cell_angle_gamma 90.000000
_cell_volume 3232.924416
_symmetry_space_group_name_H-M "P B C M"
_symmetry_group_IT_number 57
_symmetry_cell_setting 'orthorhombic'
loop_
_space_group_symop_operation_xyz
x,y,z
-x,-y,1/2+z
x,1/2-y,-z
-x,1/2+y,1/2-z
-x,-y,-z
x,y,1/2-z
-x,1/2+y,z
x,1/2-y,1/2+z
loop_
_atom_site_type_symbol
_atom_site_label
_atom_site_fract_x
_atom_site_fract_y
_atom_site_fract_z
Si Si1 0.741979 0.205446 0.068264
Si Si2 0.010744 0.546901 0.930041
Si Si3 0.867884 0.626092 0.936098
Si Si4 0.594247 0.364891 0.431448
Si Si5 0.365039 0.389856 0.567426
Si Si6 0.738435 0.446510 0.070594
Si Si7 0.611736 0.980817 0.068258
Si Si8 0.979212 0.204136 0.933917
O O1 0.764367 0.210320 0.250000
O O2 0.699973 0.250000 0.000000
O O3 0.645261 0.172063 0.035984
O O4 0.856437 0.190995 0.988426
O O5 0.984575 0.541432 0.750000
O O6 0.133821 0.566002 0.958022
O O7 0.925571 0.582219 0.998761
O O8 0.000000 0.500000 0.000000
O O9 0.855860 0.624372 0.750000
O O10 0.938434 0.667009 0.990845
O O11 0.748826 0.632459 0.015740
O O12 0.609623 0.353993 0.250000
O O13 0.465052 0.368565 0.472009
O O14 0.657951 0.408083 0.476499
O O15 0.385928 0.383462 0.750000
O O16 0.355812 0.439293 0.526846
O O17 0.717902 0.459954 0.250000
O O18 0.711033 0.485863 0.957298
O O19 0.597460 0.969664 0.250000
O O20 0.500000 0.000000 0.000000
O O21 0.978988 0.207511 0.750000
O O22 0.016940 0.250000 0.000000
#
# Coordination Sequence:
#
# PCOD8233572 Si02
#       8
#     8   8   8   8   8   8   8   8
#     4  11  22  38  62  92 125 156 193 240 296 358
#     4  10  21  37  56  82 115 153 197 242 294 354
#     4  10  22  41  62  85 118 163 205 247 304 368
#     4  11  22  39  62  86 116 153 195 244 297 351
#     4  12  25  40  59  86 119 156 202 252 300 358
#     4  10  21  37  59  85 114 150 194 246 296 348
#     4  12  23  37  57  82 115 156 201 247 295 353
#     4  10  20  38  65  94 123 156 199 248 303 364
#
# _framework density 19.796316999999998
#
# number of rings (size 3 to 8) (size 9 to 14) (size 15 to 20)
#    0.000    1.250    1.250    6.375    0.000    6.500 
#    0.000    1.875    0.000    1.500    0.000    0.000 
#    0.000    0.000    0.000    0.000    0.000    0.000 
#
# Total GULP energy -793855.524695 kJ/mol
# GULP energy per Si atom -12403.992573 kJ/mol
# Density = 1.975126 g / cm^3
# Si number density = 19.796317 Si / 1000 Ang^3
#
#
#
# Elastic Constant Matrix: (Units=GPa)
#
#
# Indices 1 2 3 4 5 6 
#
# 1 120.0933 59.0487 19.7246 0.0000 0.0000 0.0000
# 2 59.0487 116.0213 27.9547 0.0000 0.0000 0.0000
# 3 19.7246 27.9547 58.2284 0.0000 0.0000 0.0000
# 4 0.0000 0.0000 0.0000 30.0715 0.0000 0.0000
# 5 0.0000 0.0000 0.0000 0.0000 31.4674 0.0000
# 6 0.0000 0.0000 0.0000 0.0000 0.0000 35.8124
#
#
#
# Elastic Compliance Matrix: (Units=1/GPa)
#
#
# Indices 1 2 3 4 5 6 
#
# 1 0.011179 -0.005402 -0.001193 0.000000 0.000000 0.000000
# 2 -0.005402 0.012357 -0.004102 0.000000 0.000000 0.000000
# 3 -0.001193 -0.004102 0.019548 0.000000 0.000000 0.000000
# 4 0.000000 0.000000 0.000000 0.033254 0.000000 0.000000
# 5 0.000000 0.000000 0.000000 0.000000 0.031779 0.000000
# 6 0.000000 0.000000 0.000000 0.000000 0.000000 0.027923
#
#
# Mechanical properties :
#
#
# Convention : Reuss Voigt Hill
#
# Bulk Modulus (GPa) = 46.10908 56.42210 51.26559
# Shear Modulus (GPa) = 30.36472 31.97790 31.17131
#
# Velocity S-wave (km/s) = 3.92070 4.02350 3.97243
# Velocity P-wave (km/s) = 6.62104 7.08152 6.85515
#
# Compressibility (1/GPa) = 0.02168770
#
# Stress axis : x y z
#
# Youngs Moduli (GPa) = 89.45384 80.92659 51.15723
#
# Poissons Ratio (x) = 0.43716 0.06105
# Poissons Ratio (y) = 0.48322 0.20987
# Poissons Ratio (z) = 0.10676 0.33200
#
# Static dielectric constant tensor:
#      x y z
#    x 3.691110 0.000000 0.000000 
#    y 0.000000 3.697580 0.000000 
#    z 0.000000 0.000000 3.730690 
# 
# 
# High freq. dielectric constant tensor:
#      x y z
#    x 1.779250 0.000000 0.000000 
#    y 0.000000 1.769130 0.000000 
#    z 0.000000 0.000000 1.773270 
# 
# From -- ./inp_files/3848.got.cif
#   From: 2010.03.12/outbox.cif.g09.slc.cpg/sg57_2_cif.got.tgz:3848.got - 2010.04.16 15:48:40.
