data_PCOD8233481
_publ_section_title
;
Structure prediction by ZEFSAII (Michael W. Deem and Ramdas Pophale) SiO2 
 PCOD8233481
Probable space group: P B C M
;
_chemical_formula_sum "Si O2"
_cell_formula_units_Z 48
_cell_length_a 9.347815
_cell_length_b 16.711599
_cell_length_c 15.385293
_cell_angle_alpha 90.000000
_cell_angle_beta 90.000000
_cell_angle_gamma 90.000000
_cell_volume 2403.443329
_symmetry_space_group_name_H-M "P B C M"
_symmetry_group_IT_number 57
_symmetry_cell_setting 'orthorhombic'
loop_
_space_group_symop_operation_xyz
x,y,z
-x,-y,1/2+z
x,1/2-y,-z
-x,1/2+y,1/2-z
-x,-y,-z
x,y,1/2-z
-x,1/2+y,z
x,1/2-y,1/2+z
loop_
_atom_site_type_symbol
_atom_site_label
_atom_site_fract_x
_atom_site_fract_y
_atom_site_fract_z
Si Si1 0.285844 0.343123 0.000497
Si Si2 0.523501 0.900385 0.849819
Si Si3 0.526371 0.585855 0.849993
Si Si4 0.746311 0.304997 0.584112
Si Si5 0.219772 0.645263 0.845842
Si Si6 0.026250 0.593317 0.993055
O O1 0.350489 0.380970 0.087916
O O2 0.116924 0.355605 0.001000
O O3 0.322855 0.250000 0.000000
O O4 0.342517 0.385099 0.912716
O O5 0.565857 0.880473 0.750000
O O6 0.396635 0.844332 0.881459
O O7 0.472973 0.990908 0.858669
O O8 0.556118 0.612194 0.750000
O O9 0.375456 0.621052 0.883893
O O10 0.715686 0.250000 0.500000
O O11 0.800171 0.241601 0.656023
O O12 0.865066 0.372987 0.566315
O O13 0.206342 0.609452 0.750000
O O14 0.094592 0.604197 0.898969
O O15 0.000000 0.500000 0.000000
#
# Coordination Sequence:
#
# PCOD8233481 Si02
#       6
#     8   8   8   8   8   8
#     4  12  23  37  58  87 122 152 187 241 296 341
#     4  11  22  38  61  89 117 152 195 239 285 340
#     4  10  22  39  62  89 118 152 193 237 286 340
#     4  10  20  38  61  84 113 153 197 233 279 342
#     4  10  20  38  60  83 113 152 194 236 281 340
#     4  11  23  40  60  82 114 155 193 234 288 345
#
# _framework density 19.971347000000002
#
# number of rings (size 3 to 8) (size 9 to 14) (size 15 to 20)
#    0.000    1.333    0.000    8.000    0.000    2.667 
#    0.000    5.000    0.000    0.000    0.000    0.000 
#    0.000    0.000    0.000    0.000    0.000    0.000 
#
# Total GULP energy -595245.371215 kJ/mol
# GULP energy per Si atom -12400.945234 kJ/mol
# Density = 1.992589 g / cm^3
# Si number density = 19.971347 Si / 1000 Ang^3
#
#
#
# Elastic Constant Matrix: (Units=GPa)
#
#
# Indices 1 2 3 4 5 6 
#
# 1 82.4940 10.2073 42.4413 0.0000 0.0000 0.0000
# 2 10.2073 105.5502 20.5538 0.0000 0.0000 0.0000
# 3 42.4413 20.5538 99.4308 0.0000 0.0000 0.0000
# 4 0.0000 0.0000 0.0000 23.5680 0.0000 0.0000
# 5 0.0000 0.0000 0.0000 0.0000 15.5804 0.0000
# 6 0.0000 0.0000 0.0000 0.0000 0.0000 39.4654
#
#
#
# Elastic Compliance Matrix: (Units=1/GPa)
#
#
# Indices 1 2 3 4 5 6 
#
# 1 0.015538 -0.000220 -0.006587 0.000000 0.000000 0.000000
# 2 -0.000220 0.009875 -0.001947 0.000000 0.000000 0.000000
# 3 -0.006587 -0.001947 0.013271 0.000000 0.000000 0.000000
# 4 0.000000 0.000000 0.000000 0.042430 0.000000 0.000000
# 5 0.000000 0.000000 0.000000 0.000000 0.064183 0.000000
# 6 0.000000 0.000000 0.000000 0.000000 0.000000 0.025339
#
#
# Mechanical properties :
#
#
# Convention : Reuss Voigt Hill
#
# Bulk Modulus (GPa) = 47.22380 48.20887 47.71634
# Shear Modulus (GPa) = 25.61431 30.00759 27.81095
#
# Velocity S-wave (km/s) = 3.58516 3.88046 3.73573
# Velocity P-wave (km/s) = 6.39022 6.65347 6.52317
#
# Compressibility (1/GPa) = 0.02117576
#
# Stress axis : x y z
#
# Youngs Moduli (GPa) = 64.35793 101.26948 75.35034
#
# Poissons Ratio (x) = 0.02227 0.49632
# Poissons Ratio (y) = 0.01416 0.14673
# Poissons Ratio (z) = 0.42392 0.19721
#
# Static dielectric constant tensor:
#      x y z
#    x 3.606400 0.000000 0.000000 
#    y 0.000000 3.845250 0.000000 
#    z 0.000000 0.000000 3.946990 
# 
# 
# High freq. dielectric constant tensor:
#      x y z
#    x 1.774120 0.000000 0.000000 
#    y 0.000000 1.797720 0.000000 
#    z 0.000000 0.000000 1.783950 
# 
# From -- ./inp_files/16368.got.cif
#   From: 2010.03.12/outbox.cif.g09.slc.cpg/sg57_9_cif.got.tgz:16368.got - 2010.04.16 15:48:40.
