data_PCOD8233433
_publ_section_title
;
Structure prediction by ZEFSAII (Michael W. Deem and Ramdas Pophale) SiO2 
 PCOD8233433
Probable space group: P B C M
;
_chemical_formula_sum "Si O2"
_cell_formula_units_Z 56
_cell_length_a 20.474533
_cell_length_b 9.029540
_cell_length_c 14.590498
_cell_angle_alpha 90.000000
_cell_angle_beta 90.000000
_cell_angle_gamma 90.000000
_cell_volume 2697.427287
_symmetry_space_group_name_H-M "P B C M"
_symmetry_group_IT_number 57
_symmetry_cell_setting 'orthorhombic'
loop_
_space_group_symop_operation_xyz
x,y,z
-x,-y,1/2+z
x,1/2-y,-z
-x,1/2+y,1/2-z
-x,-y,-z
x,y,1/2-z
-x,1/2+y,z
x,1/2-y,1/2+z
loop_
_atom_site_type_symbol
_atom_site_label
_atom_site_fract_x
_atom_site_fract_y
_atom_site_fract_z
Si Si1 0.971371 0.869545 0.060283
Si Si2 0.328063 0.891421 0.143392
Si Si3 0.580395 0.901046 0.141235
Si Si4 0.292830 0.407064 0.479362
Si Si5 0.923792 0.351991 0.646419
Si Si6 0.223468 0.634917 0.145374
Si Si7 0.543843 0.228036 0.142698
O O1 0.029797 0.763193 0.094557
O O2 0.928095 0.750000 0.000000
O O3 0.931896 0.967315 0.133942
O O4 0.000000 0.000000 0.000000
O O5 0.332865 0.943397 0.250000
O O6 0.271840 0.770660 0.131286
O O7 0.395500 0.822974 0.104410
O O8 0.312312 0.028107 0.078261
O O9 0.595443 0.890759 0.250000
O O10 0.645400 0.873471 0.084960
O O11 0.526272 0.783537 0.107246
O O12 0.551201 0.059424 0.113939
O O13 0.258736 0.250000 0.500000
O O14 0.241493 0.506634 0.425290
O O15 0.940253 0.318026 0.750000
O O16 0.849400 0.310738 0.621675
O O17 0.227807 0.575518 0.250000
O O18 0.546669 0.249670 0.250000
#
# Coordination Sequence:
#
# PCOD8233433 Si02
#       7
#     8   8   8   8   8   8   8
#     4   9  19  34  55  90 131 162 196 242 294 346
#     4  10  22  42  62  84 116 158 209 253 300 370
#     4  10  21  39  61  87 119 156 197 250 313 369
#     4  12  26  39  58  91 120 158 198 258 316 368
#     4  10  20  37  64  93 122 162 203 246 298 357
#     4  10  22  43  67  87 117 163 211 254 301 362
#     4   9  19  36  60  86 115 153 194 247 305 362
#
# _framework density 20.760522999999999
#
# number of rings (size 3 to 8) (size 9 to 14) (size 15 to 20)
#    0.000    2.000    1.429    1.286    2.000    5.714 
#    0.000    1.429    0.000    6.857    0.000    0.000 
#    0.000    0.000    0.000    0.000    0.000    0.000 
#
# Total GULP energy -693900.879829 kJ/mol
# GULP energy per Si atom -12391.087140 kJ/mol
# Density = 2.071327 g / cm^3
# Si number density = 20.760523 Si / 1000 Ang^3
#
#
#
# Elastic Constant Matrix: (Units=GPa)
#
#
# Indices 1 2 3 4 5 6 
#
# 1 58.7388 10.5907 25.5113 0.0000 0.0000 0.0000
# 2 10.5907 101.3619 37.5439 0.0000 0.0000 0.0000
# 3 25.5113 37.5439 80.2447 0.0000 0.0000 0.0000
# 4 0.0000 0.0000 0.0000 31.7105 0.0000 0.0000
# 5 0.0000 0.0000 0.0000 0.0000 8939.5064 0.0000
# 6 0.0000 0.0000 0.0000 0.0000 0.0000 24.9954
#
#
#
# Elastic Compliance Matrix: (Units=1/GPa)
#
#
# Indices 1 2 3 4 5 6 
#
# 1 0.019760 0.000317 -0.006431 0.000000 0.000000 0.000000
# 2 0.000317 0.011939 -0.005687 0.000000 0.000000 0.000000
# 3 -0.006431 -0.005687 0.017167 0.000000 0.000000 0.000000
# 4 0.000000 0.000000 0.000000 0.031535 0.000000 0.000000
# 5 0.000000 0.000000 0.000000 0.000000 0.000112 0.000000
# 6 0.000000 0.000000 0.000000 0.000000 0.000000 0.040007
#
#
# Mechanical properties :
#
#
# Convention : Reuss Voigt Hill
#
# Bulk Modulus (GPa) = 39.57895 43.07080 41.32487
# Shear Modulus (GPa) = 32.77780 1810.35576 921.56678
#
# Velocity S-wave (km/s) = 3.97779 29.56199 21.09187
# Velocity P-wave (km/s) = 6.34058 34.43845 24.76096
#
# Compressibility (1/GPa) = 0.02526596
#
# Stress axis : x y z
#
# Youngs Moduli (GPa) = 50.60668 83.76057 58.25180
#
# Poissons Ratio (x) = -0.02657 0.37459
# Poissons Ratio (y) = -0.01605 0.33126
# Poissons Ratio (z) = 0.32543 0.47631
#
# Static dielectric constant tensor:
#      x y z
#    x 3.850280 0.000000 0.000000 
#    y 0.000000 4.352160 0.000000 
#    z 0.000000 0.000000 4.141960 
# 
# 
# High freq. dielectric constant tensor:
#      x y z
#    x 1.797130 0.000000 0.000000 
#    y 0.000000 1.815600 0.000000 
#    z 0.000000 0.000000 1.823610 
# 
# From -- ./inp_files/19345.got.cif
#   From: 2010.03.12/outbox.cif.g09.slc.cpg/sg57_10_cif.got.tgz:19345.got - 2010.04.16 15:48:40.
