data_PCOD8233790
_publ_section_title
;
Structure prediction by ZEFSAII (Michael W. Deem and Ramdas Pophale) SiO2 
 PCOD8233790
Probable space group: P B C M
;
_chemical_formula_sum "Si O2"
_cell_formula_units_Z 64
_cell_length_a 20.459482
_cell_length_b 17.779165
_cell_length_c 9.279529
_cell_angle_alpha 90.000000
_cell_angle_beta 90.000000
_cell_angle_gamma 90.000000
_cell_volume 3375.451931
_symmetry_space_group_name_H-M "P B C M"
_symmetry_group_IT_number 57
_symmetry_cell_setting 'orthorhombic'
loop_
_space_group_symop_operation_xyz
x,y,z
-x,-y,1/2+z
x,1/2-y,-z
-x,1/2+y,1/2-z
-x,-y,-z
x,y,1/2-z
-x,1/2+y,z
x,1/2-y,1/2+z
loop_
_atom_site_type_symbol
_atom_site_label
_atom_site_fract_x
_atom_site_fract_y
_atom_site_fract_z
Si Si1 0.367718 0.420645 0.917013
Si Si2 0.992633 0.172989 0.081651
Si Si3 0.117188 0.423190 0.581030
Si Si4 0.743787 0.325259 0.581464
Si Si5 0.240511 0.172398 0.418864
Si Si6 0.130949 0.577795 0.083106
Si Si7 0.510744 0.923577 0.416150
Si Si8 0.367150 0.595837 0.913838
O O1 0.385204 0.410103 0.750000
O O2 0.301480 0.379548 0.960833
O O3 0.359418 0.508349 0.955438
O O4 0.426983 0.383140 0.009405
O O5 0.995103 0.191182 0.250000
O O6 0.048935 0.114497 0.037550
O O7 0.923560 0.137909 0.034591
O O8 0.004839 0.250000 0.000000
O O9 0.122981 0.437831 0.750000
O O10 0.175363 0.369331 0.527516
O O11 0.122478 0.502773 0.505855
O O12 0.765255 0.250000 0.500000
O O13 0.736862 0.307696 0.750000
O O14 0.798246 0.387942 0.550636
O O15 0.674756 0.354212 0.522148
O O16 0.247733 0.250000 0.500000
O O17 0.237708 0.189040 0.250000
O O18 0.121694 0.557756 0.250000
O O19 0.527058 0.940356 0.250000
O O20 0.442871 0.877206 0.428950
O O21 0.500000 0.000000 0.500000
O O22 0.342729 0.608629 0.750000
#
# Coordination Sequence:
#
# PCOD8233790 Si02
#       8
#     8   8   8   8   8   8   8   8
#     4   9  18  33  53  77 106 139 175 217 263 314
#     4  10  21  37  57  83 114 146 180 218 263 315
#     4  10  21  37  58  82 108 142 182 222 265 313
#     4  11  23  37  54  77 106 140 177 219 267 319
#     4  10  21  36  53  77 108 141 179 220 265 317
#     4  10  22  38  56  82 111 139 179 225 265 312
#     4   9  17  30  51  78 106 136 172 215 263 314
#     4   9  18  34  55  78 105 137 174 218 265 314
#
# _framework density 18.960424
#
# number of rings (size 3 to 8) (size 9 to 14) (size 15 to 20)
#    0.000    2.250    0.000    3.375    0.000    6.500 
#    0.000    0.625    0.000    1.500    0.000    0.000 
#    0.000    0.000    0.000    0.000    0.000    0.000 
#
# Total GULP energy -793683.065609 kJ/mol
# GULP energy per Si atom -12401.297900 kJ/mol
# Density = 1.891727 g / cm^3
# Si number density = 18.960424 Si / 1000 Ang^3
#
#
#
# Elastic Constant Matrix: (Units=GPa)
#
#
# Indices 1 2 3 4 5 6 
#
# 1 96.9017 10.7829 38.3769 0.0000 0.0000 0.0000
# 2 10.7829 69.2938 35.4413 0.0000 0.0000 0.0000
# 3 38.3769 35.4413 71.5378 0.0000 0.0000 0.0000
# 4 0.0000 0.0000 0.0000 37.6757 0.0000 0.0000
# 5 0.0000 0.0000 0.0000 0.0000 27.2977 0.0000
# 6 0.0000 0.0000 0.0000 0.0000 0.0000 15.4917
#
#
#
# Elastic Compliance Matrix: (Units=1/GPa)
#
#
# Indices 1 2 3 4 5 6 
#
# 1 0.013332 0.002121 -0.008203 0.000000 0.000000 0.000000
# 2 0.002121 0.019666 -0.010881 0.000000 0.000000 0.000000
# 3 -0.008203 -0.010881 0.023770 0.000000 0.000000 0.000000
# 4 0.000000 0.000000 0.000000 0.026542 0.000000 0.000000
# 5 0.000000 0.000000 0.000000 0.000000 0.036633 0.000000
# 6 0.000000 0.000000 0.000000 0.000000 0.000000 0.064551
#
#
# Mechanical properties :
#
#
# Convention : Reuss Voigt Hill
#
# Bulk Modulus (GPa) = 43.77785 45.21507 44.49646
# Shear Modulus (GPa) = 22.12047 26.30186 24.21117
#
# Velocity S-wave (km/s) = 3.41935 3.72855 3.57729
# Velocity P-wave (km/s) = 6.22322 6.51421 6.37038
#
# Compressibility (1/GPa) = 0.02284260
#
# Stress axis : x y z
#
# Youngs Moduli (GPa) = 75.00509 50.84791 42.07016
#
# Poissons Ratio (x) = -0.10784 0.34510
# Poissons Ratio (y) = -0.15907 0.45776
# Poissons Ratio (z) = 0.61527 0.55327
#
# Static dielectric constant tensor:
#      x y z
#    x 4.102660 0.000000 0.000000 
#    y 0.000000 3.242770 0.000000 
#    z 0.000000 0.000000 3.543870 
# 
# 
# High freq. dielectric constant tensor:
#      x y z
#    x 1.757060 0.000000 0.000000 
#    y 0.000000 1.719920 0.000000 
#    z 0.000000 0.000000 1.735670 
# 
# From -- ./inp_files/8500.got.cif
#   From: 2010.03.12/outbox.cif.g09.slc.cpg/sg57_5_cif.got.tgz:8500.got - 2010.04.16 15:48:40.
