data_PCOD8233822
_publ_section_title
;
Structure prediction by ZEFSAII (Michael W. Deem and Ramdas Pophale) SiO2 
 PCOD8233822
Probable space group: P B C M
;
_chemical_formula_sum "Si O2"
_cell_formula_units_Z 48
_cell_length_a 18.137461
_cell_length_b 9.174857
_cell_length_c 14.387736
_cell_angle_alpha 90.000000
_cell_angle_beta 90.000000
_cell_angle_gamma 90.000000
_cell_volume 2394.243163
_symmetry_space_group_name_H-M "P B C M"
_symmetry_group_IT_number 57
_symmetry_cell_setting 'orthorhombic'
loop_
_space_group_symop_operation_xyz
x,y,z
-x,-y,1/2+z
x,1/2-y,-z
-x,1/2+y,1/2-z
-x,-y,-z
x,y,1/2-z
-x,1/2+y,z
x,1/2-y,1/2+z
loop_
_atom_site_type_symbol
_atom_site_label
_atom_site_fract_x
_atom_site_fract_y
_atom_site_fract_z
Si Si1 0.357943 0.397313 0.938600
Si Si2 0.914013 0.570555 0.250000
Si Si3 0.408592 0.719314 0.250000
Si Si4 0.804989 0.610233 0.398842
Si Si5 0.182003 0.066975 0.897055
Si Si6 0.442921 0.446007 0.750000
Si Si7 0.320532 0.627862 0.429048
Si Si8 0.932361 0.915199 0.250000
O O1 0.277683 0.451892 0.903055
O O2 0.407895 0.383607 0.846444
O O3 0.355132 0.250000 0.000000
O O4 0.378445 0.523288 0.013898
O O5 0.861882 0.523754 0.335180
O O6 0.936556 0.740070 0.250000
O O7 0.985088 0.470924 0.250000
O O8 0.472806 0.600757 0.250000
O O9 0.361263 0.700710 0.342657
O O10 0.441673 0.880653 0.250000
O O11 0.793587 0.774147 0.359847
O O12 0.843527 0.592280 0.498108
O O13 0.110744 0.017794 0.838715
O O14 0.250375 0.957508 0.887141
O O15 0.291313 0.750000 0.500000
#
# Coordination Sequence:
#
# PCOD8233822 Si02
#       8
#     8   4   4   8   8   4   8   4
#     4  11  22  43  71  97 121 161 218 262 315 373
#     4  10  21  36  56  82 124 160 197 250 302 366
#     4  12  29  44  62  94 132 172 209 250 318 378
#     4   9  17  36  62  87 111 155 205 249 296 367
#     4   9  18  36  62  86 114 152 205 247 302 365
#     4  12  29  44  62  96 132 168 209 256 310 384
#     4  11  22  43  67  94 127 160 204 272 317 357
#     4  10  21  38  54  84 120 160 199 244 306 368
#
# _framework density 20.048089000000001
#
# number of rings (size 3 to 8) (size 9 to 14) (size 15 to 20)
#    0.000    1.667    5.000    1.000    2.333    2.000 
#    6.000    0.000    0.000    0.000    0.000    0.000 
#    0.000    0.000    0.000    0.000    0.000    0.000 
#
# Total GULP energy -594729.364025 kJ/mol
# GULP energy per Si atom -12390.195084 kJ/mol
# Density = 2.000246 g / cm^3
# Si number density = 20.048089 Si / 1000 Ang^3
#
#
#
# Elastic Constant Matrix: (Units=GPa)
#
#
# Indices 1 2 3 4 5 6 
#
# 1 83.5373 25.8869 47.3683 0.0000 0.0000 0.0000
# 2 25.8869 75.7174 28.5288 0.0000 0.0000 0.0000
# 3 47.3683 28.5288 113.4339 0.0000 0.0000 0.0000
# 4 0.0000 0.0000 0.0000 27.6577 0.0000 0.0000
# 5 0.0000 0.0000 0.0000 0.0000 3.3884 0.0000
# 6 0.0000 0.0000 0.0000 0.0000 0.0000 32.4935
#
#
#
# Elastic Compliance Matrix: (Units=1/GPa)
#
#
# Indices 1 2 3 4 5 6 
#
# 1 0.016418 -0.003347 -0.006014 0.000000 0.000000 0.000000
# 2 -0.003347 0.015272 -0.002443 0.000000 0.000000 0.000000
# 3 -0.006014 -0.002443 0.011942 0.000000 0.000000 0.000000
# 4 0.000000 0.000000 0.000000 0.036156 0.000000 0.000000
# 5 0.000000 0.000000 0.000000 0.000000 0.295126 0.000000
# 6 0.000000 0.000000 0.000000 0.000000 0.000000 0.030775
#
#
# Mechanical properties :
#
#
# Convention : Reuss Voigt Hill
#
# Bulk Modulus (GPa) = 49.94346 52.91740 51.43043
# Shear Modulus (GPa) = 11.46863 24.10157 17.78510
#
# Velocity S-wave (km/s) = 2.39436 3.47102 2.98169
# Velocity P-wave (km/s) = 5.71051 6.52047 6.12888
#
# Compressibility (1/GPa) = 0.02002264
#
# Stress axis : x y z
#
# Youngs Moduli (GPa) = 60.90817 65.47974 83.74092
#
# Poissons Ratio (x) = 0.21917 0.50363
# Poissons Ratio (y) = 0.20387 0.20459
# Poissons Ratio (z) = 0.36631 0.15998
#
# Static dielectric constant tensor:
#      x y z
#    x 3.421600 0.000000 0.000000 
#    y 0.000000 3.617650 0.000000 
#    z 0.000000 0.000000 4.082850 
# 
# 
# High freq. dielectric constant tensor:
#      x y z
#    x 1.760430 0.000000 0.000000 
#    y 0.000000 1.774960 0.000000 
#    z 0.000000 0.000000 1.803190 
# 
# From -- ./inp_files/19034.got.cif
#   From: 2010.03.12/outbox.cif.g09.slc.cpg/sg57_10_cif.got.tgz:19034.got - 2010.04.16 15:48:40.
