data_PCOD8233414
_publ_section_title
;
Structure prediction by ZEFSAII (Michael W. Deem and Ramdas Pophale) SiO2 
 PCOD8233414
Probable space group: P B C M
;
_chemical_formula_sum "Si O2"
_cell_formula_units_Z 56
_cell_length_a 21.580335
_cell_length_b 14.216151
_cell_length_c 8.956805
_cell_angle_alpha 90.000000
_cell_angle_beta 90.000000
_cell_angle_gamma 90.000000
_cell_volume 2747.851945
_symmetry_space_group_name_H-M "P B C M"
_symmetry_group_IT_number 57
_symmetry_cell_setting 'orthorhombic'
loop_
_space_group_symop_operation_xyz
x,y,z
-x,-y,1/2+z
x,1/2-y,-z
-x,1/2+y,1/2-z
-x,-y,-z
x,y,1/2-z
-x,1/2+y,z
x,1/2-y,1/2+z
loop_
_atom_site_type_symbol
_atom_site_label
_atom_site_fract_x
_atom_site_fract_y
_atom_site_fract_z
Si Si1 0.716282 0.149988 0.576846
Si Si2 0.420400 0.850118 0.078150
Si Si3 0.228984 0.481512 0.422833
Si Si4 0.464203 0.148357 0.075881
Si Si5 0.088434 0.485971 0.078234
Si Si6 0.672001 0.649476 0.075741
Si Si7 0.021273 0.648549 0.925417
O O1 0.719596 0.250000 0.500000
O O2 0.734436 0.159722 0.750000
O O3 0.647449 0.102762 0.560902
O O4 0.764879 0.085006 0.491738
O O5 0.437747 0.837616 0.250000
O O6 0.415282 0.750000 0.000000
O O7 0.477476 0.907851 0.000194
O O8 0.247534 0.482905 0.250000
O O9 0.158233 0.449805 0.447467
O O10 0.273931 0.412448 0.509213
O O11 0.478097 0.157831 0.250000
O O12 0.396325 0.101715 0.049730
O O13 0.462610 0.250000 0.000000
O O14 0.076751 0.513399 0.250000
O O15 0.044136 0.399755 0.030255
O O16 0.075695 0.579626 0.982095
O O17 0.684590 0.662583 0.250000
O O18 0.674642 0.750000 0.000000
O O19 0.028432 0.662379 0.750000
O O20 0.026295 0.750000 0.000000
#
# Coordination Sequence:
#
# PCOD8233414 Si02
#       7
#     8   8   8   8   8   8   8
#     4  10  21  37  56  80 110 146 189 235 285 341
#     4   9  16  27  47  73 101 134 176 228 283 338
#     4  11  23  39  59  83 114 151 190 233 278 327
#     4   9  16  27  47  73 101 135 177 227 282 337
#     4   9  21  40  59  85 118 150 188 229 270 320
#     4  10  21  37  56  80 111 147 189 235 283 339
#     4  10  20  37  63  91 119 150 183 223 270 320
#
# _framework density 20.379556000000001
#
# number of rings (size 3 to 8) (size 9 to 14) (size 15 to 20)
#    0.000    2.286    0.000    3.429    0.000    6.286 
#    0.000    2.143    0.000    0.000    0.000    0.000 
#    0.000    0.000    0.000    0.000    0.000    0.000 
#
# Total GULP energy -694081.271850 kJ/mol
# GULP energy per Si atom -12394.308426 kJ/mol
# Density = 2.033317 g / cm^3
# Si number density = 20.379556 Si / 1000 Ang^3
#
#
#
# Elastic Constant Matrix: (Units=GPa)
#
#
# Indices 1 2 3 4 5 6 
#
# 1 80.6495 -0.1748 35.0382 0.0000 0.0000 0.0000
# 2 -0.1748 37.7177 16.3256 0.0000 0.0000 0.0000
# 3 35.0382 16.3256 122.3086 0.0000 0.0000 0.0000
# 4 0.0000 0.0000 0.0000 30.5066 0.0000 0.0000
# 5 0.0000 0.0000 0.0000 0.0000 32.8316 0.0000
# 6 0.0000 0.0000 0.0000 0.0000 0.0000 26.9194
#
#
#
# Elastic Compliance Matrix: (Units=1/GPa)
#
#
# Indices 1 2 3 4 5 6 
#
# 1 0.014296 0.001952 -0.004356 0.000000 0.000000 0.000000
# 2 0.001952 0.028405 -0.004351 0.000000 0.000000 0.000000
# 3 -0.004356 -0.004351 0.010005 0.000000 0.000000 0.000000
# 4 0.000000 0.000000 0.000000 0.032780 0.000000 0.000000
# 5 0.000000 0.000000 0.000000 0.000000 0.030458 0.000000
# 6 0.000000 0.000000 0.000000 0.000000 0.000000 0.037148
#
#
# Mechanical properties :
#
#
# Convention : Reuss Voigt Hill
#
# Bulk Modulus (GPa) = 25.51293 38.11711 31.81502
# Shear Modulus (GPa) = 27.82934 30.68399 29.25666
#
# Velocity S-wave (km/s) = 3.69935 3.88445 3.79303
# Velocity P-wave (km/s) = 5.54914 6.23400 5.90151
#
# Compressibility (1/GPa) = 0.03919581
#
# Stress axis : x y z
#
# Youngs Moduli (GPa) = 69.94961 35.20527 99.95397
#
# Poissons Ratio (x) = -0.06871 0.43539
# Poissons Ratio (y) = -0.13652 0.43485
# Poissons Ratio (z) = 0.30470 0.15316
#
# Static dielectric constant tensor:
#      x y z
#    x 4.215590 0.000000 0.000000 
#    y 0.000000 3.368520 0.000000 
#    z 0.000000 0.000000 3.784450 
# 
# 
# High freq. dielectric constant tensor:
#      x y z
#    x 1.806310 0.000000 0.000000 
#    y 0.000000 1.773290 0.000000 
#    z 0.000000 0.000000 1.810150 
# 
# From -- ./inp_files/8012.got.cif
#   From: 2010.03.12/outbox.cif.g09.slc.cpg/sg57_5_cif.got.tgz:8012.got - 2010.04.16 15:48:40.
