data_PCOD8233152
_publ_section_title
;
Structure prediction by ZEFSAII (Michael W. Deem and Ramdas Pophale) SiO2 
 PCOD8233152
Probable space group: P B C M
;
_chemical_formula_sum "Si O2"
_cell_formula_units_Z 40
_cell_length_a 23.282963
_cell_length_b 9.287114
_cell_length_c 9.561779
_cell_angle_alpha 90.000000
_cell_angle_beta 90.000000
_cell_angle_gamma 90.000000
_cell_volume 2067.558118
_symmetry_space_group_name_H-M "P B C M"
_symmetry_group_IT_number 57
_symmetry_cell_setting 'orthorhombic'
loop_
_space_group_symop_operation_xyz
x,y,z
-x,-y,1/2+z
x,1/2-y,-z
-x,1/2+y,1/2-z
-x,-y,-z
x,y,1/2-z
-x,1/2+y,z
x,1/2-y,1/2+z
loop_
_atom_site_type_symbol
_atom_site_label
_atom_site_fract_x
_atom_site_fract_y
_atom_site_fract_z
Si Si1 0.630677 0.412432 0.522866
Si Si2 0.170683 0.608245 0.089728
Si Si3 0.571070 0.026079 0.750000
Si Si4 0.734314 0.610285 0.907503
Si Si5 0.039746 0.605565 0.085939
Si Si6 0.459428 0.650192 0.250000
O O1 0.654258 0.250000 0.500000
O O2 0.613497 0.490287 0.380165
O O3 0.679491 0.506011 0.594869
O O4 0.573137 0.408268 0.614532
O O5 0.185786 0.646888 0.250000
O O6 0.211056 0.479190 0.034727
O O7 0.105442 0.552778 0.076586
O O8 0.182425 0.750000 0.000000
O O9 0.538001 0.177547 0.750000
O O10 0.524987 0.899144 0.750000
O O11 0.746100 0.662641 0.750000
O O12 0.723631 0.750000 0.000000
O O13 0.021173 0.621412 0.250000
O O14 0.032858 0.750000 0.000000
O O15 0.000000 0.500000 0.000000
#
# Coordination Sequence:
#
# PCOD8233152 Si02
#       6
#     8   8   4   8   8   4
#     4  10  21  39  60  82 112 150 190 230 279 337
#     4   9  20  39  61  86 115 153 196 240 285 344
#     4  10  22  34  60  84 114 144 187 222 283 338
#     4  11  24  40  58  84 116 147 189 239 289 338
#     4  10  20  36  59  87 121 158 200 243 293 346
#     4  10  20  38  56  86 112 148 181 232 275 336
#
# _framework density 19.346492999999999
#
# number of rings (size 3 to 8) (size 9 to 14) (size 15 to 20)
#    0.000    2.000    1.000    1.800    1.400    4.000 
#    0.000    2.000    0.000    0.000    0.000    0.000 
#    0.000    0.000    0.000    0.000    0.000    0.000 
#
# Total GULP energy -496029.828938 kJ/mol
# GULP energy per Si atom -12400.745723 kJ/mol
# Density = 1.930246 g / cm^3
# Si number density = 19.346493 Si / 1000 Ang^3
#
#
#
# Elastic Constant Matrix: (Units=GPa)
#
#
# Indices 1 2 3 4 5 6 
#
# 1 78.0784 42.5742 22.5000 0.0000 0.0000 0.0000
# 2 42.5742 76.1493 24.7711 0.0000 0.0000 0.0000
# 3 22.5000 24.7711 101.1088 0.0000 0.0000 0.0000
# 4 0.0000 0.0000 0.0000 25.9363 0.0000 0.0000
# 5 0.0000 0.0000 0.0000 0.0000 43.5091 0.0000
# 6 0.0000 0.0000 0.0000 0.0000 0.0000 36.6186
#
#
#
# Elastic Compliance Matrix: (Units=1/GPa)
#
#
# Indices 1 2 3 4 5 6 
#
# 1 0.018702 -0.009890 -0.001739 0.000000 0.000000 0.000000
# 2 -0.009890 0.019500 -0.002576 0.000000 0.000000 0.000000
# 3 -0.001739 -0.002576 0.010908 0.000000 0.000000 0.000000
# 4 0.000000 0.000000 0.000000 0.038556 0.000000 0.000000
# 5 0.000000 0.000000 0.000000 0.000000 0.022984 0.000000
# 6 0.000000 0.000000 0.000000 0.000000 0.000000 0.027309
#
#
# Mechanical properties :
#
#
# Convention : Reuss Voigt Hill
#
# Bulk Modulus (GPa) = 48.31128 48.33633 48.32381
# Shear Modulus (GPa) = 28.85697 32.24555 30.55126
#
# Velocity S-wave (km/s) = 3.86630 4.08700 3.97818
# Velocity P-wave (km/s) = 6.70498 6.87824 6.79217
#
# Compressibility (1/GPa) = 0.02069910
#
# Stress axis : x y z
#
# Youngs Moduli (GPa) = 53.47136 51.28272 91.67199
#
# Poissons Ratio (x) = 0.50720 0.15939
# Poissons Ratio (y) = 0.52885 0.23619
# Poissons Ratio (z) = 0.09297 0.13213
#
# Static dielectric constant tensor:
#      x y z
#    x 3.535520 0.000000 0.000000 
#    y 0.000000 3.348310 0.000000 
#    z 0.000000 0.000000 3.746410 
# 
# 
# High freq. dielectric constant tensor:
#      x y z
#    x 1.754310 0.000000 0.000000 
#    y 0.000000 1.743020 0.000000 
#    z 0.000000 0.000000 1.768350 
# 
# From -- ./inp_files/8940.got.cif
#   From: 2010.03.12/outbox.cif.g09.slc.cpg/sg57_5_cif.got.tgz:8940.got - 2010.04.16 15:48:40.
