data_PCOD8233269
_publ_section_title
;
Structure prediction by ZEFSAII (Michael W. Deem and Ramdas Pophale) SiO2 
 PCOD8233269
Probable space group: P B C M
;
_chemical_formula_sum "Si O2"
_cell_formula_units_Z 64
_cell_length_a 21.542165
_cell_length_b 17.927905
_cell_length_c 8.781753
_cell_angle_alpha 90.000000
_cell_angle_beta 90.000000
_cell_angle_gamma 90.000000
_cell_volume 3391.564712
_symmetry_space_group_name_H-M "P B C M"
_symmetry_group_IT_number 57
_symmetry_cell_setting 'orthorhombic'
loop_
_space_group_symop_operation_xyz
x,y,z
-x,-y,1/2+z
x,1/2-y,-z
-x,1/2+y,1/2-z
-x,-y,-z
x,y,1/2-z
-x,1/2+y,z
x,1/2-y,1/2+z
loop_
_atom_site_type_symbol
_atom_site_label
_atom_site_fract_x
_atom_site_fract_y
_atom_site_fract_z
Si Si1 0.309728 0.545804 0.071375
Si Si2 0.995043 0.669463 0.570930
Si Si3 0.127746 0.415763 0.429287
Si Si4 0.112721 0.925612 0.427017
Si Si5 0.563032 0.525754 0.573721
Si Si6 0.765186 0.330421 0.072544
Si Si7 0.255257 0.099112 0.429960
Si Si8 0.370501 0.326810 0.069201
O O1 0.295549 0.537051 0.250000
O O2 0.382638 0.533541 0.037724
O O3 0.291438 0.626946 0.010212
O O4 0.269031 0.485160 0.982002
O O5 0.002575 0.750000 0.500000
O O6 0.996725 0.679060 0.750000
O O7 0.931574 0.631246 0.516013
O O8 0.051789 0.617834 0.517240
O O9 0.139034 0.409047 0.250000
O O10 0.117976 0.501623 0.470656
O O11 0.186000 0.380389 0.517941
O O12 0.109042 0.948841 0.250000
O O13 0.171175 0.873174 0.458644
O O14 0.500000 0.500000 0.500000
O O15 0.549831 0.531522 0.750000
O O16 0.583899 0.607162 0.513044
O O17 0.749830 0.323589 0.250000
O O18 0.771339 0.250000 0.000000
O O19 0.261552 0.105196 0.250000
O O20 0.301608 0.157733 0.507369
O O21 0.367512 0.322447 0.250000
O O22 0.396299 0.250000 0.000000
#
# Coordination Sequence:
#
# PCOD8233269 Si02
#       8
#     8   8   8   8   8   8   8   8
#     4  10  20  37  58  83 116 149 188 234 279 333
#     4  10  23  40  56  78 109 146 188 236 288 346
#     4  11  22  36  57  83 111 147 190 236 288 344
#     4  10  21  38  58  82 110 142 191 238 283 347
#     4   9  20  37  60  88 118 154 194 236 279 333
#     4  11  22  35  56  85 115 149 189 235 290 343
#     4  11  21  35  57  84 113 149 188 233 287 341
#     4  10  21  38  59  88 121 154 194 240 288 340
#
# _framework density 18.870346999999999
#
# number of rings (size 3 to 8) (size 9 to 14) (size 15 to 20)
#    0.000    1.750    1.250    4.125    0.000    5.500 
#    0.000    1.875    0.000    1.500    0.000    0.000 
#    0.000    0.000    0.000    0.000    0.000    0.000 
#
# Total GULP energy -793848.837681 kJ/mol
# GULP energy per Si atom -12403.888089 kJ/mol
# Density = 1.882740 g / cm^3
# Si number density = 18.870347 Si / 1000 Ang^3
#
#
#
# Elastic Constant Matrix: (Units=GPa)
#
#
# Indices 1 2 3 4 5 6 
#
# 1 130.6770 40.6159 41.6349 0.0000 0.0000 0.0000
# 2 40.6159 71.7563 28.6404 0.0000 0.0000 0.0000
# 3 41.6349 28.6404 78.3400 0.0000 0.0000 0.0000
# 4 0.0000 0.0000 0.0000 35.3401 0.0000 0.0000
# 5 0.0000 0.0000 0.0000 0.0000 31.1058 0.0000
# 6 0.0000 0.0000 0.0000 0.0000 0.0000 -61.9525
#
#
#
# Elastic Compliance Matrix: (Units=1/GPa)
#
#
# Indices 1 2 3 4 5 6 
#
# 1 0.010201 -0.004227 -0.003876 0.000000 0.000000 0.000000
# 2 -0.004227 0.018069 -0.004359 0.000000 0.000000 0.000000
# 3 -0.003876 -0.004359 0.016419 0.000000 0.000000 0.000000
# 4 0.000000 0.000000 0.000000 0.028296 0.000000 0.000000
# 5 0.000000 0.000000 0.000000 0.000000 0.032148 0.000000
# 6 0.000000 0.000000 0.000000 0.000000 0.000000 -0.016141
#
#
# Mechanical properties :
#
#
# Convention : Reuss Voigt Hill
#
# Bulk Modulus (GPa) = 50.59822 55.83952 53.21887
# Shear Modulus (GPa) = 41.49218 12.22417 26.85818
#
# Velocity S-wave (km/s) = 4.69423 2.54795 3.77676
# Velocity P-wave (km/s) = 7.50019 6.18962 6.87620
#
# Compressibility (1/GPa) = 0.01976354
#
# Stress axis : x y z
#
# Youngs Moduli (GPa) = 98.02696 55.34469 60.90638
#
# Poissons Ratio (x) = 0.23394 0.23609
# Poissons Ratio (y) = 0.41436 0.26550
# Poissons Ratio (z) = 0.37998 0.24126
#
# Static dielectric constant tensor:
#      x y z
#    x 3.771870 0.000000 0.000000 
#    y 0.000000 3.472210 0.000000 
#    z 0.000000 0.000000 3.475980 
# 
# 
# High freq. dielectric constant tensor:
#      x y z
#    x 1.734410 0.000000 0.000000 
#    y 0.000000 1.732420 0.000000 
#    z 0.000000 0.000000 1.739530 
# 
# From -- ./inp_files/8432.got.cif
#   From: 2010.03.12/outbox.cif.g09.slc.cpg/sg57_5_cif.got.tgz:8432.got - 2010.04.16 15:48:40.
