data_PCOD8233775
_publ_section_title
;
Structure prediction by ZEFSAII (Michael W. Deem and Ramdas Pophale) SiO2 
 PCOD8233775
Probable space group: P B C M
;
_chemical_formula_sum "Si O2"
_cell_formula_units_Z 64
_cell_length_a 9.617716
_cell_length_b 13.581118
_cell_length_c 22.696068
_cell_angle_alpha 90.000000
_cell_angle_beta 90.000000
_cell_angle_gamma 90.000000
_cell_volume 2964.545329
_symmetry_space_group_name_H-M "P B C M"
_symmetry_group_IT_number 57
_symmetry_cell_setting 'orthorhombic'
loop_
_space_group_symop_operation_xyz
x,y,z
-x,-y,1/2+z
x,1/2-y,-z
-x,1/2+y,1/2-z
-x,-y,-z
x,y,1/2-z
-x,1/2+y,z
x,1/2-y,1/2+z
loop_
_atom_site_type_symbol
_atom_site_label
_atom_site_fract_x
_atom_site_fract_y
_atom_site_fract_z
Si Si1 0.774150 0.014541 0.492572
Si Si2 0.429298 0.105576 0.683717
Si Si3 0.948923 0.402695 0.354611
Si Si4 0.794156 0.472215 0.858412
Si Si5 0.008165 0.356093 0.017589
Si Si6 0.660892 0.496922 0.385694
Si Si7 0.718129 0.811583 0.819765
Si Si8 0.961532 0.303891 0.815262
O O1 0.733572 0.001778 0.424100
O O2 0.651815 0.004661 0.541943
O O3 0.886306 0.932642 0.512485
O O4 0.850817 0.120415 0.496672
O O5 0.487812 0.116826 0.750000
O O6 0.328666 0.009708 0.683401
O O7 0.347780 0.204894 0.664429
O O8 0.554137 0.084359 0.638617
O O9 0.014982 0.356759 0.412833
O O10 0.812593 0.465667 0.364846
O O11 0.921381 0.311584 0.311362
O O12 0.067874 0.475710 0.332540
O O13 0.841236 0.357730 0.854356
O O14 0.059372 0.250000 0.000000
O O15 0.634798 0.605391 0.357562
O O16 0.702050 0.833136 0.750000
O O17 0.880160 0.813755 0.839058
O O18 0.952207 0.348245 0.750000
#
# Coordination Sequence:
#
# PCOD8233775 Si02
#       8
#     8   8   8   8   8   8   8   8
#     4   9  21  34  58  94 122 165 207 255 310 385
#     4  11  25  43  63  89 128 174 215 262 321 385
#     4  10  21  35  59  91 120 159 210 264 310 372
#     4  11  21  40  63  92 131 165 209 270 325 371
#     4   9  17  31  55  86 126 158 195 254 315 360
#     4  11  23  42  64  92 129 168 213 256 321 388
#     4  10  22  40  63  90 124 167 213 267 325 382
#     4  11  22  35  62  96 126 163 216 270 319 378
#
# _framework density 21.588470999999998
#
# number of rings (size 3 to 8) (size 9 to 14) (size 15 to 20)
#    0.000    1.750    2.500    2.250    1.750    3.000 
#    0.000    1.250    0.000    1.500    0.000    0.000 
#    0.000    0.000    0.000    0.000    0.000    0.000 
#
# Total GULP energy -793085.317836 kJ/mol
# GULP energy per Si atom -12391.958091 kJ/mol
# Density = 2.153933 g / cm^3
# Si number density = 21.588471 Si / 1000 Ang^3
#
#
#
# Elastic Constant Matrix: (Units=GPa)
#
#
# Indices 1 2 3 4 5 6 
#
# 1 62.5930 19.6909 37.9087 0.0000 0.0000 0.0000
# 2 19.6909 93.1408 37.2807 0.0000 0.0000 0.0000
# 3 37.9087 37.2807 93.9012 0.0000 0.0000 0.0000
# 4 0.0000 0.0000 0.0000 27.0138 0.0000 0.0000
# 5 0.0000 0.0000 0.0000 0.0000 32.0089 0.0000
# 6 0.0000 0.0000 0.0000 0.0000 0.0000 30.9467
#
#
#
# Elastic Compliance Matrix: (Units=1/GPa)
#
#
# Indices 1 2 3 4 5 6 
#
# 1 0.021270 -0.001260 -0.008087 0.000000 0.000000 0.000000
# 2 -0.001260 0.012840 -0.004589 0.000000 0.000000 0.000000
# 3 -0.008087 -0.004589 0.015736 0.000000 0.000000 0.000000
# 4 0.000000 0.000000 0.000000 0.037018 0.000000 0.000000
# 5 0.000000 0.000000 0.000000 0.000000 0.031241 0.000000
# 6 0.000000 0.000000 0.000000 0.000000 0.000000 0.032314
#
#
# Mechanical properties :
#
#
# Convention : Reuss Voigt Hill
#
# Bulk Modulus (GPa) = 45.50697 48.82174 47.16435
# Shear Modulus (GPa) = 26.93747 28.31085 27.62416
#
# Velocity S-wave (km/s) = 3.53621 3.62524 3.58100
# Velocity P-wave (km/s) = 6.14802 6.33932 6.24440
#
# Compressibility (1/GPa) = 0.02197466
#
# Stress axis : x y z
#
# Youngs Moduli (GPa) = 47.01412 77.88418 63.54823
#
# Poissons Ratio (x) = 0.09813 0.51390
# Poissons Ratio (y) = 0.05923 0.29162
# Poissons Ratio (z) = 0.38019 0.35741
#
# Static dielectric constant tensor:
#      x y z
#    x 3.592910 0.000000 0.000000 
#    y 0.000000 3.993000 0.000000 
#    z 0.000000 0.000000 4.117660 
# 
# 
# High freq. dielectric constant tensor:
#      x y z
#    x 1.815750 0.000000 0.000000 
#    y 0.000000 1.850080 0.000000 
#    z 0.000000 0.000000 1.847960 
# 
# From -- ./inp_files/26872.got.cif
#   From: 2010.03.12/outbox.cif.g09.slc.cpg/sg57_14_cif.got.tgz:26872.got - 2010.04.16 15:48:40.
