data_PCOD8233357
_publ_section_title
;
Structure prediction by ZEFSAII (Michael W. Deem and Ramdas Pophale) SiO2 
 PCOD8233357
Probable space group: P B C M
;
_chemical_formula_sum "Si O2"
_cell_formula_units_Z 40
_cell_length_a 10.007970
_cell_length_b 20.866389
_cell_length_c 10.172403
_cell_angle_alpha 90.000000
_cell_angle_beta 90.000000
_cell_angle_gamma 90.000000
_cell_volume 2124.304903
_symmetry_space_group_name_H-M "P B C M"
_symmetry_group_IT_number 57
_symmetry_cell_setting 'orthorhombic'
loop_
_space_group_symop_operation_xyz
x,y,z
-x,-y,1/2+z
x,1/2-y,-z
-x,1/2+y,1/2-z
-x,-y,-z
x,y,1/2-z
-x,1/2+y,z
x,1/2-y,1/2+z
loop_
_atom_site_type_symbol
_atom_site_label
_atom_site_fract_x
_atom_site_fract_y
_atom_site_fract_z
Si Si1 0.076925 0.673417 0.250000
Si Si2 0.126407 0.439943 0.750000
Si Si3 0.557488 0.416999 0.094719
Si Si4 0.904372 0.952155 0.250000
Si Si5 0.236768 0.676505 0.506964
Si Si6 0.945807 0.175481 0.750000
Si Si7 0.713371 0.962821 0.008128
O O1 0.169053 0.654738 0.372443
O O2 0.021808 0.747618 0.250000
O O3 0.952760 0.626356 0.250000
O O4 0.219133 0.436386 0.622572
O O5 0.039265 0.505209 0.750000
O O6 0.576813 0.425385 0.250000
O O7 0.618642 0.352065 0.037961
O O8 0.401292 0.414445 0.058376
O O9 0.640955 0.470520 0.018310
O O10 0.823452 0.971797 0.120591
O O11 0.930286 0.874715 0.250000
O O12 0.267878 0.750000 0.500000
O O13 0.136102 0.656984 0.621668
#
# Coordination Sequence:
#
# PCOD8233357 Si02
#       7
#     4   4   8   4   8   4   8
#     4  10  22  37  57  93 123 150 194 247 289 349
#     4  12  22  38  57  88 123 150 198 251 290 341
#     4  11  21  41  62  83 122 154 191 251 299 342
#     4  12  22  38  61  90 121 158 198 239 292 365
#     4  10  20  37  63  89 113 154 201 237 286 347
#     4  10  20  37  61  85 123 162 190 235 301 351
#     4  11  24  37  61  90 114 157 199 238 301 354
#
# _framework density 18.829689999999999
#
# number of rings (size 3 to 8) (size 9 to 14) (size 15 to 20)
#    0.000    1.200    3.000    4.200    0.000    0.800 
#    0.000    2.000    0.000    0.000    0.000    0.000 
#    0.000    0.000    0.000    0.000    0.000    0.000 
#
# Total GULP energy -495948.848412 kJ/mol
# GULP energy per Si atom -12398.721210 kJ/mol
# Density = 1.878683 g / cm^3
# Si number density = 18.829690 Si / 1000 Ang^3
#
#
#
# Elastic Constant Matrix: (Units=GPa)
#
#
# Indices 1 2 3 4 5 6 
#
# 1 97.5491 47.6739 47.7458 0.0000 0.0000 0.0000
# 2 47.6739 63.9245 33.1475 0.0000 0.0000 0.0000
# 3 47.7458 33.1475 151.6203 0.0000 0.0000 0.0000
# 4 0.0000 0.0000 0.0000 38.5528 0.0000 0.0000
# 5 0.0000 0.0000 0.0000 0.0000 17.9788 0.0000
# 6 0.0000 0.0000 0.0000 0.0000 0.0000 -176.4423
#
#
#
# Elastic Compliance Matrix: (Units=1/GPa)
#
#
# Indices 1 2 3 4 5 6 
#
# 1 0.017226 -0.011317 -0.002950 0.000000 0.000000 0.000000
# 2 -0.011317 0.025079 -0.001919 0.000000 0.000000 0.000000
# 3 -0.002950 -0.001919 0.007944 0.000000 0.000000 0.000000
# 4 0.000000 0.000000 0.000000 0.025938 0.000000 0.000000
# 5 0.000000 0.000000 0.000000 0.000000 0.055621 0.000000
# 6 0.000000 0.000000 0.000000 0.000000 0.000000 -0.005668
#
#
# Mechanical properties :
#
#
# Convention : Reuss Voigt Hill
#
# Bulk Modulus (GPa) = 55.94116 63.35870 59.64993
# Shear Modulus (GPa) = 30.40023 -11.68035 9.35994
#
# Velocity S-wave (km/s) = 4.02242 -2.49332 2.23196
# Velocity P-wave (km/s) = 7.16566 5.04307 6.19593
#
# Compressibility (1/GPa) = 0.01787592
#
# Stress axis : x y z
#
# Youngs Moduli (GPa) = 58.05096 39.87456 125.88044
#
# Poissons Ratio (x) = 0.45127 0.37140
# Poissons Ratio (y) = 0.65697 0.24155
# Poissons Ratio (z) = 0.17128 0.07652
#
# Static dielectric constant tensor:
#      x y z
#    x 3.603860 0.000000 0.000000 
#    y 0.000000 5.820270 0.000000 
#    z 0.000000 0.000000 3.876860 
# 
# 
# High freq. dielectric constant tensor:
#      x y z
#    x 1.728110 0.000000 0.000000 
#    y 0.000000 1.726140 0.000000 
#    z 0.000000 0.000000 1.756940 
# 
# From -- ./inp_files/1589.got.cif
#   From: 2010.03.12/outbox.cif.g09.slc.cpg/sg57_1_cif.got.tgz:1589.got - 2010.04.16 15:48:40.
