data_PCOD8233133
_publ_section_title
;
Structure prediction by ZEFSAII (Michael W. Deem and Ramdas Pophale) SiO2 
 PCOD8233133
Probable space group: P B C M
;
_chemical_formula_sum "Si O2"
_cell_formula_units_Z 48
_cell_length_a 9.099493
_cell_length_b 30.639670
_cell_length_c 8.791141
_cell_angle_alpha 90.000000
_cell_angle_beta 90.000000
_cell_angle_gamma 90.000000
_cell_volume 2451.018134
_symmetry_space_group_name_H-M "P B C M"
_symmetry_group_IT_number 57
_symmetry_cell_setting 'orthorhombic'
loop_
_space_group_symop_operation_xyz
x,y,z
-x,-y,1/2+z
x,1/2-y,-z
-x,1/2+y,1/2-z
-x,-y,-z
x,y,1/2-z
-x,1/2+y,z
x,1/2-y,1/2+z
loop_
_atom_site_type_symbol
_atom_site_label
_atom_site_fract_x
_atom_site_fract_y
_atom_site_fract_z
Si Si1 0.917758 0.959193 0.570247
Si Si2 0.584958 0.960025 0.571340
Si Si3 0.916190 0.379760 0.426833
Si Si4 0.902948 0.795245 0.428273
Si Si5 0.603815 0.123043 0.072808
Si Si6 0.593262 0.704752 0.428640
O O1 0.923156 0.963453 0.750000
O O2 0.751003 0.958856 0.508868
O O3 0.993983 0.914515 0.523227
O O4 0.000000 0.000000 0.500000
O O5 0.584704 0.966624 0.750000
O O6 0.507415 0.915069 0.524861
O O7 0.500000 0.000000 0.500000
O O8 0.933991 0.391096 0.250000
O O9 0.746694 0.381689 0.470582
O O10 0.977116 0.331871 0.465883
O O11 0.959950 0.750000 0.500000
O O12 0.880508 0.788548 0.250000
O O13 0.748018 0.809580 0.499732
O O14 0.646680 0.119965 0.250000
O O15 0.527844 0.168734 0.033290
O O16 0.536882 0.750000 0.500000
O O17 0.616616 0.710436 0.250000
#
# Coordination Sequence:
#
# PCOD8233133 Si02
#       6
#     8   8   8   8   8   8
#     4  11  23  40  62  87 117 151 189 233 282 338
#     4  10  22  39  59  84 112 145 185 228 275 329
#     4  11  24  39  57  85 117 150 191 237 285 337
#     4  10  21  37  58  84 114 149 191 237 285 339
#     4  10  22  39  58  81 112 151 190 229 280 339
#     4  10  20  36  59  85 113 148 191 236 286 342
#
# _framework density 19.583697000000001
#
# number of rings (size 3 to 8) (size 9 to 14) (size 15 to 20)
#    0.000    1.667    0.000    5.000    0.000   10.667 
#    0.000    3.333    0.000    0.000    0.000    0.000 
#    0.000    0.000    0.000    0.000    0.000    0.000 
#
# Total GULP energy -595438.410942 kJ/mol
# GULP energy per Si atom -12404.966895 kJ/mol
# Density = 1.953912 g / cm^3
# Si number density = 19.583697 Si / 1000 Ang^3
#
#
#
# Elastic Constant Matrix: (Units=GPa)
#
#
# Indices 1 2 3 4 5 6 
#
# 1 152.7175 79.6083 48.9166 0.0000 0.0000 0.0000
# 2 79.6083 132.6826 51.9554 0.0000 0.0000 0.0000
# 3 48.9166 51.9554 78.0355 0.0000 0.0000 0.0000
# 4 0.0000 0.0000 0.0000 34.7870 0.0000 0.0000
# 5 0.0000 0.0000 0.0000 0.0000 33.0336 0.0000
# 6 0.0000 0.0000 0.0000 0.0000 0.0000 40.9380
#
#
#
# Elastic Compliance Matrix: (Units=1/GPa)
#
#
# Indices 1 2 3 4 5 6 
#
# 1 0.010051 -0.004820 -0.003091 0.000000 0.000000 0.000000
# 2 -0.004820 0.012506 -0.005305 0.000000 0.000000 0.000000
# 3 -0.003091 -0.005305 0.018284 0.000000 0.000000 0.000000
# 4 0.000000 0.000000 0.000000 0.028746 0.000000 0.000000
# 5 0.000000 0.000000 0.000000 0.000000 0.030272 0.000000
# 6 0.000000 0.000000 0.000000 0.000000 0.000000 0.024427
#
#
# Mechanical properties :
#
#
# Convention : Reuss Voigt Hill
#
# Bulk Modulus (GPa) = 69.40186 80.48847 74.94516
# Shear Modulus (GPa) = 32.14977 33.94875 33.04926
#
# Velocity S-wave (km/s) = 4.05614 4.16807 4.11249
# Velocity P-wave (km/s) = 7.57970 8.02202 7.80399
#
# Compressibility (1/GPa) = 0.01440884
#
# Stress axis : x y z
#
# Youngs Moduli (GPa) = 99.49584 79.96174 54.69116
#
# Poissons Ratio (x) = 0.38540 0.16906
# Poissons Ratio (y) = 0.47955 0.29014
# Poissons Ratio (z) = 0.30757 0.42420
#
# Static dielectric constant tensor:
#      x y z
#    x 3.746200 0.000000 0.000000 
#    y 0.000000 3.731460 0.000000 
#    z 0.000000 0.000000 3.479710 
# 
# 
# High freq. dielectric constant tensor:
#      x y z
#    x 1.769540 0.000000 0.000000 
#    y 0.000000 1.779810 0.000000 
#    z 0.000000 0.000000 1.769170 
# 
# From -- ./inp_files/2075.got.cif
#   From: 2010.03.12/outbox.cif.g09.slc.cpg/sg57_2_cif.got.tgz:2075.got - 2010.04.16 15:48:40.
