data_PCOD8233634
_publ_section_title
;
Structure prediction by ZEFSAII (Michael W. Deem and Ramdas Pophale) SiO2 
 PCOD8233634
Probable space group: P B C M
;
_chemical_formula_sum "Si O2"
_cell_formula_units_Z 64
_cell_length_a 14.479187
_cell_length_b 12.968360
_cell_length_c 17.091510
_cell_angle_alpha 90.000000
_cell_angle_beta 90.000000
_cell_angle_gamma 90.000000
_cell_volume 3209.295214
_symmetry_space_group_name_H-M "P B C M"
_symmetry_group_IT_number 57
_symmetry_cell_setting 'orthorhombic'
loop_
_space_group_symop_operation_xyz
x,y,z
-x,-y,1/2+z
x,1/2-y,-z
-x,1/2+y,1/2-z
-x,-y,-z
x,y,1/2-z
-x,1/2+y,z
x,1/2-y,1/2+z
loop_
_atom_site_type_symbol
_atom_site_label
_atom_site_fract_x
_atom_site_fract_y
_atom_site_fract_z
Si Si1 0.578349 0.104209 0.589620
Si Si2 0.754786 0.630599 0.493999
Si Si3 0.065508 0.617661 0.839156
Si Si4 0.347451 0.796242 0.660234
Si Si5 0.841793 0.208714 0.083309
Si Si6 0.394627 0.992288 0.575226
Si Si7 0.078585 0.015925 0.937393
Si Si8 0.749837 0.510265 0.340437
O O1 0.581835 0.226544 0.608207
O O2 0.481563 0.051882 0.612674
O O3 0.586759 0.083948 0.497455
O O4 0.660895 0.059448 0.642743
O O5 0.735657 0.750000 0.500000
O O6 0.679743 0.575041 0.548031
O O7 0.853920 0.602537 0.528991
O O8 0.746876 0.604173 0.401797
O O9 0.060073 0.649845 0.750000
O O10 0.070428 0.723583 0.889144
O O11 0.156034 0.550694 0.858429
O O12 0.971518 0.556994 0.859389
O O13 0.368967 0.773029 0.750000
O O14 0.240801 0.769426 0.643401
O O15 0.359711 0.917458 0.643444
O O16 0.866788 0.088763 0.080127
O O17 0.806743 0.250000 0.000000
O O18 0.000000 0.000000 0.000000
O O19 0.747770 0.548971 0.250000
#
# Coordination Sequence:
#
# PCOD8233634 Si02
#       8
#     8   8   8   8   8   8   8   8
#     4  10  21  39  69  93 122 164 217 268 321 388
#     4  11  24  43  65  89 128 174 217 257 316 396
#     4  11  24  40  63  97 129 165 214 269 330 383
#     4  12  24  39  64  97 133 171 211 268 335 387
#     4  12  22  40  69  93 127 168 222 269 319 385
#     4  10  23  43  63  93 127 167 215 267 323 390
#     4  12  24  41  65  95 127 171 216 270 319 385
#     4  10  20  39  65  95 124 157 211 273 322 377
#
# _framework density 19.942073000000001
#
# number of rings (size 3 to 8) (size 9 to 14) (size 15 to 20)
#    0.000    1.000    5.000    1.875    1.750    5.000 
#    0.000    2.500    0.000    0.000    0.000    0.000 
#    0.000    0.000    0.000    0.000    0.000    0.000 
#
# Total GULP energy -793623.951971 kJ/mol
# GULP energy per Si atom -12400.374250 kJ/mol
# Density = 1.989668 g / cm^3
# Si number density = 19.942073 Si / 1000 Ang^3
#
#
#
# Elastic Constant Matrix: (Units=GPa)
#
#
# Indices 1 2 3 4 5 6 
#
# 1 103.2958 39.1268 36.0806 0.0000 0.0000 0.0000
# 2 39.1268 129.6427 46.2985 0.0000 0.0000 0.0000
# 3 36.0806 46.2985 88.9397 0.0000 0.0000 0.0000
# 4 0.0000 0.0000 0.0000 22.1163 0.0000 0.0000
# 5 0.0000 0.0000 0.0000 0.0000 24.4625 0.0000
# 6 0.0000 0.0000 0.0000 0.0000 0.0000 30.3290
#
#
#
# Elastic Compliance Matrix: (Units=1/GPa)
#
#
# Indices 1 2 3 4 5 6 
#
# 1 0.011801 -0.002275 -0.003603 0.000000 0.000000 0.000000
# 2 -0.002275 0.009913 -0.004238 0.000000 0.000000 0.000000
# 3 -0.003603 -0.004238 0.014911 0.000000 0.000000 0.000000
# 4 0.000000 0.000000 0.000000 0.045215 0.000000 0.000000
# 5 0.000000 0.000000 0.000000 0.000000 0.040879 0.000000
# 6 0.000000 0.000000 0.000000 0.000000 0.000000 0.032972
#
#
# Mechanical properties :
#
#
# Convention : Reuss Voigt Hill
#
# Bulk Modulus (GPa) = 60.99665 62.76556 61.88110
# Shear Modulus (GPa) = 27.56516 28.73973 28.15245
#
# Velocity S-wave (km/s) = 3.72191 3.80038 3.76135
# Velocity P-wave (km/s) = 7.00881 7.12737 7.06834
#
# Compressibility (1/GPa) = 0.01639434
#
# Stress axis : x y z
#
# Youngs Moduli (GPa) = 84.73701 100.87304 67.06321
#
# Poissons Ratio (x) = 0.22947 0.24165
# Poissons Ratio (y) = 0.19276 0.28419
# Poissons Ratio (z) = 0.30533 0.42747
#
# Static dielectric constant tensor:
#      x y z
#    x 4.113500 0.000000 0.000000 
#    y 0.000000 3.538320 0.000000 
#    z 0.000000 0.000000 3.609070 
# 
# 
# High freq. dielectric constant tensor:
#      x y z
#    x 1.777750 0.000000 0.000000 
#    y 0.000000 1.775900 0.000000 
#    z 0.000000 0.000000 1.775410 
# 
# From -- ./inp_files/22666.got.cif
#   From: 2010.03.12/outbox.cif.g09.slc.cpg/sg57_12_cif.got.tgz:22666.got - 2010.04.16 15:48:40.
