data_PCOD8233078
_publ_section_title
;
Structure prediction by ZEFSAII (Michael W. Deem and Ramdas Pophale) SiO2 
 PCOD8233078
Probable space group: P B C M
;
_chemical_formula_sum "Si O2"
_cell_formula_units_Z 48
_cell_length_a 8.018772
_cell_length_b 20.008247
_cell_length_c 14.508018
_cell_angle_alpha 90.000000
_cell_angle_beta 90.000000
_cell_angle_gamma 90.000000
_cell_volume 2327.689197
_symmetry_space_group_name_H-M "P B C M"
_symmetry_group_IT_number 57
_symmetry_cell_setting 'orthorhombic'
loop_
_space_group_symop_operation_xyz
x,y,z
-x,-y,1/2+z
x,1/2-y,-z
-x,1/2+y,1/2-z
-x,-y,-z
x,y,1/2-z
-x,1/2+y,z
x,1/2-y,1/2+z
loop_
_atom_site_type_symbol
_atom_site_label
_atom_site_fract_x
_atom_site_fract_y
_atom_site_fract_z
Si Si1 0.068667 0.393294 0.250000
Si Si2 0.473462 0.500350 0.109524
Si Si3 0.561712 0.257144 0.605634
Si Si4 0.167238 0.777075 0.250000
Si Si5 0.338318 0.134871 0.606302
Si Si6 0.805242 0.465531 0.750000
Si Si7 0.945268 0.654504 0.250000
Si Si8 0.670622 0.622695 0.108372
O O1 0.165368 0.370324 0.341115
O O2 0.056939 0.474234 0.250000
O O3 0.890389 0.355112 0.250000
O O4 0.472123 0.422385 0.139461
O O5 0.303223 0.529992 0.155073
O O6 0.623053 0.547984 0.144859
O O7 0.500000 0.500000 0.000000
O O8 0.612926 0.250000 0.500000
O O9 0.727710 0.240404 0.660026
O O10 0.416290 0.205535 0.631079
O O11 0.488030 0.329758 0.630882
O O12 0.004445 0.730757 0.250000
O O13 0.292387 0.125866 0.499718
O O14 0.898138 0.395111 0.750000
O O15 0.837301 0.644474 0.158564
#
# Coordination Sequence:
#
# PCOD8233078 Si02
#       8
#     4   8   8   4   8   4   4   8
#     4  10  21  37  55  79 112 145 173 215 277 326
#     4   9  18  36  60  81 105 142 186 226 261 314
#     4  10  21  37  58  80 104 140 189 230 260 311
#     4  12  24  35  52  81 112 143 176 221 274 322
#     4   9  19  37  59  79 102 139 184 225 263 316
#     4  10  21  37  55  83 116 141 177 225 273 324
#     4  12  24  35  54  83 118 147 170 219 282 334
#     4  10  20  36  58  81 105 143 184 219 268 324
#
# _framework density 20.621310999999999
#
# number of rings (size 3 to 8) (size 9 to 14) (size 15 to 20)
#    0.000    2.000    0.000    3.500    0.000    2.667 
#    0.000    7.500    0.000    0.000    0.000    0.000 
#    0.000    0.000    0.000    0.000    0.000    0.000 
#
# Total GULP energy -594737.562081 kJ/mol
# GULP energy per Si atom -12390.365877 kJ/mol
# Density = 2.057438 g / cm^3
# Si number density = 20.621311 Si / 1000 Ang^3
#
#
#
# Elastic Constant Matrix: (Units=GPa)
#
#
# Indices 1 2 3 4 5 6 
#
# 1 64.5006 5.9707 40.9064 0.0000 0.0000 0.0000
# 2 5.9707 57.7202 27.3578 0.0000 0.0000 0.0000
# 3 40.9064 27.3578 88.7509 0.0000 0.0000 0.0000
# 4 0.0000 0.0000 0.0000 17.7135 0.0000 0.0000
# 5 0.0000 0.0000 0.0000 0.0000 41.8737 0.0000
# 6 0.0000 0.0000 0.0000 0.0000 0.0000 33.0904
#
#
#
# Elastic Compliance Matrix: (Units=1/GPa)
#
#
# Indices 1 2 3 4 5 6 
#
# 1 0.022345 0.003010 -0.011227 0.000000 0.000000 0.000000
# 2 0.003010 0.020695 -0.007767 0.000000 0.000000 0.000000
# 3 -0.011227 -0.007767 0.018836 0.000000 0.000000 0.000000
# 4 0.000000 0.000000 0.000000 0.056454 0.000000 0.000000
# 5 0.000000 0.000000 0.000000 0.000000 0.023881 0.000000
# 6 0.000000 0.000000 0.000000 0.000000 0.000000 0.030220
#
#
# Mechanical properties :
#
#
# Convention : Reuss Voigt Hill
#
# Bulk Modulus (GPa) = 33.43487 39.93795 36.68641
# Shear Modulus (GPa) = 23.32428 27.65131 25.48779
#
# Velocity S-wave (km/s) = 3.36680 3.66582 3.51948
# Velocity P-wave (km/s) = 5.60024 6.10958 5.86045
#
# Compressibility (1/GPa) = 0.02990890
#
# Stress axis : x y z
#
# Youngs Moduli (GPa) = 44.75208 48.32145 53.08915
#
# Poissons Ratio (x) = -0.14544 0.59603
# Poissons Ratio (y) = -0.13470 0.41232
# Poissons Ratio (z) = 0.50243 0.37529
#
# Static dielectric constant tensor:
#      x y z
#    x 3.360920 0.000000 0.000000 
#    y 0.000000 4.228710 0.000000 
#    z 0.000000 0.000000 3.935620 
# 
# 
# High freq. dielectric constant tensor:
#      x y z
#    x 1.773550 0.000000 0.000000 
#    y 0.000000 1.827940 0.000000 
#    z 0.000000 0.000000 1.818660 
# 
# From -- ./inp_files/16453.got.cif
#   From: 2010.03.12/outbox.cif.g09.slc.cpg/sg57_9_cif.got.tgz:16453.got - 2010.04.16 15:48:40.
