data_PCOD8233672
_publ_section_title
;
Structure prediction by ZEFSAII (Michael W. Deem and Ramdas Pophale) SiO2 
 PCOD8233672
Probable space group: P B C M
;
_chemical_formula_sum "Si O2"
_cell_formula_units_Z 48
_cell_length_a 9.840220
_cell_length_b 17.112537
_cell_length_c 14.150276
_cell_angle_alpha 90.000000
_cell_angle_beta 90.000000
_cell_angle_gamma 90.000000
_cell_volume 2382.780949
_symmetry_space_group_name_H-M "P B C M"
_symmetry_group_IT_number 57
_symmetry_cell_setting 'orthorhombic'
loop_
_space_group_symop_operation_xyz
x,y,z
-x,-y,1/2+z
x,1/2-y,-z
-x,1/2+y,1/2-z
-x,-y,-z
x,y,1/2-z
-x,1/2+y,z
x,1/2-y,1/2+z
loop_
_atom_site_type_symbol
_atom_site_label
_atom_site_fract_x
_atom_site_fract_y
_atom_site_fract_z
Si Si1 0.550364 0.068916 0.437368
Si Si2 0.797964 0.329159 0.544269
Si Si3 0.669681 0.009142 0.250000
Si Si4 0.711699 0.831572 0.553408
Si Si5 0.880570 0.887559 0.250000
Si Si6 0.156379 0.296394 0.750000
Si Si7 0.044851 0.416504 0.459704
Si Si8 0.864509 0.354244 0.750000
O O1 0.691379 0.102451 0.478027
O O2 0.573809 0.030202 0.336329
O O3 0.440819 0.137622 0.437030
O O4 0.500000 0.000000 0.500000
O O5 0.742419 0.250000 0.500000
O O6 0.808110 0.312205 0.656345
O O7 0.942524 0.350911 0.498797
O O8 0.812575 0.056548 0.250000
O O9 0.723724 0.919454 0.250000
O O10 0.712346 0.750000 0.500000
O O11 0.758983 0.817892 0.659024
O O12 0.805283 0.894036 0.497413
O O13 0.883516 0.794290 0.250000
O O14 0.956409 0.917683 0.154747
O O15 0.026113 0.352624 0.750000
O O16 0.000000 0.500000 0.500000
#
# Coordination Sequence:
#
# PCOD8233672 Si02
#       8
#     8   8   4   8   4   4   8   4
#     4  11  24  44  66  90 130 174 217 267 326 399
#     4  11  22  41  64  94 128 174 213 263 329 388
#     4  10  23  44  64  93 128 176 212 266 337 388
#     4  12  24  42  65 102 130 171 226 275 330 397
#     4  12  24  40  65 102 134 168 217 286 335 384
#     4  12  23  38  68  99 131 171 217 281 328 395
#     4  12  24  41  68  99 133 173 220 273 334 393
#     4  10  20  40  65  90 131 167 212 261 328 395
#
# _framework density 20.144528000000001
#
# number of rings (size 3 to 8) (size 9 to 14) (size 15 to 20)
#    0.000    0.667    3.333    6.500    0.000    0.000 
#    0.000    3.333    0.000    0.000    0.000    0.000 
#    0.000    0.000    0.000    0.000    0.000    0.000 
#
# Total GULP energy -595303.433328 kJ/mol
# GULP energy per Si atom -12402.154861 kJ/mol
# Density = 2.009868 g / cm^3
# Si number density = 20.144528 Si / 1000 Ang^3
#
#
#
# Elastic Constant Matrix: (Units=GPa)
#
#
# Indices 1 2 3 4 5 6 
#
# 1 98.7295 19.3619 40.3131 0.0000 0.0000 0.0000
# 2 19.3619 77.2596 44.9011 0.0000 0.0000 0.0000
# 3 40.3131 44.9011 166.0302 0.0000 0.0000 0.0000
# 4 0.0000 0.0000 0.0000 27.7802 0.0000 0.0000
# 5 0.0000 0.0000 0.0000 0.0000 32.2571 0.0000
# 6 0.0000 0.0000 0.0000 0.0000 0.0000 38.4244
#
#
#
# Elastic Compliance Matrix: (Units=1/GPa)
#
#
# Indices 1 2 3 4 5 6 
#
# 1 0.011384 -0.001479 -0.002364 0.000000 0.000000 0.000000
# 2 -0.001479 0.015549 -0.003846 0.000000 0.000000 0.000000
# 3 -0.002364 -0.003846 0.007637 0.000000 0.000000 0.000000
# 4 0.000000 0.000000 0.000000 0.035997 0.000000 0.000000
# 5 0.000000 0.000000 0.000000 0.000000 0.031001 0.000000
# 6 0.000000 0.000000 0.000000 0.000000 0.000000 0.026025
#
#
# Mechanical properties :
#
#
# Convention : Reuss Voigt Hill
#
# Bulk Modulus (GPa) = 52.10464 61.24129 56.67296
# Shear Modulus (GPa) = 33.47417 35.52189 34.49803
#
# Velocity S-wave (km/s) = 4.08082 4.20378 4.14276
# Velocity P-wave (km/s) = 6.93727 7.35047 7.14685
#
# Compressibility (1/GPa) = 0.01919215
#
# Stress axis : x y z
#
# Youngs Moduli (GPa) = 87.84219 64.31194 130.93904
#
# Poissons Ratio (x) = 0.09512 0.30956
# Poissons Ratio (y) = 0.12992 0.50359
# Poissons Ratio (z) = 0.20767 0.24734
#
# Static dielectric constant tensor:
#      x y z
#    x 4.255270 0.000000 0.000000 
#    y 0.000000 3.690400 0.000000 
#    z 0.000000 0.000000 5.138780 
# 
# 
# High freq. dielectric constant tensor:
#      x y z
#    x 1.784990 0.000000 0.000000 
#    y 0.000000 1.792150 0.000000 
#    z 0.000000 0.000000 1.805400 
# 
# From -- ./inp_files/16440.got.cif
#   From: 2010.03.12/outbox.cif.g09.slc.cpg/sg57_9_cif.got.tgz:16440.got - 2010.04.16 15:48:40.
