data_PCOD8233342
_publ_section_title
;
Structure prediction by ZEFSAII (Michael W. Deem and Ramdas Pophale) SiO2 
 PCOD8233342
Probable space group: P B C M
;
_chemical_formula_sum "Si O2"
_cell_formula_units_Z 64
_cell_length_a 11.628504
_cell_length_b 16.526703
_cell_length_c 15.322158
_cell_angle_alpha 90.000000
_cell_angle_beta 90.000000
_cell_angle_gamma 90.000000
_cell_volume 2944.625072
_symmetry_space_group_name_H-M "P B C M"
_symmetry_group_IT_number 57
_symmetry_cell_setting 'orthorhombic'
loop_
_space_group_symop_operation_xyz
x,y,z
-x,-y,1/2+z
x,1/2-y,-z
-x,1/2+y,1/2-z
-x,-y,-z
x,y,1/2-z
-x,1/2+y,z
x,1/2-y,1/2+z
loop_
_atom_site_type_symbol
_atom_site_label
_atom_site_fract_x
_atom_site_fract_y
_atom_site_fract_z
Si Si1 0.247699 0.746518 0.602436
Si Si2 0.022285 0.909734 0.980099
Si Si3 0.767360 0.412529 0.848240
Si Si4 0.828692 0.704332 0.086483
Si Si5 0.018198 0.684869 0.844916
Si Si6 0.538166 0.010367 0.352288
Si Si7 0.419021 0.327546 0.648612
Si Si8 0.534348 0.336379 0.148083
O O1 0.223544 0.750000 0.500000
O O2 0.305300 0.828821 0.640386
O O3 0.126235 0.745314 0.653258
O O4 0.330090 0.672084 0.627508
O O5 0.131642 0.906218 0.917799
O O6 0.912361 0.869895 0.935294
O O7 0.046538 0.873420 0.075124
O O8 0.000000 0.000000 0.000000
O O9 0.815429 0.424080 0.750000
O O10 0.675495 0.482855 0.869315
O O11 0.718367 0.670592 0.136363
O O12 0.898520 0.767685 0.145926
O O13 0.786916 0.750000 0.000000
O O14 0.013930 0.640503 0.750000
O O15 0.509982 0.009170 0.250000
O O16 0.470846 0.088795 0.393074
O O17 0.502471 0.923223 0.394127
O O18 0.449971 0.326823 0.750000
O O19 0.469167 0.242832 0.607204
O O20 0.507655 0.340446 0.250000
#
# Coordination Sequence:
#
# PCOD8233342 Si02
#       8
#     8   8   8   8   8   8   8   8
#     4  12  21  38  65  98 126 160 221 275 325 384
#     4  11  25  43  62  96 135 164 219 279 324 398
#     4  11  21  41  69  93 129 176 217 269 333 391
#     4  10  22  40  60  87 124 165 211 264 326 396
#     4  11  22  41  67  92 121 168 221 273 329 391
#     4   9  20  38  62  96 130 164 219 267 312 393
#     4  10  20  37  60  88 126 168 209 260 320 382
#     4  10  21  38  63  93 126 170 216 262 318 388
#
# _framework density 21.734514999999998
#
# number of rings (size 3 to 8) (size 9 to 14) (size 15 to 20)
#    0.000    1.500    3.750    1.875    0.000    4.500 
#    0.000    3.125    0.000    0.000    0.000    0.000 
#    0.000    0.000    0.000    0.000    0.000    0.000 
#
# Total GULP energy -793121.723252 kJ/mol
# GULP energy per Si atom -12392.526926 kJ/mol
# Density = 2.168505 g / cm^3
# Si number density = 21.734515 Si / 1000 Ang^3
#
#
#
# Elastic Constant Matrix: (Units=GPa)
#
#
# Indices 1 2 3 4 5 6 
#
# 1 103.3440 52.7147 34.1101 0.0000 0.0000 0.0000
# 2 52.7147 157.8095 32.3504 0.0000 0.0000 0.0000
# 3 34.1101 32.3504 95.1568 0.0000 0.0000 0.0000
# 4 0.0000 0.0000 0.0000 9.0039 0.0000 0.0000
# 5 0.0000 0.0000 0.0000 0.0000 27.2814 0.0000
# 6 0.0000 0.0000 0.0000 0.0000 0.0000 23.4146
#
#
#
# Elastic Compliance Matrix: (Units=1/GPa)
#
#
# Indices 1 2 3 4 5 6 
#
# 1 0.012563 -0.003519 -0.003307 0.000000 0.000000 0.000000
# 2 -0.003519 0.007797 -0.001389 0.000000 0.000000 0.000000
# 3 -0.003307 -0.001389 0.012167 0.000000 0.000000 0.000000
# 4 0.000000 0.000000 0.000000 0.111063 0.000000 0.000000
# 5 0.000000 0.000000 0.000000 0.000000 0.036655 0.000000
# 6 0.000000 0.000000 0.000000 0.000000 0.000000 0.042708
#
#
# Mechanical properties :
#
#
# Convention : Reuss Voigt Hill
#
# Bulk Modulus (GPa) = 62.12588 66.07341 64.09965
# Shear Modulus (GPa) = 20.42918 27.74898 24.08908
#
# Velocity S-wave (km/s) = 3.06917 3.57700 3.33278
# Velocity P-wave (km/s) = 6.41917 6.89392 6.66078
#
# Compressibility (1/GPa) = 0.01609635
#
# Stress axis : x y z
#
# Youngs Moduli (GPa) = 79.60058 128.25592 82.19083
#
# Poissons Ratio (x) = 0.45127 0.27181
# Poissons Ratio (y) = 0.28008 0.11420
# Poissons Ratio (z) = 0.26324 0.17821
#
# Static dielectric constant tensor:
#      x y z
#    x 3.719740 0.000000 0.000000 
#    y 0.000000 4.180530 0.000000 
#    z 0.000000 0.000000 3.713830 
# 
# 
# High freq. dielectric constant tensor:
#      x y z
#    x 1.856150 0.000000 0.000000 
#    y 0.000000 1.851880 0.000000 
#    z 0.000000 0.000000 1.843350 
# 
# From -- ./inp_files/17982.got.cif
#   From: 2010.03.12/outbox.cif.g09.slc.cpg/sg57_9_cif.got.tgz:17982.got - 2010.04.16 15:48:40.
