data_PCOD8233325
_publ_section_title
;
Structure prediction by ZEFSAII (Michael W. Deem and Ramdas Pophale) SiO2 
 PCOD8233325
Probable space group: P B C M
;
_chemical_formula_sum "Si O2"
_cell_formula_units_Z 48
_cell_length_a 9.110778
_cell_length_b 30.540311
_cell_length_c 8.693266
_cell_angle_alpha 90.000000
_cell_angle_beta 90.000000
_cell_angle_gamma 90.000000
_cell_volume 2418.866436
_symmetry_space_group_name_H-M "P B C M"
_symmetry_group_IT_number 57
_symmetry_cell_setting 'orthorhombic'
loop_
_space_group_symop_operation_xyz
x,y,z
-x,-y,1/2+z
x,1/2-y,-z
-x,1/2+y,1/2-z
-x,-y,-z
x,y,1/2-z
-x,1/2+y,z
x,1/2-y,1/2+z
loop_
_atom_site_type_symbol
_atom_site_label
_atom_site_fract_x
_atom_site_fract_y
_atom_site_fract_z
Si Si1 0.896839 0.295763 0.070317
Si Si2 0.914529 0.040307 0.429729
Si Si3 0.078460 0.119736 0.927222
Si Si4 0.413479 0.703068 0.067588
Si Si5 0.582599 0.875582 0.068880
Si Si6 0.419458 0.541754 0.432878
O O1 0.865287 0.289249 0.250000
O O2 0.021927 0.331407 0.038321
O O3 0.952571 0.250000 0.000000
O O4 0.746870 0.311599 0.990567
O O5 0.916273 0.033605 0.250000
O O6 0.748088 0.040320 0.490169
O O7 0.989615 0.085992 0.469826
O O8 0.000000 0.000000 0.500000
O O9 0.053024 0.107138 0.750000
O O10 0.248066 0.116803 0.971903
O O11 0.413108 0.705040 0.250000
O O12 0.456803 0.750000 0.000000
O O13 0.534396 0.669245 0.009957
O O14 0.555881 0.872491 0.250000
O O15 0.490172 0.914872 0.000001
O O16 0.500000 0.500000 0.500000
O O17 0.432622 0.542082 0.250000
#
# Coordination Sequence:
#
# PCOD8233325 Si02
#       6
#     8   8   8   8   8   8
#     4  10  20  37  60  86 116 152 192 239 289 341
#     4  11  24  40  61  87 117 150 191 238 287 342
#     4  10  23  40  59  85 118 153 193 237 287 342
#     4  11  22  38  60  87 117 153 196 241 289 346
#     4  11  23  40  60  86 119 155 194 240 289 344
#     4  11  24  41  61  89 119 153 194 239 288 343
#
# _framework density 19.844004999999999
#
# number of rings (size 3 to 8) (size 9 to 14) (size 15 to 20)
#    0.000    1.333    0.000    6.500    0.000   12.667 
#    0.000    1.667    0.000    0.000    0.000    0.000 
#    0.000    0.000    0.000    0.000    0.000    0.000 
#
# Total GULP energy -595483.358502 kJ/mol
# GULP energy per Si atom -12405.903302 kJ/mol
# Density = 1.979884 g / cm^3
# Si number density = 19.844005 Si / 1000 Ang^3
#
#
#
# Elastic Constant Matrix: (Units=GPa)
#
#
# Indices 1 2 3 4 5 6 
#
# 1 152.0318 83.3545 66.9674 0.0000 0.0000 0.0000
# 2 83.3545 129.0456 52.8469 0.0000 0.0000 0.0000
# 3 66.9674 52.8469 111.4166 0.0000 0.0000 0.0000
# 4 0.0000 0.0000 0.0000 42.0039 0.0000 0.0000
# 5 0.0000 0.0000 0.0000 0.0000 31.6609 0.0000
# 6 0.0000 0.0000 0.0000 0.0000 0.0000 41.3169
#
#
#
# Elastic Compliance Matrix: (Units=1/GPa)
#
#
# Indices 1 2 3 4 5 6 
#
# 1 0.011603 -0.005757 -0.004243 0.000000 0.000000 0.000000
# 2 -0.005757 0.012474 -0.002456 0.000000 0.000000 0.000000
# 3 -0.004243 -0.002456 0.012691 0.000000 0.000000 0.000000
# 4 0.000000 0.000000 0.000000 0.023807 0.000000 0.000000
# 5 0.000000 0.000000 0.000000 0.000000 0.031585 0.000000
# 6 0.000000 0.000000 0.000000 0.000000 0.000000 0.024203
#
#
# Mechanical properties :
#
#
# Convention : Reuss Voigt Hill
#
# Bulk Modulus (GPa) = 84.35727 88.75906 86.55816
# Shear Modulus (GPa) = 34.42867 35.61803 35.02335
#
# Velocity S-wave (km/s) = 4.16981 4.24122 4.20567
# Velocity P-wave (km/s) = 8.11083 8.29515 8.20351
#
# Compressibility (1/GPa) = 0.01185434
#
# Stress axis : x y z
#
# Youngs Moduli (GPa) = 86.18354 80.16856 78.79664
#
# Poissons Ratio (x) = 0.46153 0.33437
# Poissons Ratio (y) = 0.49616 0.19354
# Poissons Ratio (z) = 0.36572 0.19691
#
# Static dielectric constant tensor:
#      x y z
#    x 3.369660 0.000000 0.000000 
#    y 0.000000 3.789790 0.000000 
#    z 0.000000 0.000000 3.687260 
# 
# 
# High freq. dielectric constant tensor:
#      x y z
#    x 1.781960 0.000000 0.000000 
#    y 0.000000 1.790540 0.000000 
#    z 0.000000 0.000000 1.787150 
# 
# From -- ./inp_files/2045.got.cif
#   From: 2010.03.12/outbox.cif.g09.slc.cpg/sg57_2_cif.got.tgz:2045.got - 2010.04.16 15:48:40.
