data_PCOD8233478
_publ_section_title
;
Structure prediction by ZEFSAII (Michael W. Deem and Ramdas Pophale) SiO2 
 PCOD8233478
Probable space group: P B C M
;
_chemical_formula_sum "Si O2"
_cell_formula_units_Z 40
_cell_length_a 10.513785
_cell_length_b 13.949569
_cell_length_c 14.436222
_cell_angle_alpha 90.000000
_cell_angle_beta 90.000000
_cell_angle_gamma 90.000000
_cell_volume 2117.256297
_symmetry_space_group_name_H-M "P B C M"
_symmetry_group_IT_number 57
_symmetry_cell_setting 'orthorhombic'
loop_
_space_group_symop_operation_xyz
x,y,z
-x,-y,1/2+z
x,1/2-y,-z
-x,1/2+y,1/2-z
-x,-y,-z
x,y,1/2-z
-x,1/2+y,z
x,1/2-y,1/2+z
loop_
_atom_site_type_symbol
_atom_site_label
_atom_site_fract_x
_atom_site_fract_y
_atom_site_fract_z
Si Si1 0.164283 0.492128 0.069702
Si Si2 0.870234 0.191199 0.750000
Si Si3 0.438464 0.628829 0.250000
Si Si4 0.052984 0.853686 0.048114
Si Si5 0.545892 0.980650 0.397835
Si Si6 0.569956 0.157293 0.750000
Si Si7 0.139678 0.905356 0.750000
O O1 0.304588 0.457285 0.096562
O O2 0.095662 0.534664 0.160945
O O3 0.084730 0.402168 0.029898
O O4 0.164007 0.578893 0.994980
O O5 0.927876 0.146217 0.657762
O O6 0.720436 0.170781 0.750000
O O7 0.920934 0.300361 0.750000
O O8 0.489032 0.576874 0.157897
O O9 0.490357 0.736592 0.250000
O O10 0.288340 0.617167 0.250000
O O11 0.059498 0.750000 0.000000
O O12 0.476833 0.893614 0.344371
O O13 0.500000 0.000000 0.500000
#
# Coordination Sequence:
#
# PCOD8233478 Si02
#       7
#     8   4   4   8   8   4   4
#     4  10  21  38  59  84 118 153 191 237 294 345
#     4  11  20  35  61  87 110 146 199 238 286 336
#     4   8  19  34  54  83 107 147 195 230 277 343
#     4  11  22  37  59  87 117 151 197 245 284 349
#     4  10  20  38  60  82 117 155 189 237 293 343
#     4  10  21  37  58  88 116 142 195 246 276 347
#     4   9  16  34  59  78 107 147 189 234 279 336
#
# _framework density 18.892375000000001
#
# number of rings (size 3 to 8) (size 9 to 14) (size 15 to 20)
#    0.000    2.000    2.000    2.400    0.000    0.800 
#    3.600    0.000    0.000    0.000    0.000    0.000 
#    0.000    0.000    0.000    0.000    0.000    0.000 
#
# Total GULP energy -495797.227581 kJ/mol
# GULP energy per Si atom -12394.930690 kJ/mol
# Density = 1.884937 g / cm^3
# Si number density = 18.892375 Si / 1000 Ang^3
#
#
#
# Elastic Constant Matrix: (Units=GPa)
#
#
# Indices 1 2 3 4 5 6 
#
# 1 61.2192 36.4233 16.9599 0.0000 0.0000 0.0000
# 2 36.4233 128.6474 46.5486 0.0000 0.0000 0.0000
# 3 16.9599 46.5486 147.0735 0.0000 0.0000 0.0000
# 4 0.0000 0.0000 0.0000 19.8327 0.0000 0.0000
# 5 0.0000 0.0000 0.0000 0.0000 28.2017 0.0000
# 6 0.0000 0.0000 0.0000 0.0000 0.0000 22.6575
#
#
#
# Elastic Compliance Matrix: (Units=1/GPa)
#
#
# Indices 1 2 3 4 5 6 
#
# 1 0.019686 -0.005367 -0.000572 0.000000 0.000000 0.000000
# 2 -0.005367 0.010242 -0.002623 0.000000 0.000000 0.000000
# 3 -0.000572 -0.002623 0.007695 0.000000 0.000000 0.000000
# 4 0.000000 0.000000 0.000000 0.050422 0.000000 0.000000
# 5 0.000000 0.000000 0.000000 0.000000 0.035459 0.000000
# 6 0.000000 0.000000 0.000000 0.000000 0.000000 0.044135
#
#
# Mechanical properties :
#
#
# Convention : Reuss Voigt Hill
#
# Bulk Modulus (GPa) = 48.77777 59.64487 54.21132
# Shear Modulus (GPa) = 26.09675 29.93894 28.01784
#
# Velocity S-wave (km/s) = 3.72067 3.98516 3.85518
# Velocity P-wave (km/s) = 6.65828 7.26738 6.96948
#
# Compressibility (1/GPa) = 0.02050114
#
# Stress axis : x y z
#
# Youngs Moduli (GPa) = 50.79703 97.64091 129.94998
#
# Poissons Ratio (x) = 0.52403 0.07427
# Poissons Ratio (y) = 0.27262 0.34080
# Poissons Ratio (z) = 0.02903 0.25607
#
# Static dielectric constant tensor:
#      x y z
#    x 3.182150 0.000000 0.000000 
#    y 0.000000 3.658090 0.000000 
#    z 0.000000 0.000000 3.635440 
# 
# 
# High freq. dielectric constant tensor:
#      x y z
#    x 1.708260 0.000000 0.000000 
#    y 0.000000 1.737790 0.000000 
#    z 0.000000 0.000000 1.752580 
# 
# From -- ./inp_files/12783.got.cif
#   From: 2010.03.12/outbox.cif.g09.slc.cpg/sg57_7_cif.got.tgz:12783.got - 2010.04.16 15:48:40.
