data_PCOD8233659
_publ_section_title
;
Structure prediction by ZEFSAII (Michael W. Deem and Ramdas Pophale) SiO2 
 PCOD8233659
Probable space group: P B C M
;
_chemical_formula_sum "Si O2"
_cell_formula_units_Z 40
_cell_length_a 8.797306
_cell_length_b 9.677726
_cell_length_c 23.899016
_cell_angle_alpha 90.000000
_cell_angle_beta 90.000000
_cell_angle_gamma 90.000000
_cell_volume 2034.712441
_symmetry_space_group_name_H-M "P B C M"
_symmetry_group_IT_number 57
_symmetry_cell_setting 'orthorhombic'
loop_
_space_group_symop_operation_xyz
x,y,z
-x,-y,1/2+z
x,1/2-y,-z
-x,1/2+y,1/2-z
-x,-y,-z
x,y,1/2-z
-x,1/2+y,z
x,1/2-y,1/2+z
loop_
_atom_site_type_symbol
_atom_site_label
_atom_site_fract_x
_atom_site_fract_y
_atom_site_fract_z
Si Si1 0.375638 0.954861 0.143992
Si Si2 0.140249 0.129691 0.542332
Si Si3 0.668344 0.725117 0.853405
Si Si4 0.879543 0.756439 0.750000
Si Si5 0.197728 0.610092 0.534019
Si Si6 0.168217 0.930359 0.250000
O O1 0.536204 0.884800 0.156228
O O2 0.315047 0.897895 0.084973
O O3 0.397831 0.120103 0.142300
O O4 0.266881 0.910204 0.194379
O O5 0.105604 0.250000 0.500000
O O6 0.240483 0.187338 0.591597
O O7 0.970168 0.083665 0.560970
O O8 0.231784 0.007658 0.511901
O O9 0.785600 0.708854 0.803396
O O10 0.910011 0.919928 0.750000
O O11 0.042735 0.687179 0.750000
O O12 0.221855 0.750000 0.500000
#
# Coordination Sequence:
#
# PCOD8233659 Si02
#       6
#     8   8   8   4   8   4
#     4  11  24  41  60  91 124 160 199 247 299 362
#     4  10  20  40  61  86 122 159 200 254 293 350
#     4  11  24  40  62  88 126 159 199 247 303 356
#     4  10  23  44  66  92 118 156 199 252 298 358
#     4  10  22  38  63  89 120 160 208 248 301 352
#     4  10  23  44  68  90 120 152 203 250 298 358
#
# _framework density 19.658797
#
# number of rings (size 3 to 8) (size 9 to 14) (size 15 to 20)
#    0.000    1.600    2.000    1.800    2.800    3.200 
#    0.000    0.000    0.000    0.000    0.000    0.000 
#    0.000    0.000    0.000    0.000    0.000    0.000 
#
# Total GULP energy -496080.112706 kJ/mol
# GULP energy per Si atom -12402.002818 kJ/mol
# Density = 1.961405 g / cm^3
# Si number density = 19.658797 Si / 1000 Ang^3
#
#
#
# Elastic Constant Matrix: (Units=GPa)
#
#
# Indices 1 2 3 4 5 6 
#
# 1 74.1198 23.1702 27.2616 0.0000 0.0000 0.0000
# 2 23.1702 73.8228 24.6548 0.0000 0.0000 0.0000
# 3 27.2616 24.6548 88.1914 0.0000 0.0000 0.0000
# 4 0.0000 0.0000 0.0000 34.4431 0.0000 0.0000
# 5 0.0000 0.0000 0.0000 0.0000 18.2037 0.0000
# 6 0.0000 0.0000 0.0000 0.0000 0.0000 41.2810
#
#
#
# Elastic Compliance Matrix: (Units=1/GPa)
#
#
# Indices 1 2 3 4 5 6 
#
# 1 0.016108 -0.003742 -0.003933 0.000000 0.000000 0.000000
# 2 -0.003742 0.015810 -0.003263 0.000000 0.000000 0.000000
# 3 -0.003933 -0.003263 0.013467 0.000000 0.000000 0.000000
# 4 0.000000 0.000000 0.000000 0.029033 0.000000 0.000000
# 5 0.000000 0.000000 0.000000 0.000000 0.054934 0.000000
# 6 0.000000 0.000000 0.000000 0.000000 0.000000 0.024224
#
#
# Mechanical properties :
#
#
# Convention : Reuss Voigt Hill
#
# Bulk Modulus (GPa) = 42.53783 42.92302 42.73043
# Shear Modulus (GPa) = 27.27918 29.52206 28.40062
#
# Velocity S-wave (km/s) = 3.72913 3.87941 3.80501
# Velocity P-wave (km/s) = 6.34247 6.47672 6.40995
#
# Compressibility (1/GPa) = 0.02350848
#
# Stress axis : x y z
#
# Youngs Moduli (GPa) = 62.08046 63.25001 74.25541
#
# Poissons Ratio (x) = 0.23669 0.29206
# Poissons Ratio (y) = 0.23232 0.24231
# Poissons Ratio (z) = 0.24417 0.20639
#
# Static dielectric constant tensor:
#      x y z
#    x 3.511690 0.000000 0.000000 
#    y 0.000000 3.719260 0.000000 
#    z 0.000000 0.000000 3.641070 
# 
# 
# High freq. dielectric constant tensor:
#      x y z
#    x 1.763010 0.000000 0.000000 
#    y 0.000000 1.778920 0.000000 
#    z 0.000000 0.000000 1.778430 
# 
# From -- ./inp_files/26527.got.cif
#   From: 2010.03.12/outbox.cif.g09.slc.cpg/sg57_14_cif.got.tgz:26527.got - 2010.04.16 15:48:40.
