data_PCOD8233833
_publ_section_title
;
Structure prediction by ZEFSAII (Michael W. Deem and Ramdas Pophale) SiO2 
 PCOD8233833
Probable space group: P B C M
;
_chemical_formula_sum "Si O2"
_cell_formula_units_Z 64
_cell_length_a 16.663024
_cell_length_b 21.959970
_cell_length_c 9.059923
_cell_angle_alpha 90.000000
_cell_angle_beta 90.000000
_cell_angle_gamma 90.000000
_cell_volume 3315.202559
_symmetry_space_group_name_H-M "P B C M"
_symmetry_group_IT_number 57
_symmetry_cell_setting 'orthorhombic'
loop_
_space_group_symop_operation_xyz
x,y,z
-x,-y,1/2+z
x,1/2-y,-z
-x,1/2+y,1/2-z
-x,-y,-z
x,y,1/2-z
-x,1/2+y,z
x,1/2-y,1/2+z
loop_
_atom_site_type_symbol
_atom_site_label
_atom_site_fract_x
_atom_site_fract_y
_atom_site_fract_z
Si Si1 0.056855 0.813826 0.577218
Si Si2 0.699741 0.690788 0.081190
Si Si3 0.380026 0.621055 0.921928
Si Si4 0.211418 0.426484 0.575068
Si Si5 0.464299 0.369941 0.579422
Si Si6 0.368278 0.483383 0.921773
Si Si7 0.242312 0.687909 0.423328
Si Si8 0.967373 0.561337 0.426248
O O1 0.028993 0.750000 0.500000
O O2 0.042782 0.803527 0.750000
O O3 0.149990 0.826905 0.540168
O O4 0.010098 0.874945 0.523047
O O5 0.720739 0.699582 0.250000
O O6 0.753429 0.636878 0.015405
O O7 0.605029 0.679810 0.058385
O O8 0.729136 0.750000 0.000000
O O9 0.369313 0.636365 0.750000
O O10 0.398843 0.550477 0.953009
O O11 0.458599 0.654091 0.987668
O O12 0.298421 0.636261 0.007237
O O13 0.203572 0.426389 0.750000
O O14 0.276224 0.476850 0.519233
O O15 0.123181 0.436827 0.510916
O O16 0.490211 0.376494 0.750000
O O17 0.430507 0.434028 0.511856
O O18 0.363718 0.466288 0.750000
O O19 0.269607 0.750000 0.500000
O O20 0.257823 0.692859 0.250000
O O21 0.974345 0.554974 0.250000
O O22 0.000000 0.500000 0.500000
#
# Coordination Sequence:
#
# PCOD8233833 Si02
#       8
#     8   8   8   8   8   8   8   8
#     4   9  20  38  58  81 110 146 188 230 275 331
#     4   9  18  33  54  76 101 137 177 215 259 313
#     4  11  21  31  51  80 104 131 175 222 265 319
#     4   8  16  33  53  75 105 141 174 208 256 317
#     4   9  18  34  51  70 102 141 178 217 264 313
#     4   8  16  31  51  74 101 136 179 216 254 314
#     4  10  21  38  55  73 102 137 175 220 266 316
#     4  10  21  36  57  86 118 148 183 228 277 331
#
# _framework density 19.305005000000001
#
# number of rings (size 3 to 8) (size 9 to 14) (size 15 to 20)
#    0.000    2.750    0.000    2.625    1.750    2.500 
#    0.000    2.500    0.000    2.250    0.000    0.000 
#    0.000    0.000    0.000    0.000    0.000    0.000 
#
# Total GULP energy -793113.021831 kJ/mol
# GULP energy per Si atom -12392.390966 kJ/mol
# Density = 1.926107 g / cm^3
# Si number density = 19.305005 Si / 1000 Ang^3
#
#
#
# Elastic Constant Matrix: (Units=GPa)
#
#
# Indices 1 2 3 4 5 6 
#
# 1 116.8596 33.4605 30.9389 0.0000 0.0000 0.0000
# 2 33.4605 80.2008 29.2311 0.0000 0.0000 0.0000
# 3 30.9389 29.2311 53.6278 0.0000 0.0000 0.0000
# 4 0.0000 0.0000 0.0000 30.6391 0.0000 0.0000
# 5 0.0000 0.0000 0.0000 0.0000 20.7694 0.0000
# 6 0.0000 0.0000 0.0000 0.0000 0.0000 20.4566
#
#
#
# Elastic Compliance Matrix: (Units=1/GPa)
#
#
# Indices 1 2 3 4 5 6 
#
# 1 0.010557 -0.002726 -0.004604 0.000000 0.000000 0.000000
# 2 -0.002726 0.016264 -0.007292 0.000000 0.000000 0.000000
# 3 -0.004604 -0.007292 0.025278 0.000000 0.000000 0.000000
# 4 0.000000 0.000000 0.000000 0.032638 0.000000 0.000000
# 5 0.000000 0.000000 0.000000 0.000000 0.048148 0.000000
# 6 0.000000 0.000000 0.000000 0.000000 0.000000 0.048884
#
#
# Mechanical properties :
#
#
# Convention : Reuss Voigt Hill
#
# Bulk Modulus (GPa) = 43.75750 48.66103 46.20926
# Shear Modulus (GPa) = 22.86941 24.84353 23.85647
#
# Velocity S-wave (km/s) = 3.44559 3.59122 3.51916
# Velocity P-wave (km/s) = 6.20847 6.51590 6.36404
#
# Compressibility (1/GPa) = 0.02285322
#
# Stress axis : x y z
#
# Youngs Moduli (GPa) = 94.72443 61.48574 39.55967
#
# Poissons Ratio (x) = 0.16762 0.18215
# Poissons Ratio (y) = 0.25824 0.28848
# Poissons Ratio (z) = 0.43616 0.44837
#
# Static dielectric constant tensor:
#      x y z
#    x 3.684620 0.000000 0.000000 
#    y 0.000000 3.556110 0.000000 
#    z 0.000000 0.000000 3.207740 
# 
# 
# High freq. dielectric constant tensor:
#      x y z
#    x 1.760170 0.000000 0.000000 
#    y 0.000000 1.749740 0.000000 
#    z 0.000000 0.000000 1.720390 
# 
# From -- ./inp_files/5709.got.cif
#   From: 2010.03.12/outbox.cif.g09.slc.cpg/sg57_3_cif.got.tgz:5709.got - 2010.04.16 15:48:40.
