data_PCOD8233743
_publ_section_title
;
Structure prediction by ZEFSAII (Michael W. Deem and Ramdas Pophale) SiO2 
 PCOD8233743
Probable space group: P B C M
;
_chemical_formula_sum "Si O2"
_cell_formula_units_Z 64
_cell_length_a 9.980379
_cell_length_b 17.955695
_cell_length_c 19.860912
_cell_angle_alpha 90.000000
_cell_angle_beta 90.000000
_cell_angle_gamma 90.000000
_cell_volume 3559.167611
_symmetry_space_group_name_H-M "P B C M"
_symmetry_group_IT_number 57
_symmetry_cell_setting 'orthorhombic'
loop_
_space_group_symop_operation_xyz
x,y,z
-x,-y,1/2+z
x,1/2-y,-z
-x,1/2+y,1/2-z
-x,-y,-z
x,y,1/2-z
-x,1/2+y,z
x,1/2-y,1/2+z
loop_
_atom_site_type_symbol
_atom_site_label
_atom_site_fract_x
_atom_site_fract_y
_atom_site_fract_z
Si Si1 0.867399 0.976725 0.538436
Si Si2 0.976800 0.523873 0.322968
Si Si3 0.379855 0.963866 0.538332
Si Si4 0.522388 0.197589 0.436389
Si Si5 0.019338 0.200492 0.324937
Si Si6 0.721550 0.025774 0.176677
Si Si7 0.278993 0.703118 0.324824
Si Si8 0.783933 0.808799 0.940371
O O1 0.881161 0.002887 0.616540
O O2 0.840038 0.888151 0.533926
O O3 0.751405 0.024430 0.505539
O O4 0.000000 0.000000 0.500000
O O5 0.921650 0.495805 0.250000
O O6 0.982334 0.612182 0.323045
O O7 0.128197 0.494423 0.333402
O O8 0.401677 0.876731 0.542980
O O9 0.500000 0.000000 0.500000
O O10 0.366512 0.001721 0.612922
O O11 0.525229 0.250000 0.500000
O O12 0.606750 0.234534 0.375129
O O13 0.369049 0.181483 0.414614
O O14 0.055970 0.230914 0.250000
O O15 0.129498 0.226094 0.379215
O O16 0.870924 0.229694 0.346184
O O17 0.665692 0.998246 0.250000
O O18 0.719751 0.114360 0.175698
O O19 0.312129 0.733194 0.250000
O O20 0.792879 0.750000 0.000000
#
# Coordination Sequence:
#
# PCOD8233743 Si02
#       8
#     8   8   8   8   8   8   8   8
#     4  11  20  34  54  80 104 138 174 213 268 311
#     4   8  14  27  48  73  99 128 167 211 252 298
#     4  11  20  34  52  78 107 135 174 215 257 308
#     4  10  21  35  51  76 106 140 174 212 258 307
#     4   8  15  29  50  75 101 129 169 218 257 299
#     4   8  14  27  48  72  98 131 169 207 248 301
#     4   8  15  29  50  75 101 131 171 213 255 303
#     4  10  21  35  51  77 108 137 172 213 259 309
#
# _framework density 17.981732000000001
#
# number of rings (size 3 to 8) (size 9 to 14) (size 15 to 20)
#    0.000    2.750    2.500    1.500    1.750    1.000 
#    0.000    0.625    0.000    3.000    0.000    0.000 
#    0.000    0.000    0.000    0.000    0.000    0.000 
#
# Total GULP energy -792974.115439 kJ/mol
# GULP energy per Si atom -12390.220554 kJ/mol
# Density = 1.794081 g / cm^3
# Si number density = 17.981732 Si / 1000 Ang^3
#
#
#
# Elastic Constant Matrix: (Units=GPa)
#
#
# Indices 1 2 3 4 5 6 
#
# 1 139.3496 26.7897 90.5892 0.0000 0.0000 0.0000
# 2 26.7897 30.0584 25.8009 0.0000 0.0000 0.0000
# 3 90.5892 25.8009 164.2302 0.0000 0.0000 0.0000
# 4 0.0000 0.0000 0.0000 17.1747 0.0000 0.0000
# 5 0.0000 0.0000 0.0000 0.0000 39.2096 0.0000
# 6 0.0000 0.0000 0.0000 0.0000 0.0000 19.3519
#
#
#
# Elastic Compliance Matrix: (Units=1/GPa)
#
#
# Indices 1 2 3 4 5 6 
#
# 1 0.012002 -0.005796 -0.005710 0.000000 0.000000 0.000000
# 2 -0.005796 0.041253 -0.003284 0.000000 0.000000 0.000000
# 3 -0.005710 -0.003284 0.009755 0.000000 0.000000 0.000000
# 4 0.000000 0.000000 0.000000 0.058225 0.000000 0.000000
# 5 0.000000 0.000000 0.000000 0.000000 0.025504 0.000000
# 6 0.000000 0.000000 0.000000 0.000000 0.000000 0.051674
#
#
# Mechanical properties :
#
#
# Convention : Reuss Voigt Hill
#
# Bulk Modulus (GPa) = 29.91295 68.88863 49.40079
# Shear Modulus (GPa) = 20.90852 27.84445 24.37649
#
# Velocity S-wave (km/s) = 3.41363 3.93935 3.68588
# Velocity P-wave (km/s) = 5.67525 7.68666 6.75623
#
# Compressibility (1/GPa) = 0.03343034
#
# Stress axis : x y z
#
# Youngs Moduli (GPa) = 83.31636 24.24061 102.51652
#
# Poissons Ratio (x) = 0.14050 0.58537
# Poissons Ratio (y) = 0.48291 0.33665
# Poissons Ratio (z) = 0.47573 0.07960
#
# Static dielectric constant tensor:
#      x y z
#    x 3.645820 0.000000 0.000000 
#    y 0.000000 2.761560 0.000000 
#    z 0.000000 0.000000 4.113670 
# 
# 
# High freq. dielectric constant tensor:
#      x y z
#    x 1.696390 0.000000 0.000000 
#    y 0.000000 1.638580 0.000000 
#    z 0.000000 0.000000 1.715280 
# 
# From -- ./inp_files/24607.got.cif
#   From: 2010.03.12/outbox.cif.g09.slc.cpg/sg57_13_cif.got.tgz:24607.got - 2010.04.16 15:48:40.
