data_PCOD8233050
_publ_section_title
;
Structure prediction by ZEFSAII (Michael W. Deem and Ramdas Pophale) SiO2 
 PCOD8233050
Probable space group: P B C M
;
_chemical_formula_sum "Si O2"
_cell_formula_units_Z 48
_cell_length_a 9.462585
_cell_length_b 30.589596
_cell_length_c 8.824680
_cell_angle_alpha 90.000000
_cell_angle_beta 90.000000
_cell_angle_gamma 90.000000
_cell_volume 2554.362330
_symmetry_space_group_name_H-M "P B C M"
_symmetry_group_IT_number 57
_symmetry_cell_setting 'orthorhombic'
loop_
_space_group_symop_operation_xyz
x,y,z
-x,-y,1/2+z
x,1/2-y,-z
-x,1/2+y,1/2-z
-x,-y,-z
x,y,1/2-z
-x,1/2+y,z
x,1/2-y,1/2+z
loop_
_atom_site_type_symbol
_atom_site_label
_atom_site_fract_x
_atom_site_fract_y
_atom_site_fract_z
Si Si1 0.812980 0.702643 0.071159
Si Si2 0.995399 0.868766 0.424642
Si Si3 0.308235 0.603729 0.923130
Si Si4 0.351668 0.987265 0.571476
Si Si5 0.796003 0.564427 0.075352
Si Si6 0.568809 0.638208 0.077535
O O1 0.833023 0.705369 0.250000
O O2 0.666306 0.678863 0.028289
O O3 0.811739 0.750000 0.000000
O O4 0.943578 0.675310 0.005182
O O5 0.949139 0.867702 0.250000
O O6 0.163281 0.870176 0.444447
O O7 0.929239 0.911734 0.500764
O O8 0.328875 0.588485 0.750000
O O9 0.310259 0.561970 0.031559
O O10 0.433288 0.636948 0.968975
O O11 0.363511 0.992464 0.750000
O O12 0.500000 0.000000 0.500000
O O13 0.228683 0.018654 0.508599
O O14 0.832101 0.555532 0.250000
O O15 0.655617 0.593457 0.058485
O O16 0.517756 0.643631 0.250000
#
# Coordination Sequence:
#
# PCOD8233050 Si02
#       6
#     8   8   8   8   8   8
#     4  10  21  39  64  90 114 144 185 231 282 346
#     4  10  22  39  58  84 117 154 192 233 287 345
#     4  11  23  37  56  83 116 153 193 236 285 339
#     4  12  23  35  55  81 113 153 197 244 288 334
#     4  10  20  36  57  82 111 150 197 240 282 334
#     4   9  19  35  57  83 112 145 184 231 282 335
#
# _framework density 18.791381999999999
#
# number of rings (size 3 to 8) (size 9 to 14) (size 15 to 20)
#    0.000    1.667    1.667    4.500    0.000    6.667 
#    0.000    0.833    0.000    2.000    0.000    0.000 
#    0.000    0.000    0.000    0.000    0.000    0.000 
#
# Total GULP energy -595444.220861 kJ/mol
# GULP energy per Si atom -12405.087935 kJ/mol
# Density = 1.874861 g / cm^3
# Si number density = 18.791382 Si / 1000 Ang^3
#
#
#
# Elastic Constant Matrix: (Units=GPa)
#
#
# Indices 1 2 3 4 5 6 
#
# 1 100.7914 41.1507 58.8289 0.0000 0.0000 0.0000
# 2 41.1507 114.5610 52.5279 0.0000 0.0000 0.0000
# 3 58.8289 52.5279 140.4778 0.0000 0.0000 0.0000
# 4 0.0000 0.0000 0.0000 33.1255 0.0000 0.0000
# 5 0.0000 0.0000 0.0000 0.0000 32.6276 0.0000
# 6 0.0000 0.0000 0.0000 0.0000 0.0000 19.3227
#
#
#
# Elastic Compliance Matrix: (Units=1/GPa)
#
#
# Indices 1 2 3 4 5 6 
#
# 1 0.013833 -0.002791 -0.004749 0.000000 0.000000 0.000000
# 2 -0.002791 0.011098 -0.002981 0.000000 0.000000 0.000000
# 3 -0.004749 -0.002981 0.010222 0.000000 0.000000 0.000000
# 4 0.000000 0.000000 0.000000 0.030188 0.000000 0.000000
# 5 0.000000 0.000000 0.000000 0.000000 0.030649 0.000000
# 6 0.000000 0.000000 0.000000 0.000000 0.000000 0.051753
#
#
# Mechanical properties :
#
#
# Convention : Reuss Voigt Hill
#
# Bulk Modulus (GPa) = 70.86921 73.42726 72.14823
# Shear Modulus (GPa) = 28.82009 30.57001 29.69505
#
# Velocity S-wave (km/s) = 3.92048 4.03775 3.97955
# Velocity P-wave (km/s) = 7.63473 7.80370 7.71968
#
# Compressibility (1/GPa) = 0.01411050
#
# Stress axis : x y z
#
# Youngs Moduli (GPa) = 72.29036 90.10251 97.82705
#
# Poissons Ratio (x) = 0.25150 0.46461
# Poissons Ratio (y) = 0.20178 0.29163
# Poissons Ratio (z) = 0.34333 0.26860
#
# Static dielectric constant tensor:
#      x y z
#    x 3.405160 0.000000 0.000000 
#    y 0.000000 3.387250 0.000000 
#    z 0.000000 0.000000 3.629990 
# 
# 
# High freq. dielectric constant tensor:
#      x y z
#    x 1.725470 0.000000 0.000000 
#    y 0.000000 1.716710 0.000000 
#    z 0.000000 0.000000 1.746640 
# 
# From -- ./inp_files/2080.got.cif
#   From: 2010.03.12/outbox.cif.g09.slc.cpg/sg57_2_cif.got.tgz:2080.got - 2010.04.16 15:48:40.
