data_PCOD8233872
_publ_section_title
;
Structure prediction by ZEFSAII (Michael W. Deem and Ramdas Pophale) SiO2 
 PCOD8233872
Probable space group: P B C M
;
_chemical_formula_sum "Si O2"
_cell_formula_units_Z 64
_cell_length_a 22.977447
_cell_length_b 9.168278
_cell_length_c 14.265337
_cell_angle_alpha 90.000000
_cell_angle_beta 90.000000
_cell_angle_gamma 90.000000
_cell_volume 3005.187559
_symmetry_space_group_name_H-M "P B C M"
_symmetry_group_IT_number 57
_symmetry_cell_setting 'orthorhombic'
loop_
_space_group_symop_operation_xyz
x,y,z
-x,-y,1/2+z
x,1/2-y,-z
-x,1/2+y,1/2-z
-x,-y,-z
x,y,1/2-z
-x,1/2+y,z
x,1/2-y,1/2+z
loop_
_atom_site_type_symbol
_atom_site_label
_atom_site_fract_x
_atom_site_fract_y
_atom_site_fract_z
Si Si1 0.314285 0.903015 0.532435
Si Si2 0.535699 0.007927 0.644584
Si Si3 0.570069 0.177670 0.137725
Si Si4 0.356934 0.349803 0.586536
Si Si5 0.256586 0.142177 0.853323
Si Si6 0.921760 0.402289 0.522146
Si Si7 0.127739 0.351024 0.357025
Si Si8 0.964008 0.598108 0.138332
O O1 0.286109 0.750000 0.500000
O O2 0.367680 0.874243 0.602205
O O3 0.335138 0.990136 0.441498
O O4 0.266051 0.003575 0.580691
O O5 0.519422 0.048596 0.750000
O O6 0.477741 0.937896 0.598449
O O7 0.585761 0.882528 0.647190
O O8 0.555122 0.160585 0.595726
O O9 0.571518 0.180983 0.250000
O O10 0.376401 0.250000 0.500000
O O11 0.305233 0.267555 0.640161
O O12 0.258167 0.076853 0.750000
O O13 0.192974 0.211568 0.874397
O O14 0.889009 0.250000 0.500000
O O15 0.879002 0.512994 0.573723
O O16 0.941727 0.459672 0.420106
O O17 0.974230 0.361511 0.593379
O O18 0.119683 0.403326 0.250000
O O19 0.080115 0.230287 0.381233
O O20 0.968746 0.561929 0.250000
#
# Coordination Sequence:
#
# PCOD8233872 Si02
#       8
#     8   8   8   8   8   8   8   8
#     4  11  22  39  58  87 121 151 193 246 307 358
#     4  10  21  37  56  82 113 151 197 242 294 360
#     4  10  22  37  57  83 115 156 196 240 298 365
#     4  10  22  37  58  85 113 152 194 245 299 355
#     4  10  23  43  66  87 114 158 205 248 295 357
#     4  11  22  35  59  94 129 165 201 253 314 356
#     4  10  22  42  65  89 120 163 212 254 302 367
#     4  10  21  38  61  90 127 169 212 252 296 362
#
# _framework density 21.296506999999998
#
# number of rings (size 3 to 8) (size 9 to 14) (size 15 to 20)
#    0.000    1.750    1.250    3.000    3.500    6.500 
#    0.000    0.000    0.000    3.000    0.000    0.000 
#    0.000    0.000    0.000    0.000    0.000    0.000 
#
# Total GULP energy -793273.407904 kJ/mol
# GULP energy per Si atom -12394.896999 kJ/mol
# Density = 2.124804 g / cm^3
# Si number density = 21.296507 Si / 1000 Ang^3
#
#
#
# Elastic Constant Matrix: (Units=GPa)
#
#
# Indices 1 2 3 4 5 6 
#
# 1 86.0787 17.8002 17.3864 0.0000 0.0000 0.0000
# 2 17.8002 104.7220 25.1108 0.0000 0.0000 0.0000
# 3 17.3864 25.1108 75.0146 0.0000 0.0000 0.0000
# 4 0.0000 0.0000 0.0000 26.2234 0.0000 0.0000
# 5 0.0000 0.0000 0.0000 0.0000 2.6595 0.0000
# 6 0.0000 0.0000 0.0000 0.0000 0.0000 30.5291
#
#
#
# Elastic Compliance Matrix: (Units=1/GPa)
#
#
# Indices 1 2 3 4 5 6 
#
# 1 0.012413 -0.001544 -0.002360 0.000000 0.000000 0.000000
# 2 -0.001544 0.010575 -0.003182 0.000000 0.000000 0.000000
# 3 -0.002360 -0.003182 0.014943 0.000000 0.000000 0.000000
# 4 0.000000 0.000000 0.000000 0.038134 0.000000 0.000000
# 5 0.000000 0.000000 0.000000 0.000000 0.376008 0.000000
# 6 0.000000 0.000000 0.000000 0.000000 0.000000 0.032756
#
#
# Mechanical properties :
#
#
# Convention : Reuss Voigt Hill
#
# Bulk Modulus (GPa) = 42.09032 42.93444 42.51238
# Shear Modulus (GPa) = 9.86350 25.58361 17.72355
#
# Velocity S-wave (km/s) = 2.15443 3.46975 2.88797
# Velocity P-wave (km/s) = 5.09859 6.02132 5.57906
#
# Compressibility (1/GPa) = 0.02375843
#
# Stress axis : x y z
#
# Youngs Moduli (GPa) = 80.55890 94.56705 66.92143
#
# Poissons Ratio (x) = 0.14601 0.15795
# Poissons Ratio (y) = 0.12438 0.21294
# Poissons Ratio (z) = 0.19014 0.30090
#
# Static dielectric constant tensor:
#      x y z
#    x 3.793640 0.000000 0.000000 
#    y 0.000000 4.034340 0.000000 
#    z 0.000000 0.000000 3.875470 
# 
# 
# High freq. dielectric constant tensor:
#      x y z
#    x 1.822560 0.000000 0.000000 
#    y 0.000000 1.837950 0.000000 
#    z 0.000000 0.000000 1.840690 
# 
# From -- ./inp_files/19496.got.cif
#   From: 2010.03.12/outbox.cif.g09.slc.cpg/sg57_10_cif.got.tgz:19496.got - 2010.04.16 15:48:40.
