data_PCOD8233536
_publ_section_title
;
Structure prediction by ZEFSAII (Michael W. Deem and Ramdas Pophale) SiO2 
 PCOD8233536
Probable space group: P B C M
;
_chemical_formula_sum "Si O2"
_cell_formula_units_Z 48
_cell_length_a 29.055139
_cell_length_b 8.905831
_cell_length_c 9.237165
_cell_angle_alpha 90.000000
_cell_angle_beta 90.000000
_cell_angle_gamma 90.000000
_cell_volume 2390.210271
_symmetry_space_group_name_H-M "P B C M"
_symmetry_group_IT_number 57
_symmetry_cell_setting 'orthorhombic'
loop_
_space_group_symop_operation_xyz
x,y,z
-x,-y,1/2+z
x,1/2-y,-z
-x,1/2+y,1/2-z
-x,-y,-z
x,y,1/2-z
-x,1/2+y,z
x,1/2-y,1/2+z
loop_
_atom_site_type_symbol
_atom_site_label
_atom_site_fract_x
_atom_site_fract_y
_atom_site_fract_z
Si Si1 0.221663 0.598912 0.585150
Si Si2 0.401961 0.429447 0.520524
Si Si3 0.535757 0.423549 0.250000
Si Si4 0.041191 0.410065 0.427427
Si Si5 0.560747 0.070714 0.250000
Si Si6 0.881606 0.408588 0.079969
Si Si7 0.302334 0.102226 0.088570
O O1 0.223037 0.750000 0.500000
O O2 0.234297 0.635432 0.750000
O O3 0.170579 0.528567 0.572604
O O4 0.261157 0.493618 0.517129
O O5 0.407703 0.250000 0.500000
O O6 0.443788 0.491582 0.613430
O O7 0.405219 0.528784 0.378452
O O8 0.352550 0.475360 0.588762
O O9 0.545113 0.244565 0.250000
O O10 0.481482 0.453384 0.250000
O O11 0.036518 0.250000 0.500000
O O12 0.039038 0.407136 0.250000
O O13 0.088904 0.477286 0.484664
O O14 0.000000 0.500000 0.500000
O O15 0.897343 0.396515 0.250000
O O16 0.886369 0.250000 0.000000
O O17 0.287201 0.143645 0.250000
O O18 0.308573 0.250000 0.000000
#
# Coordination Sequence:
#
# PCOD8233536 Si02
#       7
#     8   8   4   8   4   8   8
#     4   9  20  38  60  90 124 161 203 252 301 360
#     4  11  23  42  64  88 123 160 202 248 304 364
#     4  12  24  44  62  94 122 158 198 252 295 370
#     4  12  25  42  63  90 124 163 210 259 315 374
#     4  12  26  40  66  90 122 158 202 244 309 356
#     4  10  20  38  62  89 125 165 208 255 311 366
#     4  10  22  40  62  88 120 157 200 246 300 358
#
# _framework density 20.081914999999999
#
# number of rings (size 3 to 8) (size 9 to 14) (size 15 to 20)
#    0.000    1.333    0.833    5.000    3.500    3.333 
#    0.000    1.667    0.000    0.000    0.000    0.000 
#    0.000    0.000    0.000    0.000    0.000    0.000 
#
# Total GULP energy -594845.373281 kJ/mol
# GULP energy per Si atom -12392.611943 kJ/mol
# Density = 2.003621 g / cm^3
# Si number density = 20.081915 Si / 1000 Ang^3
#
#
#
# Elastic Constant Matrix: (Units=GPa)
#
#
# Indices 1 2 3 4 5 6 
#
# 1 109.6722 44.4250 34.8363 0.0000 0.0000 0.0000
# 2 44.4250 108.6463 34.0982 0.0000 0.0000 0.0000
# 3 34.8363 34.0982 128.0739 0.0000 0.0000 0.0000
# 4 0.0000 0.0000 0.0000 32.1426 0.0000 0.0000
# 5 0.0000 0.0000 0.0000 0.0000 35.1996 0.0000
# 6 0.0000 0.0000 0.0000 0.0000 0.0000 33.2358
#
#
#
# Elastic Compliance Matrix: (Units=1/GPa)
#
#
# Indices 1 2 3 4 5 6 
#
# 1 0.011391 -0.004021 -0.002028 0.000000 0.000000 0.000000
# 2 -0.004021 0.011463 -0.001958 0.000000 0.000000 0.000000
# 3 -0.002028 -0.001958 0.008881 0.000000 0.000000 0.000000
# 4 0.000000 0.000000 0.000000 0.031111 0.000000 0.000000
# 5 0.000000 0.000000 0.000000 0.000000 0.028409 0.000000
# 6 0.000000 0.000000 0.000000 0.000000 0.000000 0.030088
#
#
# Mechanical properties :
#
#
# Convention : Reuss Voigt Hill
#
# Bulk Modulus (GPa) = 63.61085 63.67905 63.64495
# Shear Modulus (GPa) = 35.06350 35.65113 35.35732
#
# Velocity S-wave (km/s) = 4.18308 4.21798 4.20057
# Velocity P-wave (km/s) = 7.42127 7.44986 7.43558
#
# Compressibility (1/GPa) = 0.01572059
#
# Stress axis : x y z
#
# Youngs Moduli (GPa) = 87.78765 87.23689 112.60174
#
# Poissons Ratio (x) = 0.35081 0.22833
# Poissons Ratio (y) = 0.35303 0.22048
# Poissons Ratio (z) = 0.17801 0.17082
#
# Static dielectric constant tensor:
#      x y z
#    x 4.328020 0.000000 0.000000 
#    y 0.000000 3.533880 0.000000 
#    z 0.000000 0.000000 3.814440 
# 
# 
# High freq. dielectric constant tensor:
#      x y z
#    x 1.801900 0.000000 0.000000 
#    y 0.000000 1.775500 0.000000 
#    z 0.000000 0.000000 1.798770 
# 
# From -- ./inp_files/10191.got.cif
#   From: 2010.03.12/outbox.cif.g09.slc.cpg/sg57_6_cif.got.tgz:10191.got - 2010.04.16 15:48:40.
