data_PCOD8233880
_publ_section_title
;
Structure prediction by ZEFSAII (Michael W. Deem and Ramdas Pophale) SiO2 
 PCOD8233880
Probable space group: P B C M
;
_chemical_formula_sum "Si O2"
_cell_formula_units_Z 48
_cell_length_a 12.639595
_cell_length_b 23.326157
_cell_length_c 8.828256
_cell_angle_alpha 90.000000
_cell_angle_beta 90.000000
_cell_angle_gamma 90.000000
_cell_volume 2602.862767
_symmetry_space_group_name_H-M "P B C M"
_symmetry_group_IT_number 57
_symmetry_cell_setting 'orthorhombic'
loop_
_space_group_symop_operation_xyz
x,y,z
-x,-y,1/2+z
x,1/2-y,-z
-x,1/2+y,1/2-z
-x,-y,-z
x,y,1/2-z
-x,1/2+y,z
x,1/2-y,1/2+z
loop_
_atom_site_type_symbol
_atom_site_label
_atom_site_fract_x
_atom_site_fract_y
_atom_site_fract_z
Si Si1 0.001999 0.310930 0.071083
Si Si2 0.609190 0.691198 0.426746
Si Si3 0.821929 0.382655 0.924094
Si Si4 0.189944 0.378265 0.928112
Si Si5 0.887078 0.991585 0.424953
Si Si6 0.373502 0.809216 0.927879
O O1 0.010628 0.304616 0.250000
O O2 0.972035 0.250000 0.000000
O O3 0.911939 0.356594 0.030305
O O4 0.112795 0.332872 0.006366
O O5 0.649479 0.750000 0.500000
O O6 0.606428 0.702689 0.250000
O O7 0.690166 0.640353 0.466542
O O8 0.491526 0.674529 0.486340
O O9 0.847458 0.366075 0.750000
O O10 0.818555 0.450938 0.944101
O O11 0.707445 0.359236 0.975553
O O12 0.165945 0.378371 0.750000
O O13 0.176632 0.441685 0.992389
O O14 0.903622 0.975126 0.250000
O O15 0.000000 0.000000 0.500000
O O16 0.373687 0.800252 0.750000
O O17 0.333760 0.750000 0.000000
#
# Coordination Sequence:
#
# PCOD8233880 Si02
#       6
#     8   8   8   8   8   8
#     4  12  24  36  54  80 112 144 179 226 279 334
#     4   9  19  35  57  82 110 144 181 225 276 329
#     4  10  21  37  57  80 110 144 184 228 275 332
#     4  11  22  37  56  80 111 145 186 230 275 329
#     4  11  22  37  57  80 109 149 189 231 277 328
#     4   9  18  35  57  82 110 143 180 223 276 330
#
# _framework density 18.441233
#
# number of rings (size 3 to 8) (size 9 to 14) (size 15 to 20)
#    0.000    1.667    1.667    3.500    0.000    5.333 
#    0.000    0.833    0.000    0.000    0.000    0.000 
#    0.000    0.000    0.000    0.000    0.000    0.000 
#
# Total GULP energy -595336.304076 kJ/mol
# GULP energy per Si atom -12402.839668 kJ/mol
# Density = 1.839926 g / cm^3
# Si number density = 18.441233 Si / 1000 Ang^3
#
#
#
# Elastic Constant Matrix: (Units=GPa)
#
#
# Indices 1 2 3 4 5 6 
#
# 1 110.5518 52.3955 41.3654 0.0000 0.0000 0.0000
# 2 52.3955 102.1290 39.0942 0.0000 0.0000 0.0000
# 3 41.3654 39.0942 89.2278 0.0000 0.0000 0.0000
# 4 0.0000 0.0000 0.0000 32.6874 0.0000 0.0000
# 5 0.0000 0.0000 0.0000 0.0000 16.0745 0.0000
# 6 0.0000 0.0000 0.0000 0.0000 0.0000 30.6454
#
#
#
# Elastic Compliance Matrix: (Units=1/GPa)
#
#
# Indices 1 2 3 4 5 6 
#
# 1 0.012894 -0.005199 -0.003700 0.000000 0.000000 0.000000
# 2 -0.005199 0.013861 -0.003663 0.000000 0.000000 0.000000
# 3 -0.003700 -0.003663 0.014527 0.000000 0.000000 0.000000
# 4 0.000000 0.000000 0.000000 0.030593 0.000000 0.000000
# 5 0.000000 0.000000 0.000000 0.000000 0.062210 0.000000
# 6 0.000000 0.000000 0.000000 0.000000 0.000000 0.032631
#
#
# Mechanical properties :
#
#
# Convention : Reuss Voigt Hill
#
# Bulk Modulus (GPa) = 61.88405 63.06878 62.47641
# Shear Modulus (GPa) = 25.35173 27.15170 26.25172
#
# Velocity S-wave (km/s) = 3.71176 3.84127 3.77707
# Velocity P-wave (km/s) = 7.21109 7.34492 7.27831
#
# Compressibility (1/GPa) = 0.01615925
#
# Stress axis : x y z
#
# Youngs Moduli (GPa) = 77.55692 72.14610 68.83606
#
# Poissons Ratio (x) = 0.37507 0.25467
# Poissons Ratio (y) = 0.40320 0.25214
# Poissons Ratio (z) = 0.28694 0.26426
#
# Static dielectric constant tensor:
#      x y z
#    x 3.639230 0.000000 0.000000 
#    y 0.000000 3.518780 0.000000 
#    z 0.000000 0.000000 3.473470 
# 
# 
# High freq. dielectric constant tensor:
#      x y z
#    x 1.716520 0.000000 0.000000 
#    y 0.000000 1.713920 0.000000 
#    z 0.000000 0.000000 1.720710 
# 
# From -- ./inp_files/3082.got.cif
#   From: 2010.03.12/outbox.cif.g09.slc.cpg/sg57_2_cif.got.tgz:3082.got - 2010.04.16 15:48:40.
