data_PCOD8233022
_publ_section_title
;
Structure prediction by ZEFSAII (Michael W. Deem and Ramdas Pophale) SiO2 
 PCOD8233022
Probable space group: P B C M
;
_chemical_formula_sum "Si O2"
_cell_formula_units_Z 48
_cell_length_a 30.594492
_cell_length_b 9.055934
_cell_length_c 8.737343
_cell_angle_alpha 90.000000
_cell_angle_beta 90.000000
_cell_angle_gamma 90.000000
_cell_volume 2420.783108
_symmetry_space_group_name_H-M "P B C M"
_symmetry_group_IT_number 57
_symmetry_cell_setting 'orthorhombic'
loop_
_space_group_symop_operation_xyz
x,y,z
-x,-y,1/2+z
x,1/2-y,-z
-x,1/2+y,1/2-z
-x,-y,-z
x,y,1/2-z
-x,1/2+y,z
x,1/2-y,1/2+z
loop_
_atom_site_type_symbol
_atom_site_label
_atom_site_fract_x
_atom_site_fract_y
_atom_site_fract_z
Si Si1 0.717930 0.410910 0.068623
Si Si2 0.796099 0.589391 0.931966
Si Si3 0.874030 0.091931 0.928694
Si Si4 0.538310 0.907483 0.570453
Si Si5 0.635278 0.592275 0.428525
Si Si6 0.038842 0.409116 0.573127
O O1 0.724667 0.404069 0.250000
O O2 0.669632 0.466864 0.021259
O O3 0.726254 0.250000 0.000000
O O4 0.750800 0.528748 0.997009
O O5 0.793874 0.600056 0.750000
O O6 0.805921 0.750000 0.000000
O O7 0.833874 0.478078 0.981269
O O8 0.862208 0.106513 0.750000
O O9 0.916049 0.991973 0.955960
O O10 0.884475 0.250000 0.000000
O O11 0.532232 0.750000 0.500000
O O12 0.531977 0.901151 0.750000
O O13 0.586845 0.966181 0.525504
O O14 0.500000 0.000000 0.500000
O O15 0.646840 0.750000 0.500000
O O16 0.638107 0.620820 0.250000
O O17 0.042691 0.250000 0.500000
O O18 0.028186 0.389675 0.750000
O O19 0.000000 0.500000 0.500000
#
# Coordination Sequence:
#
# PCOD8233022 Si02
#       6
#     8   8   8   8   8   8
#     4  11  23  40  60  86 118 153 192 238 289 344
#     4  12  25  42  64  90 120 156 196 242 292 349
#     4  11  24  42  64  92 124 161 201 246 296 350
#     4  10  20  36  56  82 113 149 190 235 286 342
#     4   9  20  37  58  82 111 147 190 235 285 343
#     4  11  24  41  64  92 125 162 204 250 300 354
#
# _framework density 19.828294
#
# number of rings (size 3 to 8) (size 9 to 14) (size 15 to 20)
#    0.000    1.333    0.000    5.500    0.000    9.333 
#    0.000    1.667    0.000    0.000    0.000    0.000 
#    0.000    0.000    0.000    0.000    0.000    0.000 
#
# Total GULP energy -595328.376884 kJ/mol
# GULP energy per Si atom -12402.674518 kJ/mol
# Density = 1.978316 g / cm^3
# Si number density = 19.828294 Si / 1000 Ang^3
#
#
#
# Elastic Constant Matrix: (Units=GPa)
#
#
# Indices 1 2 3 4 5 6 
#
# 1 118.8076 49.9313 67.0623 0.0000 0.0000 0.0000
# 2 49.9313 116.1459 62.9212 0.0000 0.0000 0.0000
# 3 67.0623 62.9212 124.1990 0.0000 0.0000 0.0000
# 4 0.0000 0.0000 0.0000 39.2158 0.0000 0.0000
# 5 0.0000 0.0000 0.0000 0.0000 32.1838 0.0000
# 6 0.0000 0.0000 0.0000 0.0000 0.0000 15.0435
#
#
#
# Elastic Compliance Matrix: (Units=1/GPa)
#
#
# Indices 1 2 3 4 5 6 
#
# 1 0.012567 -0.002380 -0.005580 0.000000 0.000000 0.000000
# 2 -0.002380 0.012317 -0.004955 0.000000 0.000000 0.000000
# 3 -0.005580 -0.004955 0.013575 0.000000 0.000000 0.000000
# 4 0.000000 0.000000 0.000000 0.025500 0.000000 0.000000
# 5 0.000000 0.000000 0.000000 0.000000 0.031072 0.000000
# 6 0.000000 0.000000 0.000000 0.000000 0.000000 0.066474
#
#
# Mechanical properties :
#
#
# Convention : Reuss Voigt Hill
#
# Bulk Modulus (GPa) = 79.18050 79.88691 79.53370
# Shear Modulus (GPa) = 26.10369 29.23780 27.67075
#
# Velocity S-wave (km/s) = 3.63228 3.84415 3.73972
# Velocity P-wave (km/s) = 7.59019 7.75114 7.67109
#
# Compressibility (1/GPa) = 0.01262937
#
# Stress axis : x y z
#
# Youngs Moduli (GPa) = 79.57534 81.18643 73.66479
#
# Poissons Ratio (x) = 0.19319 0.41105
# Poissons Ratio (y) = 0.18935 0.36503
# Poissons Ratio (z) = 0.44403 0.40230
#
# Static dielectric constant tensor:
#      x y z
#    x 3.932020 0.000000 0.000000 
#    y 0.000000 3.787900 0.000000 
#    z 0.000000 0.000000 3.822330 
# 
# 
# High freq. dielectric constant tensor:
#      x y z
#    x 1.793620 0.000000 0.000000 
#    y 0.000000 1.780420 0.000000 
#    z 0.000000 0.000000 1.788530 
# 
# From -- ./inp_files/9997.got.cif
#   From: 2010.03.12/outbox.cif.g09.slc.cpg/sg57_5_cif.got.tgz:9997.got - 2010.04.16 15:48:40.
