data_PCOD8233090
_publ_section_title
;
Structure prediction by ZEFSAII (Michael W. Deem and Ramdas Pophale) SiO2 
 PCOD8233090
Probable space group: P B C M
;
_chemical_formula_sum "Si O2"
_cell_formula_units_Z 48
_cell_length_a 15.083971
_cell_length_b 18.933944
_cell_length_c 8.754494
_cell_angle_alpha 90.000000
_cell_angle_beta 90.000000
_cell_angle_gamma 90.000000
_cell_volume 2500.275277
_symmetry_space_group_name_H-M "P B C M"
_symmetry_group_IT_number 57
_symmetry_cell_setting 'orthorhombic'
loop_
_space_group_symop_operation_xyz
x,y,z
-x,-y,1/2+z
x,1/2-y,-z
-x,1/2+y,1/2-z
-x,-y,-z
x,y,1/2-z
-x,1/2+y,z
x,1/2-y,1/2+z
loop_
_atom_site_type_symbol
_atom_site_label
_atom_site_fract_x
_atom_site_fract_y
_atom_site_fract_z
Si Si1 0.092837 0.177024 0.071644
Si Si2 0.094564 0.824670 0.069396
Si Si3 0.399331 0.823002 0.929203
Si Si4 0.401631 0.323492 0.569963
Si Si5 0.240754 0.920706 0.928846
Si Si6 0.749007 0.929078 0.572328
O O1 0.075565 0.189150 0.250000
O O2 0.163856 0.116572 0.040918
O O3 0.128291 0.250000 0.000000
O O4 0.001663 0.153550 0.992670
O O5 0.091107 0.817610 0.250000
O O6 0.126017 0.750000 0.000000
O O7 0.161731 0.885806 0.022877
O O8 0.399584 0.812295 0.750000
O O9 0.498658 0.841419 0.987087
O O10 0.333704 0.885428 0.979232
O O11 0.364754 0.750000 0.000000
O O12 0.368297 0.250000 0.500000
O O13 0.396332 0.314903 0.750000
O O14 0.337101 0.385942 0.516248
O O15 0.222674 0.910333 0.750000
O O16 0.245545 0.002525 0.968103
O O17 0.741494 0.950086 0.750000
#
# Coordination Sequence:
#
# PCOD8233090 Si02
#       6
#     8   8   8   8   8   8
#     4  10  20  36  58  83 109 139 179 223 268 319
#     4  11  22  38  60  83 108 140 179 223 271 320
#     4   9  19  35  56  81 107 139 179 223 268 316
#     4   9  18  35  57  81 109 140 179 223 267 318
#     4  11  23  37  54  79 111 146 184 224 268 320
#     4  10  22  37  54  79 112 147 179 218 269 322
#
# _framework density 19.197886
#
# number of rings (size 3 to 8) (size 9 to 14) (size 15 to 20)
#    0.000    2.000    0.000    4.500    0.000    6.000 
#    0.000    0.000    0.000    0.000    0.000    0.000 
#    0.000    0.000    0.000    0.000    0.000    0.000 
#
# Total GULP energy -595360.236710 kJ/mol
# GULP energy per Si atom -12403.338265 kJ/mol
# Density = 1.915419 g / cm^3
# Si number density = 19.197886 Si / 1000 Ang^3
#
#
#
# Elastic Constant Matrix: (Units=GPa)
#
#
# Indices 1 2 3 4 5 6 
#
# 1 112.1422 74.2237 49.5290 0.0000 0.0000 0.0000
# 2 74.2237 130.8312 49.5203 0.0000 0.0000 0.0000
# 3 49.5290 49.5203 85.8650 0.0000 0.0000 0.0000
# 4 0.0000 0.0000 0.0000 36.0112 0.0000 0.0000
# 5 0.0000 0.0000 0.0000 0.0000 40.6188 0.0000
# 6 0.0000 0.0000 0.0000 0.0000 0.0000 8.8173
#
#
#
# Elastic Compliance Matrix: (Units=1/GPa)
#
#
# Indices 1 2 3 4 5 6 
#
# 1 0.015826 -0.007065 -0.005054 0.000000 0.000000 0.000000
# 2 -0.007065 0.012932 -0.003383 0.000000 0.000000 0.000000
# 3 -0.005054 -0.003383 0.016512 0.000000 0.000000 0.000000
# 4 0.000000 0.000000 0.000000 0.027769 0.000000 0.000000
# 5 0.000000 0.000000 0.000000 0.000000 0.024619 0.000000
# 6 0.000000 0.000000 0.000000 0.000000 0.000000 0.113414
#
#
# Mechanical properties :
#
#
# Convention : Reuss Voigt Hill
#
# Bulk Modulus (GPa) = 70.09628 75.04271 72.56949
# Shear Modulus (GPa) = 20.25669 27.46048 23.85859
#
# Velocity S-wave (km/s) = 3.25183 3.78615 3.52912
# Velocity P-wave (km/s) = 7.11976 7.63460 7.38167
#
# Compressibility (1/GPa) = 0.01426609
#
# Stress axis : x y z
#
# Youngs Moduli (GPa) = 63.18814 77.32626 60.56081
#
# Poissons Ratio (x) = 0.54634 0.30607
# Poissons Ratio (y) = 0.44645 0.20487
# Poissons Ratio (z) = 0.31935 0.26158
#
# Static dielectric constant tensor:
#      x y z
#    x 3.823310 0.000000 0.000000 
#    y 0.000000 3.375400 0.000000 
#    z 0.000000 0.000000 3.487320 
# 
# 
# High freq. dielectric constant tensor:
#      x y z
#    x 1.760680 0.000000 0.000000 
#    y 0.000000 1.741180 0.000000 
#    z 0.000000 0.000000 1.749040 
# 
# From -- ./inp_files/4597.got.cif
#   From: 2010.03.12/outbox.cif.g09.slc.cpg/sg57_3_cif.got.tgz:4597.got - 2010.04.16 15:48:40.
