data_PCOD8233219
_publ_section_title
;
Structure prediction by ZEFSAII (Michael W. Deem and Ramdas Pophale) SiO2 
 PCOD8233219
Probable space group: P B C M
;
_chemical_formula_sum "Si O2"
_cell_formula_units_Z 48
_cell_length_a 18.840505
_cell_length_b 14.800116
_cell_length_c 8.750032
_cell_angle_alpha 90.000000
_cell_angle_beta 90.000000
_cell_angle_gamma 90.000000
_cell_volume 2439.873444
_symmetry_space_group_name_H-M "P B C M"
_symmetry_group_IT_number 57
_symmetry_cell_setting 'orthorhombic'
loop_
_space_group_symop_operation_xyz
x,y,z
-x,-y,1/2+z
x,1/2-y,-z
-x,1/2+y,1/2-z
-x,-y,-z
x,y,1/2-z
-x,1/2+y,z
x,1/2-y,1/2+z
loop_
_atom_site_type_symbol
_atom_site_label
_atom_site_fract_x
_atom_site_fract_y
_atom_site_fract_z
Si Si1 0.501668 0.350010 0.930179
Si Si2 0.764876 0.512838 0.575357
Si Si3 0.144166 0.837899 0.925829
Si Si4 0.858006 0.839128 0.928978
Si Si5 0.001176 0.598283 0.930510
Si Si6 0.601596 0.512747 0.570936
O O1 0.498171 0.337348 0.750000
O O2 0.565660 0.417653 0.979822
O O3 0.511621 0.250000 0.000000
O O4 0.429981 0.399285 0.986454
O O5 0.772943 0.546714 0.750000
O O6 0.798076 0.414959 0.554543
O O7 0.806338 0.578145 0.462299
O O8 0.683544 0.507241 0.524857
O O9 0.123283 0.823685 0.750000
O O10 0.180627 0.750000 0.000000
O O11 0.072971 0.853425 0.021339
O O12 0.869363 0.829943 0.750000
O O13 0.821534 0.750000 0.000000
O O14 0.934062 0.847395 0.008710
O O15 0.996161 0.590653 0.750000
O O16 0.000000 0.500000 0.000000
O O17 0.590073 0.527638 0.750000
#
# Coordination Sequence:
#
# PCOD8233219 Si02
#       6
#     8   8   8   8   8   8
#     4  10  20  36  61  91 121 155 195 239 287 343
#     4  10  22  41  62  85 119 157 196 244 295 351
#     4  11  23  39  60  86 118 155 198 246 298 353
#     4  12  25  41  62  87 117 155 200 248 300 356
#     4  12  23  39  62  87 116 152 198 249 302 355
#     4   9  20  39  61  87 119 156 197 241 290 343
#
# _framework density 19.673152000000002
#
# number of rings (size 3 to 8) (size 9 to 14) (size 15 to 20)
#    0.000    1.333    1.667    4.500    0.000    3.333 
#    0.000    0.000    0.000    0.000    0.000    0.000 
#    0.000    0.000    0.000    0.000    0.000    0.000 
#
# Total GULP energy -595325.378980 kJ/mol
# GULP energy per Si atom -12402.612062 kJ/mol
# Density = 1.962838 g / cm^3
# Si number density = 19.673152 Si / 1000 Ang^3
#
#
#
# Elastic Constant Matrix: (Units=GPa)
#
#
# Indices 1 2 3 4 5 6 
#
# 1 104.8491 10.3622 35.7744 0.0000 0.0000 0.0000
# 2 10.3622 96.6165 46.0562 0.0000 0.0000 0.0000
# 3 35.7744 46.0562 133.0061 0.0000 0.0000 0.0000
# 4 0.0000 0.0000 0.0000 26.0847 0.0000 0.0000
# 5 0.0000 0.0000 0.0000 0.0000 38.0543 0.0000
# 6 0.0000 0.0000 0.0000 0.0000 0.0000 626.1929
#
#
#
# Elastic Compliance Matrix: (Units=1/GPa)
#
#
# Indices 1 2 3 4 5 6 
#
# 1 0.010507 0.000264 -0.002917 0.000000 0.000000 0.000000
# 2 0.000264 0.012403 -0.004366 0.000000 0.000000 0.000000
# 3 -0.002917 -0.004366 0.009815 0.000000 0.000000 0.000000
# 4 0.000000 0.000000 0.000000 0.038337 0.000000 0.000000
# 5 0.000000 0.000000 0.000000 0.000000 0.026278 0.000000
# 6 0.000000 0.000000 0.000000 0.000000 0.000000 0.001597
#
#
# Mechanical properties :
#
#
# Convention : Reuss Voigt Hill
#
# Bulk Modulus (GPa) = 53.51568 57.65081 55.58324
# Shear Modulus (GPa) = 41.94493 154.21831 98.08162
#
# Velocity S-wave (km/s) = 4.62247 8.86343 7.06851
# Velocity P-wave (km/s) = 7.46666 11.58081 9.74336
#
# Compressibility (1/GPa) = 0.01868611
#
# Stress axis : x y z
#
# Youngs Moduli (GPa) = 95.17602 80.62548 101.88626
#
# Poissons Ratio (x) = -0.02127 0.29724
# Poissons Ratio (y) = -0.02511 0.44481
# Poissons Ratio (z) = 0.27766 0.35199
#
# Static dielectric constant tensor:
#      x y z
#    x 3.728140 0.000000 0.000000 
#    y 0.000000 3.799840 0.000000 
#    z 0.000000 0.000000 3.651520 
# 
# 
# High freq. dielectric constant tensor:
#      x y z
#    x 1.759770 0.000000 0.000000 
#    y 0.000000 1.782750 0.000000 
#    z 0.000000 0.000000 1.775910 
# 
# From -- ./inp_files/6526.got.cif
#   From: 2010.03.12/outbox.cif.g09.slc.cpg/sg57_4_cif.got.tgz:6526.got - 2010.04.16 15:48:40.
