data_PCOD8233582
_publ_section_title
;
Structure prediction by ZEFSAII (Michael W. Deem and Ramdas Pophale) SiO2 
 PCOD8233582
Probable space group: P B C M
;
_chemical_formula_sum "Si O2"
_cell_formula_units_Z 56
_cell_length_a 19.001940
_cell_length_b 9.295252
_cell_length_c 14.688775
_cell_angle_alpha 90.000000
_cell_angle_beta 90.000000
_cell_angle_gamma 90.000000
_cell_volume 2594.446318
_symmetry_space_group_name_H-M "P B C M"
_symmetry_group_IT_number 57
_symmetry_cell_setting 'orthorhombic'
loop_
_space_group_symop_operation_xyz
x,y,z
-x,-y,1/2+z
x,1/2-y,-z
-x,1/2+y,1/2-z
-x,-y,-z
x,y,1/2-z
-x,1/2+y,z
x,1/2-y,1/2+z
loop_
_atom_site_type_symbol
_atom_site_label
_atom_site_fract_x
_atom_site_fract_y
_atom_site_fract_z
Si Si1 0.787790 0.717911 0.146562
Si Si2 0.934564 0.386911 0.149518
Si Si3 0.644177 0.138770 0.932874
Si Si4 0.657928 0.871062 0.437766
Si Si5 0.565780 0.192010 0.750000
Si Si6 0.783372 0.378925 0.353616
Si Si7 0.052948 0.304364 0.596935
Si Si8 0.417719 0.460240 0.250000
O O1 0.774793 0.765852 0.250000
O O2 0.737355 0.815175 0.083439
O O3 0.771559 0.550006 0.133985
O O4 0.869096 0.748501 0.121658
O O5 0.914672 0.447203 0.250000
O O6 0.860136 0.328970 0.108821
O O7 0.959300 0.525526 0.094049
O O8 0.994303 0.267275 0.161673
O O9 0.600884 0.120885 0.839582
O O10 0.721586 0.201782 0.907839
O O11 0.604858 0.250000 0.000000
O O12 0.656669 0.997839 0.990590
O O13 0.618513 0.750000 0.500000
O O14 0.622079 0.913361 0.342291
O O15 0.569552 0.366808 0.750000
O O16 0.487068 0.135494 0.750000
O O17 0.774000 0.330551 0.250000
O O18 0.029211 0.250000 0.500000
#
# Coordination Sequence:
#
# PCOD8233582 Si02
#       8
#     8   8   8   8   4   8   8   4
#     4  10  20  38  66  96 129 173 226 280 336 412
#     4  10  21  39  58  83 122 172 223 275 341 408
#     4  12  25  45  72 103 143 182 226 289 345 407
#     4  12  25  44  75 109 140 182 237 282 344 414
#     4  12  30  52  76 106 147 184 225 278 345 408
#     4   9  19  37  65  92 126 177 228 277 341 411
#     4  11  22  37  58  89 127 168 224 287 340 404
#     4  12  30  52  74 110 149 180 229 282 335 418
#
# _framework density 21.584567
#
# number of rings (size 3 to 8) (size 9 to 14) (size 15 to 20)
#    0.000    1.143    4.286    3.000    4.000    1.714 
#    2.571    0.000    0.000    0.000    0.000    0.000 
#    0.000    0.000    0.000    0.000    0.000    0.000 
#
# Total GULP energy -693826.328735 kJ/mol
# GULP energy per Si atom -12389.755870 kJ/mol
# Density = 2.153544 g / cm^3
# Si number density = 21.584567 Si / 1000 Ang^3
#
#
#
# Elastic Constant Matrix: (Units=GPa)
#
#
# Indices 1 2 3 4 5 6 
#
# 1 130.0994 24.5641 37.1551 0.0000 0.0000 0.0000
# 2 24.5641 41.2457 23.4074 0.0000 0.0000 0.0000
# 3 37.1551 23.4074 123.6540 0.0000 0.0000 0.0000
# 4 0.0000 0.0000 0.0000 37.8883 0.0000 0.0000
# 5 0.0000 0.0000 0.0000 0.0000 -150.3854 0.0000
# 6 0.0000 0.0000 0.0000 0.0000 0.0000 81.9770
#
#
#
# Elastic Compliance Matrix: (Units=1/GPa)
#
#
# Indices 1 2 3 4 5 6 
#
# 1 0.009043 -0.004306 -0.001902 0.000000 0.000000 0.000000
# 2 -0.004306 0.029213 -0.004236 0.000000 0.000000 0.000000
# 3 -0.001902 -0.004236 0.009460 0.000000 0.000000 0.000000
# 4 0.000000 0.000000 0.000000 0.026393 0.000000 0.000000
# 5 0.000000 0.000000 0.000000 0.000000 -0.006650 0.000000
# 6 0.000000 0.000000 0.000000 0.000000 0.000000 0.012199
#
#
# Mechanical properties :
#
#
# Convention : Reuss Voigt Hill
#
# Bulk Modulus (GPa) = 37.27412 51.69470 44.48441
# Shear Modulus (GPa) = 45.66625 7.88747 26.77686
#
# Velocity S-wave (km/s) = 4.60465 1.91367 3.52597
# Velocity P-wave (km/s) = 6.75106 5.37445 6.10170
#
# Compressibility (1/GPa) = 0.02682826
#
# Stress axis : x y z
#
# Youngs Moduli (GPa) = 110.58731 34.23077 105.70280
#
# Poissons Ratio (x) = 0.14740 0.20104
# Poissons Ratio (y) = 0.47619 0.44778
# Poissons Ratio (z) = 0.21034 0.14501
#
# Static dielectric constant tensor:
#      x y z
#    x 3.921300 0.000000 0.000000 
#    y 0.000000 3.966850 0.000000 
#    z 0.000000 0.000000 3.079750 
# 
# 
# High freq. dielectric constant tensor:
#      x y z
#    x 1.846520 0.000000 0.000000 
#    y 0.000000 1.829060 0.000000 
#    z 0.000000 0.000000 1.871750 
# 
# From -- ./inp_files/19391.got.cif
#   From: 2010.03.12/outbox.cif.g09.slc.cpg/sg57_10_cif.got.tgz:19391.got - 2010.04.16 15:48:40.
