data_PCOD8233430
_publ_section_title
;
Structure prediction by ZEFSAII (Michael W. Deem and Ramdas Pophale) SiO2 
 PCOD8233430
Probable space group: P B C M
;
_chemical_formula_sum "Si O2"
_cell_formula_units_Z 64
_cell_length_a 5.199868
_cell_length_b 29.923371
_cell_length_c 18.083543
_cell_angle_alpha 90.000000
_cell_angle_beta 90.000000
_cell_angle_gamma 90.000000
_cell_volume 2813.755516
_symmetry_space_group_name_H-M "P B C M"
_symmetry_group_IT_number 57
_symmetry_cell_setting 'orthorhombic'
loop_
_space_group_symop_operation_xyz
x,y,z
-x,-y,1/2+z
x,1/2-y,-z
-x,1/2+y,1/2-z
-x,-y,-z
x,y,1/2-z
-x,1/2+y,z
x,1/2-y,1/2+z
loop_
_atom_site_type_symbol
_atom_site_label
_atom_site_fract_x
_atom_site_fract_y
_atom_site_fract_z
Si Si1 0.579525 0.945116 0.578934
Si Si2 0.695996 0.530262 0.574517
Si Si3 0.865376 0.620920 0.335575
Si Si4 0.775903 0.797297 0.088688
Si Si5 0.749752 0.132454 0.038660
Si Si6 0.359429 0.302777 0.570403
Si Si7 0.277849 0.828849 0.167176
Si Si8 0.177228 0.915952 0.103579
O O1 0.749976 0.969930 0.514836
O O2 0.729726 0.927534 0.651445
O O3 0.497137 0.899937 0.537089
O O4 0.347642 0.978849 0.601125
O O5 0.435810 0.556305 0.594568
O O6 0.940888 0.550223 0.617258
O O7 0.934942 0.626096 0.250000
O O8 0.705290 0.664360 0.361821
O O9 0.119322 0.620355 0.384258
O O10 0.657444 0.747621 0.097588
O O11 0.548569 0.827506 0.122951
O O12 0.046417 0.800274 0.130772
O O13 0.826169 0.809635 0.001739
O O14 0.647590 0.183953 0.041217
O O15 0.900739 0.118278 0.964317
O O16 0.318191 0.810612 0.250000
O O17 0.201751 0.881402 0.171438
#
# Coordination Sequence:
#
# PCOD8233430 Si02
#       8
#     8   8   8   8   8   8   8   8
#     4   9  21  36  58  93 124 163 212 271 320 381
#     4  10  21  36  67  96 122 159 224 273 314 373
#     4  11  23  39  61  92 136 177 216 270 339 404
#     4  11  25  44  72  98 129 170 224 276 323 392
#     4  10  20  37  64  91 128 168 217 268 324 391
#     4  10  24  42  67  97 126 171 226 274 321 391
#     4  12  26  44  66  97 135 172 210 269 342 395
#     4  11  21  39  66  94 125 168 214 273 319 386
#
# _framework density 22.7454
#
# number of rings (size 3 to 8) (size 9 to 14) (size 15 to 20)
#    0.000    1.500    2.500    1.875    5.250    5.500 
#    0.000    1.250    0.000    0.000    0.000    0.000 
#    0.000    0.000    0.000    0.000    0.000    0.000 
#
# Total GULP energy -792994.496809 kJ/mol
# GULP energy per Si atom -12390.539013 kJ/mol
# Density = 2.269363 g / cm^3
# Si number density = 22.745400 Si / 1000 Ang^3
#
#
#
# Elastic Constant Matrix: (Units=GPa)
#
#
# Indices 1 2 3 4 5 6 
#
# 1 65.2615 -18.8215 3.4299 0.0000 0.0000 0.0000
# 2 -18.8215 62.6548 -1.7753 0.0000 0.0000 0.0000
# 3 3.4299 -1.7753 102.5233 0.0000 0.0000 0.0000
# 4 0.0000 0.0000 0.0000 23.7890 0.0000 0.0000
# 5 0.0000 0.0000 0.0000 0.0000 19.8876 0.0000
# 6 0.0000 0.0000 0.0000 0.0000 0.0000 28.9800
#
#
#
# Elastic Compliance Matrix: (Units=1/GPa)
#
#
# Indices 1 2 3 4 5 6 
#
# 1 0.016799 0.005033 -0.000475 0.000000 0.000000 0.000000
# 2 0.005033 0.017476 0.000134 0.000000 0.000000 0.000000
# 3 -0.000475 0.000134 0.009772 0.000000 0.000000 0.000000
# 4 0.000000 0.000000 0.000000 0.042036 0.000000 0.000000
# 5 0.000000 0.000000 0.000000 0.000000 0.050283 0.000000
# 6 0.000000 0.000000 0.000000 0.000000 0.000000 0.034507
#
#
# Mechanical properties :
#
#
# Convention : Reuss Voigt Hill
#
# Bulk Modulus (GPa) = 18.71513 21.78954 20.25233
# Shear Modulus (GPa) = 27.88637 31.03842 29.46239
#
# Velocity S-wave (km/s) = 3.50526 3.69806 3.60295
# Velocity P-wave (km/s) = 4.96270 5.27586 5.12168
#
# Compressibility (1/GPa) = 0.05343271
#
# Stress axis : x y z
#
# Youngs Moduli (GPa) = 59.52565 57.22064 102.33219
#
# Poissons Ratio (x) = -0.28800 0.04860
# Poissons Ratio (y) = -0.29960 -0.01374
# Poissons Ratio (z) = 0.02827 -0.00768
#
# Static dielectric constant tensor:
#      x y z
#    x 3.927990 0.000000 0.000000 
#    y 0.000000 4.278170 0.000000 
#    z 0.000000 0.000000 3.770600 
# 
# 
# High freq. dielectric constant tensor:
#      x y z
#    x 1.895200 0.000000 0.000000 
#    y 0.000000 1.910530 0.000000 
#    z 0.000000 0.000000 1.857840 
# 
# From -- ./inp_files/20368.got.cif
#   From: 2010.03.12/outbox.cif.g09.slc.cpg/sg57_11_cif.got.tgz:20368.got - 2010.04.16 15:48:40.
