data_PCOD8233194
_publ_section_title
;
Structure prediction by ZEFSAII (Michael W. Deem and Ramdas Pophale) SiO2 
 PCOD8233194
Probable space group: P B C M
;
_chemical_formula_sum "Si O2"
_cell_formula_units_Z 64
_cell_length_a 20.879941
_cell_length_b 8.594630
_cell_length_c 17.114692
_cell_angle_alpha 90.000000
_cell_angle_beta 90.000000
_cell_angle_gamma 90.000000
_cell_volume 3071.323339
_symmetry_space_group_name_H-M "P B C M"
_symmetry_group_IT_number 57
_symmetry_cell_setting 'orthorhombic'
loop_
_space_group_symop_operation_xyz
x,y,z
-x,-y,1/2+z
x,1/2-y,-z
-x,1/2+y,1/2-z
-x,-y,-z
x,y,1/2-z
-x,1/2+y,z
x,1/2-y,1/2+z
loop_
_atom_site_type_symbol
_atom_site_label
_atom_site_fract_x
_atom_site_fract_y
_atom_site_fract_z
Si Si1 0.188278 0.140634 0.157797
Si Si2 0.686575 0.680286 0.841270
Si Si3 0.565189 0.819790 0.584659
Si Si4 0.568225 0.186171 0.914921
Si Si5 0.312051 0.836082 0.841076
Si Si6 0.928414 0.695053 0.912660
Si Si7 0.186243 0.807083 0.410634
Si Si8 0.941467 0.171644 0.415028
O O1 0.191709 0.095866 0.250000
O O2 0.252713 0.224224 0.127144
O O3 0.129897 0.259497 0.143904
O O4 0.179968 0.991874 0.101478
O O5 0.694760 0.661724 0.750000
O O6 0.621608 0.771964 0.857816
O O7 0.684210 0.507953 0.880283
O O8 0.579569 0.750000 0.500000
O O9 0.497973 0.756459 0.618164
O O10 0.560786 0.003253 0.579894
O O11 0.625753 0.233865 0.858940
O O12 0.584240 0.250000 0.000000
O O13 0.307619 0.856408 0.750000
O O14 0.249527 0.747086 0.868017
O O15 0.939126 0.512349 0.916941
O O16 0.992185 0.774100 0.875189
O O17 0.913323 0.750000 0.000000
O O18 0.190535 0.750000 0.500000
O O19 0.122462 0.732556 0.371093
O O20 0.941967 0.250000 0.500000
#
# Coordination Sequence:
#
# PCOD8233194 Si02
#       8
#     8   8   8   8   8   8   8   8
#     4  11  24  42  62  91 128 165 206 261 320 375
#     4  10  23  41  59  82 118 158 197 240 299 365
#     4  11  22  38  62  88 117 151 194 247 297 349
#     4  11  22  39  61  88 119 152 194 243 298 359
#     4  11  23  40  61  88 121 158 199 250 304 361
#     4  11  20  37  63  89 121 160 205 253 302 368
#     4  11  22  39  62  91 123 162 209 254 307 370
#     4  10  20  36  60  91 122 156 204 254 304 361
#
# _framework density 20.837924999999998
#
# number of rings (size 3 to 8) (size 9 to 14) (size 15 to 20)
#    0.000    1.250    0.000    9.000    0.000    3.500 
#    0.000    3.750    0.000    0.000    0.000    0.000 
#    0.000    0.000    0.000    0.000    0.000    0.000 
#
# Total GULP energy -793610.933722 kJ/mol
# GULP energy per Si atom -12400.170839 kJ/mol
# Density = 2.079050 g / cm^3
# Si number density = 20.837925 Si / 1000 Ang^3
#
#
#
# Elastic Constant Matrix: (Units=GPa)
#
#
# Indices 1 2 3 4 5 6 
#
# 1 172.9594 55.0128 29.9934 0.0000 0.0000 0.0000
# 2 55.0128 187.7703 30.1909 0.0000 0.0000 0.0000
# 3 29.9934 30.1909 39.6094 0.0000 0.0000 0.0000
# 4 0.0000 0.0000 0.0000 27.7146 0.0000 0.0000
# 5 0.0000 0.0000 0.0000 0.0000 -11.1857 0.0000
# 6 0.0000 0.0000 0.0000 0.0000 0.0000 45.7453
#
#
#
# Elastic Compliance Matrix: (Units=1/GPa)
#
#
# Indices 1 2 3 4 5 6 
#
# 1 0.006946 -0.001355 -0.004226 0.000000 0.000000 0.000000
# 2 -0.001355 0.006334 -0.003802 0.000000 0.000000 0.000000
# 3 -0.004226 -0.003802 0.031344 0.000000 0.000000 0.000000
# 4 0.000000 0.000000 0.000000 0.036082 0.000000 0.000000
# 5 0.000000 0.000000 0.000000 0.000000 -0.089400 0.000000
# 6 0.000000 0.000000 0.000000 0.000000 0.000000 0.021860
#
#
# Mechanical properties :
#
#
# Convention : Reuss Voigt Hill
#
# Bulk Modulus (GPa) = 38.67347 70.08149 54.37748
# Shear Modulus (GPa) = 123.29663 31.46430 77.38047
#
# Velocity S-wave (km/s) = 7.70051 3.89003 6.10041
# Velocity P-wave (km/s) = 9.88247 7.34038 8.70472
#
# Compressibility (1/GPa) = 0.02585752
#
# Stress axis : x y z
#
# Youngs Moduli (GPa) = 143.97350 157.87819 31.90360
#
# Poissons Ratio (x) = 0.21399 0.13484
# Poissons Ratio (y) = 0.19514 0.12128
# Poissons Ratio (z) = 0.60849 0.60018
#
# Static dielectric constant tensor:
#      x y z
#    x 4.367490 0.000000 0.000000 
#    y 0.000000 4.071640 0.000000 
#    z 0.000000 0.000000 3.490030 
# 
# 
# High freq. dielectric constant tensor:
#      x y z
#    x 1.843060 0.000000 0.000000 
#    y 0.000000 1.838410 0.000000 
#    z 0.000000 0.000000 1.781680 
# 
# From -- ./inp_files/23053.got.cif
#   From: 2010.03.12/outbox.cif.g09.slc.cpg/sg57_12_cif.got.tgz:23053.got - 2010.04.16 15:48:40.
