data_PCOD8233677
_publ_section_title
;
Structure prediction by ZEFSAII (Michael W. Deem and Ramdas Pophale) SiO2 
 PCOD8233677
Probable space group: P B C M
;
_chemical_formula_sum "Si O2"
_cell_formula_units_Z 48
_cell_length_a 9.240679
_cell_length_b 14.794888
_cell_length_c 17.884721
_cell_angle_alpha 90.000000
_cell_angle_beta 90.000000
_cell_angle_gamma 90.000000
_cell_volume 2445.106249
_symmetry_space_group_name_H-M "P B C M"
_symmetry_group_IT_number 57
_symmetry_cell_setting 'orthorhombic'
loop_
_space_group_symop_operation_xyz
x,y,z
-x,-y,1/2+z
x,1/2-y,-z
-x,1/2+y,1/2-z
-x,-y,-z
x,y,1/2-z
-x,1/2+y,z
x,1/2-y,1/2+z
loop_
_atom_site_type_symbol
_atom_site_label
_atom_site_fract_x
_atom_site_fract_y
_atom_site_fract_z
Si Si1 0.359074 0.218159 0.418131
Si Si2 0.831495 0.370465 0.336119
Si Si3 0.344262 0.692671 0.162776
Si Si4 0.154266 0.145209 0.835434
Si Si5 0.825734 0.539695 0.431626
Si Si6 0.156984 0.537092 0.093265
O O1 0.411358 0.250000 0.500000
O O2 0.492405 0.196960 0.364593
O O3 0.262340 0.298377 0.385893
O O4 0.268341 0.127236 0.418411
O O5 0.843630 0.397687 0.250000
O O6 0.719480 0.291393 0.351047
O O7 0.773616 0.458515 0.378571
O O8 0.989977 0.338250 0.364405
O O9 0.337127 0.665520 0.250000
O O10 0.254257 0.622712 0.113005
O O11 0.174979 0.175365 0.750000
O O12 0.184547 0.038235 0.843256
O O13 0.797672 0.506466 0.515150
O O14 0.990190 0.567267 0.412400
#
# Coordination Sequence:
#
# PCOD8233677 Si02
#       6
#     8   8   8   8   8   8
#     4  12  25  40  58  91 127 166 202 251 304 369
#     4   9  21  40  64  91 120 157 203 252 301 360
#     4  11  25  42  60  89 126 166 205 245 302 367
#     4  10  20  40  66  90 119 158 204 254 304 358
#     4  10  22  40  65  94 122 153 205 254 311 357
#     4  10  21  40  66  94 119 157 201 259 305 361
#
# _framework density 19.631048
#
# number of rings (size 3 to 8) (size 9 to 14) (size 15 to 20)
#    0.000    1.667    1.667    2.000    2.333    4.000 
#    0.000    1.667    0.000    0.000    0.000    0.000 
#    0.000    0.000    0.000    0.000    0.000    0.000 
#
# Total GULP energy -595326.512028 kJ/mol
# GULP energy per Si atom -12402.635667 kJ/mol
# Density = 1.958637 g / cm^3
# Si number density = 19.631048 Si / 1000 Ang^3
#
#
#
# Elastic Constant Matrix: (Units=GPa)
#
#
# Indices 1 2 3 4 5 6 
#
# 1 95.8598 57.2122 39.5063 0.0000 0.0000 0.0000
# 2 57.2122 88.4863 35.1374 0.0000 0.0000 0.0000
# 3 39.5063 35.1374 60.4235 0.0000 0.0000 0.0000
# 4 0.0000 0.0000 0.0000 28.9827 0.0000 0.0000
# 5 0.0000 0.0000 0.0000 0.0000 -56.6114 0.0000
# 6 0.0000 0.0000 0.0000 0.0000 0.0000 54.7894
#
#
#
# Elastic Compliance Matrix: (Units=1/GPa)
#
#
# Indices 1 2 3 4 5 6 
#
# 1 0.018938 -0.009528 -0.006841 0.000000 0.000000 0.000000
# 2 -0.009528 0.019488 -0.005103 0.000000 0.000000 0.000000
# 3 -0.006841 -0.005103 0.023990 0.000000 0.000000 0.000000
# 4 0.000000 0.000000 0.000000 0.034503 0.000000 0.000000
# 5 0.000000 0.000000 0.000000 0.000000 -0.017664 0.000000
# 6 0.000000 0.000000 0.000000 0.000000 0.000000 0.018252
#
#
# Mechanical properties :
#
#
# Convention : Reuss Voigt Hill
#
# Bulk Modulus (GPa) = 51.35680 56.49793 53.92736
# Shear Modulus (GPa) = 34.02685 12.95971 23.49328
#
# Velocity S-wave (km/s) = 4.16783 2.57215 3.46315
# Velocity P-wave (km/s) = 7.02701 6.13707 6.59707
#
# Compressibility (1/GPa) = 0.01947162
#
# Stress axis : x y z
#
# Youngs Moduli (GPa) = 52.80379 51.31348 41.68322
#
# Poissons Ratio (x) = 0.48891 0.28517
# Poissons Ratio (y) = 0.50311 0.21271
# Poissons Ratio (z) = 0.36125 0.26186
#
# Static dielectric constant tensor:
#      x y z
#    x 3.545360 0.000000 0.000000 
#    y 0.000000 3.533920 0.000000 
#    z 0.000000 0.000000 3.703820 
# 
# 
# High freq. dielectric constant tensor:
#      x y z
#    x 1.760780 0.000000 0.000000 
#    y 0.000000 1.773020 0.000000 
#    z 0.000000 0.000000 1.776310 
# 
# From -- ./inp_files/20964.got.cif
#   From: 2010.03.12/outbox.cif.g09.slc.cpg/sg57_11_cif.got.tgz:20964.got - 2010.04.16 15:48:40.
