data_PCOD8233134
_publ_section_title
;
Structure prediction by ZEFSAII (Michael W. Deem and Ramdas Pophale) SiO2 
 PCOD8233134
Probable space group: P B C M
;
_chemical_formula_sum "Si O2"
_cell_formula_units_Z 40
_cell_length_a 12.700244
_cell_length_b 18.233269
_cell_length_c 8.708968
_cell_angle_alpha 90.000000
_cell_angle_beta 90.000000
_cell_angle_gamma 90.000000
_cell_volume 2016.709290
_symmetry_space_group_name_H-M "P B C M"
_symmetry_group_IT_number 57
_symmetry_cell_setting 'orthorhombic'
loop_
_space_group_symop_operation_xyz
x,y,z
-x,-y,1/2+z
x,1/2-y,-z
-x,1/2+y,1/2-z
-x,-y,-z
x,y,1/2-z
-x,1/2+y,z
x,1/2-y,1/2+z
loop_
_atom_site_type_symbol
_atom_site_label
_atom_site_fract_x
_atom_site_fract_y
_atom_site_fract_z
Si Si1 0.503874 0.329400 0.569207
Si Si2 0.289258 0.913958 0.930208
Si Si3 0.103430 0.827968 0.068786
Si Si4 0.312417 0.430325 0.929248
Si Si5 0.881114 0.826560 0.570563
O O1 0.488112 0.250000 0.500000
O O2 0.500121 0.321739 0.750000
O O3 0.613909 0.363739 0.513908
O O4 0.409087 0.380922 0.512752
O O5 0.269252 0.905499 0.750000
O O6 0.185801 0.890009 0.021530
O O7 0.315420 0.997313 0.969181
O O8 0.098611 0.820944 0.250000
O O9 0.139017 0.750000 0.000000
O O10 0.989775 0.852089 0.006425
O O11 0.323236 0.450272 0.750000
O O12 0.204191 0.388440 0.963289
O O13 0.841195 0.750000 0.500000
O O14 0.900300 0.814590 0.750000
#
# Coordination Sequence:
#
# PCOD8233134 Si02
#       5
#     8   8   8   8   8
#     4  10  22  39  60  86 114 147 188 232 280 336
#     4  11  23  38  58  85 116 151 191 233 281 336
#     4  11  22  38  60  84 114 150 190 236 282 332
#     4  10  22  39  58  84 117 150 186 231 283 337
#     4  10  20  36  59  85 114 148 189 234 280 335
#
# _framework density 19.834292999999999
#
# number of rings (size 3 to 8) (size 9 to 14) (size 15 to 20)
#    0.000    1.600    0.000    6.000    0.000    6.400 
#    0.000    0.000    0.000    0.000    0.000    0.000 
#    0.000    0.000    0.000    0.000    0.000    0.000 
#
# Total GULP energy -496238.411249 kJ/mol
# GULP energy per Si atom -12405.960281 kJ/mol
# Density = 1.978915 g / cm^3
# Si number density = 19.834293 Si / 1000 Ang^3
#
#
#
# Elastic Constant Matrix: (Units=GPa)
#
#
# Indices 1 2 3 4 5 6 
#
# 1 95.3841 32.6357 41.7553 0.0000 0.0000 0.0000
# 2 32.6357 82.1838 30.1518 0.0000 0.0000 0.0000
# 3 41.7553 30.1518 92.6988 0.0000 0.0000 0.0000
# 4 0.0000 0.0000 0.0000 38.2322 0.0000 0.0000
# 5 0.0000 0.0000 0.0000 0.0000 15.2282 0.0000
# 6 0.0000 0.0000 0.0000 0.0000 0.0000 31.3224
#
#
#
# Elastic Compliance Matrix: (Units=1/GPa)
#
#
# Indices 1 2 3 4 5 6 
#
# 1 0.013974 -0.003679 -0.005098 0.000000 0.000000 0.000000
# 2 -0.003679 0.014785 -0.003152 0.000000 0.000000 0.000000
# 3 -0.005098 -0.003152 0.014109 0.000000 0.000000 0.000000
# 4 0.000000 0.000000 0.000000 0.026156 0.000000 0.000000
# 5 0.000000 0.000000 0.000000 0.000000 0.065668 0.000000
# 6 0.000000 0.000000 0.000000 0.000000 0.000000 0.031926
#
#
# Mechanical properties :
#
#
# Convention : Reuss Voigt Hill
#
# Bulk Modulus (GPa) = 52.60131 53.26137 52.93134
# Shear Modulus (GPa) = 25.40478 28.00482 26.70480
#
# Velocity S-wave (km/s) = 3.58278 3.76165 3.67331
# Velocity P-wave (km/s) = 6.61007 6.76596 6.68847
#
# Compressibility (1/GPa) = 0.01901093
#
# Stress axis : x y z
#
# Youngs Moduli (GPa) = 71.55954 67.63526 70.87569
#
# Poissons Ratio (x) = 0.24883 0.36132
# Poissons Ratio (y) = 0.26326 0.22340
# Poissons Ratio (z) = 0.36481 0.21318
#
# Static dielectric constant tensor:
#      x y z
#    x 3.860490 0.000000 0.000000 
#    y 0.000000 2.129880 0.000000 
#    z 0.000000 0.000000 3.671420 
# 
# 
# High freq. dielectric constant tensor:
#      x y z
#    x 1.789750 0.000000 0.000000 
#    y 0.000000 1.775920 0.000000 
#    z 0.000000 0.000000 1.777690 
# 
# From -- ./inp_files/2660.got.cif
#   From: 2010.03.12/outbox.cif.g09.slc.cpg/sg57_2_cif.got.tgz:2660.got - 2010.04.16 15:48:40.
