data_PCOD8233352
_publ_section_title
;
Structure prediction by ZEFSAII (Michael W. Deem and Ramdas Pophale) SiO2 
 PCOD8233352
Probable space group: P B C M
;
_chemical_formula_sum "Si O2"
_cell_formula_units_Z 56
_cell_length_a 20.358195
_cell_length_b 8.387153
_cell_length_c 15.335166
_cell_angle_alpha 90.000000
_cell_angle_beta 90.000000
_cell_angle_gamma 90.000000
_cell_volume 2618.438132
_symmetry_space_group_name_H-M "P B C M"
_symmetry_group_IT_number 57
_symmetry_cell_setting 'orthorhombic'
loop_
_space_group_symop_operation_xyz
x,y,z
-x,-y,1/2+z
x,1/2-y,-z
-x,1/2+y,1/2-z
-x,-y,-z
x,y,1/2-z
-x,1/2+y,z
x,1/2-y,1/2+z
loop_
_atom_site_type_symbol
_atom_site_label
_atom_site_fract_x
_atom_site_fract_y
_atom_site_fract_z
Si Si1 0.650357 0.040338 0.153834
Si Si2 0.298596 0.065508 0.481246
Si Si3 0.528038 0.620111 0.933058
Si Si4 0.942876 0.539289 0.347384
Si Si5 0.392793 0.891046 0.152831
Si Si6 0.838689 0.433435 0.475996
Si Si7 0.936502 0.636828 0.920695
O O1 0.672503 0.977433 0.250000
O O2 0.583356 0.949821 0.129365
O O3 0.646924 0.229379 0.158299
O O4 0.702201 0.012418 0.077492
O O5 0.305778 0.250000 0.500000
O O6 0.358213 0.008107 0.417790
O O7 0.228713 0.014579 0.442479
O O8 0.466179 0.666839 0.872903
O O9 0.557698 0.750000 0.000000
O O10 0.500000 0.500000 0.000000
O O11 0.948071 0.475172 0.250000
O O12 0.885803 0.438827 0.392866
O O13 0.927114 0.730134 0.345163
O O14 0.010523 0.497355 0.396904
O O15 0.393971 0.971954 0.250000
O O16 0.827133 0.250000 0.500000
O O17 0.869975 0.540533 0.554459
O O18 0.960587 0.750000 0.000000
#
# Coordination Sequence:
#
# PCOD8233352 Si02
#       7
#     8   8   8   8   8   8   8
#     4  11  24  42  64  93 126 163 210 259 314 376
#     4  12  25  44  65  89 122 164 209 262 315 372
#     4  12  21  39  65  93 127 165 204 252 312 368
#     4  11  21  36  61  95 129 160 202 255 306 357
#     4  11  24  42  65  92 126 167 208 255 313 377
#     4  11  23  42  66  86 118 166 210 249 307 374
#     4  10  20  37  60  90 126 165 204 246 302 367
#
# _framework density 21.386797000000001
#
# number of rings (size 3 to 8) (size 9 to 14) (size 15 to 20)
#    0.000    0.857    2.857    6.857    0.000    1.143 
#    0.000    4.286    0.000    0.000    0.000    0.000 
#    0.000    0.000    0.000    0.000    0.000    0.000 
#
# Total GULP energy -693821.254997 kJ/mol
# GULP energy per Si atom -12389.665268 kJ/mol
# Density = 2.133812 g / cm^3
# Si number density = 21.386797 Si / 1000 Ang^3
#
#
#
# Elastic Constant Matrix: (Units=GPa)
#
#
# Indices 1 2 3 4 5 6 
#
# 1 86.9972 12.2938 12.0837 0.0000 0.0000 0.0000
# 2 12.2938 111.9742 20.9872 0.0000 0.0000 0.0000
# 3 12.0837 20.9872 123.2845 0.0000 0.0000 0.0000
# 4 0.0000 0.0000 0.0000 19.3474 0.0000 0.0000
# 5 0.0000 0.0000 0.0000 0.0000 0.7575 0.0000
# 6 0.0000 0.0000 0.0000 0.0000 0.0000 33.5896
#
#
#
# Elastic Compliance Matrix: (Units=1/GPa)
#
#
# Indices 1 2 3 4 5 6 
#
# 1 0.011786 -0.001113 -0.000966 0.000000 0.000000 0.000000
# 2 -0.001113 0.009330 -0.001479 0.000000 0.000000 0.000000
# 3 -0.000966 -0.001479 0.008458 0.000000 0.000000 0.000000
# 4 0.000000 0.000000 0.000000 0.051687 0.000000 0.000000
# 5 0.000000 0.000000 0.000000 0.000000 1.320211 0.000000
# 6 0.000000 0.000000 0.000000 0.000000 0.000000 0.029771
#
#
# Mechanical properties :
#
#
# Convention : Reuss Voigt Hill
#
# Bulk Modulus (GPa) = 44.52753 45.88727 45.20740
# Shear Modulus (GPa) = 3.45819 29.19830 16.32824
#
# Velocity S-wave (km/s) = 1.27298 3.69894 2.76610
# Velocity P-wave (km/s) = 4.79854 6.30439 5.60229
#
# Compressibility (1/GPa) = 0.02245802
#
# Stress axis : x y z
#
# Youngs Moduli (GPa) = 84.84609 107.18029 118.23422
#
# Poissons Ratio (x) = 0.11929 0.11418
# Poissons Ratio (y) = 0.09443 0.17489
# Poissons Ratio (z) = 0.08194 0.15854
#
# Static dielectric constant tensor:
#      x y z
#    x 4.035510 0.000000 0.000000 
#    y 0.000000 3.997450 0.000000 
#    z 0.000000 0.000000 4.933360 
# 
# 
# High freq. dielectric constant tensor:
#      x y z
#    x 1.827740 0.000000 0.000000 
#    y 0.000000 1.851000 0.000000 
#    z 0.000000 0.000000 1.838430 
# 
# From -- ./inp_files/19333.got.cif
#   From: 2010.03.12/outbox.cif.g09.slc.cpg/sg57_10_cif.got.tgz:19333.got - 2010.04.16 15:48:40.
