data_PCOD8233271
_publ_section_title
;
Structure prediction by ZEFSAII (Michael W. Deem and Ramdas Pophale) SiO2 
 PCOD8233271
Probable space group: P B C M
;
_chemical_formula_sum "Si O2"
_cell_formula_units_Z 40
_cell_length_a 25.243618
_cell_length_b 9.616180
_cell_length_c 8.581249
_cell_angle_alpha 90.000000
_cell_angle_beta 90.000000
_cell_angle_gamma 90.000000
_cell_volume 2083.073949
_symmetry_space_group_name_H-M "P B C M"
_symmetry_group_IT_number 57
_symmetry_cell_setting 'orthorhombic'
loop_
_space_group_symop_operation_xyz
x,y,z
-x,-y,1/2+z
x,1/2-y,-z
-x,1/2+y,1/2-z
-x,-y,-z
x,y,1/2-z
-x,1/2+y,z
x,1/2-y,1/2+z
loop_
_atom_site_type_symbol
_atom_site_label
_atom_site_fract_x
_atom_site_fract_y
_atom_site_fract_z
Si Si1 0.741333 0.102157 0.065206
Si Si2 0.344478 0.401211 0.933912
Si Si3 0.138262 0.603890 0.067429
Si Si4 0.454566 0.096534 0.934571
Si Si5 0.046259 0.095186 0.934366
O O1 0.733396 0.095083 0.250000
O O2 0.801818 0.072031 0.013976
O O3 0.722972 0.250000 0.000000
O O4 0.705954 0.990387 0.979130
O O5 0.352028 0.394833 0.750000
O O6 0.333319 0.250000 0.000000
O O7 0.397951 0.463863 0.009627
O O8 0.135317 0.621798 0.250000
O O9 0.101407 0.476439 0.012043
O O10 0.117396 0.750000 0.000000
O O11 0.456756 0.099705 0.750000
O O12 0.463205 0.250000 0.000000
O O13 0.500000 0.000000 0.000000
O O14 0.041184 0.102628 0.750000
O O15 0.043312 0.250000 0.000000
O O16 0.000000 0.000000 0.000000
#
# Coordination Sequence:
#
# PCOD8233271 Si02
#       5
#     8   8   8   8   8
#     4  10  20  37  58  84 114 148 187 231 278 331
#     4  11  22  38  58  83 113 149 187 230 280 334
#     4   9  20  37  58  82 112 146 185 229 279 331
#     4  11  22  39  60  85 114 148 187 232 281 334
#     4  11  23  39  58  84 114 149 188 232 280 334
#
# _framework density 19.202390000000001
#
# number of rings (size 3 to 8) (size 9 to 14) (size 15 to 20)
#    0.000    1.600    0.000    6.600    0.000    5.600 
#    0.000    6.000    0.000    0.000    0.000    0.000 
#    0.000    0.000    0.000    0.000    0.000    0.000 
#
# Total GULP energy -496093.958772 kJ/mol
# GULP energy per Si atom -12402.348969 kJ/mol
# Density = 1.915868 g / cm^3
# Si number density = 19.202390 Si / 1000 Ang^3
#
#
#
# Elastic Constant Matrix: (Units=GPa)
#
#
# Indices 1 2 3 4 5 6 
#
# 1 133.0983 92.1537 54.0751 0.0000 0.0000 0.0000
# 2 92.1537 135.0158 53.0633 0.0000 0.0000 0.0000
# 3 54.0751 53.0633 129.1450 0.0000 0.0000 0.0000
# 4 0.0000 0.0000 0.0000 38.2757 0.0000 0.0000
# 5 0.0000 0.0000 0.0000 0.0000 30.8990 0.0000
# 6 0.0000 0.0000 0.0000 0.0000 0.0000 46.6359
#
#
#
# Elastic Compliance Matrix: (Units=1/GPa)
#
#
# Indices 1 2 3 4 5 6 
#
# 1 0.014869 -0.009185 -0.002452 0.000000 0.000000 0.000000
# 2 -0.009185 0.014507 -0.002115 0.000000 0.000000 0.000000
# 3 -0.002452 -0.002115 0.009639 0.000000 0.000000 0.000000
# 4 0.000000 0.000000 0.000000 0.026126 0.000000 0.000000
# 5 0.000000 0.000000 0.000000 0.000000 0.032363 0.000000
# 6 0.000000 0.000000 0.000000 0.000000 0.000000 0.021443
#
#
# Mechanical properties :
#
#
# Convention : Reuss Voigt Hill
#
# Bulk Modulus (GPa) = 86.87108 88.42704 87.64906
# Shear Modulus (GPa) = 33.26974 36.35993 34.81484
#
# Velocity S-wave (km/s) = 4.16695 4.35617 4.26261
# Velocity P-wave (km/s) = 8.27582 8.45291 8.36483
#
# Compressibility (1/GPa) = 0.01151131
#
# Stress axis : x y z
#
# Youngs Moduli (GPa) = 67.25498 68.93368 103.74783
#
# Poissons Ratio (x) = 0.63315 0.25438
# Poissons Ratio (y) = 0.61773 0.21939
# Poissons Ratio (z) = 0.16490 0.14577
#
# Static dielectric constant tensor:
#      x y z
#    x 3.948180 0.000000 0.000000 
#    y 0.000000 3.504490 0.000000 
#    z 0.000000 0.000000 3.644070 
# 
# 
# High freq. dielectric constant tensor:
#      x y z
#    x 1.760450 0.000000 0.000000 
#    y 0.000000 1.747720 0.000000 
#    z 0.000000 0.000000 1.763280 
# 
# From -- ./inp_files/8909.got.cif
#   From: 2010.03.12/outbox.cif.g09.slc.cpg/sg57_5_cif.got.tgz:8909.got - 2010.04.16 15:48:40.
