data_PCOD8233804
_publ_section_title
;
Structure prediction by ZEFSAII (Michael W. Deem and Ramdas Pophale) SiO2 
 PCOD8233804
Probable space group: P B C M
;
_chemical_formula_sum "Si O2"
_cell_formula_units_Z 64
_cell_length_a 24.740582
_cell_length_b 14.240487
_cell_length_c 9.216418
_cell_angle_alpha 90.000000
_cell_angle_beta 90.000000
_cell_angle_gamma 90.000000
_cell_volume 3247.109370
_symmetry_space_group_name_H-M "P B C M"
_symmetry_group_IT_number 57
_symmetry_cell_setting 'orthorhombic'
loop_
_space_group_symop_operation_xyz
x,y,z
-x,-y,1/2+z
x,1/2-y,-z
-x,1/2+y,1/2-z
-x,-y,-z
x,y,1/2-z
-x,1/2+y,z
x,1/2-y,1/2+z
loop_
_atom_site_type_symbol
_atom_site_label
_atom_site_fract_x
_atom_site_fract_y
_atom_site_fract_z
Si Si1 0.119709 0.450159 0.580655
Si Si2 0.370297 0.842028 0.920897
Si Si3 0.092687 0.660060 0.585480
Si Si4 0.020921 0.410838 0.416042
Si Si5 0.319667 0.467693 0.084119
Si Si6 0.476111 0.911845 0.417586
Si Si7 0.589240 0.666111 0.590788
Si Si8 0.768188 0.849877 0.579705
O O1 0.104926 0.446097 0.750000
O O2 0.115799 0.559511 0.527209
O O3 0.076994 0.383074 0.495285
O O4 0.177593 0.407148 0.545483
O O5 0.381363 0.825050 0.750000
O O6 0.324227 0.920970 0.944175
O O7 0.346989 0.750000 0.000000
O O8 0.426231 0.868246 0.997807
O O9 0.116609 0.750000 0.500000
O O10 0.111962 0.672165 0.750000
O O11 0.027079 0.665383 0.574088
O O12 0.033837 0.435876 0.250000
O O13 0.000000 0.500000 0.500000
O O14 0.301825 0.447789 0.250000
O O15 0.380648 0.430956 0.050506
O O16 0.279065 0.417471 0.975592
O O17 0.460913 0.935992 0.250000
O O18 0.524824 0.837522 0.422628
O O19 0.500000 0.000000 0.500000
O O20 0.614453 0.750000 0.500000
O O21 0.607000 0.694421 0.750000
O O22 0.768002 0.750000 0.500000
O O23 0.760860 0.831594 0.750000
#
# Coordination Sequence:
#
# PCOD8233804 Si02
#       8
#     8   8   8   8   8   8   8   8
#     4   9  20  38  56  79 114 151 190 239 287 340
#     4  11  23  41  62  88 120 155 196 241 289 348
#     4   9  18  32  51  79 114 151 188 228 274 327
#     4   9  17  30  50  77 111 150 191 232 278 332
#     4  10  22  42  62  83 115 148 189 240 287 341
#     4  11  21  36  57  84 119 158 194 233 285 341
#     4  10  21  36  54  81 113 147 184 227 278 333
#     4  11  24  42  64  88 114 146 189 240 297 353
#
# _framework density 19.709837
#
# number of rings (size 3 to 8) (size 9 to 14) (size 15 to 20)
#    0.000    2.000    1.250    3.000    0.000    8.500 
#    0.000    3.125    0.000    3.000    0.000    0.000 
#    0.000    0.000    0.000    0.000    0.000    0.000 
#
# Total GULP energy -793176.267909 kJ/mol
# GULP energy per Si atom -12393.379186 kJ/mol
# Density = 1.966498 g / cm^3
# Si number density = 19.709837 Si / 1000 Ang^3
#
#
#
# Elastic Constant Matrix: (Units=GPa)
#
#
# Indices 1 2 3 4 5 6 
#
# 1 92.2578 39.2021 49.7963 0.0000 0.0000 0.0000
# 2 39.2021 121.3044 62.2557 0.0000 0.0000 0.0000
# 3 49.7963 62.2557 114.8683 0.0000 0.0000 0.0000
# 4 0.0000 0.0000 0.0000 35.8716 0.0000 0.0000
# 5 0.0000 0.0000 0.0000 0.0000 27.4641 0.0000
# 6 0.0000 0.0000 0.0000 0.0000 0.0000 22.4812
#
#
#
# Elastic Compliance Matrix: (Units=1/GPa)
#
#
# Indices 1 2 3 4 5 6 
#
# 1 0.014500 -0.002022 -0.005190 0.000000 0.000000 0.000000
# 2 -0.002022 0.011702 -0.005466 0.000000 0.000000 0.000000
# 3 -0.005190 -0.005466 0.013918 0.000000 0.000000 0.000000
# 4 0.000000 0.000000 0.000000 0.027877 0.000000 0.000000
# 5 0.000000 0.000000 0.000000 0.000000 0.036411 0.000000
# 6 0.000000 0.000000 0.000000 0.000000 0.000000 0.044482
#
#
# Mechanical properties :
#
#
# Convention : Reuss Voigt Hill
#
# Bulk Modulus (GPa) = 67.73122 70.10428 68.91775
# Shear Modulus (GPa) = 27.90701 28.97515 28.44108
#
# Velocity S-wave (km/s) = 3.76692 3.83833 3.80279
# Velocity P-wave (km/s) = 7.30468 7.43566 7.37046
#
# Compressibility (1/GPa) = 0.01476424
#
# Stress axis : x y z
#
# Youngs Moduli (GPa) = 68.96704 85.45256 71.85157
#
# Poissons Ratio (x) = 0.17283 0.37288
# Poissons Ratio (y) = 0.13949 0.39271
# Poissons Ratio (z) = 0.35791 0.46705
#
# Static dielectric constant tensor:
#      x y z
#    x 3.491790 0.000000 0.000000 
#    y 0.000000 3.988830 0.000000 
#    z 0.000000 0.000000 3.800080 
# 
# 
# High freq. dielectric constant tensor:
#      x y z
#    x 1.750360 0.000000 0.000000 
#    y 0.000000 1.766080 0.000000 
#    z 0.000000 0.000000 1.775990 
# 
# From -- ./inp_files/9314.got.cif
#   From: 2010.03.12/outbox.cif.g09.slc.cpg/sg57_5_cif.got.tgz:9314.got - 2010.04.16 15:48:40.
