data_PCOD8233871
_publ_section_title
;
Structure prediction by ZEFSAII (Michael W. Deem and Ramdas Pophale) SiO2 
 PCOD8233871
Probable space group: P B C M
;
_chemical_formula_sum "Si O2"
_cell_formula_units_Z 56
_cell_length_a 19.207946
_cell_length_b 15.972840
_cell_length_c 8.786677
_cell_angle_alpha 90.000000
_cell_angle_beta 90.000000
_cell_angle_gamma 90.000000
_cell_volume 2695.800375
_symmetry_space_group_name_H-M "P B C M"
_symmetry_group_IT_number 57
_symmetry_cell_setting 'orthorhombic'
loop_
_space_group_symop_operation_xyz
x,y,z
-x,-y,1/2+z
x,1/2-y,-z
-x,1/2+y,1/2-z
-x,-y,-z
x,y,1/2-z
-x,1/2+y,z
x,1/2-y,1/2+z
loop_
_atom_site_type_symbol
_atom_site_label
_atom_site_fract_x
_atom_site_fract_y
_atom_site_fract_z
Si Si1 0.701871 0.086298 0.425634
Si Si2 0.155436 0.836106 0.925959
Si Si3 0.716325 0.583177 0.072581
Si Si4 0.430078 0.840508 0.429182
Si Si5 0.075793 0.500189 0.069405
Si Si6 0.159210 0.164884 0.930678
Si Si7 0.430104 0.161223 0.073367
O O1 0.679322 0.083339 0.250000
O O2 0.761530 0.155490 0.452702
O O3 0.634918 0.101781 0.529582
O O4 0.735470 0.998818 0.476147
O O5 0.137550 0.829843 0.750000
O O6 0.115910 0.917437 0.993890
O O7 0.128685 0.750000 0.000000
O O8 0.732834 0.570575 0.250000
O O9 0.635091 0.601518 0.045780
O O10 0.763840 0.656745 0.004008
O O11 0.416917 0.750000 0.500000
O O12 0.436329 0.833154 0.250000
O O13 0.501560 0.879619 0.495322
O O14 0.071786 0.502793 0.250000
O O15 0.114024 0.415068 0.016701
O O16 0.000000 0.500000 0.000000
O O17 0.164498 0.172194 0.750000
O O18 0.125825 0.250000 0.000000
O O19 0.446079 0.174771 0.250000
O O20 0.413068 0.250000 0.000000
#
# Coordination Sequence:
#
# PCOD8233871 Si02
#       7
#     8   8   8   8   8   8   8
#     4  11  22  39  61  85 121 162 203 260 317 369
#     4  10  22  41  64  93 126 164 208 253 307 369
#     4  11  23  38  60  90 121 158 209 260 314 376
#     4  11  22  37  57  83 115 155 205 257 311 376
#     4  10  23  44  66  94 131 167 206 253 309 369
#     4  11  23  42  66  94 130 169 212 260 312 374
#     4  10  21  37  56  81 114 154 201 255 312 373
#
# _framework density 20.773050000000001
#
# number of rings (size 3 to 8) (size 9 to 14) (size 15 to 20)
#    0.000    1.429    1.429    4.714    0.000    8.571 
#    0.000    2.857    0.000    0.000    0.000    0.000 
#    0.000    0.000    0.000    0.000    0.000    0.000 
#
# Total GULP energy -694542.429693 kJ/mol
# GULP energy per Si atom -12402.543387 kJ/mol
# Density = 2.072577 g / cm^3
# Si number density = 20.773050 Si / 1000 Ang^3
#
#
#
# Elastic Constant Matrix: (Units=GPa)
#
#
# Indices 1 2 3 4 5 6 
#
# 1 109.0032 51.5726 51.2471 0.0000 0.0000 0.0000
# 2 51.5726 138.7058 44.0282 0.0000 0.0000 0.0000
# 3 51.2471 44.0282 104.4535 0.0000 0.0000 0.0000
# 4 0.0000 0.0000 0.0000 37.2451 0.0000 0.0000
# 5 0.0000 0.0000 0.0000 0.0000 33.4381 0.0000
# 6 0.0000 0.0000 0.0000 0.0000 0.0000 26.0833
#
#
#
# Elastic Compliance Matrix: (Units=1/GPa)
#
#
# Indices 1 2 3 4 5 6 
#
# 1 0.013092 -0.003266 -0.005047 0.000000 0.000000 0.000000
# 2 -0.003266 0.009138 -0.002249 0.000000 0.000000 0.000000
# 3 -0.005047 -0.002249 0.012998 0.000000 0.000000 0.000000
# 4 0.000000 0.000000 0.000000 0.026849 0.000000 0.000000
# 5 0.000000 0.000000 0.000000 0.000000 0.029906 0.000000
# 6 0.000000 0.000000 0.000000 0.000000 0.000000 0.038339
#
#
# Mechanical properties :
#
#
# Convention : Reuss Voigt Hill
#
# Bulk Modulus (GPa) = 70.90284 71.76202 71.33243
# Shear Modulus (GPa) = 32.02133 33.04094 32.53114
#
# Velocity S-wave (km/s) = 3.93043 3.99252 3.96160
# Velocity P-wave (km/s) = 7.40297 7.47491 7.43903
#
# Compressibility (1/GPa) = 0.01410381
#
# Stress axis : x y z
#
# Youngs Moduli (GPa) = 76.38378 109.43580 76.93663
#
# Poissons Ratio (x) = 0.35740 0.38826
# Poissons Ratio (y) = 0.24946 0.17306
# Poissons Ratio (z) = 0.38547 0.24616
#
# Static dielectric constant tensor:
#      x y z
#    x 3.806090 0.000000 0.000000 
#    y 0.000000 3.875620 0.000000 
#    z 0.000000 0.000000 3.701770 
# 
# 
# High freq. dielectric constant tensor:
#      x y z
#    x 1.814080 0.000000 0.000000 
#    y 0.000000 1.815410 0.000000 
#    z 0.000000 0.000000 1.816630 
# 
# From -- ./inp_files/8042.got.cif
#   From: 2010.03.12/outbox.cif.g09.slc.cpg/sg57_5_cif.got.tgz:8042.got - 2010.04.16 15:48:40.
