data_PCOD8233636
_publ_section_title
;
Structure prediction by ZEFSAII (Michael W. Deem and Ramdas Pophale) SiO2 
 PCOD8233636
Probable space group: P B C M
;
_chemical_formula_sum "Si O2"
_cell_formula_units_Z 56
_cell_length_a 19.281306
_cell_length_b 8.595379
_cell_length_c 15.641599
_cell_angle_alpha 90.000000
_cell_angle_beta 90.000000
_cell_angle_gamma 90.000000
_cell_volume 2592.284278
_symmetry_space_group_name_H-M "P B C M"
_symmetry_group_IT_number 57
_symmetry_cell_setting 'orthorhombic'
loop_
_space_group_symop_operation_xyz
x,y,z
-x,-y,1/2+z
x,1/2-y,-z
-x,1/2+y,1/2-z
-x,-y,-z
x,y,1/2-z
-x,1/2+y,z
x,1/2-y,1/2+z
loop_
_atom_site_type_symbol
_atom_site_label
_atom_site_fract_x
_atom_site_fract_y
_atom_site_fract_z
Si Si1 0.960341 0.030597 0.349327
Si Si2 0.464881 0.875002 0.940236
Si Si3 0.227570 0.587516 0.534887
Si Si4 0.162057 0.346419 0.418615
Si Si5 0.716707 0.652841 0.152450
Si Si6 0.419715 0.164061 0.849635
Si Si7 0.906393 0.143272 0.852493
O O1 0.967600 0.056235 0.250000
O O2 0.905608 0.893411 0.366013
O O3 0.036651 0.983553 0.383026
O O4 0.933909 0.191774 0.389211
O O5 0.522167 0.772499 0.891547
O O6 0.418569 0.980633 0.876995
O O7 0.422475 0.750000 0.000000
O O8 0.500000 0.000000 0.000000
O O9 0.257496 0.750000 0.500000
O O10 0.204978 0.495789 0.450142
O O11 0.286611 0.494745 0.588034
O O12 0.164562 0.606282 0.600978
O O13 0.136751 0.250000 0.500000
O O14 0.210525 0.242312 0.357862
O O15 0.708807 0.595296 0.250000
O O16 0.655036 0.767793 0.125816
O O17 0.434188 0.169055 0.750000
O O18 0.894832 0.144505 0.750000
#
# Coordination Sequence:
#
# PCOD8233636 Si02
#       7
#     8   8   8   8   8   8   8
#     4  10  21  37  56  81 111 152 200 248 304 369
#     4   9  19  35  62  96 134 170 203 246 306 361
#     4  11  22  40  59  87 120 153 201 256 314 364
#     4  10  22  37  57  84 115 156 195 247 303 364
#     4  10  23  42  65  88 121 165 205 246 302 367
#     4  10  20  39  65  96 130 169 215 257 298 356
#     4  10  22  37  58  83 114 155 200 250 310 376
#
# _framework density 21.602568000000002
#
# number of rings (size 3 to 8) (size 9 to 14) (size 15 to 20)
#    0.000    2.000    1.429    1.286    4.000    6.286 
#    0.000    5.714    0.000    6.857    0.000    0.000 
#    0.000    0.000    0.000    0.000    0.000    0.000 
#
# Total GULP energy -694139.846100 kJ/mol
# GULP energy per Si atom -12395.354395 kJ/mol
# Density = 2.155340 g / cm^3
# Si number density = 21.602568 Si / 1000 Ang^3
#
#
#
# Elastic Constant Matrix: (Units=GPa)
#
#
# Indices 1 2 3 4 5 6 
#
# 1 65.1525 27.0321 28.4957 0.0000 0.0000 0.0000
# 2 27.0321 136.9596 45.0596 0.0000 0.0000 0.0000
# 3 28.4957 45.0596 64.0328 0.0000 0.0000 0.0000
# 4 0.0000 0.0000 0.0000 39.2454 0.0000 0.0000
# 5 0.0000 0.0000 0.0000 0.0000 19.6019 0.0000
# 6 0.0000 0.0000 0.0000 0.0000 0.0000 33.5393
#
#
#
# Elastic Compliance Matrix: (Units=1/GPa)
#
#
# Indices 1 2 3 4 5 6 
#
# 1 0.019228 -0.001275 -0.007659 0.000000 0.000000 0.000000
# 2 -0.001275 0.009586 -0.006178 0.000000 0.000000 0.000000
# 3 -0.007659 -0.006178 0.023373 0.000000 0.000000 0.000000
# 4 0.000000 0.000000 0.000000 0.025481 0.000000 0.000000
# 5 0.000000 0.000000 0.000000 0.000000 0.051015 0.000000
# 6 0.000000 0.000000 0.000000 0.000000 0.000000 0.029816
#
#
# Mechanical properties :
#
#
# Convention : Reuss Voigt Hill
#
# Bulk Modulus (GPa) = 45.53438 51.92441 48.72940
# Shear Modulus (GPa) = 25.50458 29.51450 27.50954
#
# Velocity S-wave (km/s) = 3.43975 3.70029 3.57240
# Velocity P-wave (km/s) = 6.07453 6.50727 6.29462
#
# Compressibility (1/GPa) = 0.02196143
#
# Stress axis : x y z
#
# Youngs Moduli (GPa) = 52.00848 104.32294 42.78452
#
# Poissons Ratio (x) = 0.13302 0.32770
# Poissons Ratio (y) = 0.06632 0.26432
# Poissons Ratio (z) = 0.39835 0.64450
#
# Static dielectric constant tensor:
#      x y z
#    x 3.796590 0.000000 0.000000 
#    y 0.000000 4.467150 0.000000 
#    z 0.000000 0.000000 3.975550 
# 
# 
# High freq. dielectric constant tensor:
#      x y z
#    x 1.824970 0.000000 0.000000 
#    y 0.000000 1.865280 0.000000 
#    z 0.000000 0.000000 1.851430 
# 
# From -- ./inp_files/19324.got.cif
#   From: 2010.03.12/outbox.cif.g09.slc.cpg/sg57_10_cif.got.tgz:19324.got - 2010.04.16 15:48:40.
