data_PCOD8233443
_publ_section_title
;
Structure prediction by ZEFSAII (Michael W. Deem and Ramdas Pophale) SiO2 
 PCOD8233443
Probable space group: P B C M
;
_chemical_formula_sum "Si O2"
_cell_formula_units_Z 32
_cell_length_a 7.013412
_cell_length_b 8.749120
_cell_length_c 23.171407
_cell_angle_alpha 90.000000
_cell_angle_beta 90.000000
_cell_angle_gamma 90.000000
_cell_volume 1421.824950
_symmetry_space_group_name_H-M "P B C M"
_symmetry_group_IT_number 57
_symmetry_cell_setting 'orthorhombic'
loop_
_space_group_symop_operation_xyz
x,y,z
-x,-y,1/2+z
x,1/2-y,-z
-x,1/2+y,1/2-z
-x,-y,-z
x,y,1/2-z
-x,1/2+y,z
x,1/2-y,1/2+z
loop_
_atom_site_type_symbol
_atom_site_label
_atom_site_fract_x
_atom_site_fract_y
_atom_site_fract_z
Si Si1 0.931966 0.624843 0.456846
Si Si2 0.749179 0.174211 0.135820
Si Si3 0.647730 0.979311 0.637569
Si Si4 0.656238 0.809995 0.750000
Si Si5 0.244947 0.548304 0.250000
O O1 0.848500 0.750000 0.500000
O O2 0.759661 0.565705 0.419194
O O3 0.000000 0.500000 0.500000
O O4 0.108483 0.683018 0.417919
O O5 0.573460 0.058583 0.124971
O O6 0.664859 0.340724 0.149661
O O7 0.863611 0.102069 0.191521
O O8 0.738141 0.888325 0.691990
O O9 0.704470 0.630453 0.750000
O O10 0.432370 0.844866 0.750000
#
# Coordination Sequence:
#
# PCOD8233443 Si02
#       5
#     8   8   8   4   4
#     4  12  28  47  64  94 133 174 224 268 314 384
#     4  11  24  43  70  98 130 172 213 269 328 383
#     4  11  24  43  70  97 132 170 214 268 328 385
#     4  10  20  37  66  99 131 165 209 268 324 391
#     4  10  20  37  66  99 131 163 213 264 326 391
#
# _framework density 22.506284999999998
#
# number of rings (size 3 to 8) (size 9 to 14) (size 15 to 20)
#    0.000    1.000    2.500    6.750    7.000    3.000 
#    0.000    0.000    0.000    0.000    0.000    0.000 
#    0.000    0.000    0.000    0.000    0.000    0.000 
#
# Total GULP energy -396629.399114 kJ/mol
# GULP energy per Si atom -12394.668722 kJ/mol
# Density = 2.245506 g / cm^3
# Si number density = 22.506285 Si / 1000 Ang^3
#
#
#
# Elastic Constant Matrix: (Units=GPa)
#
#
# Indices 1 2 3 4 5 6 
#
# 1 51.0345 -2.0091 22.3391 0.0000 0.0000 0.0000
# 2 -2.0091 120.3822 24.7449 0.0000 0.0000 0.0000
# 3 22.3391 24.7449 151.1672 0.0000 0.0000 0.0000
# 4 0.0000 0.0000 0.0000 44.1018 0.0000 0.0000
# 5 0.0000 0.0000 0.0000 0.0000 67.5404 0.0000
# 6 0.0000 0.0000 0.0000 0.0000 0.0000 25.6312
#
#
#
# Elastic Compliance Matrix: (Units=1/GPa)
#
#
# Indices 1 2 3 4 5 6 
#
# 1 0.021072 0.001026 -0.003282 0.000000 0.000000 0.000000
# 2 0.001026 0.008646 -0.001567 0.000000 0.000000 0.000000
# 3 -0.003282 -0.001567 0.007357 0.000000 0.000000 0.000000
# 4 0.000000 0.000000 0.000000 0.022675 0.000000 0.000000
# 5 0.000000 0.000000 0.000000 0.000000 0.014806 0.000000
# 6 0.000000 0.000000 0.000000 0.000000 0.000000 0.039015
#
#
# Mechanical properties :
#
#
# Convention : Reuss Voigt Hill
#
# Bulk Modulus (GPa) = 33.97988 45.85929 39.91958
# Shear Modulus (GPa) = 38.16064 45.95526 42.05795
#
# Velocity S-wave (km/s) = 4.12218 4.52362 4.32756
# Velocity P-wave (km/s) = 6.14713 6.90686 6.53804
#
# Compressibility (1/GPa) = 0.02942918
#
# Stress axis : x y z
#
# Youngs Moduli (GPa) = 47.45731 115.65911 135.93082
#
# Poissons Ratio (x) = -0.11870 0.44611
# Poissons Ratio (y) = -0.04870 0.21300
# Poissons Ratio (z) = 0.15575 0.18123
#
# Static dielectric constant tensor:
#      x y z
#    x -6.405720 0.000000 0.000000 
#    y 0.000000 4.121980 0.000000 
#    z 0.000000 0.000000 4.555560 
# 
# 
# High freq. dielectric constant tensor:
#      x y z
#    x 1.865470 0.000000 0.000000 
#    y 0.000000 1.904580 0.000000 
#    z 0.000000 0.000000 1.912280 
# 
# From -- ./inp_files/23971.got.cif
#   From: 2010.03.12/outbox.cif.g09.slc.cpg/sg57_12_cif.got.tgz:23971.got - 2010.04.16 15:48:40.
