data_PCOD8233862
_publ_section_title
;
Structure prediction by ZEFSAII (Michael W. Deem and Ramdas Pophale) SiO2 
 PCOD8233862
Probable space group: P B C M
;
_chemical_formula_sum "Si O2"
_cell_formula_units_Z 48
_cell_length_a 15.382665
_cell_length_b 18.041589
_cell_length_c 8.991531
_cell_angle_alpha 90.000000
_cell_angle_beta 90.000000
_cell_angle_gamma 90.000000
_cell_volume 2495.399095
_symmetry_space_group_name_H-M "P B C M"
_symmetry_group_IT_number 57
_symmetry_cell_setting 'orthorhombic'
loop_
_space_group_symop_operation_xyz
x,y,z
-x,-y,1/2+z
x,1/2-y,-z
-x,1/2+y,1/2-z
-x,-y,-z
x,y,1/2-z
-x,1/2+y,z
x,1/2-y,1/2+z
loop_
_atom_site_type_symbol
_atom_site_label
_atom_site_fract_x
_atom_site_fract_y
_atom_site_fract_z
Si Si1 0.658895 0.672639 0.423995
Si Si2 0.000810 0.921281 0.077249
Si Si3 0.484133 0.078100 0.574637
Si Si4 0.654388 0.170850 0.924741
Si Si5 0.164466 0.405531 0.577434
Si Si6 0.808632 0.429186 0.422875
O O1 0.636823 0.750000 0.500000
O O2 0.636073 0.676762 0.250000
O O3 0.602547 0.609735 0.501463
O O4 0.759389 0.652931 0.450961
O O5 0.981289 0.930331 0.250000
O O6 0.097896 0.888271 0.050814
O O7 0.922345 0.873844 0.004333
O O8 0.000000 0.000000 0.000000
O O9 0.471238 0.068217 0.750000
O O10 0.563605 0.132256 0.537200
O O11 0.500000 0.000000 0.500000
O O12 0.666898 0.182130 0.750000
O O13 0.732214 0.120473 0.994144
O O14 0.656826 0.250000 0.000000
O O15 0.141554 0.413568 0.750000
O O16 0.190804 0.486795 0.511942
O O17 0.787155 0.437018 0.250000
#
# Coordination Sequence:
#
# PCOD8233862 Si02
#       6
#     8   8   8   8   8   8
#     4  11  23  39  58  81 113 150 186 228 280 335
#     4   9  16  28  50  78 107 139 178 225 274 324
#     4  11  23  39  61  86 111 142 182 227 275 329
#     4  10  21  37  55  77 108 144 178 216 266 321
#     4   9  18  34  55  77 104 141 184 230 278 325
#     4   8  15  31  53  75 102 138 177 218 268 320
#
# _framework density 19.235401
#
# number of rings (size 3 to 8) (size 9 to 14) (size 15 to 20)
#    0.000    2.333    0.000    4.000    0.000    6.667 
#    0.000    5.000    0.000    4.000    0.000    0.000 
#    0.000    0.000    0.000    0.000    0.000    0.000 
#
# Total GULP energy -595028.998772 kJ/mol
# GULP energy per Si atom -12396.437474 kJ/mol
# Density = 1.919162 g / cm^3
# Si number density = 19.235401 Si / 1000 Ang^3
#
#
#
# Elastic Constant Matrix: (Units=GPa)
#
#
# Indices 1 2 3 4 5 6 
#
# 1 84.2754 9.4108 44.4165 0.0000 0.0000 0.0000
# 2 9.4108 69.3244 24.8643 0.0000 0.0000 0.0000
# 3 44.4165 24.8643 75.7299 0.0000 0.0000 0.0000
# 4 0.0000 0.0000 0.0000 30.1780 0.0000 0.0000
# 5 0.0000 0.0000 0.0000 0.0000 32.2332 0.0000
# 6 0.0000 0.0000 0.0000 0.0000 0.0000 19.8693
#
#
#
# Elastic Compliance Matrix: (Units=1/GPa)
#
#
# Indices 1 2 3 4 5 6 
#
# 1 0.017305 0.001463 -0.010630 0.000000 0.000000 0.000000
# 2 0.001463 0.016474 -0.006267 0.000000 0.000000 0.000000
# 3 -0.010630 -0.006267 0.021497 0.000000 0.000000 0.000000
# 4 0.000000 0.000000 0.000000 0.033137 0.000000 0.000000
# 5 0.000000 0.000000 0.000000 0.000000 0.031024 0.000000
# 6 0.000000 0.000000 0.000000 0.000000 0.000000 0.050329
#
#
# Mechanical properties :
#
#
# Convention : Reuss Voigt Hill
#
# Bulk Modulus (GPa) = 40.96922 42.96808 41.96865
# Shear Modulus (GPa) = 23.94986 26.49865 25.22426
#
# Velocity S-wave (km/s) = 3.53242 3.71563 3.62518
# Velocity P-wave (km/s) = 6.16298 6.38705 6.27602
#
# Compressibility (1/GPa) = 0.02440857
#
# Stress axis : x y z
#
# Youngs Moduli (GPa) = 57.78715 60.70124 46.51773
#
# Poissons Ratio (x) = -0.08883 0.49448
# Poissons Ratio (y) = -0.08457 0.29154
# Poissons Ratio (z) = 0.61428 0.38043
#
# Static dielectric constant tensor:
#      x y z
#    x 5.488380 0.000000 0.000000 
#    y 0.000000 3.234490 0.000000 
#    z 0.000000 0.000000 3.876510 
# 
# 
# High freq. dielectric constant tensor:
#      x y z
#    x 1.770230 0.000000 0.000000 
#    y 0.000000 1.725270 0.000000 
#    z 0.000000 0.000000 1.736880 
# 
# From -- ./inp_files/4539.got.cif
#   From: 2010.03.12/outbox.cif.g09.slc.cpg/sg57_3_cif.got.tgz:4539.got - 2010.04.16 15:48:40.
