data_PCOD8233278
_publ_section_title
;
Structure prediction by ZEFSAII (Michael W. Deem and Ramdas Pophale) SiO2 
 PCOD8233278
Probable space group: P B C M
;
_chemical_formula_sum "Si O2"
_cell_formula_units_Z 40
_cell_length_a 5.143402
_cell_length_b 26.260988
_cell_length_c 16.051043
_cell_angle_alpha 90.000000
_cell_angle_beta 90.000000
_cell_angle_gamma 90.000000
_cell_volume 2168.027511
_symmetry_space_group_name_H-M "P B C M"
_symmetry_group_IT_number 57
_symmetry_cell_setting 'orthorhombic'
loop_
_space_group_symop_operation_xyz
x,y,z
-x,-y,1/2+z
x,1/2-y,-z
-x,1/2+y,1/2-z
-x,-y,-z
x,y,1/2-z
-x,1/2+y,z
x,1/2-y,1/2+z
loop_
_atom_site_type_symbol
_atom_site_label
_atom_site_fract_x
_atom_site_fract_y
_atom_site_fract_z
Si Si1 0.013389 0.764283 0.657460
Si Si2 0.972139 0.940973 0.517315
Si Si3 0.166920 0.875819 0.653315
Si Si4 0.478413 0.221958 0.580903
Si Si5 0.461211 0.615791 0.996154
O O1 0.116347 0.754215 0.750000
O O2 0.991064 0.825115 0.642399
O O3 0.227873 0.739494 0.597863
O O4 0.731647 0.737614 0.650431
O O5 0.690698 0.924599 0.486114
O O6 0.009482 0.924597 0.615418
O O7 0.195480 0.911377 0.464981
O O8 0.000000 0.000000 0.500000
O O9 0.244187 0.885664 0.750000
O O10 0.423370 0.867492 0.594222
O O11 0.369315 0.250000 0.500000
O O12 0.477323 0.161883 0.565469
#
# Coordination Sequence:
#
# PCOD8233278 Si02
#       5
#     8   8   8   8   8
#     4  11  23  36  55  84 120 156 190 236 292 346
#     4  10  20  37  58  85 111 146 193 244 299 340
#     4   9  21  36  56  88 119 145 188 245 298 341
#     4  12  20  36  57  83 117 151 196 227 287 351
#     4  10  21  35  58  87 108 153 189 241 280 348
#
# _framework density 18.449950999999999
#
# number of rings (size 3 to 8) (size 9 to 14) (size 15 to 20)
#    1.200    0.400    2.000    4.200    0.000    0.800 
#    0.000    0.000    0.000    7.200    0.000    0.000 
#    0.000    0.000    0.000    0.000    0.000    0.000 
#
# Total GULP energy -495610.694258 kJ/mol
# GULP energy per Si atom -12390.267356 kJ/mol
# Density = 1.840796 g / cm^3
# Si number density = 18.449951 Si / 1000 Ang^3
#
#
#
# Elastic Constant Matrix: (Units=GPa)
#
#
# Indices 1 2 3 4 5 6 
#
# 1 106.2771 37.0978 14.9912 0.0000 0.0000 0.0000
# 2 37.0978 135.7135 46.9323 0.0000 0.0000 0.0000
# 3 14.9912 46.9323 61.8895 0.0000 0.0000 0.0000
# 4 0.0000 0.0000 0.0000 23.4443 0.0000 0.0000
# 5 0.0000 0.0000 0.0000 0.0000 22.1381 0.0000
# 6 0.0000 0.0000 0.0000 0.0000 0.0000 34.0279
#
#
#
# Elastic Compliance Matrix: (Units=1/GPa)
#
#
# Indices 1 2 3 4 5 6 
#
# 1 0.010413 -0.002676 -0.000493 0.000000 0.000000 0.000000
# 2 -0.002676 0.010675 -0.007447 0.000000 0.000000 0.000000
# 3 -0.000493 -0.007447 0.021925 0.000000 0.000000 0.000000
# 4 0.000000 0.000000 0.000000 0.042654 0.000000 0.000000
# 5 0.000000 0.000000 0.000000 0.000000 0.045171 0.000000
# 6 0.000000 0.000000 0.000000 0.000000 0.000000 0.029388
#
#
# Mechanical properties :
#
#
# Convention : Reuss Voigt Hill
#
# Bulk Modulus (GPa) = 45.91238 55.76918 50.84078
# Shear Modulus (GPa) = 26.49450 29.57932 28.03691
#
# Velocity S-wave (km/s) = 3.79360 4.00837 3.90246
# Velocity P-wave (km/s) = 6.64284 7.19135 6.92253
#
# Compressibility (1/GPa) = 0.02178062
#
# Stress axis : x y z
#
# Youngs Moduli (GPa) = 96.03395 93.67403 45.61072
#
# Poissons Ratio (x) = 0.25066 0.02249
# Poissons Ratio (y) = 0.25698 0.33967
# Poissons Ratio (z) = 0.04735 0.69761
#
# Static dielectric constant tensor:
#      x y z
#    x 3.316630 0.000000 0.000000 
#    y 0.000000 3.215690 0.000000 
#    z 0.000000 0.000000 3.223470 
# 
# 
# High freq. dielectric constant tensor:
#      x y z
#    x 1.724490 0.000000 0.000000 
#    y 0.000000 1.705730 0.000000 
#    z 0.000000 0.000000 1.687160 
# 
# From -- ./inp_files/14959.got.cif
#   From: 2010.03.12/outbox.cif.g09.slc.cpg/sg57_8_cif.got.tgz:14959.got - 2010.04.16 15:48:40.
