data_PCOD8233434
_publ_section_title
;
Structure prediction by ZEFSAII (Michael W. Deem and Ramdas Pophale) SiO2 
 PCOD8233434
Probable space group: P B C M
;
_chemical_formula_sum "Si O2"
_cell_formula_units_Z 64
_cell_length_a 14.238272
_cell_length_b 11.998040
_cell_length_c 17.829397
_cell_angle_alpha 90.000000
_cell_angle_beta 90.000000
_cell_angle_gamma 90.000000
_cell_volume 3045.820084
_symmetry_space_group_name_H-M "P B C M"
_symmetry_group_IT_number 57
_symmetry_cell_setting 'orthorhombic'
loop_
_space_group_symop_operation_xyz
x,y,z
-x,-y,1/2+z
x,1/2-y,-z
-x,1/2+y,1/2-z
-x,-y,-z
x,y,1/2-z
-x,1/2+y,z
x,1/2-y,1/2+z
loop_
_atom_site_type_symbol
_atom_site_label
_atom_site_fract_x
_atom_site_fract_y
_atom_site_fract_z
Si Si1 0.874664 0.062690 0.335651
Si Si2 0.791492 0.596894 0.338212
Si Si3 0.363134 0.269295 0.162788
Si Si4 0.158507 0.729831 0.916924
Si Si5 0.659928 0.025607 0.337147
Si Si6 0.547906 0.274808 0.912805
Si Si7 0.680229 0.378664 0.336868
Si Si8 0.040147 0.988037 0.082945
O O1 0.886048 0.095757 0.250000
O O2 0.902129 0.166678 0.388259
O O3 0.770435 0.023388 0.354730
O O4 0.953423 0.973572 0.359204
O O5 0.818797 0.585687 0.250000
O O6 0.739369 0.714475 0.355219
O O7 0.716497 0.500318 0.361041
O O8 0.885426 0.583860 0.389278
O O9 0.385150 0.248370 0.250000
O O10 0.369102 0.399706 0.142759
O O11 0.441141 0.205513 0.113657
O O12 0.245355 0.716227 0.860504
O O13 0.091283 0.627205 0.913142
O O14 0.198875 0.750000 0.000000
O O15 0.639329 0.054323 0.250000
O O16 0.606887 0.114659 0.389694
O O17 0.583439 0.159364 0.874920
O O18 0.553628 0.250000 0.000000
O O19 0.662109 0.372117 0.250000
O O20 0.000000 0.000000 0.000000
#
# Coordination Sequence:
#
# PCOD8233434 Si02
#       8
#     8   8   8   8   8   8   8   8
#     4  11  23  40  64  93 126 168 218 271 330 399
#     4   9  21  41  67  97 129 169 225 277 333 399
#     4  10  23  45  67  93 132 176 220 275 335 395
#     4  11  21  38  61  92 128 163 215 269 335 389
#     4  10  23  43  68  97 129 170 222 276 335 400
#     4  12  25  40  63  98 133 170 220 275 335 405
#     4  10  20  37  64  93 122 166 217 273 328 389
#     4  11  23  40  63  97 131 175 217 271 333 401
#
# _framework density 21.012402999999999
#
# number of rings (size 3 to 8) (size 9 to 14) (size 15 to 20)
#    0.000    1.500    2.500    2.250    1.750    3.000 
#    2.250    1.250    0.000    0.000    0.000    0.000 
#    0.000    0.000    0.000    0.000    0.000    0.000 
#
# Total GULP energy -793369.196902 kJ/mol
# GULP energy per Si atom -12396.393702 kJ/mol
# Density = 2.096458 g / cm^3
# Si number density = 21.012403 Si / 1000 Ang^3
#
#
#
# Elastic Constant Matrix: (Units=GPa)
#
#
# Indices 1 2 3 4 5 6 
#
# 1 119.8373 37.1752 59.1035 0.0000 0.0000 0.0000
# 2 37.1752 79.1024 39.7048 0.0000 0.0000 0.0000
# 3 59.1035 39.7048 113.8151 0.0000 0.0000 0.0000
# 4 0.0000 0.0000 0.0000 25.7335 0.0000 0.0000
# 5 0.0000 0.0000 0.0000 0.0000 31.0088 0.0000
# 6 0.0000 0.0000 0.0000 0.0000 0.0000 24.6476
#
#
#
# Elastic Compliance Matrix: (Units=1/GPa)
#
#
# Indices 1 2 3 4 5 6 
#
# 1 0.011772 -0.002987 -0.005071 0.000000 0.000000 0.000000
# 2 -0.002987 0.016083 -0.004060 0.000000 0.000000 0.000000
# 3 -0.005071 -0.004060 0.012836 0.000000 0.000000 0.000000
# 4 0.000000 0.000000 0.000000 0.038860 0.000000 0.000000
# 5 0.000000 0.000000 0.000000 0.000000 0.032249 0.000000
# 6 0.000000 0.000000 0.000000 0.000000 0.000000 0.040572
#
#
# Mechanical properties :
#
#
# Convention : Reuss Voigt Hill
#
# Bulk Modulus (GPa) = 60.76909 64.96909 62.86909
# Shear Modulus (GPa) = 27.45844 28.06274 27.76059
#
# Velocity S-wave (km/s) = 3.61885 3.65846 3.63871
# Velocity P-wave (km/s) = 6.81504 6.98801 6.90207
#
# Compressibility (1/GPa) = 0.01645573
#
# Stress axis : x y z
#
# Youngs Moduli (GPa) = 84.94422 62.17621 77.90680
#
# Poissons Ratio (x) = 0.18573 0.39509
# Poissons Ratio (y) = 0.25374 0.31627
# Poissons Ratio (z) = 0.43078 0.25241
#
# Static dielectric constant tensor:
#      x y z
#    x 3.920920 0.000000 0.000000 
#    y 0.000000 3.942010 0.000000 
#    z 0.000000 0.000000 3.702610 
# 
# 
# High freq. dielectric constant tensor:
#      x y z
#    x 1.829030 0.000000 0.000000 
#    y 0.000000 1.819900 0.000000 
#    z 0.000000 0.000000 1.820180 
# 
# From -- ./inp_files/22633.got.cif
#   From: 2010.03.12/outbox.cif.g09.slc.cpg/sg57_12_cif.got.tgz:22633.got - 2010.04.16 15:48:40.
