data_PCOD8233920
_publ_section_title
;
Structure prediction by ZEFSAII (Michael W. Deem and Ramdas Pophale) SiO2 
 PCOD8233920
Probable space group: P B C M
;
_chemical_formula_sum "Si O2"
_cell_formula_units_Z 48
_cell_length_a 30.667034
_cell_length_b 9.610348
_cell_length_c 8.721200
_cell_angle_alpha 90.000000
_cell_angle_beta 90.000000
_cell_angle_gamma 90.000000
_cell_volume 2570.319642
_symmetry_space_group_name_H-M "P B C M"
_symmetry_group_IT_number 57
_symmetry_cell_setting 'orthorhombic'
loop_
_space_group_symop_operation_xyz
x,y,z
-x,-y,1/2+z
x,1/2-y,-z
-x,1/2+y,1/2-z
-x,-y,-z
x,y,1/2-z
-x,1/2+y,z
x,1/2-y,1/2+z
loop_
_atom_site_type_symbol
_atom_site_label
_atom_site_fract_x
_atom_site_fract_y
_atom_site_fract_z
Si Si1 0.203096 0.402903 0.932111
Si Si2 0.375917 0.599021 0.929606
Si Si3 0.537343 0.095238 0.431923
Si Si4 0.966634 0.394910 0.571287
Si Si5 0.866768 0.101325 0.430303
Si Si6 0.719879 0.401172 0.071351
O O1 0.201790 0.393317 0.750000
O O2 0.244869 0.489906 0.992487
O O3 0.206081 0.250000 0.000000
O O4 0.159876 0.477948 0.991739
O O5 0.386920 0.605914 0.750000
O O6 0.328282 0.531817 0.961104
O O7 0.372207 0.750000 0.000000
O O8 0.416335 0.524993 0.016732
O O9 0.533190 0.250000 0.500000
O O10 0.533760 0.100716 0.250000
O O11 0.500000 0.000000 0.500000
O O12 0.979642 0.250000 0.500000
O O13 0.974177 0.387566 0.750000
O O14 0.916875 0.433698 0.531201
O O15 0.000000 0.500000 0.500000
O O16 0.852861 0.250000 0.500000
O O17 0.857566 0.105953 0.250000
O O18 0.726490 0.377858 0.250000
O O19 0.727112 0.250000 0.000000
#
# Coordination Sequence:
#
# PCOD8233920 Si02
#       6
#     8   8   8   8   8   8
#     4  11  23  38  55  79 110 145 181 222 270 321
#     4   9  16  30  51  76 104 135 173 219 264 313
#     4  11  21  35  54  79 108 141 179 221 267 317
#     4  10  21  37  58  83 112 144 181 222 269 319
#     4  10  21  38  59  83 109 142 182 225 267 316
#     4   9  19  34  55  80 105 135 175 219 265 316
#
# _framework density 18.674720000000001
#
# number of rings (size 3 to 8) (size 9 to 14) (size 15 to 20)
#    0.000    2.000    0.000    5.000    0.000    6.000 
#    0.000    0.833    0.000    2.000    0.000    0.000 
#    0.000    0.000    0.000    0.000    0.000    0.000 
#
# Total GULP energy -595035.961830 kJ/mol
# GULP energy per Si atom -12396.582538 kJ/mol
# Density = 1.863222 g / cm^3
# Si number density = 18.674720 Si / 1000 Ang^3
#
#
#
# Elastic Constant Matrix: (Units=GPa)
#
#
# Indices 1 2 3 4 5 6 
#
# 1 148.8762 91.6463 62.2177 0.0000 0.0000 0.0000
# 2 91.6463 121.9464 57.2683 0.0000 0.0000 0.0000
# 3 62.2177 57.2683 103.1932 0.0000 0.0000 0.0000
# 4 0.0000 0.0000 0.0000 33.0711 0.0000 0.0000
# 5 0.0000 0.0000 0.0000 0.0000 30.0245 0.0000
# 6 0.0000 0.0000 0.0000 0.0000 0.0000 20.1309
#
#
#
# Elastic Compliance Matrix: (Units=1/GPa)
#
#
# Indices 1 2 3 4 5 6 
#
# 1 0.013301 -0.008426 -0.003343 0.000000 0.000000 0.000000
# 2 -0.008426 0.016429 -0.004037 0.000000 0.000000 0.000000
# 3 -0.003343 -0.004037 0.013947 0.000000 0.000000 0.000000
# 4 0.000000 0.000000 0.000000 0.030238 0.000000 0.000000
# 5 0.000000 0.000000 0.000000 0.000000 0.033306 0.000000
# 6 0.000000 0.000000 0.000000 0.000000 0.000000 0.049675
#
#
# Mechanical properties :
#
#
# Convention : Reuss Voigt Hill
#
# Bulk Modulus (GPa) = 82.89421 88.47561 85.68491
# Shear Modulus (GPa) = 25.96997 27.50420 26.73709
#
# Velocity S-wave (km/s) = 3.73319 3.84188 3.78792
# Velocity P-wave (km/s) = 7.94148 8.19513 8.06930
#
# Compressibility (1/GPa) = 0.01206357
#
# Stress axis : x y z
#
# Youngs Moduli (GPa) = 75.18035 60.86912 71.70109
#
# Poissons Ratio (x) = 0.51290 0.23973
# Poissons Ratio (y) = 0.63348 0.28945
# Poissons Ratio (z) = 0.25136 0.24573
#
# Static dielectric constant tensor:
#      x y z
#    x 4.185400 0.000000 0.000000 
#    y 0.000000 3.214900 0.000000 
#    z 0.000000 0.000000 3.526570 
# 
# 
# High freq. dielectric constant tensor:
#      x y z
#    x 1.747560 0.000000 0.000000 
#    y 0.000000 1.697770 0.000000 
#    z 0.000000 0.000000 1.740820 
# 
# From -- ./inp_files/9913.got.cif
#   From: 2010.03.12/outbox.cif.g09.slc.cpg/sg57_5_cif.got.tgz:9913.got - 2010.04.16 15:48:40.
