data_PCOD8233365
_publ_section_title
;
Structure prediction by ZEFSAII (Michael W. Deem and Ramdas Pophale) SiO2 
 PCOD8233365
Probable space group: P B C M
;
_chemical_formula_sum "Si O2"
_cell_formula_units_Z 48
_cell_length_a 9.126734
_cell_length_b 15.342613
_cell_length_c 16.122670
_cell_angle_alpha 90.000000
_cell_angle_beta 90.000000
_cell_angle_gamma 90.000000
_cell_volume 2257.624392
_symmetry_space_group_name_H-M "P B C M"
_symmetry_group_IT_number 57
_symmetry_cell_setting 'orthorhombic'
loop_
_space_group_symop_operation_xyz
x,y,z
-x,-y,1/2+z
x,1/2-y,-z
-x,1/2+y,1/2-z
-x,-y,-z
x,y,1/2-z
-x,1/2+y,z
x,1/2-y,1/2+z
loop_
_atom_site_type_symbol
_atom_site_label
_atom_site_fract_x
_atom_site_fract_y
_atom_site_fract_z
Si Si1 0.626503 0.585963 0.844777
Si Si2 0.850768 0.259172 0.096718
Si Si3 0.190405 0.933309 0.597415
Si Si4 0.124798 0.071574 0.153911
Si Si5 0.683505 0.426722 0.085528
Si Si6 0.167000 0.263611 0.154216
O O1 0.574688 0.603339 0.750000
O O2 0.726208 0.499387 0.842452
O O3 0.491182 0.569799 0.906610
O O4 0.719311 0.666631 0.884922
O O5 0.792599 0.166153 0.130898
O O6 0.729038 0.330885 0.116758
O O7 0.999872 0.292055 0.138921
O O8 0.884267 0.250000 0.000000
O O9 0.259056 0.944716 0.506537
O O10 0.016646 0.954956 0.599029
O O11 0.077427 0.080566 0.250000
O O12 0.188691 0.164635 0.121172
O O13 0.250079 0.999942 0.145381
O O14 0.202011 0.268650 0.250000
#
# Coordination Sequence:
#
# PCOD8233365 Si02
#       6
#     8   8   8   8   8   8
#     4  11  23  38  56  84 118 153 187 228 283 342
#     4   9  20  38  59  83 109 143 189 234 280 331
#     4  10  21  39  59  82 112 150 193 237 280 331
#     4  10  20  37  61  88 113 147 193 239 281 330
#     4  11  22  37  57  84 117 150 187 233 284 340
#     4   9  20  37  57  81 112 147 188 231 278 332
#
# _framework density 21.261285999999998
#
# number of rings (size 3 to 8) (size 9 to 14) (size 15 to 20)
#    0.000    2.000    0.000    3.000    0.000    7.333 
#    0.000    5.833    0.000    0.000    0.000    0.000 
#    0.000    0.000    0.000    0.000    0.000    0.000 
#
# Total GULP energy -595135.984392 kJ/mol
# GULP energy per Si atom -12398.666341 kJ/mol
# Density = 2.121289 g / cm^3
# Si number density = 21.261286 Si / 1000 Ang^3
#
#
#
# Elastic Constant Matrix: (Units=GPa)
#
#
# Indices 1 2 3 4 5 6 
#
# 1 141.1528 80.6149 30.9474 0.0000 0.0000 0.0000
# 2 80.6149 134.0167 23.5557 0.0000 0.0000 0.0000
# 3 30.9474 23.5557 49.8560 0.0000 0.0000 0.0000
# 4 0.0000 0.0000 0.0000 24.6276 0.0000 0.0000
# 5 0.0000 0.0000 0.0000 0.0000 28.4042 0.0000
# 6 0.0000 0.0000 0.0000 0.0000 0.0000 25.4940
#
#
#
# Elastic Compliance Matrix: (Units=1/GPa)
#
#
# Indices 1 2 3 4 5 6 
#
# 1 0.011560 -0.006208 -0.004243 0.000000 0.000000 0.000000
# 2 -0.006208 0.011471 -0.001566 0.000000 0.000000 0.000000
# 3 -0.004243 -0.001566 0.023431 0.000000 0.000000 0.000000
# 4 0.000000 0.000000 0.000000 0.040605 0.000000 0.000000
# 5 0.000000 0.000000 0.000000 0.000000 0.035206 0.000000
# 6 0.000000 0.000000 0.000000 0.000000 0.000000 0.039225
#
#
# Mechanical properties :
#
#
# Convention : Reuss Voigt Hill
#
# Bulk Modulus (GPa) = 44.58556 66.14017 55.36287
# Shear Modulus (GPa) = 25.90543 28.36565 27.13554
#
# Velocity S-wave (km/s) = 3.49439 3.65656 3.57639
# Velocity P-wave (km/s) = 6.10712 7.00022 6.56886
#
# Compressibility (1/GPa) = 0.02242879
#
# Stress axis : x y z
#
# Youngs Moduli (GPa) = 86.50299 87.17299 42.67769
#
# Poissons Ratio (x) = 0.54118 0.18107
# Poissons Ratio (y) = 0.53702 0.06685
# Poissons Ratio (z) = 0.36701 0.13655
#
# Static dielectric constant tensor:
#      x y z
#    x 3.650790 0.000000 0.000000 
#    y 0.000000 4.232850 0.000000 
#    z 0.000000 0.000000 3.540050 
# 
# 
# High freq. dielectric constant tensor:
#      x y z
#    x 1.820460 0.000000 0.000000 
#    y 0.000000 1.852190 0.000000 
#    z 0.000000 0.000000 1.817200 
# 
# From -- ./inp_files/20956.got.cif
#   From: 2010.03.12/outbox.cif.g09.slc.cpg/sg57_11_cif.got.tgz:20956.got - 2010.04.16 15:48:40.
