data_PCOD8233007
_publ_section_title
;
Structure prediction by ZEFSAII (Michael W. Deem and Ramdas Pophale) SiO2 
 PCOD8233007
Probable space group: P B C M
;
_chemical_formula_sum "Si O2"
_cell_formula_units_Z 56
_cell_length_a 23.628811
_cell_length_b 14.473504
_cell_length_c 8.660996
_cell_angle_alpha 90.000000
_cell_angle_beta 90.000000
_cell_angle_gamma 90.000000
_cell_volume 2961.988664
_symmetry_space_group_name_H-M "P B C M"
_symmetry_group_IT_number 57
_symmetry_cell_setting 'orthorhombic'
loop_
_space_group_symop_operation_xyz
x,y,z
-x,-y,1/2+z
x,1/2-y,-z
-x,1/2+y,1/2-z
-x,-y,-z
x,y,1/2-z
-x,1/2+y,z
x,1/2-y,1/2+z
loop_
_atom_site_type_symbol
_atom_site_label
_atom_site_fract_x
_atom_site_fract_y
_atom_site_fract_z
Si Si1 0.153286 0.147300 0.933377
Si Si2 0.767730 0.497518 0.068396
Si Si3 0.556279 0.151575 0.069580
Si Si4 0.849622 0.351518 0.568185
Si Si5 0.938532 0.503084 0.929836
Si Si6 0.645454 0.002609 0.068017
Si Si7 0.429464 0.149790 0.067522
O O1 0.156131 0.152453 0.750000
O O2 0.097473 0.091327 0.990622
O O3 0.152307 0.250000 0.000000
O O4 0.207879 0.090739 0.991056
O O5 0.776573 0.505186 0.250000
O O6 0.797117 0.404626 0.006879
O O7 0.702488 0.487792 0.027464
O O8 0.562103 0.162269 0.250000
O O9 0.493225 0.115808 0.027701
O O10 0.602761 0.080937 0.005989
O O11 0.570190 0.250000 0.000000
O O12 0.855841 0.250000 0.500000
O O13 0.839154 0.346041 0.750000
O O14 0.906588 0.408050 0.528152
O O15 0.945928 0.513840 0.750000
O O16 0.000000 0.500000 0.000000
O O17 0.657745 0.009322 0.250000
O O18 0.616292 0.906796 0.027595
O O19 0.417253 0.146190 0.250000
O O20 0.421571 0.250000 0.000000
#
# Coordination Sequence:
#
# PCOD8233007 Si02
#       7
#     8   8   8   8   8   8   8
#     4  10  21  39  60  84 113 149 188 230 277 329
#     4  11  23  39  58  82 110 145 186 233 281 330
#     4   9  20  36  56  80 109 142 178 221 272 327
#     4  10  21  39  60  84 113 150 190 231 277 328
#     4   9  20  36  56  84 119 151 186 229 272 320
#     4  11  22  37  56  81 111 144 181 227 276 328
#     4  10  20  36  56  81 109 141 180 223 272 330
#
# _framework density 18.906217000000002
#
# number of rings (size 3 to 8) (size 9 to 14) (size 15 to 20)
#    0.000    2.000    0.000    4.286    0.000    6.857 
#    0.000    7.143    0.000    0.000    0.000    0.000 
#    0.000    0.000    0.000    0.000    0.000    0.000 
#
# Total GULP energy -694416.089388 kJ/mol
# GULP energy per Si atom -12400.287311 kJ/mol
# Density = 1.886319 g / cm^3
# Si number density = 18.906217 Si / 1000 Ang^3
#
#
#
# Elastic Constant Matrix: (Units=GPa)
#
#
# Indices 1 2 3 4 5 6 
#
# 1 125.0006 48.8549 39.0937 0.0000 0.0000 0.0000
# 2 48.8549 110.5953 48.8235 0.0000 0.0000 0.0000
# 3 39.0937 48.8235 72.4017 0.0000 0.0000 0.0000
# 4 0.0000 0.0000 0.0000 35.6408 0.0000 0.0000
# 5 0.0000 0.0000 0.0000 0.0000 37.3252 0.0000
# 6 0.0000 0.0000 0.0000 0.0000 0.0000 17.3790
#
#
#
# Elastic Compliance Matrix: (Units=1/GPa)
#
#
# Indices 1 2 3 4 5 6 
#
# 1 0.010269 -0.002974 -0.003540 0.000000 0.000000 0.000000
# 2 -0.002974 0.013736 -0.007657 0.000000 0.000000 0.000000
# 3 -0.003540 -0.007657 0.020886 0.000000 0.000000 0.000000
# 4 0.000000 0.000000 0.000000 0.028058 0.000000 0.000000
# 5 0.000000 0.000000 0.000000 0.000000 0.026792 0.000000
# 6 0.000000 0.000000 0.000000 0.000000 0.000000 0.057541
#
#
# Mechanical properties :
#
#
# Convention : Reuss Voigt Hill
#
# Bulk Modulus (GPa) = 60.41967 64.61577 62.51772
# Shear Modulus (GPa) = 26.15896 29.48404 27.82150
#
# Velocity S-wave (km/s) = 3.72374 3.95332 3.84024
# Velocity P-wave (km/s) = 7.10741 7.42223 7.26652
#
# Compressibility (1/GPa) = 0.01655090
#
# Stress axis : x y z
#
# Youngs Moduli (GPa) = 97.37832 72.80192 47.87786
#
# Poissons Ratio (x) = 0.21650 0.16947
# Poissons Ratio (y) = 0.28958 0.36660
# Poissons Ratio (z) = 0.34468 0.55744
#
# Static dielectric constant tensor:
#      x y z
#    x 3.300880 0.000000 0.000000 
#    y 0.000000 3.424280 0.000000 
#    z 0.000000 0.000000 3.757970 
# 
# 
# High freq. dielectric constant tensor:
#      x y z
#    x 1.737910 0.000000 0.000000 
#    y 0.000000 1.741430 0.000000 
#    z 0.000000 0.000000 1.743480 
# 
# From -- ./inp_files/8030.got.cif
#   From: 2010.03.12/outbox.cif.g09.slc.cpg/sg57_5_cif.got.tgz:8030.got - 2010.04.16 15:48:40.
