data_PCOD8233726
_publ_section_title
;
Structure prediction by ZEFSAII (Michael W. Deem and Ramdas Pophale) SiO2 
 PCOD8233726
Probable space group: P B C M
;
_chemical_formula_sum "Si O2"
_cell_formula_units_Z 64
_cell_length_a 14.937035
_cell_length_b 8.760111
_cell_length_c 24.802165
_cell_angle_alpha 90.000000
_cell_angle_beta 90.000000
_cell_angle_gamma 90.000000
_cell_volume 3245.365389
_symmetry_space_group_name_H-M "P B C M"
_symmetry_group_IT_number 57
_symmetry_cell_setting 'orthorhombic'
loop_
_space_group_symop_operation_xyz
x,y,z
-x,-y,1/2+z
x,1/2-y,-z
-x,1/2+y,1/2-z
-x,-y,-z
x,y,1/2-z
-x,1/2+y,z
x,1/2-y,1/2+z
loop_
_atom_site_type_symbol
_atom_site_label
_atom_site_fract_x
_atom_site_fract_y
_atom_site_fract_z
Si Si1 0.179278 0.424200 0.105629
Si Si2 0.616319 0.974445 0.529523
Si Si3 0.375858 0.472496 0.095332
Si Si4 0.119273 0.558865 0.811865
Si Si5 0.936085 0.400166 0.688325
Si Si6 0.207077 0.078694 0.408357
Si Si7 0.097459 0.570698 0.001301
Si Si8 0.521037 0.253589 0.924676
O O1 0.281973 0.450298 0.125021
O O2 0.119689 0.476916 0.155146
O O3 0.164304 0.246432 0.093724
O O4 0.153477 0.520706 0.053255
O O5 0.649147 0.966594 0.468367
O O6 0.690942 0.911186 0.570868
O O7 0.528213 0.867680 0.532980
O O8 0.591423 0.146413 0.544880
O O9 0.447706 0.339842 0.110006
O O10 0.419367 0.634558 0.113034
O O11 0.152627 0.559432 0.750000
O O12 0.084482 0.726633 0.829289
O O13 0.201214 0.504383 0.849931
O O14 0.040537 0.435607 0.820620
O O15 0.909367 0.427152 0.750000
O O16 0.149461 0.977308 0.448265
O O17 0.087032 0.750000 0.000000
O O18 0.000000 0.500000 0.000000
#
# Coordination Sequence:
#
# PCOD8233726 Si02
#       8
#     8   8   8   8   8   8   8   8
#     4  12  24  37  59  89 124 158 197 243 293 352
#     4  11  20  34  54  82 120 158 199 241 285 350
#     4  11  20  34  54  82 120 158 199 241 285 350
#     4  10  22  42  66  90 116 150 198 251 299 349
#     4  10  22  42  66  90 116 150 198 251 299 349
#     4  12  24  37  59  89 124 158 197 243 293 352
#     4  12  26  42  58  79 120 165 199 233 290 359
#     4  10  21  34  54  80 115 162 199 240 296 339
#
# _framework density 19.720428999999999
#
# number of rings (size 3 to 8) (size 9 to 14) (size 15 to 20)
#    0.000    1.000    2.500    6.375    3.500    1.500 
#    0.000    0.000    0.000    0.000    0.000    5.250 
#    0.000    0.000    0.000    0.000    0.000    0.000 
#
# Total GULP energy -793688.146224 kJ/mol
# GULP energy per Si atom -12401.377285 kJ/mol
# Density = 1.967554 g / cm^3
# Si number density = 19.720429 Si / 1000 Ang^3
#
#
#
# Elastic Constant Matrix: (Units=GPa)
#
#
# Indices 1 2 3 4 5 6 
#
# 1 64.7298 18.3299 26.1319 0.0000 0.0000 0.0000
# 2 18.3299 141.4886 27.5127 0.0000 0.0000 0.0000
# 3 26.1319 27.5127 68.1151 0.0000 0.0000 0.0000
# 4 0.0000 0.0000 0.0000 25.2920 0.0000 0.0000
# 5 0.0000 0.0000 0.0000 0.0000 16.5140 0.0000
# 6 0.0000 0.0000 0.0000 0.0000 0.0000 33.8916
#
#
#
# Elastic Compliance Matrix: (Units=1/GPa)
#
#
# Indices 1 2 3 4 5 6 
#
# 1 0.018436 -0.001099 -0.006629 0.000000 0.000000 0.000000
# 2 -0.001099 0.007736 -0.002703 0.000000 0.000000 0.000000
# 3 -0.006629 -0.002703 0.018316 0.000000 0.000000 0.000000
# 4 0.000000 0.000000 0.000000 0.039538 0.000000 0.000000
# 5 0.000000 0.000000 0.000000 0.000000 0.060555 0.000000
# 6 0.000000 0.000000 0.000000 0.000000 0.000000 0.029506
#
#
# Mechanical properties :
#
#
# Convention : Reuss Voigt Hill
#
# Bulk Modulus (GPa) = 42.32685 46.47582 44.40134
# Shear Modulus (GPa) = 24.65191 28.63012 26.64102
#
# Velocity S-wave (km/s) = 3.53947 3.81438 3.67949
# Velocity P-wave (km/s) = 6.18173 6.55880 6.37306
#
# Compressibility (1/GPa) = 0.02362567
#
# Stress axis : x y z
#
# Youngs Moduli (GPa) = 54.24090 129.27083 54.59760
#
# Poissons Ratio (x) = 0.14212 0.36192
# Poissons Ratio (y) = 0.05963 0.14756
# Poissons Ratio (z) = 0.35956 0.34939
#
# Static dielectric constant tensor:
#      x y z
#    x 3.633460 0.000000 0.000000 
#    y 0.000000 4.098690 0.000000 
#    z 0.000000 0.000000 3.049940 
# 
# 
# High freq. dielectric constant tensor:
#      x y z
#    x 1.771880 0.000000 0.000000 
#    y 0.000000 1.798190 0.000000 
#    z 0.000000 0.000000 1.719800 
# 
# From -- ./inp_files/27463.got.cif
#   From: 2010.03.12/outbox.cif.g09.slc.cpg/sg57_14_cif.got.tgz:27463.got - 2010.04.16 15:48:40.
