data_PCOD8233629
_publ_section_title
;
Structure prediction by ZEFSAII (Michael W. Deem and Ramdas Pophale) SiO2 
 PCOD8233629
Probable space group: P B C M
;
_chemical_formula_sum "Si O2"
_cell_formula_units_Z 64
_cell_length_a 19.027192
_cell_length_b 10.152705
_cell_length_c 16.837420
_cell_angle_alpha 90.000000
_cell_angle_beta 90.000000
_cell_angle_gamma 90.000000
_cell_volume 3252.610152
_symmetry_space_group_name_H-M "P B C M"
_symmetry_group_IT_number 57
_symmetry_cell_setting 'orthorhombic'
loop_
_space_group_symop_operation_xyz
x,y,z
-x,-y,1/2+z
x,1/2-y,-z
-x,1/2+y,1/2-z
-x,-y,-z
x,y,1/2-z
-x,1/2+y,z
x,1/2-y,1/2+z
loop_
_atom_site_type_symbol
_atom_site_label
_atom_site_fract_x
_atom_site_fract_y
_atom_site_fract_z
Si Si1 0.788689 0.596008 0.656177
Si Si2 0.231494 0.873368 0.341158
Si Si3 0.486810 0.125218 0.945279
Si Si4 0.852107 0.867454 0.657798
Si Si5 0.363612 0.016906 0.843074
Si Si6 0.628809 0.227547 0.907225
Si Si7 0.122461 0.845874 0.844171
Si Si8 0.985636 0.873731 0.946411
O O1 0.782819 0.600819 0.750000
O O2 0.818609 0.733415 0.623160
O O3 0.711358 0.565462 0.622250
O O4 0.842402 0.482811 0.629997
O O5 0.244876 0.838668 0.250000
O O6 0.305498 0.862684 0.384897
O O7 0.173518 0.771018 0.373608
O O8 0.205963 0.021033 0.354615
O O9 0.422524 0.101339 0.886630
O O10 0.555721 0.151375 0.890745
O O11 0.468888 0.250000 0.000000
O O12 0.500000 0.000000 0.000000
O O13 0.872941 0.852685 0.750000
O O14 0.921241 0.908375 0.610727
O O15 0.370341 0.044134 0.750000
O O16 0.371039 0.862084 0.858233
O O17 0.633422 0.250000 0.000000
O O18 0.107451 0.837365 0.750000
O O19 0.050510 0.832504 0.891342
O O20 0.965294 0.750000 0.000000
O O21 0.000000 0.000000 0.000000
#
# Coordination Sequence:
#
# PCOD8233629 Si02
#       8
#     8   8   8   8   8   8   8   8
#     4   9  19  38  63  89 118 154 204 256 305 363
#     4  10  21  38  64  93 118 153 212 261 295 362
#     4  11  23  44  63  91 133 172 209 254 320 386
#     4  10  22  42  61  85 123 163 201 252 312 371
#     4  11  22  42  69  98 127 167 219 268 310 374
#     4  11  22  40  66  91 132 168 204 255 319 372
#     4  10  20  39  65  85 112 164 207 241 302 376
#     4  12  25  40  57  89 126 155 198 259 306 361
#
# _framework density 19.676504999999999
#
# number of rings (size 3 to 8) (size 9 to 14) (size 15 to 20)
#    0.000    1.500    3.750    2.250    0.000    3.500 
#    2.250    5.000    0.000    0.000    0.000    0.000 
#    0.000    0.000    0.000    0.000    0.000    0.000 
#
# Total GULP energy -793803.986350 kJ/mol
# GULP energy per Si atom -12403.187287 kJ/mol
# Density = 1.963172 g / cm^3
# Si number density = 19.676505 Si / 1000 Ang^3
#
#
#
# Elastic Constant Matrix: (Units=GPa)
#
#
# Indices 1 2 3 4 5 6 
#
# 1 123.9599 18.6146 38.6029 0.0000 0.0000 0.0000
# 2 18.6146 110.3628 20.7540 0.0000 0.0000 0.0000
# 3 38.6029 20.7540 56.1431 0.0000 0.0000 0.0000
# 4 0.0000 0.0000 0.0000 27.1997 0.0000 0.0000
# 5 0.0000 0.0000 0.0000 0.0000 10.0500 0.0000
# 6 0.0000 0.0000 0.0000 0.0000 0.0000 33.9405
#
#
#
# Elastic Compliance Matrix: (Units=1/GPa)
#
#
# Indices 1 2 3 4 5 6 
#
# 1 0.010285 -0.000435 -0.006911 0.000000 0.000000 0.000000
# 2 -0.000435 0.009756 -0.003307 0.000000 0.000000 0.000000
# 3 -0.006911 -0.003307 0.023786 0.000000 0.000000 0.000000
# 4 0.000000 0.000000 0.000000 0.036765 0.000000 0.000000
# 5 0.000000 0.000000 0.000000 0.000000 0.099503 0.000000
# 6 0.000000 0.000000 0.000000 0.000000 0.000000 0.029463
#
#
# Mechanical properties :
#
#
# Convention : Reuss Voigt Hill
#
# Bulk Modulus (GPa) = 44.40392 49.60100 47.00246
# Shear Modulus (GPa) = 20.97568 28.40431 24.69000
#
# Velocity S-wave (km/s) = 3.26855 3.80355 3.54615
# Velocity P-wave (km/s) = 6.07129 6.67475 6.38016
#
# Compressibility (1/GPa) = 0.02252053
#
# Stress axis : x y z
#
# Youngs Moduli (GPa) = 97.23346 102.49707 42.04180
#
# Poissons Ratio (x) = 0.04460 0.29053
# Poissons Ratio (y) = 0.04231 0.13905
# Poissons Ratio (z) = 0.67194 0.33900
#
# Static dielectric constant tensor:
#      x y z
#    x 3.873020 0.000000 0.000000 
#    y 0.000000 3.456110 0.000000 
#    z 0.000000 0.000000 2.701040 
# 
# 
# High freq. dielectric constant tensor:
#      x y z
#    x 1.780010 0.000000 0.000000 
#    y 0.000000 1.777140 0.000000 
#    z 0.000000 0.000000 1.755820 
# 
# From -- ./inp_files/23061.got.cif
#   From: 2010.03.12/outbox.cif.g09.slc.cpg/sg57_12_cif.got.tgz:23061.got - 2010.04.16 15:48:40.
