data_PCOD8233940
_publ_section_title
;
Structure prediction by ZEFSAII (Michael W. Deem and Ramdas Pophale) SiO2 
 PCOD8233940
Probable space group: P B C M
;
_chemical_formula_sum "Si O2"
_cell_formula_units_Z 64
_cell_length_a 25.781449
_cell_length_b 14.643148
_cell_length_c 8.853092
_cell_angle_alpha 90.000000
_cell_angle_beta 90.000000
_cell_angle_gamma 90.000000
_cell_volume 3342.233221
_symmetry_space_group_name_H-M "P B C M"
_symmetry_group_IT_number 57
_symmetry_cell_setting 'orthorhombic'
loop_
_space_group_symop_operation_xyz
x,y,z
-x,-y,1/2+z
x,1/2-y,-z
-x,1/2+y,1/2-z
-x,-y,-z
x,y,1/2-z
-x,1/2+y,z
x,1/2-y,1/2+z
loop_
_atom_site_type_symbol
_atom_site_label
_atom_site_fract_x
_atom_site_fract_y
_atom_site_fract_z
Si Si1 0.630876 0.649891 0.571536
Si Si2 0.893267 0.659992 0.072285
Si Si3 0.817533 0.504329 0.422725
Si Si4 0.364694 0.850138 0.072447
Si Si5 0.892032 0.336692 0.422150
Si Si6 0.708854 0.490609 0.574047
Si Si7 0.004430 0.902510 0.571607
Si Si8 0.444100 0.008856 0.071604
O O1 0.639104 0.750000 0.500000
O O2 0.622659 0.661084 0.750000
O O3 0.680044 0.585486 0.532858
O O4 0.581264 0.599345 0.500467
O O5 0.889763 0.664652 0.250000
O O6 0.857410 0.578626 0.012750
O O7 0.952761 0.650446 0.019351
O O8 0.869193 0.750000 0.000000
O O9 0.800477 0.523608 0.250000
O O10 0.848133 0.411112 0.436334
O O11 0.768126 0.503219 0.529357
O O12 0.358789 0.836063 0.250000
O O13 0.413240 0.915644 0.031762
O O14 0.371933 0.750000 0.000000
O O15 0.313730 0.902392 0.012678
O O16 0.865426 0.250000 0.500000
O O17 0.907991 0.319446 0.250000
O O18 0.944777 0.353672 0.512109
O O19 0.703693 0.469308 0.750000
O O20 0.006983 0.912326 0.750000
O O21 0.000000 0.000000 0.500000
O O22 0.447586 0.023608 0.250000
O O23 0.500000 0.000000 0.000000
#
# Coordination Sequence:
#
# PCOD8233940 Si02
#       8
#     8   8   8   8   8   8   8   8
#     4  10  21  38  60  86 117 154 198 245 291 345
#     4  10  22  39  57  82 112 146 184 226 278 336
#     4  10  22  41  59  79 115 151 185 234 289 343
#     4  10  21  38  61  87 116 155 197 239 289 341
#     4  11  23  40  59  84 114 147 188 232 283 343
#     4  10  22  39  60  86 114 147 192 241 291 345
#     4  11  21  37  60  84 113 149 186 228 281 340
#     4  10  21  37  58  87 124 162 200 242 290 340
#
# _framework density 19.148872999999998
#
# number of rings (size 3 to 8) (size 9 to 14) (size 15 to 20)
#    0.000    1.750    1.250    2.625    0.000    8.000 
#    0.000    5.000    0.000    0.000    0.000    0.000 
#    0.000    0.000    0.000    0.000    0.000    0.000 
#
# Total GULP energy -793606.377137 kJ/mol
# GULP energy per Si atom -12400.099643 kJ/mol
# Density = 1.910529 g / cm^3
# Si number density = 19.148873 Si / 1000 Ang^3
#
#
#
# Elastic Constant Matrix: (Units=GPa)
#
#
# Indices 1 2 3 4 5 6 
#
# 1 110.5099 35.7233 50.4325 0.0000 0.0000 0.0000
# 2 35.7233 139.1197 60.6101 0.0000 0.0000 0.0000
# 3 50.4325 60.6101 89.2989 0.0000 0.0000 0.0000
# 4 0.0000 0.0000 0.0000 38.8087 0.0000 0.0000
# 5 0.0000 0.0000 0.0000 0.0000 37.5848 0.0000
# 6 0.0000 0.0000 0.0000 0.0000 0.0000 -72.2016
#
#
#
# Elastic Compliance Matrix: (Units=1/GPa)
#
#
# Indices 1 2 3 4 5 6 
#
# 1 0.012194 -0.000186 -0.006761 0.000000 0.000000 0.000000
# 2 -0.000186 0.010209 -0.006824 0.000000 0.000000 0.000000
# 3 -0.006761 -0.006824 0.019648 0.000000 0.000000 0.000000
# 4 0.000000 0.000000 0.000000 0.025767 0.000000 0.000000
# 5 0.000000 0.000000 0.000000 0.000000 0.026606 0.000000
# 6 0.000000 0.000000 0.000000 0.000000 0.000000 -0.013850
#
#
# Mechanical properties :
#
#
# Convention : Reuss Voigt Hill
#
# Bulk Modulus (GPa) = 68.91760 70.27337 69.59548
# Shear Modulus (GPa) = 44.26598 13.64923 28.95760
#
# Velocity S-wave (km/s) = 4.81320 2.67272 3.89297
# Velocity P-wave (km/s) = 8.18277 6.80461 7.52531
#
# Compressibility (1/GPa) = 0.01451008
#
# Stress axis : x y z
#
# Youngs Moduli (GPa) = 82.00480 97.95440 50.89483
#
# Poissons Ratio (x) = 0.01820 0.34409
# Poissons Ratio (y) = 0.01524 0.34731
# Poissons Ratio (z) = 0.55442 0.66845
#
# Static dielectric constant tensor:
#      x y z
#    x 3.265270 0.000000 0.000000 
#    y 0.000000 3.358330 0.000000 
#    z 0.000000 0.000000 3.591720 
# 
# 
# High freq. dielectric constant tensor:
#      x y z
#    x 1.742400 0.000000 0.000000 
#    y 0.000000 1.757110 0.000000 
#    z 0.000000 0.000000 1.754950 
# 
# From -- ./inp_files/9267.got.cif
#   From: 2010.03.12/outbox.cif.g09.slc.cpg/sg57_5_cif.got.tgz:9267.got - 2010.04.16 15:48:40.
