data_PCOD8233429
_publ_section_title
;
Structure prediction by ZEFSAII (Michael W. Deem and Ramdas Pophale) SiO2 
 PCOD8233429
Probable space group: P B C M
;
_chemical_formula_sum "Si O2"
_cell_formula_units_Z 40
_cell_length_a 11.542107
_cell_length_b 16.849418
_cell_length_c 10.041690
_cell_angle_alpha 90.000000
_cell_angle_beta 90.000000
_cell_angle_gamma 90.000000
_cell_volume 1952.885633
_symmetry_space_group_name_H-M "P B C M"
_symmetry_group_IT_number 57
_symmetry_cell_setting 'orthorhombic'
loop_
_space_group_symop_operation_xyz
x,y,z
-x,-y,1/2+z
x,1/2-y,-z
-x,1/2+y,1/2-z
-x,-y,-z
x,y,1/2-z
-x,1/2+y,z
x,1/2-y,1/2+z
loop_
_atom_site_type_symbol
_atom_site_label
_atom_site_fract_x
_atom_site_fract_y
_atom_site_fract_z
Si Si1 0.876259 0.916551 0.905031
Si Si2 0.487724 0.351842 0.750000
Si Si3 0.649232 0.844215 0.497995
Si Si4 0.762431 0.181722 0.750000
Si Si5 0.745181 0.129713 0.250000
Si Si6 0.500719 0.836412 0.250000
Si Si7 0.877620 0.405175 0.011741
O O1 0.861125 0.890966 0.750000
O O2 0.878441 0.011186 0.913214
O O3 0.776524 0.881918 0.000541
O O4 0.994272 0.880213 0.964476
O O5 0.417114 0.380476 0.623144
O O6 0.611069 0.394364 0.750000
O O7 0.499500 0.257781 0.750000
O O8 0.663024 0.750000 0.500000
O O9 0.570720 0.871494 0.374566
O O10 0.757424 0.275980 0.750000
O O11 0.635199 0.139422 0.750000
O O12 0.830261 0.158845 0.883844
O O13 0.798817 0.090579 0.380952
#
# Coordination Sequence:
#
# PCOD8233429 Si02
#       7
#     8   4   8   4   4   4   8
#     4  11  23  44  64  85 127 166 203 256 308 362
#     4   9  18  36  61  86 126 165 190 245 318 357
#     4  10  20  37  64  90 120 161 206 248 303 364
#     4  11  22  41  65  93 131 156 201 258 300 358
#     4  11  22  39  65  95 123 160 207 254 298 366
#     4   9  20  36  57  96 126 155 196 247 308 369
#     4  11  24  41  64  89 122 170 205 244 316 367
#
# _framework density 20.482510999999999
#
# number of rings (size 3 to 8) (size 9 to 14) (size 15 to 20)
#    0.000    1.600    3.000    1.800    0.000    6.400 
#    0.000    6.000    0.000    0.000    0.000    0.000 
#    0.000    0.000    0.000    0.000    0.000    0.000 
#
# Total GULP energy -496055.961600 kJ/mol
# GULP energy per Si atom -12401.399040 kJ/mol
# Density = 2.043589 g / cm^3
# Si number density = 20.482511 Si / 1000 Ang^3
#
#
#
# Elastic Constant Matrix: (Units=GPa)
#
#
# Indices 1 2 3 4 5 6 
#
# 1 176.9400 18.2617 61.4125 0.0000 0.0000 0.0000
# 2 18.2617 23.2903 6.4792 0.0000 0.0000 0.0000
# 3 61.4125 6.4792 144.1097 0.0000 0.0000 0.0000
# 4 0.0000 0.0000 0.0000 12.1641 0.0000 0.0000
# 5 0.0000 0.0000 0.0000 0.0000 46.1275 0.0000
# 6 0.0000 0.0000 0.0000 0.0000 0.0000 19.1523
#
#
#
# Elastic Compliance Matrix: (Units=1/GPa)
#
#
# Indices 1 2 3 4 5 6 
#
# 1 0.007126 -0.004803 -0.002821 0.000000 0.000000 0.000000
# 2 -0.004803 0.046717 -0.000054 0.000000 0.000000 0.000000
# 3 -0.002821 -0.000054 0.008144 0.000000 0.000000 0.000000
# 4 0.000000 0.000000 0.000000 0.082209 0.000000 0.000000
# 5 0.000000 0.000000 0.000000 0.000000 0.021679 0.000000
# 6 0.000000 0.000000 0.000000 0.000000 0.000000 0.052213
#
#
# Mechanical properties :
#
#
# Convention : Reuss Voigt Hill
#
# Bulk Modulus (GPa) = 21.44439 57.40521 39.42480
# Shear Modulus (GPa) = 20.08129 32.70122 26.39125
#
# Velocity S-wave (km/s) = 3.13455 4.00001 3.59343
# Velocity P-wave (km/s) = 4.85725 7.02999 6.04209
#
# Compressibility (1/GPa) = 0.04663225
#
# Stress axis : x y z
#
# Youngs Moduli (GPa) = 140.32208 21.40534 122.79365
#
# Poissons Ratio (x) = 0.10281 0.34640
# Poissons Ratio (y) = 0.67397 0.00658
# Poissons Ratio (z) = 0.39585 0.00115
#
# Static dielectric constant tensor:
#      x y z
#    x 3.995160 0.000000 0.000000 
#    y 0.000000 3.289870 0.000000 
#    z 0.000000 0.000000 3.891570 
# 
# 
# High freq. dielectric constant tensor:
#      x y z
#    x 1.819680 0.000000 0.000000 
#    y 0.000000 1.770160 0.000000 
#    z 0.000000 0.000000 1.815350 
# 
# From -- ./inp_files/2751.got.cif
#   From: 2010.03.12/outbox.cif.g09.slc.cpg/sg57_2_cif.got.tgz:2751.got - 2010.04.16 15:48:40.
