data_PCOD8233305
_publ_section_title
;
Structure prediction by ZEFSAII (Michael W. Deem and Ramdas Pophale) SiO2 
 PCOD8233305
Probable space group: P B C M
;
_chemical_formula_sum "Si O2"
_cell_formula_units_Z 64
_cell_length_a 17.999095
_cell_length_b 12.027605
_cell_length_c 14.050154
_cell_angle_alpha 90.000000
_cell_angle_beta 90.000000
_cell_angle_gamma 90.000000
_cell_volume 3041.661709
_symmetry_space_group_name_H-M "P B C M"
_symmetry_group_IT_number 57
_symmetry_cell_setting 'orthorhombic'
loop_
_space_group_symop_operation_xyz
x,y,z
-x,-y,1/2+z
x,1/2-y,-z
-x,1/2+y,1/2-z
-x,-y,-z
x,y,1/2-z
-x,1/2+y,z
x,1/2-y,1/2+z
loop_
_atom_site_type_symbol
_atom_site_label
_atom_site_fract_x
_atom_site_fract_y
_atom_site_fract_z
Si Si1 0.216044 0.780162 0.860785
Si Si2 0.200293 0.024270 0.859990
Si Si3 0.158176 0.119046 0.137063
Si Si4 0.299700 0.126311 0.490414
Si Si5 0.615303 0.244796 0.361148
Si Si6 0.933932 0.673699 0.639409
Si Si7 0.422386 0.560877 0.992699
Si Si8 0.905557 0.113805 0.636091
O O1 0.199449 0.791421 0.750000
O O2 0.206376 0.902016 0.906216
O O3 0.297750 0.732956 0.880589
O O4 0.156517 0.696770 0.906551
O O5 0.223252 0.025580 0.750000
O O6 0.116278 0.064872 0.876116
O O7 0.258379 0.105075 0.910208
O O8 0.167486 0.126355 0.250000
O O9 0.240721 0.122148 0.095164
O O10 0.107868 0.219304 0.094977
O O11 0.115585 0.009242 0.101900
O O12 0.335305 0.250000 0.500000
O O13 0.362001 0.034063 0.471693
O O14 0.595914 0.235623 0.250000
O O15 0.573637 0.350655 0.406076
O O16 0.593051 0.128007 0.409657
O O17 0.945535 0.699344 0.750000
O O18 0.014565 0.650252 0.593483
O O19 0.500000 0.500000 0.000000
O O20 0.906491 0.115980 0.750000
#
# Coordination Sequence:
#
# PCOD8233305 Si02
#       8
#     8   8   8   8   8   8   8   8
#     4   9  17  33  61  89 113 154 212 262 305 364
#     4  10  20  37  59  85 119 163 213 256 302 367
#     4  10  21  38  58  85 122 162 211 263 312 376
#     4  12  24  40  66  91 127 167 208 257 316 380
#     4  10  22  45  72  98 132 170 214 266 316 376
#     4   9  18  32  52  80 118 164 206 257 318 368
#     4  11  26  44  70 101 134 166 209 260 324 392
#     4   9  18  31  55  86 116 158 210 261 318 367
#
# _framework density 21.041129999999999
#
# number of rings (size 3 to 8) (size 9 to 14) (size 15 to 20)
#    0.000    2.000    2.500    0.750    3.500    2.000 
#    0.000    0.625    2.750    0.000    0.000    0.000 
#    0.000    0.000    0.000    0.000    0.000    0.000 
#
# Total GULP energy -793592.159092 kJ/mol
# GULP energy per Si atom -12399.877486 kJ/mol
# Density = 2.099324 g / cm^3
# Si number density = 21.041130 Si / 1000 Ang^3
#
#
#
# Elastic Constant Matrix: (Units=GPa)
#
#
# Indices 1 2 3 4 5 6 
#
# 1 125.1688 59.0761 27.2650 0.0000 0.0000 0.0000
# 2 59.0761 151.8604 40.2867 0.0000 0.0000 0.0000
# 3 27.2650 40.2867 71.7189 0.0000 0.0000 0.0000
# 4 0.0000 0.0000 0.0000 22.7476 0.0000 0.0000
# 5 0.0000 0.0000 0.0000 0.0000 20.6033 0.0000
# 6 0.0000 0.0000 0.0000 0.0000 0.0000 39.4109
#
#
#
# Elastic Compliance Matrix: (Units=1/GPa)
#
#
# Indices 1 2 3 4 5 6 
#
# 1 0.010001 -0.003387 -0.001900 0.000000 0.000000 0.000000
# 2 -0.003387 0.008885 -0.003703 0.000000 0.000000 0.000000
# 3 -0.001900 -0.003703 0.016746 0.000000 0.000000 0.000000
# 4 0.000000 0.000000 0.000000 0.043961 0.000000 0.000000
# 5 0.000000 0.000000 0.000000 0.000000 0.048536 0.000000
# 6 0.000000 0.000000 0.000000 0.000000 0.000000 0.025374
#
#
# Mechanical properties :
#
#
# Convention : Reuss Voigt Hill
#
# Bulk Modulus (GPa) = 56.64946 66.88931 61.76938
# Shear Modulus (GPa) = 28.19020 31.36039 29.77529
#
# Velocity S-wave (km/s) = 3.66425 3.86480 3.76586
# Velocity P-wave (km/s) = 6.69955 7.19544 6.95192
#
# Compressibility (1/GPa) = 0.01765242
#
# Stress axis : x y z
#
# Youngs Moduli (GPa) = 99.98523 112.54963 59.71622
#
# Poissons Ratio (x) = 0.38118 0.11345
# Poissons Ratio (y) = 0.33863 0.22115
# Poissons Ratio (z) = 0.18995 0.41682
#
# Static dielectric constant tensor:
#      x y z
#    x 3.727030 0.000000 0.000000 
#    y 0.000000 4.159050 0.000000 
#    z 0.000000 0.000000 3.628750 
# 
# 
# High freq. dielectric constant tensor:
#      x y z
#    x 1.809450 0.000000 0.000000 
#    y 0.000000 1.841830 0.000000 
#    z 0.000000 0.000000 1.815940 
# 
# From -- ./inp_files/19114.got.cif
#   From: 2010.03.12/outbox.cif.g09.slc.cpg/sg57_10_cif.got.tgz:19114.got - 2010.04.16 15:48:40.
