data_PCOD8233483
_publ_section_title
;
Structure prediction by ZEFSAII (Michael W. Deem and Ramdas Pophale) SiO2 
 PCOD8233483
Probable space group: P B C M
;
_chemical_formula_sum "Si O2"
_cell_formula_units_Z 40
_cell_length_a 7.877604
_cell_length_b 14.339997
_cell_length_c 17.355593
_cell_angle_alpha 90.000000
_cell_angle_beta 90.000000
_cell_angle_gamma 90.000000
_cell_volume 1960.571400
_symmetry_space_group_name_H-M "P B C M"
_symmetry_group_IT_number 57
_symmetry_cell_setting 'orthorhombic'
loop_
_space_group_symop_operation_xyz
x,y,z
-x,-y,1/2+z
x,1/2-y,-z
-x,1/2+y,1/2-z
-x,-y,-z
x,y,1/2-z
-x,1/2+y,z
x,1/2-y,1/2+z
loop_
_atom_site_type_symbol
_atom_site_label
_atom_site_fract_x
_atom_site_fract_y
_atom_site_fract_z
Si Si1 0.259736 0.641262 0.488253
Si Si2 0.109817 0.143490 0.478429
Si Si3 0.706798 0.691288 0.163984
Si Si4 0.589842 0.881455 0.414957
Si Si5 0.388138 0.932669 0.666499
O O1 0.251521 0.750000 0.500000
O O2 0.408478 0.603089 0.542857
O O3 0.286074 0.621176 0.398588
O O4 0.071077 0.598450 0.504968
O O5 0.113471 0.250000 0.500000
O O6 0.139568 0.146376 0.385750
O O7 0.264421 0.092147 0.522430
O O8 0.769867 0.720687 0.250000
O O9 0.616921 0.778814 0.120370
O O10 0.575326 0.608158 0.170656
O O11 0.599756 0.956652 0.347693
O O12 0.298759 0.918654 0.750000
#
# Coordination Sequence:
#
# PCOD8233483 Si02
#       5
#     8   8   8   8   8
#     4  11  20  38  63  86 115 152 194 239 286 344
#     4   9  20  35  60  87 110 151 195 230 285 345
#     4  10  20  38  60  84 118 155 191 238 294 343
#     4  11  20  40  60  82 117 155 191 240 286 341
#     4  11  23  37  59  87 115 153 194 235 292 346
#
# _framework density 20.402217
#
# number of rings (size 3 to 8) (size 9 to 14) (size 15 to 20)
#    0.000    1.600    4.000    1.800    0.000    1.600 
#    0.000    0.000    0.000    2.400    0.000    0.000 
#    0.000    0.000    0.000    0.000    0.000    0.000 
#
# Total GULP energy -495595.046299 kJ/mol
# GULP energy per Si atom -12389.876157 kJ/mol
# Density = 2.035578 g / cm^3
# Si number density = 20.402217 Si / 1000 Ang^3
#
#
#
# Elastic Constant Matrix: (Units=GPa)
#
#
# Indices 1 2 3 4 5 6 
#
# 1 131.4072 20.4818 48.6753 0.0000 0.0000 0.0000
# 2 20.4818 45.3685 19.8734 0.0000 0.0000 0.0000
# 3 48.6753 19.8734 143.4354 0.0000 0.0000 0.0000
# 4 0.0000 0.0000 0.0000 32.3664 0.0000 0.0000
# 5 0.0000 0.0000 0.0000 0.0000 18.2995 0.0000
# 6 0.0000 0.0000 0.0000 0.0000 0.0000 68.7860
#
#
#
# Elastic Compliance Matrix: (Units=1/GPa)
#
#
# Indices 1 2 3 4 5 6 
#
# 1 0.009053 -0.002918 -0.002668 0.000000 0.000000 0.000000
# 2 -0.002918 0.024407 -0.002391 0.000000 0.000000 0.000000
# 3 -0.002668 -0.002391 0.008208 0.000000 0.000000 0.000000
# 4 0.000000 0.000000 0.000000 0.030896 0.000000 0.000000
# 5 0.000000 0.000000 0.000000 0.000000 0.054646 0.000000
# 6 0.000000 0.000000 0.000000 0.000000 0.000000 0.014538
#
#
# Mechanical properties :
#
#
# Convention : Reuss Voigt Hill
#
# Bulk Modulus (GPa) = 38.89048 55.36357 47.12703
# Shear Modulus (GPa) = 30.07076 39.30242 34.68659
#
# Velocity S-wave (km/s) = 3.84330 4.39382 4.12775
# Velocity P-wave (km/s) = 6.22880 7.27570 6.77251
#
# Compressibility (1/GPa) = 0.02571323
#
# Stress axis : x y z
#
# Youngs Moduli (GPa) = 110.46044 40.97227 121.82603
#
# Poissons Ratio (x) = 0.11957 0.32501
# Poissons Ratio (y) = 0.32237 0.29132
# Poissons Ratio (z) = 0.29469 0.09797
#
# Static dielectric constant tensor:
#      x y z
#    x 4.240160 0.000000 0.000000 
#    y 0.000000 3.540790 0.000000 
#    z 0.000000 0.000000 4.307610 
# 
# 
# High freq. dielectric constant tensor:
#      x y z
#    x 1.786960 0.000000 0.000000 
#    y 0.000000 1.797360 0.000000 
#    z 0.000000 0.000000 1.798550 
# 
# From -- ./inp_files/20722.got.cif
#   From: 2010.03.12/outbox.cif.g09.slc.cpg/sg57_11_cif.got.tgz:20722.got - 2010.04.16 15:48:40.
