data_PCOD8233800
_publ_section_title
;
Structure prediction by ZEFSAII (Michael W. Deem and Ramdas Pophale) SiO2 
 PCOD8233800
Probable space group: P B C M
;
_chemical_formula_sum "Si O2"
_cell_formula_units_Z 64
_cell_length_a 18.892608
_cell_length_b 5.168409
_cell_length_c 32.561870
_cell_angle_alpha 90.000000
_cell_angle_beta 90.000000
_cell_angle_gamma 90.000000
_cell_volume 3179.494849
_symmetry_space_group_name_H-M "P B C M"
_symmetry_group_IT_number 57
_symmetry_cell_setting 'orthorhombic'
loop_
_space_group_symop_operation_xyz
x,y,z
-x,-y,1/2+z
x,1/2-y,-z
-x,1/2+y,1/2-z
-x,-y,-z
x,y,1/2-z
-x,1/2+y,z
x,1/2-y,1/2+z
loop_
_atom_site_type_symbol
_atom_site_label
_atom_site_fract_x
_atom_site_fract_y
_atom_site_fract_z
Si Si1 0.044460 0.411210 0.297895
Si Si2 0.672642 0.404171 0.090284
Si Si3 0.168313 0.865590 0.087204
Si Si4 0.832221 0.637643 0.859902
Si Si5 0.535894 0.225969 0.952265
Si Si6 0.455787 0.137949 0.701770
Si Si7 0.327882 0.401993 0.142386
Si Si8 0.969188 0.473529 0.045995
O O1 0.063100 0.410533 0.250000
O O2 0.118223 0.414726 0.321440
O O3 0.000440 0.662253 0.310725
O O4 0.751434 0.394546 0.070942
O O5 0.618246 0.336732 0.054109
O O6 0.656170 0.689845 0.107238
O O7 0.662675 0.192755 0.125924
O O8 0.156570 0.579990 0.105246
O O9 0.114681 0.913095 0.048846
O O10 0.151725 0.079746 0.121688
O O11 0.752500 0.632448 0.842266
O O12 0.511733 0.497192 0.931860
O O13 0.519509 0.250000 0.000000
O O14 0.440858 0.137417 0.750000
O O15 0.499531 0.389040 0.687939
O O16 0.379655 0.139593 0.680453
O O17 0.988358 0.741511 0.068886
O O18 0.000000 0.500000 0.000000
#
# Coordination Sequence:
#
# PCOD8233800 Si02
#       8
#     8   8   8   8   8   8   8   8
#     4  10  21  36  54  80 110 139 182 229 271 327
#     4  10  21  37  56  82 110 143 182 228 275 322
#     4  10  21  37  56  80 112 141 182 224 270 326
#     4  10  21  36  56  81 108 146 181 225 274 326
#     4  10  21  37  57  81 110 139 179 224 271 329
#     4  10  21  36  54  80 114 149 187 229 276 329
#     4  10  21  36  56  81 112 142 188 227 268 328
#     4  10  21  37  56  79 110 140 176 226 265 317
#
# _framework density 20.128986000000001
#
# number of rings (size 3 to 8) (size 9 to 14) (size 15 to 20)
#    0.000    2.000    0.000    3.000    0.000    6.500 
#    2.250    0.000    5.500    9.000    0.000    0.000 
#    0.000    0.000    0.000    0.000    0.000    0.000 
#
# Total GULP energy -793488.410593 kJ/mol
# GULP energy per Si atom -12398.256416 kJ/mol
# Density = 2.008317 g / cm^3
# Si number density = 20.128986 Si / 1000 Ang^3
#
#
#
# Elastic Constant Matrix: (Units=GPa)
#
#
# Indices 1 2 3 4 5 6 
#
# 1 160.1236 51.5437 53.0830 0.0000 0.0000 0.0000
# 2 51.5437 148.2812 19.0236 0.0000 0.0000 0.0000
# 3 53.0830 19.0236 35.8883 0.0000 0.0000 0.0000
# 4 0.0000 0.0000 0.0000 31.0849 0.0000 0.0000
# 5 0.0000 0.0000 0.0000 0.0000 41.6655 0.0000
# 6 0.0000 0.0000 0.0000 0.0000 0.0000 29.6895
#
#
#
# Elastic Compliance Matrix: (Units=1/GPa)
#
#
# Indices 1 2 3 4 5 6 
#
# 1 0.012879 -0.002181 -0.017894 0.000000 0.000000 0.000000
# 2 -0.002181 0.007605 -0.000805 0.000000 0.000000 0.000000
# 3 -0.017894 -0.000805 0.054758 0.000000 0.000000 0.000000
# 4 0.000000 0.000000 0.000000 0.032170 0.000000 0.000000
# 5 0.000000 0.000000 0.000000 0.000000 0.024001 0.000000
# 6 0.000000 0.000000 0.000000 0.000000 0.000000 0.033682
#
#
# Mechanical properties :
#
#
# Convention : Reuss Voigt Hill
#
# Bulk Modulus (GPa) = 29.86639 65.73264 47.79952
# Shear Modulus (GPa) = 22.93402 35.19751 29.06576
#
# Velocity S-wave (km/s) = 3.37909 4.18616 3.80409
# Velocity P-wave (km/s) = 5.48581 7.48945 6.56452
#
# Compressibility (1/GPa) = 0.03348245
#
# Stress axis : x y z
#
# Youngs Moduli (GPa) = 77.64362 131.48438 18.26214
#
# Poissons Ratio (x) = 0.28681 0.32678
# Poissons Ratio (y) = 0.16936 0.01470
# Poissons Ratio (z) = 1.38934 0.10586
#
# Static dielectric constant tensor:
#      x y z
#    x 3.773660 0.000000 0.000000 
#    y 0.000000 1.141750 0.000000 
#    z 0.000000 0.000000 3.097170 
# 
# 
# High freq. dielectric constant tensor:
#      x y z
#    x 1.796440 0.000000 0.000000 
#    y 0.000000 1.819370 0.000000 
#    z 0.000000 0.000000 1.745930 
# 
# From -- ./inp_files/29960.got.cif
#   From: 2010.03.12/outbox.cif.g09.slc.cpg/sg57_15_cif.got.tgz:29960.got - 2010.04.16 15:48:40.
