data_PCOD8233275
_publ_section_title
;
Structure prediction by ZEFSAII (Michael W. Deem and Ramdas Pophale) SiO2 
 PCOD8233275
Probable space group: P B C M
;
_chemical_formula_sum "Si O2"
_cell_formula_units_Z 48
_cell_length_a 30.348658
_cell_length_b 9.487007
_cell_length_c 8.492713
_cell_angle_alpha 90.000000
_cell_angle_beta 90.000000
_cell_angle_gamma 90.000000
_cell_volume 2445.204355
_symmetry_space_group_name_H-M "P B C M"
_symmetry_group_IT_number 57
_symmetry_cell_setting 'orthorhombic'
loop_
_space_group_symop_operation_xyz
x,y,z
-x,-y,1/2+z
x,1/2-y,-z
-x,1/2+y,1/2-z
-x,-y,-z
x,y,1/2-z
-x,1/2+y,z
x,1/2-y,1/2+z
loop_
_atom_site_type_symbol
_atom_site_label
_atom_site_fract_x
_atom_site_fract_y
_atom_site_fract_z
Si Si1 0.882021 0.901197 0.565394
Si Si2 0.290567 0.600576 0.434278
Si Si3 0.217600 0.097371 0.063589
Si Si4 0.039495 0.906905 0.063684
Si Si5 0.460384 0.092678 0.564406
Si Si6 0.615864 0.094346 0.564573
O O1 0.896576 0.750000 0.500000
O O2 0.885396 0.886533 0.750000
O O3 0.832408 0.942551 0.515539
O O4 0.914923 0.022263 0.503565
O O5 0.275696 0.750000 0.500000
O O6 0.301170 0.609417 0.250000
O O7 0.249747 0.501533 0.467547
O O8 0.334376 0.548848 0.523797
O O9 0.225549 0.086165 0.250000
O O10 0.229068 0.250000 0.000000
O O11 0.037092 0.902601 0.250000
O O12 0.036296 0.750000 0.000000
O O13 0.000000 0.000000 0.000000
O O14 0.463595 0.250000 0.500000
O O15 0.463702 0.099143 0.750000
O O16 0.500000 0.000000 0.500000
O O17 0.414715 0.022272 0.514181
O O18 0.604938 0.250000 0.500000
O O19 0.608204 0.094154 0.750000
#
# Coordination Sequence:
#
# PCOD8233275 Si02
#       6
#     8   8   8   8   8   8
#     4   9  20  37  58  82 112 147 188 233 284 338
#     4  11  22  38  59  86 117 154 194 239 289 343
#     4  10  20  37  58  84 115 151 191 236 285 340
#     4  11  23  39  58  84 114 149 188 233 283 339
#     4  12  25  43  64  91 122 157 197 242 291 345
#     4  11  22  40  63  89 119 156 196 241 291 345
#
# _framework density 19.630261000000001
#
# number of rings (size 3 to 8) (size 9 to 14) (size 15 to 20)
#    0.000    1.333    0.000    7.500    0.000    4.667 
#    0.000    5.000    0.000    0.000    0.000    0.000 
#    0.000    0.000    0.000    0.000    0.000    0.000 
#
# Total GULP energy -595343.628879 kJ/mol
# GULP energy per Si atom -12402.992268 kJ/mol
# Density = 1.958558 g / cm^3
# Si number density = 19.630261 Si / 1000 Ang^3
#
#
#
# Elastic Constant Matrix: (Units=GPa)
#
#
# Indices 1 2 3 4 5 6 
#
# 1 130.4150 100.8997 37.3375 0.0000 0.0000 0.0000
# 2 100.8997 159.1248 49.4475 0.0000 0.0000 0.0000
# 3 37.3375 49.4475 116.0804 0.0000 0.0000 0.0000
# 4 0.0000 0.0000 0.0000 38.3443 0.0000 0.0000
# 5 0.0000 0.0000 0.0000 0.0000 31.1593 0.0000
# 6 0.0000 0.0000 0.0000 0.0000 0.0000 52.4694
#
#
#
# Elastic Compliance Matrix: (Units=1/GPa)
#
#
# Indices 1 2 3 4 5 6 
#
# 1 0.015133 -0.009316 -0.000899 0.000000 0.000000 0.000000
# 2 -0.009316 0.012979 -0.002532 0.000000 0.000000 0.000000
# 3 -0.000899 -0.002532 0.009982 0.000000 0.000000 0.000000
# 4 0.000000 0.000000 0.000000 0.026080 0.000000 0.000000
# 5 0.000000 0.000000 0.000000 0.000000 0.032093 0.000000
# 6 0.000000 0.000000 0.000000 0.000000 0.000000 0.019059
#
#
# Mechanical properties :
#
#
# Convention : Reuss Voigt Hill
#
# Bulk Modulus (GPa) = 79.36872 86.77664 83.07268
# Shear Modulus (GPa) = 34.47790 38.92361 36.70076
#
# Velocity S-wave (km/s) = 4.19545 4.45774 4.32858
# Velocity P-wave (km/s) = 7.99929 8.41408 8.20930
#
# Compressibility (1/GPa) = 0.01259942
#
# Stress axis : x y z
#
# Youngs Moduli (GPa) = 66.07986 77.04948 100.17582
#
# Poissons Ratio (x) = 0.71783 0.09006
# Poissons Ratio (y) = 0.61563 0.25364
# Poissons Ratio (z) = 0.05941 0.19509
#
# Static dielectric constant tensor:
#      x y z
#    x 3.940950 0.000000 0.000000 
#    y 0.000000 3.588940 0.000000 
#    z 0.000000 0.000000 3.736960 
# 
# 
# High freq. dielectric constant tensor:
#      x y z
#    x 1.779790 0.000000 0.000000 
#    y 0.000000 1.768470 0.000000 
#    z 0.000000 0.000000 1.781370 
# 
# From -- ./inp_files/10065.got.cif
#   From: 2010.03.12/outbox.cif.g09.slc.cpg/sg57_6_cif.got.tgz:10065.got - 2010.04.16 15:48:40.
