data_PCOD8233701
_publ_section_title
;
Structure prediction by ZEFSAII (Michael W. Deem and Ramdas Pophale) SiO2 
 PCOD8233701
Probable space group: P B C M
;
_chemical_formula_sum "Si O2"
_cell_formula_units_Z 64
_cell_length_a 8.450281
_cell_length_b 13.073627
_cell_length_c 25.705333
_cell_angle_alpha 90.000000
_cell_angle_beta 90.000000
_cell_angle_gamma 90.000000
_cell_volume 2839.817789
_symmetry_space_group_name_H-M "P B C M"
_symmetry_group_IT_number 57
_symmetry_cell_setting 'orthorhombic'
loop_
_space_group_symop_operation_xyz
x,y,z
-x,-y,1/2+z
x,1/2-y,-z
-x,1/2+y,1/2-z
-x,-y,-z
x,y,1/2-z
-x,1/2+y,z
x,1/2-y,1/2+z
loop_
_atom_site_type_symbol
_atom_site_label
_atom_site_fract_x
_atom_site_fract_y
_atom_site_fract_z
Si Si1 0.297397 0.109280 0.627522
Si Si2 0.986464 0.224158 0.599957
Si Si3 0.929798 0.498973 0.694146
Si Si4 0.535378 0.813936 0.632841
Si Si5 0.412482 0.554705 0.046983
Si Si6 0.780296 0.214300 0.192158
Si Si7 0.838861 0.928664 0.614595
Si Si8 0.862363 0.430955 0.023321
O O1 0.429679 0.194016 0.637922
O O2 0.144718 0.157893 0.601351
O O3 0.233020 0.057685 0.680263
O O4 0.380106 0.025294 0.592376
O O5 0.869662 0.211623 0.650530
O O6 0.904606 0.178721 0.548549
O O7 0.038996 0.342257 0.593053
O O8 0.988443 0.541771 0.750000
O O9 0.897660 0.379486 0.699368
O O10 0.067172 0.509821 0.650931
O O11 0.498183 0.847172 0.573051
O O12 0.386953 0.830165 0.670848
O O13 0.693025 0.879495 0.647514
O O14 0.500000 0.500000 0.000000
O O15 0.249852 0.598284 0.024346
O O16 0.757195 0.265116 0.250000
O O17 0.775087 0.996370 0.566457
O O18 0.000000 0.500000 0.000000
#
# Coordination Sequence:
#
# PCOD8233701 Si02
#       8
#     8   8   8   8   8   8   8   8
#     4  11  23  45  67  98 137 179 233 287 345 420
#     4  10  23  42  68  97 131 175 232 291 334 411
#     4  10  20  41  73  98 130 178 229 290 349 405
#     4  11  25  43  69  99 144 183 226 284 352 426
#     4  12  25  44  64  98 141 183 231 282 348 415
#     4  10  23  44  69  99 136 176 224 286 353 413
#     4  10  22  43  64 100 137 177 229 285 343 419
#     4  12  23  42  67  96 133 183 235 283 344 409
#
# _framework density 22.536657000000002
#
# number of rings (size 3 to 8) (size 9 to 14) (size 15 to 20)
#    0.000    1.250    5.000    0.000    3.500    2.500 
#    0.000    2.500    0.000    0.000    0.000    0.000 
#    0.000    0.000    0.000    0.000    0.000    0.000 
#
# Total GULP energy -793123.235643 kJ/mol
# GULP energy per Si atom -12392.550557 kJ/mol
# Density = 2.248536 g / cm^3
# Si number density = 22.536657 Si / 1000 Ang^3
#
#
#
# Elastic Constant Matrix: (Units=GPa)
#
#
# Indices 1 2 3 4 5 6 
#
# 1 75.4245 7.7670 16.9139 0.0000 0.0000 0.0000
# 2 7.7670 65.4388 23.5752 0.0000 0.0000 0.0000
# 3 16.9139 23.5752 96.4866 0.0000 0.0000 0.0000
# 4 0.0000 0.0000 0.0000 26.0369 0.0000 0.0000
# 5 0.0000 0.0000 0.0000 0.0000 30.9635 0.0000
# 6 0.0000 0.0000 0.0000 0.0000 0.0000 30.5028
#
#
#
# Elastic Compliance Matrix: (Units=1/GPa)
#
#
# Indices 1 2 3 4 5 6 
#
# 1 0.013843 -0.000843 -0.002221 0.000000 0.000000 0.000000
# 2 -0.000843 0.016808 -0.003959 0.000000 0.000000 0.000000
# 3 -0.002221 -0.003959 0.011721 0.000000 0.000000 0.000000
# 4 0.000000 0.000000 0.000000 0.038407 0.000000 0.000000
# 5 0.000000 0.000000 0.000000 0.000000 0.032296 0.000000
# 6 0.000000 0.000000 0.000000 0.000000 0.000000 0.032784
#
#
# Mechanical properties :
#
#
# Convention : Reuss Voigt Hill
#
# Bulk Modulus (GPa) = 35.30297 37.09581 36.19939
# Shear Modulus (GPa) = 29.52534 30.10689 29.81612
#
# Velocity S-wave (km/s) = 3.62346 3.65897 3.64126
# Velocity P-wave (km/s) = 5.76235 5.86061 5.81169
#
# Compressibility (1/GPa) = 0.02832623
#
# Stress axis : x y z
#
# Youngs Moduli (GPa) = 72.23820 59.49626 85.31884
#
# Poissons Ratio (x) = 0.05016 0.18947
# Poissons Ratio (y) = 0.06090 0.33778
# Poissons Ratio (z) = 0.16042 0.23554
#
# Static dielectric constant tensor:
#      x y z
#    x 4.025190 0.000000 0.000000 
#    y 0.000000 4.113570 0.000000 
#    z 0.000000 0.000000 3.671450 
# 
# 
# High freq. dielectric constant tensor:
#      x y z
#    x 1.890510 0.000000 0.000000 
#    y 0.000000 1.888820 0.000000 
#    z 0.000000 0.000000 1.878240 
# 
# From -- ./inp_files/26885.got.cif
#   From: 2010.03.12/outbox.cif.g09.slc.cpg/sg57_14_cif.got.tgz:26885.got - 2010.04.16 15:48:40.
