data_PCOD8233653
_publ_section_title
;
Structure prediction by ZEFSAII (Michael W. Deem and Ramdas Pophale) SiO2 
 PCOD8233653
Probable space group: P B C M
;
_chemical_formula_sum "Si O2"
_cell_formula_units_Z 32
_cell_length_a 18.279468
_cell_length_b 8.909168
_cell_length_c 9.068155
_cell_angle_alpha 90.000000
_cell_angle_beta 90.000000
_cell_angle_gamma 90.000000
_cell_volume 1476.793035
_symmetry_space_group_name_H-M "P B C M"
_symmetry_group_IT_number 57
_symmetry_cell_setting 'orthorhombic'
loop_
_space_group_symop_operation_xyz
x,y,z
-x,-y,1/2+z
x,1/2-y,-z
-x,1/2+y,1/2-z
-x,-y,-z
x,y,1/2-z
-x,1/2+y,z
x,1/2-y,1/2+z
loop_
_atom_site_type_symbol
_atom_site_label
_atom_site_fract_x
_atom_site_fract_y
_atom_site_fract_z
Si Si1 0.432681 0.413159 0.571176
Si Si2 0.948659 0.840459 0.250000
Si Si3 0.904711 0.996454 0.750000
Si Si4 0.691305 0.404237 0.915410
Si Si5 0.829870 0.581480 0.527896
O O1 0.432488 0.250000 0.500000
O O2 0.500000 0.500000 0.500000
O O3 0.437441 0.406547 0.750000
O O4 0.359668 0.496776 0.520526
O O5 0.945776 0.661911 0.250000
O O6 0.907246 0.909256 0.389322
O O7 0.034340 0.875496 0.250000
O O8 0.848736 0.013214 0.616238
O O9 0.658037 0.378302 0.750000
O O10 0.704550 0.250000 0.000000
O O11 0.767372 0.490786 0.888361
O O12 0.799975 0.750000 0.500000
#
# Coordination Sequence:
#
# PCOD8233653 Si02
#       5
#     8   4   4   8   8
#     4  12  26  47  75 106 143 183 226 272 328 388
#     4  10  20  40  56  92 119 170 209 276 328 404
#     4  10  22  34  64  86 127 160 219 264 338 400
#     4  12  26  44  67  98 136 175 226 280 337 399
#     4  10  22  40  63  89 126 170 219 271 334 401
#
# _framework density 21.668572999999999
#
# number of rings (size 3 to 8) (size 9 to 14) (size 15 to 20)
#    0.000    1.000    1.250    5.250    3.500    2.000 
#    0.000    0.000    0.000    0.000    0.000    0.000 
#    0.000    0.000    0.000    0.000    0.000    0.000 
#
# Total GULP energy -396724.255750 kJ/mol
# GULP energy per Si atom -12397.632992 kJ/mol
# Density = 2.161925 g / cm^3
# Si number density = 21.668573 Si / 1000 Ang^3
#
#
#
# Elastic Constant Matrix: (Units=GPa)
#
#
# Indices 1 2 3 4 5 6 
#
# 1 87.3304 40.4564 25.2219 0.0000 0.0000 0.0000
# 2 40.4564 111.2370 36.3705 0.0000 0.0000 0.0000
# 3 25.2219 36.3705 173.1927 0.0000 0.0000 0.0000
# 4 0.0000 0.0000 0.0000 31.9139 0.0000 0.0000
# 5 0.0000 0.0000 0.0000 0.0000 50.5246 0.0000
# 6 0.0000 0.0000 0.0000 0.0000 0.0000 39.6410
#
#
#
# Elastic Compliance Matrix: (Units=1/GPa)
#
#
# Indices 1 2 3 4 5 6 
#
# 1 0.013942 -0.004732 -0.001037 0.000000 0.000000 0.000000
# 2 -0.004732 0.011258 -0.001675 0.000000 0.000000 0.000000
# 3 -0.001037 -0.001675 0.006277 0.000000 0.000000 0.000000
# 4 0.000000 0.000000 0.000000 0.031334 0.000000 0.000000
# 5 0.000000 0.000000 0.000000 0.000000 0.019792 0.000000
# 6 0.000000 0.000000 0.000000 0.000000 0.000000 0.025226
#
#
# Mechanical properties :
#
#
# Convention : Reuss Voigt Hill
#
# Bulk Modulus (GPa) = 60.27724 63.98419 62.13072
# Shear Modulus (GPa) = 38.98706 42.39667 40.69186
#
# Velocity S-wave (km/s) = 4.24635 4.42814 4.33820
# Velocity P-wave (km/s) = 7.20557 7.46574 7.33681
#
# Compressibility (1/GPa) = 0.01659001
#
# Stress axis : x y z
#
# Youngs Moduli (GPa) = 71.72472 88.82218 159.31985
#
# Poissons Ratio (x) = 0.42028 0.16517
# Poissons Ratio (y) = 0.33938 0.26689
# Poissons Ratio (z) = 0.07436 0.14879
#
# Static dielectric constant tensor:
#      x y z
#    x 3.771130 0.000000 0.000000 
#    y 0.000000 4.045820 0.000000 
#    z 0.000000 0.000000 4.358660 
# 
# 
# High freq. dielectric constant tensor:
#      x y z
#    x 1.850640 0.000000 0.000000 
#    y 0.000000 1.852460 0.000000 
#    z 0.000000 0.000000 1.874940 
# 
# From -- ./inp_files/7549.got.cif
#   From: 2010.03.12/outbox.cif.g09.slc.cpg/sg57_4_cif.got.tgz:7549.got - 2010.04.16 15:48:40.
