data_PCOD8233378
_publ_section_title
;
Structure prediction by ZEFSAII (Michael W. Deem and Ramdas Pophale) SiO2 
 PCOD8233378
Probable space group: P B C M
;
_chemical_formula_sum "Si O2"
_cell_formula_units_Z 48
_cell_length_a 14.268071
_cell_length_b 20.410363
_cell_length_c 8.714887
_cell_angle_alpha 90.000000
_cell_angle_beta 90.000000
_cell_angle_gamma 90.000000
_cell_volume 2537.918963
_symmetry_space_group_name_H-M "P B C M"
_symmetry_group_IT_number 57
_symmetry_cell_setting 'orthorhombic'
loop_
_space_group_symop_operation_xyz
x,y,z
-x,-y,1/2+z
x,1/2-y,-z
-x,1/2+y,1/2-z
-x,-y,-z
x,y,1/2-z
-x,1/2+y,z
x,1/2-y,1/2+z
loop_
_atom_site_type_symbol
_atom_site_label
_atom_site_fract_x
_atom_site_fract_y
_atom_site_fract_z
Si Si1 0.553729 0.680291 0.568842
Si Si2 0.052904 0.561634 0.569888
Si Si3 0.943079 0.819046 0.931032
Si Si4 0.238723 0.521900 0.073140
Si Si5 0.447557 0.561400 0.428909
Si Si6 0.756694 0.630347 0.929472
O O1 0.526389 0.750000 0.500000
O O2 0.544793 0.682152 0.750000
O O3 0.480250 0.628232 0.505503
O O4 0.658314 0.660815 0.518087
O O5 0.035321 0.562207 0.750000
O O6 0.162837 0.557667 0.532844
O O7 0.000000 0.500000 0.500000
O O8 0.012345 0.627406 0.499249
O O9 0.953721 0.817583 0.750000
O O10 0.974686 0.750000 0.000000
O O11 0.835812 0.833514 0.973721
O O12 0.209063 0.529680 0.250000
O O13 0.337357 0.555770 0.039479
O O14 0.244523 0.445877 0.028451
O O15 0.500000 0.500000 0.500000
O O16 0.470498 0.562342 0.250000
O O17 0.776006 0.641689 0.750000
#
# Coordination Sequence:
#
# PCOD8233378 Si02
#       6
#     8   8   8   8   8   8
#     4  11  23  40  60  89 125 164 204 251 304 361
#     4  12  24  40  63  91 122 160 203 249 299 358
#     4  12  25  41  62  90 124 163 202 249 304 363
#     4  10  21  39  62  91 124 157 201 253 300 351
#     4  11  22  39  63  90 122 161 202 251 301 356
#     4  10  20  37  61  90 126 160 198 250 303 358
#
# _framework density 18.913132999999998
#
# number of rings (size 3 to 8) (size 9 to 14) (size 15 to 20)
#    0.000    1.000    3.333    4.500    0.000    4.000 
#    0.000    0.833    0.000    4.000    0.000    0.000 
#    0.000    0.000    0.000    0.000    0.000    0.000 
#
# Total GULP energy -595527.934218 kJ/mol
# GULP energy per Si atom -12406.831963 kJ/mol
# Density = 1.887009 g / cm^3
# Si number density = 18.913133 Si / 1000 Ang^3
#
#
#
# Elastic Constant Matrix: (Units=GPa)
#
#
# Indices 1 2 3 4 5 6 
#
# 1 97.0021 68.1138 54.7635 0.0000 0.0000 0.0000
# 2 68.1138 169.8290 67.4694 0.0000 0.0000 0.0000
# 3 54.7635 67.4694 127.1161 0.0000 0.0000 0.0000
# 4 0.0000 0.0000 0.0000 35.3456 0.0000 0.0000
# 5 0.0000 0.0000 0.0000 0.0000 30.5230 0.0000
# 6 0.0000 0.0000 0.0000 0.0000 0.0000 51.5535
#
#
#
# Elastic Compliance Matrix: (Units=1/GPa)
#
#
# Indices 1 2 3 4 5 6 
#
# 1 0.016121 -0.004697 -0.004452 0.000000 0.000000 0.000000
# 2 -0.004697 0.008830 -0.002663 0.000000 0.000000 0.000000
# 3 -0.004452 -0.002663 0.011198 0.000000 0.000000 0.000000
# 4 0.000000 0.000000 0.000000 0.028292 0.000000 0.000000
# 5 0.000000 0.000000 0.000000 0.000000 0.032762 0.000000
# 6 0.000000 0.000000 0.000000 0.000000 0.000000 0.019397
#
#
# Mechanical properties :
#
#
# Convention : Reuss Voigt Hill
#
# Bulk Modulus (GPa) = 79.84177 86.07118 82.95648
# Shear Modulus (GPa) = 34.62605 37.05777 35.84191
#
# Velocity S-wave (km/s) = 4.28342 4.43128 4.35798
# Velocity P-wave (km/s) = 8.17130 8.47284 8.32344
#
# Compressibility (1/GPa) = 0.01252477
#
# Stress axis : x y z
#
# Youngs Moduli (GPa) = 62.03261 113.24884 89.29817
#
# Poissons Ratio (x) = 0.53191 0.39756
# Poissons Ratio (y) = 0.29136 0.23783
# Poissons Ratio (z) = 0.27617 0.30162
#
# Static dielectric constant tensor:
#      x y z
#    x 3.585360 0.000000 0.000000 
#    y 0.000000 3.584310 0.000000 
#    z 0.000000 0.000000 3.744040 
# 
# 
# High freq. dielectric constant tensor:
#      x y z
#    x 1.737920 0.000000 0.000000 
#    y 0.000000 1.740770 0.000000 
#    z 0.000000 0.000000 1.745350 
# 
# From -- ./inp_files/4643.got.cif
#   From: 2010.03.12/outbox.cif.g09.slc.cpg/sg57_3_cif.got.tgz:4643.got - 2010.04.16 15:48:40.
