data_PCOD8233506
_publ_section_title
;
Structure prediction by ZEFSAII (Michael W. Deem and Ramdas Pophale) SiO2 
 PCOD8233506
Probable space group: P B C M
;
_chemical_formula_sum "Si O2"
_cell_formula_units_Z 48
_cell_length_a 30.317442
_cell_length_b 9.474389
_cell_length_c 8.523319
_cell_angle_alpha 90.000000
_cell_angle_beta 90.000000
_cell_angle_gamma 90.000000
_cell_volume 2448.231663
_symmetry_space_group_name_H-M "P B C M"
_symmetry_group_IT_number 57
_symmetry_cell_setting 'orthorhombic'
loop_
_space_group_symop_operation_xyz
x,y,z
-x,-y,1/2+z
x,1/2-y,-z
-x,1/2+y,1/2-z
-x,-y,-z
x,y,1/2-z
-x,1/2+y,z
x,1/2-y,1/2+z
loop_
_atom_site_type_symbol
_atom_site_label
_atom_site_fract_x
_atom_site_fract_y
_atom_site_fract_z
Si Si1 0.617072 0.101678 0.434255
Si Si2 0.460716 0.406456 0.435457
Si Si3 0.131491 0.904001 0.564813
Si Si4 0.282744 0.901401 0.936506
Si Si5 0.791345 0.593329 0.435402
Si Si6 0.038491 0.904553 0.435480
O O1 0.599505 0.250000 0.500000
O O2 0.615433 0.115535 0.250000
O O3 0.666899 0.070681 0.489889
O O4 0.585364 0.976010 0.492697
O O5 0.463873 0.250000 0.500000
O O6 0.500000 0.500000 0.500000
O O7 0.463882 0.401878 0.250000
O O8 0.143582 0.750000 0.500000
O O9 0.126827 0.893356 0.750000
O O10 0.085693 0.961727 0.493983
O O11 0.169291 0.011814 0.519178
O O12 0.276257 0.907535 0.750000
O O13 0.266655 0.750000 0.000000
O O14 0.254825 0.022153 0.020051
O O15 0.790752 0.750000 0.500000
O O16 0.798377 0.592143 0.250000
O O17 0.030013 0.750000 0.500000
O O18 0.037808 0.903511 0.250000
O O19 0.000000 0.000000 0.500000
#
# Coordination Sequence:
#
# PCOD8233506 Si02
#       6
#     8   8   8   8   8   8
#     4   9  20  37  59  85 115 148 189 234 283 337
#     4  11  23  39  58  84 115 152 192 237 287 342
#     4  11  22  40  63  88 116 153 195 238 285 342
#     4  10  20  38  61  87 116 152 192 234 281 339
#     4  12  25  41  59  85 117 152 191 239 291 343
#     4  11  22  39  61  89 120 155 195 240 289 343
#
# _framework density 19.605988
#
# number of rings (size 3 to 8) (size 9 to 14) (size 15 to 20)
#    0.000    1.333    0.000    7.500    0.000    4.667 
#    0.000    5.000    0.000    0.000    0.000    0.000 
#    0.000    0.000    0.000    0.000    0.000    0.000 
#
# Total GULP energy -595398.013857 kJ/mol
# GULP energy per Si atom -12404.125289 kJ/mol
# Density = 1.956136 g / cm^3
# Si number density = 19.605988 Si / 1000 Ang^3
#
#
#
# Elastic Constant Matrix: (Units=GPa)
#
#
# Indices 1 2 3 4 5 6 
#
# 1 134.7495 87.2337 42.3194 0.0000 0.0000 0.0000
# 2 87.2337 143.3680 41.2924 0.0000 0.0000 0.0000
# 3 42.3194 41.2924 125.6813 0.0000 0.0000 0.0000
# 4 0.0000 0.0000 0.0000 38.3088 0.0000 0.0000
# 5 0.0000 0.0000 0.0000 0.0000 32.6830 0.0000
# 6 0.0000 0.0000 0.0000 0.0000 0.0000 54.2338
#
#
#
# Elastic Compliance Matrix: (Units=1/GPa)
#
#
# Indices 1 2 3 4 5 6 
#
# 1 0.012647 -0.007145 -0.001911 0.000000 0.000000 0.000000
# 2 -0.007145 0.011740 -0.001452 0.000000 0.000000 0.000000
# 3 -0.001911 -0.001452 0.009077 0.000000 0.000000 0.000000
# 4 0.000000 0.000000 0.000000 0.026104 0.000000 0.000000
# 5 0.000000 0.000000 0.000000 0.000000 0.030597 0.000000
# 6 0.000000 0.000000 0.000000 0.000000 0.000000 0.018439
#
#
# Mechanical properties :
#
#
# Convention : Reuss Voigt Hill
#
# Bulk Modulus (GPa) = 80.32342 82.83219 81.57780
# Shear Modulus (GPa) = 37.37837 40.57535 38.97686
#
# Velocity S-wave (km/s) = 4.37106 4.55415 4.46355
# Velocity P-wave (km/s) = 8.15675 8.36623 8.26216
#
# Compressibility (1/GPa) = 0.01244967
#
# Stress axis : x y z
#
# Youngs Moduli (GPa) = 79.07292 85.17679 110.16831
#
# Poissons Ratio (x) = 0.60855 0.21053
# Poissons Ratio (y) = 0.56494 0.15991
# Poissons Ratio (z) = 0.15111 0.12364
#
# Static dielectric constant tensor:
#      x y z
#    x 3.999110 0.000000 0.000000 
#    y 0.000000 3.641880 0.000000 
#    z 0.000000 0.000000 3.751590 
# 
# 
# High freq. dielectric constant tensor:
#      x y z
#    x 1.780380 0.000000 0.000000 
#    y 0.000000 1.764570 0.000000 
#    z 0.000000 0.000000 1.781550 
# 
# From -- ./inp_files/9986.got.cif
#   From: 2010.03.12/outbox.cif.g09.slc.cpg/sg57_5_cif.got.tgz:9986.got - 2010.04.16 15:48:40.
