data_PCOD8233941
_publ_section_title
;
Structure prediction by ZEFSAII (Michael W. Deem and Ramdas Pophale) SiO2 
 PCOD8233941
Probable space group: P B C M
;
_chemical_formula_sum "Si O2"
_cell_formula_units_Z 64
_cell_length_a 25.695423
_cell_length_b 14.526969
_cell_length_c 8.737378
_cell_angle_alpha 90.000000
_cell_angle_beta 90.000000
_cell_angle_gamma 90.000000
_cell_volume 3261.458870
_symmetry_space_group_name_H-M "P B C M"
_symmetry_group_IT_number 57
_symmetry_cell_setting 'orthorhombic'
loop_
_space_group_symop_operation_xyz
x,y,z
-x,-y,1/2+z
x,1/2-y,-z
-x,1/2+y,1/2-z
-x,-y,-z
x,y,1/2-z
-x,1/2+y,z
x,1/2-y,1/2+z
loop_
_atom_site_type_symbol
_atom_site_label
_atom_site_fract_x
_atom_site_fract_y
_atom_site_fract_z
Si Si1 0.861553 0.148092 0.068941
Si Si2 0.785586 0.494480 0.071492
Si Si3 0.502781 0.400292 0.430398
Si Si4 0.869138 0.650051 0.428147
Si Si5 0.601792 0.660093 0.429625
Si Si6 0.056492 0.007145 0.569968
Si Si7 0.325410 0.484998 0.076379
Si Si8 0.392151 0.661951 0.423460
O O1 0.854363 0.156499 0.250000
O O2 0.911363 0.085002 0.025630
O O3 0.868777 0.250000 0.000000
O O4 0.811174 0.097394 0.999231
O O5 0.776386 0.476473 0.250000
O O6 0.819423 0.585658 0.042118
O O7 0.732178 0.515419 0.987739
O O8 0.500000 0.500000 0.500000
O O9 0.497119 0.407002 0.250000
O O10 0.455112 0.342442 0.495766
O O11 0.557310 0.356386 0.474554
O O12 0.859045 0.750000 0.500000
O O13 0.880743 0.662550 0.250000
O O14 0.918317 0.600172 0.504234
O O15 0.629847 0.750000 0.500000
O O16 0.595675 0.667523 0.250000
O O17 0.637090 0.573813 0.469686
O O18 0.052753 0.018296 0.750000
O O19 0.000000 0.000000 0.500000
O O20 0.325620 0.446923 0.250000
O O21 0.347652 0.586736 0.069459
O O22 0.364864 0.750000 0.500000
O O23 0.410609 0.678780 0.250000
#
# Coordination Sequence:
#
# PCOD8233941 Si02
#       8
#     8   8   8   8   8   8   8   8
#     4  10  21  38  61  88 118 157 203 249 300 354
#     4  10  22  40  62  87 118 155 198 247 301 355
#     4  12  23  39  63  89 119 155 194 237 291 354
#     4  10  21  38  61  88 118 157 202 249 298 355
#     4  12  25  42  64  89 120 156 196 242 294 355
#     4  10  21  37  58  87 125 164 203 249 297 352
#     4  11  24  42  63  88 121 156 197 246 298 355
#     4  11  24  41  62  88 119 154 195 240 292 352
#
# _framework density 19.62312
#
# number of rings (size 3 to 8) (size 9 to 14) (size 15 to 20)
#    0.000    1.250    1.250    4.875    0.000    6.000 
#    0.000    3.750    0.000    0.000    0.000    0.000 
#    0.000    0.000    0.000    0.000    0.000    0.000 
#
# Total GULP energy -793781.800915 kJ/mol
# GULP energy per Si atom -12402.840639 kJ/mol
# Density = 1.957846 g / cm^3
# Si number density = 19.623120 Si / 1000 Ang^3
#
#
#
# Elastic Constant Matrix: (Units=GPa)
#
#
# Indices 1 2 3 4 5 6 
#
# 1 103.0345 21.7504 48.1880 0.0000 0.0000 0.0000
# 2 21.7504 120.5545 57.7516 0.0000 0.0000 0.0000
# 3 48.1880 57.7516 158.4451 0.0000 0.0000 0.0000
# 4 0.0000 0.0000 0.0000 38.7549 0.0000 0.0000
# 5 0.0000 0.0000 0.0000 0.0000 37.3983 0.0000
# 6 0.0000 0.0000 0.0000 0.0000 0.0000 30.2164
#
#
#
# Elastic Compliance Matrix: (Units=1/GPa)
#
#
# Indices 1 2 3 4 5 6 
#
# 1 0.011337 -0.000477 -0.003274 0.000000 0.000000 0.000000
# 2 -0.000477 0.010070 -0.003525 0.000000 0.000000 0.000000
# 3 -0.003274 -0.003525 0.008592 0.000000 0.000000 0.000000
# 4 0.000000 0.000000 0.000000 0.025803 0.000000 0.000000
# 5 0.000000 0.000000 0.000000 0.000000 0.026739 0.000000
# 6 0.000000 0.000000 0.000000 0.000000 0.000000 0.033095
#
#
# Mechanical properties :
#
#
# Convention : Reuss Voigt Hill
#
# Bulk Modulus (GPa) = 64.73999 70.82378 67.78189
# Shear Modulus (GPa) = 36.94449 38.23020 37.58735
#
# Velocity S-wave (km/s) = 4.34372 4.41866 4.38135
# Velocity P-wave (km/s) = 7.63024 7.88689 7.75962
#
# Compressibility (1/GPa) = 0.01544640
#
# Stress axis : x y z
#
# Youngs Moduli (GPa) = 88.20291 99.30636 116.38659
#
# Poissons Ratio (x) = 0.04737 0.38108
# Poissons Ratio (y) = 0.04207 0.41030
# Poissons Ratio (z) = 0.28880 0.35008
#
# Static dielectric constant tensor:
#      x y z
#    x 5.865020 0.000000 0.000000 
#    y 0.000000 3.715820 0.000000 
#    z 0.000000 0.000000 3.788410 
# 
# 
# High freq. dielectric constant tensor:
#      x y z
#    x 1.759440 0.000000 0.000000 
#    y 0.000000 1.777910 0.000000 
#    z 0.000000 0.000000 1.786550 
# 
# From -- ./inp_files/9445.got.cif
#   From: 2010.03.12/outbox.cif.g09.slc.cpg/sg57_5_cif.got.tgz:9445.got - 2010.04.16 15:48:40.
