data_PCOD8233420
_publ_section_title
;
Structure prediction by ZEFSAII (Michael W. Deem and Ramdas Pophale) SiO2 
 PCOD8233420
Probable space group: P B C M
;
_chemical_formula_sum "Si O2"
_cell_formula_units_Z 48
_cell_length_a 14.666711
_cell_length_b 8.753902
_cell_length_c 17.906835
_cell_angle_alpha 90.000000
_cell_angle_beta 90.000000
_cell_angle_gamma 90.000000
_cell_volume 2299.075571
_symmetry_space_group_name_H-M "P B C M"
_symmetry_group_IT_number 57
_symmetry_cell_setting 'orthorhombic'
loop_
_space_group_symop_operation_xyz
x,y,z
-x,-y,1/2+z
x,1/2-y,-z
-x,1/2+y,1/2-z
-x,-y,-z
x,y,1/2-z
-x,1/2+y,z
x,1/2-y,1/2+z
loop_
_atom_site_type_symbol
_atom_site_label
_atom_site_fract_x
_atom_site_fract_y
_atom_site_fract_z
Si Si1 0.765862 0.710956 0.079546
Si Si2 0.427561 0.804585 0.661303
Si Si3 0.913707 0.276449 0.835074
Si Si4 0.256554 0.985287 0.665208
Si Si5 0.948626 0.974474 0.577718
Si Si6 0.389404 0.034740 0.338744
O O1 0.781380 0.869168 0.122172
O O2 0.863298 0.635181 0.064579
O O3 0.702919 0.596146 0.125539
O O4 0.720196 0.750000 0.000000
O O5 0.421017 0.801835 0.750000
O O6 0.408506 0.635149 0.630410
O O7 0.352053 0.924091 0.630908
O O8 0.527371 0.857509 0.635403
O O9 0.935819 0.226948 0.750000
O O10 0.813376 0.346259 0.840224
O O11 0.914604 0.135021 0.890874
O O12 0.986194 0.402164 0.860315
O O13 0.271318 0.038780 0.750000
O O14 0.000000 0.000000 0.500000
O O15 0.377648 0.035842 0.250000
#
# Coordination Sequence:
#
# PCOD8233420 Si02
#       6
#     8   8   8   8   8   8
#     4  12  25  40  59  86 119 159 205 248 298 361
#     4   9  18  36  63  93 123 157 198 242 296 361
#     4  11  23  39  63  93 119 150 201 260 307 355
#     4  10  21  39  63  91 123 158 199 250 304 357
#     4  12  25  43  63  85 121 165 203 246 311 383
#     4  10  20  37  63  92 122 159 201 246 297 355
#
# _framework density 20.877955
#
# number of rings (size 3 to 8) (size 9 to 14) (size 15 to 20)
#    0.000    1.333    0.000    6.500    0.000    8.000 
#    0.000    5.833    0.000    0.000    0.000    0.000 
#    0.000    0.000    0.000    0.000    0.000    0.000 
#
# Total GULP energy -595405.408018 kJ/mol
# GULP energy per Si atom -12404.279334 kJ/mol
# Density = 2.083044 g / cm^3
# Si number density = 20.877955 Si / 1000 Ang^3
#
#
#
# Elastic Constant Matrix: (Units=GPa)
#
#
# Indices 1 2 3 4 5 6 
#
# 1 100.2667 17.4867 42.3691 0.0000 0.0000 0.0000
# 2 17.4867 104.2811 55.3402 0.0000 0.0000 0.0000
# 3 42.3691 55.3402 100.5521 0.0000 0.0000 0.0000
# 4 0.0000 0.0000 0.0000 25.2873 0.0000 0.0000
# 5 0.0000 0.0000 0.0000 0.0000 27.2017 0.0000
# 6 0.0000 0.0000 0.0000 0.0000 0.0000 39.8713
#
#
#
# Elastic Compliance Matrix: (Units=1/GPa)
#
#
# Indices 1 2 3 4 5 6 
#
# 1 0.012202 0.000964 -0.005672 0.000000 0.000000 0.000000
# 2 0.000964 0.013622 -0.007903 0.000000 0.000000 0.000000
# 3 -0.005672 -0.007903 0.016685 0.000000 0.000000 0.000000
# 4 0.000000 0.000000 0.000000 0.039545 0.000000 0.000000
# 5 0.000000 0.000000 0.000000 0.000000 0.036762 0.000000
# 6 0.000000 0.000000 0.000000 0.000000 0.000000 0.025081
#
#
# Mechanical properties :
#
#
# Convention : Reuss Voigt Hill
#
# Bulk Modulus (GPa) = 57.84983 59.49908 58.67445
# Shear Modulus (GPa) = 28.59075 31.13234 29.86154
#
# Velocity S-wave (km/s) = 3.70459 3.86574 3.78602
# Velocity P-wave (km/s) = 6.78729 6.96316 6.87579
#
# Compressibility (1/GPa) = 0.01728614
#
# Stress axis : x y z
#
# Youngs Moduli (GPa) = 81.95326 73.41124 59.93527
#
# Poissons Ratio (x) = -0.07076 0.33995
# Poissons Ratio (y) = -0.07899 0.47368
# Poissons Ratio (z) = 0.46484 0.58018
#
# Static dielectric constant tensor:
#      x y z
#    x 3.856810 0.000000 0.000000 
#    y 0.000000 3.918530 0.000000 
#    z 0.000000 0.000000 3.761390 
# 
# 
# High freq. dielectric constant tensor:
#      x y z
#    x 1.828950 0.000000 0.000000 
#    y 0.000000 1.835060 0.000000 
#    z 0.000000 0.000000 1.798160 
# 
# From -- ./inp_files/22386.got.cif
#   From: 2010.03.12/outbox.cif.g09.slc.cpg/sg57_12_cif.got.tgz:22386.got - 2010.04.16 15:48:40.
