data_PCOD8233346
_publ_section_title
;
Structure prediction by ZEFSAII (Michael W. Deem and Ramdas Pophale) SiO2 
 PCOD8233346
Probable space group: P B C M
;
_chemical_formula_sum "Si O2"
_cell_formula_units_Z 48
_cell_length_a 15.026948
_cell_length_b 18.982230
_cell_length_c 8.780914
_cell_angle_alpha 90.000000
_cell_angle_beta 90.000000
_cell_angle_gamma 90.000000
_cell_volume 2504.711666
_symmetry_space_group_name_H-M "P B C M"
_symmetry_group_IT_number 57
_symmetry_cell_setting 'orthorhombic'
loop_
_space_group_symop_operation_xyz
x,y,z
-x,-y,1/2+z
x,1/2-y,-z
-x,1/2+y,1/2-z
-x,-y,-z
x,y,1/2-z
-x,1/2+y,z
x,1/2-y,1/2+z
loop_
_atom_site_type_symbol
_atom_site_label
_atom_site_fract_x
_atom_site_fract_y
_atom_site_fract_z
Si Si1 0.713102 0.925857 0.428239
Si Si2 0.125713 0.173915 0.929214
Si Si3 0.973648 0.073193 0.927541
Si Si4 0.772137 0.067449 0.924828
Si Si5 0.617119 0.325663 0.427379
Si Si6 0.473374 0.074425 0.429925
O O1 0.691588 0.921123 0.250000
O O2 0.789324 0.871823 0.478864
O O3 0.626206 0.905149 0.523135
O O4 0.744040 0.004686 0.464894
O O5 0.121346 0.182618 0.750000
O O6 0.036861 0.135212 0.991872
O O7 0.133958 0.250000 0.000000
O O8 0.991312 0.064763 0.750000
O O9 0.871795 0.092490 0.964839
O O10 0.000000 0.000000 0.000000
O O11 0.764953 0.041344 0.750000
O O12 0.708898 0.133431 0.954989
O O13 0.629942 0.250000 0.500000
O O14 0.593813 0.319325 0.250000
O O15 0.536983 0.364703 0.510515
O O16 0.480957 0.068282 0.250000
O O17 0.500000 0.000000 0.500000
#
# Coordination Sequence:
#
# PCOD8233346 Si02
#       6
#     8   8   8   8   8   8
#     4  11  22  38  62  91 122 158 206 254 301 363
#     4  10  23  40  59  88 125 161 202 251 304 360
#     4  10  20  37  60  90 121 157 204 252 300 360
#     4  10  21  37  62  90 121 159 204 251 303 364
#     4  11  24  42  62  91 126 163 204 254 310 366
#     4  12  24  40  64  93 123 161 205 254 306 365
#
# _framework density 19.163881
#
# number of rings (size 3 to 8) (size 9 to 14) (size 15 to 20)
#    0.000    1.333    3.333    2.500    0.000    4.000 
#    0.000    1.667    0.000    0.000    0.000    0.000 
#    0.000    0.000    0.000    0.000    0.000    0.000 
#
# Total GULP energy -595418.845052 kJ/mol
# GULP energy per Si atom -12404.559272 kJ/mol
# Density = 1.912026 g / cm^3
# Si number density = 19.163881 Si / 1000 Ang^3
#
#
#
# Elastic Constant Matrix: (Units=GPa)
#
#
# Indices 1 2 3 4 5 6 
#
# 1 170.3327 76.8577 61.7166 0.0000 0.0000 0.0000
# 2 76.8577 145.9956 56.1034 0.0000 0.0000 0.0000
# 3 61.7166 56.1034 94.9904 0.0000 0.0000 0.0000
# 4 0.0000 0.0000 0.0000 37.2346 0.0000 0.0000
# 5 0.0000 0.0000 0.0000 0.0000 25.9426 0.0000
# 6 0.0000 0.0000 0.0000 0.0000 0.0000 80.6503
#
#
#
# Elastic Compliance Matrix: (Units=1/GPa)
#
#
# Indices 1 2 3 4 5 6 
#
# 1 0.008638 -0.003093 -0.003786 0.000000 0.000000 0.000000
# 2 -0.003093 0.009968 -0.003878 0.000000 0.000000 0.000000
# 3 -0.003786 -0.003878 0.015277 0.000000 0.000000 0.000000
# 4 0.000000 0.000000 0.000000 0.026857 0.000000 0.000000
# 5 0.000000 0.000000 0.000000 0.000000 0.038547 0.000000
# 6 0.000000 0.000000 0.000000 0.000000 0.000000 0.012399
#
#
# Mechanical properties :
#
#
# Convention : Reuss Voigt Hill
#
# Bulk Modulus (GPa) = 80.83543 88.96378 84.89960
# Shear Modulus (GPa) = 36.41090 43.20824 39.80957
#
# Velocity S-wave (km/s) = 4.36360 4.75349 4.56271
# Velocity P-wave (km/s) = 8.22561 8.75505 8.49446
#
# Compressibility (1/GPa) = 0.01237081
#
# Stress axis : x y z
#
# Youngs Moduli (GPa) = 115.76802 100.32317 65.45647
#
# Poissons Ratio (x) = 0.31026 0.24779
# Poissons Ratio (y) = 0.35802 0.25383
# Poissons Ratio (z) = 0.43826 0.38904
#
# Static dielectric constant tensor:
#      x y z
#    x 0.243940 0.000000 0.000000 
#    y 0.000000 3.412020 0.000000 
#    z 0.000000 0.000000 3.558860 
# 
# 
# High freq. dielectric constant tensor:
#      x y z
#    x 1.766470 0.000000 0.000000 
#    y 0.000000 1.741890 0.000000 
#    z 0.000000 0.000000 1.748780 
# 
# From -- ./inp_files/4673.got.cif
#   From: 2010.03.12/outbox.cif.g09.slc.cpg/sg57_3_cif.got.tgz:4673.got - 2010.04.16 15:48:40.
