data_PCOD8233344
_publ_section_title
;
Structure prediction by ZEFSAII (Michael W. Deem and Ramdas Pophale) SiO2 
 PCOD8233344
Probable space group: P B C M
;
_chemical_formula_sum "Si O2"
_cell_formula_units_Z 36
_cell_length_a 21.061599
_cell_length_b 9.244345
_cell_length_c 9.393153
_cell_angle_alpha 90.000000
_cell_angle_beta 90.000000
_cell_angle_gamma 90.000000
_cell_volume 1828.853346
_symmetry_space_group_name_H-M "P B C M"
_symmetry_group_IT_number 57
_symmetry_cell_setting 'orthorhombic'
loop_
_space_group_symop_operation_xyz
x,y,z
-x,-y,1/2+z
x,1/2-y,-z
-x,1/2+y,1/2-z
-x,-y,-z
x,y,1/2-z
-x,1/2+y,z
x,1/2-y,1/2+z
loop_
_atom_site_type_symbol
_atom_site_label
_atom_site_fract_x
_atom_site_fract_y
_atom_site_fract_z
Si Si1 0.197400 0.899542 0.917724
Si Si2 0.309785 0.106665 0.912015
Si Si3 0.913896 0.004371 0.596699
Si Si4 0.453159 0.397521 0.083355
Si Si5 0.997438 0.750000 0.500000
O O1 0.191277 0.872762 0.750000
O O2 0.262030 0.981149 0.959532
O O3 0.197509 0.750000 0.000000
O O4 0.137298 0.993831 0.969540
O O5 0.297363 0.151501 0.750000
O O6 0.381052 0.045379 0.931874
O O7 0.296481 0.250000 0.000000
O O8 0.878962 0.007247 0.750000
O O9 0.958647 0.146124 0.595349
O O10 0.953847 0.856327 0.593132
O O11 0.472258 0.381517 0.250000
O O12 0.459306 0.250000 0.000000
O O13 0.500000 0.500000 0.000000
#
# Coordination Sequence:
#
# PCOD8233344 Si02
#       5
#     8   8   8   8   4
#     4  11  24  41  60  86 118 154 197 244 294 351
#     4   9  21  40  61  87 119 156 198 243 291 349
#     4  11  23  41  63  88 117 154 194 240 293 350
#     4  10  20  37  60  89 124 160 201 245 295 349
#     4  10  24  40  62  90 120 148 192 238 296 352
#
# _framework density 19.684463000000001
#
# number of rings (size 3 to 8) (size 9 to 14) (size 15 to 20)
#    0.000    1.778    1.111    2.000    1.556    8.000 
#    0.000    2.222    0.000    0.000    0.000    0.000 
#    0.000    0.000    0.000    0.000    0.000    0.000 
#
# Total GULP energy -446309.591836 kJ/mol
# GULP energy per Si atom -12397.488662 kJ/mol
# Density = 1.963966 g / cm^3
# Si number density = 19.684463 Si / 1000 Ang^3
#
#
#
# Elastic Constant Matrix: (Units=GPa)
#
#
# Indices 1 2 3 4 5 6 
#
# 1 128.6263 62.0134 63.5406 0.0000 0.0000 0.0000
# 2 62.0134 94.7699 44.9785 0.0000 0.0000 0.0000
# 3 63.5406 44.9785 129.0837 0.0000 0.0000 0.0000
# 4 0.0000 0.0000 0.0000 27.2036 0.0000 0.0000
# 5 0.0000 0.0000 0.0000 0.0000 32.0080 0.0000
# 6 0.0000 0.0000 0.0000 0.0000 0.0000 32.0281
#
#
#
# Elastic Compliance Matrix: (Units=1/GPa)
#
#
# Indices 1 2 3 4 5 6 
#
# 1 0.012945 -0.006526 -0.004098 0.000000 0.000000 0.000000
# 2 -0.006526 0.015932 -0.002339 0.000000 0.000000 0.000000
# 3 -0.004098 -0.002339 0.010579 0.000000 0.000000 0.000000
# 4 0.000000 0.000000 0.000000 0.036760 0.000000 0.000000
# 5 0.000000 0.000000 0.000000 0.000000 0.031242 0.000000
# 6 0.000000 0.000000 0.000000 0.000000 0.000000 0.031223
#
#
# Mechanical properties :
#
#
# Convention : Reuss Voigt Hill
#
# Bulk Modulus (GPa) = 73.90860 77.06054 75.48457
# Shear Modulus (GPa) = 29.56513 30.37775 29.97144
#
# Velocity S-wave (km/s) = 3.87971 3.93266 3.90628
# Velocity P-wave (km/s) = 7.59590 7.73654 7.66654
#
# Compressibility (1/GPa) = 0.01353023
#
# Stress axis : x y z
#
# Youngs Moduli (GPa) = 77.24882 62.76580 94.52322
#
# Poissons Ratio (x) = 0.40959 0.38739
# Poissons Ratio (y) = 0.50410 0.22112
# Poissons Ratio (z) = 0.31659 0.14683
#
# Static dielectric constant tensor:
#      x y z
#    x 4.059590 0.000000 0.000000 
#    y 0.000000 3.562660 0.000000 
#    z 0.000000 0.000000 4.313960 
# 
# 
# High freq. dielectric constant tensor:
#      x y z
#    x 1.771230 0.000000 0.000000 
#    y 0.000000 1.767510 0.000000 
#    z 0.000000 0.000000 1.777610 
# 
# From -- ./inp_files/7585.got.cif
#   From: 2010.03.12/outbox.cif.g09.slc.cpg/sg57_4_cif.got.tgz:7585.got - 2010.04.16 15:48:40.
