data_PCOD8233697
_publ_section_title
;
Structure prediction by ZEFSAII (Michael W. Deem and Ramdas Pophale) SiO2 
 PCOD8233697
Probable space group: P B C M
;
_chemical_formula_sum "Si O2"
_cell_formula_units_Z 60
_cell_length_a 7.879789
_cell_length_b 15.959409
_cell_length_c 22.891316
_cell_angle_alpha 90.000000
_cell_angle_beta 90.000000
_cell_angle_gamma 90.000000
_cell_volume 2878.738087
_symmetry_space_group_name_H-M "P B C M"
_symmetry_group_IT_number 57
_symmetry_cell_setting 'orthorhombic'
loop_
_space_group_symop_operation_xyz
x,y,z
-x,-y,1/2+z
x,1/2-y,-z
-x,1/2+y,1/2-z
-x,-y,-z
x,y,1/2-z
-x,1/2+y,z
x,1/2-y,1/2+z
loop_
_atom_site_type_symbol
_atom_site_label
_atom_site_fract_x
_atom_site_fract_y
_atom_site_fract_z
Si Si1 0.367025 0.380286 0.181696
Si Si2 0.837077 0.764837 0.399726
Si Si3 0.421724 0.250000 0.500000
Si Si4 0.622467 0.419753 0.993978
Si Si5 0.218586 0.530474 0.119152
Si Si6 0.253729 0.658113 0.815118
Si Si7 0.933329 0.089943 0.920111
Si Si8 0.056262 0.673336 0.184258
O O1 0.329187 0.389393 0.250000
O O2 0.226998 0.319991 0.154483
O O3 0.353123 0.469013 0.149414
O O4 0.549686 0.342089 0.167698
O O5 0.692507 0.732878 0.443146
O O6 0.974369 0.821226 0.435557
O O7 0.917028 0.684666 0.367079
O O8 0.531832 0.333045 0.487931
O O9 0.789474 0.432014 0.033222
O O10 0.500000 0.500000 0.000000
O O11 0.680134 0.412094 0.926881
O O12 0.145786 0.585733 0.171563
O O13 0.072288 0.483205 0.082373
O O14 0.227149 0.622885 0.750000
O O15 0.149846 0.595988 0.856181
O O16 0.194098 0.753319 0.821074
O O17 0.978672 0.670794 0.250000
#
# Coordination Sequence:
#
# PCOD8233697 Si02
#       8
#     8   8   4   8   8   8   8   8
#     4  10  20  41  66  91 126 172 219 267 331 392
#     4  10  23  39  65  94 126 170 222 263 323 396
#     4  12  28  42  70  98 132 178 226 268 338 402
#     4  12  27  44  65  95 138 174 222 276 331 391
#     4  11  24  38  65  93 127 170 211 273 330 395
#     4   9  19  37  64  90 122 166 215 267 319 391
#     4  10  22  41  65  89 127 170 219 263 327 389
#     4  10  22  39  61  95 130 163 213 274 331 387
#
# _framework density 20.842465000000001
#
# number of rings (size 3 to 8) (size 9 to 14) (size 15 to 20)
#    0.000    1.600    0.000    4.400    9.333    3.733 
#    0.000    0.000    0.000    0.000    0.000    0.000 
#    0.000    0.000    0.000    0.000    0.000    0.000 
#
# Total GULP energy -744098.731859 kJ/mol
# GULP energy per Si atom -12401.645531 kJ/mol
# Density = 2.079503 g / cm^3
# Si number density = 20.842465 Si / 1000 Ang^3
#
#
#
# Elastic Constant Matrix: (Units=GPa)
#
#
# Indices 1 2 3 4 5 6 
#
# 1 78.2535 14.7555 35.1969 0.0000 0.0000 0.0000
# 2 14.7555 67.1469 25.6421 0.0000 0.0000 0.0000
# 3 35.1969 25.6421 96.2382 0.0000 0.0000 0.0000
# 4 0.0000 0.0000 0.0000 28.6805 0.0000 0.0000
# 5 0.0000 0.0000 0.0000 0.0000 42.7380 0.0000
# 6 0.0000 0.0000 0.0000 0.0000 0.0000 21.4586
#
#
#
# Elastic Compliance Matrix: (Units=1/GPa)
#
#
# Indices 1 2 3 4 5 6 
#
# 1 0.015408 -0.001374 -0.005269 0.000000 0.000000 0.000000
# 2 -0.001374 0.016702 -0.003948 0.000000 0.000000 0.000000
# 3 -0.005269 -0.003948 0.013370 0.000000 0.000000 0.000000
# 4 0.000000 0.000000 0.000000 0.034867 0.000000 0.000000
# 5 0.000000 0.000000 0.000000 0.000000 0.023398 0.000000
# 6 0.000000 0.000000 0.000000 0.000000 0.000000 0.046601
#
#
# Mechanical properties :
#
#
# Convention : Reuss Voigt Hill
#
# Bulk Modulus (GPa) = 41.15442 43.64750 42.40096
# Shear Modulus (GPa) = 27.83542 29.64502 28.74022
#
# Velocity S-wave (km/s) = 3.65843 3.77548 3.71742
# Velocity P-wave (km/s) = 6.13464 6.32398 6.23003
#
# Compressibility (1/GPa) = 0.02429873
#
# Stress axis : x y z
#
# Youngs Moduli (GPa) = 64.90165 59.87242 74.79552
#
# Poissons Ratio (x) = 0.08225 0.39410
# Poissons Ratio (y) = 0.08916 0.29528
# Poissons Ratio (z) = 0.34197 0.23636
#
# Static dielectric constant tensor:
#      x y z
#    x 3.922970 0.000000 0.000000 
#    y 0.000000 3.598760 0.000000 
#    z 0.000000 0.000000 3.851310 
# 
# 
# High freq. dielectric constant tensor:
#      x y z
#    x 1.821880 0.000000 0.000000 
#    y 0.000000 1.803590 0.000000 
#    z 0.000000 0.000000 1.829560 
# 
# From -- ./inp_files/26841.got.cif
#   From: 2010.03.12/outbox.cif.g09.slc.cpg/sg57_14_cif.got.tgz:26841.got - 2010.04.16 15:48:40.
