data_PCOD8233449
_publ_section_title
;
Structure prediction by ZEFSAII (Michael W. Deem and Ramdas Pophale) SiO2 
 PCOD8233449
Probable space group: P B C M
;
_chemical_formula_sum "Si O2"
_cell_formula_units_Z 40
_cell_length_a 23.236849
_cell_length_b 9.330876
_cell_length_c 9.138992
_cell_angle_alpha 90.000000
_cell_angle_beta 90.000000
_cell_angle_gamma 90.000000
_cell_volume 1981.517677
_symmetry_space_group_name_H-M "P B C M"
_symmetry_group_IT_number 57
_symmetry_cell_setting 'orthorhombic'
loop_
_space_group_symop_operation_xyz
x,y,z
-x,-y,1/2+z
x,1/2-y,-z
-x,1/2+y,1/2-z
-x,-y,-z
x,y,1/2-z
-x,1/2+y,z
x,1/2-y,1/2+z
loop_
_atom_site_type_symbol
_atom_site_label
_atom_site_fract_x
_atom_site_fract_y
_atom_site_fract_z
Si Si1 0.449766 0.593890 0.429379
Si Si2 0.641488 0.600369 0.426217
Si Si3 0.867354 0.409731 0.474569
Si Si4 0.928220 0.482829 0.750000
Si Si5 0.960591 0.340085 0.250000
Si Si6 0.770764 0.879827 0.590742
O O1 0.455707 0.750000 0.500000
O O2 0.500000 0.500000 0.500000
O O3 0.452314 0.597610 0.250000
O O4 0.390531 0.526796 0.488777
O O5 0.621527 0.750000 0.500000
O O6 0.629233 0.599928 0.250000
O O7 0.708326 0.570848 0.466727
O O8 0.843966 0.250000 0.500000
O O9 0.884116 0.497543 0.617451
O O10 0.927144 0.402774 0.387898
O O11 0.815008 0.489222 0.397549
O O12 0.961779 0.331781 0.750000
O O13 0.973533 0.611377 0.750000
O O14 0.797839 0.750000 0.500000
O O15 0.760843 0.815057 0.750000
#
# Coordination Sequence:
#
# PCOD8233449 Si02
#       6
#     8   8   8   4   4   8
#     4  12  25  43  66  96 130 170 213 258 308 363
#     4  10  21  40  63  91 125 164 206 256 310 364
#     4  10  21  38  57  82 114 153 192 242 299 357
#     4  10  22  34  56  84 108 150 187 242 295 364
#     4  10  20  38  56  78 114 144 193 238 301 354
#     4  10  22  39  61  88 120 156 199 248 297 355
#
# _framework density 20.186547999999998
#
# number of rings (size 3 to 8) (size 9 to 14) (size 15 to 20)
#    0.000    1.600    1.000    3.600    1.400    3.200 
#    0.000    0.000    0.000    0.000    0.000    0.000 
#    0.000    0.000    0.000    0.000    0.000    0.000 
#
# Total GULP energy -495773.727275 kJ/mol
# GULP energy per Si atom -12394.343182 kJ/mol
# Density = 2.014060 g / cm^3
# Si number density = 20.186548 Si / 1000 Ang^3
#
#
#
# Elastic Constant Matrix: (Units=GPa)
#
#
# Indices 1 2 3 4 5 6 
#
# 1 81.3083 47.7786 24.0422 0.0000 0.0000 0.0000
# 2 47.7786 107.5982 37.0002 0.0000 0.0000 0.0000
# 3 24.0422 37.0002 131.1084 0.0000 0.0000 0.0000
# 4 0.0000 0.0000 0.0000 36.9752 0.0000 0.0000
# 5 0.0000 0.0000 0.0000 0.0000 34.5337 0.0000
# 6 0.0000 0.0000 0.0000 0.0000 0.0000 37.2024
#
#
#
# Elastic Compliance Matrix: (Units=1/GPa)
#
#
# Indices 1 2 3 4 5 6 
#
# 1 0.016778 -0.007079 -0.001079 0.000000 0.000000 0.000000
# 2 -0.007079 0.013280 -0.002450 0.000000 0.000000 0.000000
# 3 -0.001079 -0.002450 0.008516 0.000000 0.000000 0.000000
# 4 0.000000 0.000000 0.000000 0.027045 0.000000 0.000000
# 5 0.000000 0.000000 0.000000 0.000000 0.028957 0.000000
# 6 0.000000 0.000000 0.000000 0.000000 0.000000 0.026880
#
#
# Mechanical properties :
#
#
# Convention : Reuss Voigt Hill
#
# Bulk Modulus (GPa) = 57.60764 59.73966 58.67365
# Shear Modulus (GPa) = 33.67975 35.82186 34.75080
#
# Velocity S-wave (km/s) = 4.08907 4.21710 4.15358
# Velocity P-wave (km/s) = 7.13397 7.30547 7.22023
#
# Compressibility (1/GPa) = 0.01735881
#
# Stress axis : x y z
#
# Youngs Moduli (GPa) = 59.60295 75.30346 117.42068
#
# Poissons Ratio (x) = 0.53308 0.12668
# Poissons Ratio (y) = 0.42193 0.28762
# Poissons Ratio (z) = 0.06430 0.18446
#
# Static dielectric constant tensor:
#      x y z
#    x 3.567320 0.000000 0.000000 
#    y 0.000000 3.611110 0.000000 
#    z 0.000000 0.000000 4.081130 
# 
# 
# High freq. dielectric constant tensor:
#      x y z
#    x 1.789830 0.000000 0.000000 
#    y 0.000000 1.781720 0.000000 
#    z 0.000000 0.000000 1.808480 
# 
# From -- ./inp_files/8953.got.cif
#   From: 2010.03.12/outbox.cif.g09.slc.cpg/sg57_5_cif.got.tgz:8953.got - 2010.04.16 15:48:40.
