data_PCOD8233587
_publ_section_title
;
Structure prediction by ZEFSAII (Michael W. Deem and Ramdas Pophale) SiO2 
 PCOD8233587
Probable space group: P B C M
;
_chemical_formula_sum "Si O2"
_cell_formula_units_Z 48
_cell_length_a 9.566690
_cell_length_b 13.947853
_cell_length_c 17.312918
_cell_angle_alpha 90.000000
_cell_angle_beta 90.000000
_cell_angle_gamma 90.000000
_cell_volume 2310.145505
_symmetry_space_group_name_H-M "P B C M"
_symmetry_group_IT_number 57
_symmetry_cell_setting 'orthorhombic'
loop_
_space_group_symop_operation_xyz
x,y,z
-x,-y,1/2+z
x,1/2-y,-z
-x,1/2+y,1/2-z
-x,-y,-z
x,y,1/2-z
-x,1/2+y,z
x,1/2-y,1/2+z
loop_
_atom_site_type_symbol
_atom_site_label
_atom_site_fract_x
_atom_site_fract_y
_atom_site_fract_z
Si Si1 0.574397 0.482129 0.082264
Si Si2 0.286506 0.774617 0.086339
Si Si3 0.345217 0.911979 0.660830
Si Si4 0.092079 0.027869 0.837801
Si Si5 0.982833 0.728301 0.658160
Si Si6 0.181810 0.413706 0.839101
O O1 0.628226 0.373806 0.092912
O O2 0.460365 0.505838 0.147604
O O3 0.699307 0.557179 0.099640
O O4 0.500000 0.500000 0.000000
O O5 0.383448 0.688007 0.118571
O O6 0.143144 0.772950 0.133116
O O7 0.245990 0.750000 0.000000
O O8 0.330212 0.887415 0.750000
O O9 0.199940 0.953289 0.623143
O O10 0.144283 0.034797 0.750000
O O11 0.096281 0.134030 0.874793
O O12 0.932594 0.996469 0.842396
O O13 0.987466 0.729604 0.750000
O O14 0.892065 0.817775 0.628909
O O15 0.237118 0.402793 0.750000
#
# Coordination Sequence:
#
# PCOD8233587 Si02
#       6
#     8   8   8   8   8   8
#     4  12  26  45  64  95 143 187 223 278 345 420
#     4  12  24  43  66  94 135 181 224 275 354 410
#     4  11  24  43  69  99 131 175 232 287 336 413
#     4   9  18  36  64  99 129 161 217 286 335 387
#     4  10  20  39  69 102 133 170 227 288 339 405
#     4  10  20  38  69 102 130 170 228 284 335 403
#
# _framework density 20.777912000000001
#
# number of rings (size 3 to 8) (size 9 to 14) (size 15 to 20)
#    0.000    1.333    5.000    1.000    0.000    3.333 
#    3.000    4.167    0.000    0.000    0.000    0.000 
#    0.000    0.000    0.000    0.000    0.000    0.000 
#
# Total GULP energy -594875.286275 kJ/mol
# GULP energy per Si atom -12393.235131 kJ/mol
# Density = 2.073062 g / cm^3
# Si number density = 20.777912 Si / 1000 Ang^3
#
#
#
# Elastic Constant Matrix: (Units=GPa)
#
#
# Indices 1 2 3 4 5 6 
#
# 1 108.5636 55.7585 35.0443 0.0000 0.0000 0.0000
# 2 55.7585 163.6668 44.9146 0.0000 0.0000 0.0000
# 3 35.0443 44.9146 54.7963 0.0000 0.0000 0.0000
# 4 0.0000 0.0000 0.0000 25.1154 0.0000 0.0000
# 5 0.0000 0.0000 0.0000 0.0000 30.6270 0.0000
# 6 0.0000 0.0000 0.0000 0.0000 0.0000 40.5646
#
#
#
# Elastic Compliance Matrix: (Units=1/GPa)
#
#
# Indices 1 2 3 4 5 6 
#
# 1 0.012439 -0.002651 -0.005782 0.000000 0.000000 0.000000
# 2 -0.002651 0.008448 -0.005229 0.000000 0.000000 0.000000
# 3 -0.005782 -0.005229 0.026234 0.000000 0.000000 0.000000
# 4 0.000000 0.000000 0.000000 0.039816 0.000000 0.000000
# 5 0.000000 0.000000 0.000000 0.000000 0.032651 0.000000
# 6 0.000000 0.000000 0.000000 0.000000 0.000000 0.024652
#
#
# Mechanical properties :
#
#
# Convention : Reuss Voigt Hill
#
# Bulk Modulus (GPa) = 50.51578 66.49571 58.50575
# Shear Modulus (GPa) = 28.06396 32.01537 30.03966
#
# Velocity S-wave (km/s) = 3.67912 3.92961 3.80643
# Velocity P-wave (km/s) = 6.51252 7.25683 6.89473
#
# Compressibility (1/GPa) = 0.01979579
#
# Stress axis : x y z
#
# Youngs Moduli (GPa) = 80.39018 118.36872 38.11880
#
# Poissons Ratio (x) = 0.31380 0.22042
# Poissons Ratio (y) = 0.21311 0.19933
# Poissons Ratio (z) = 0.46485 0.61898
#
# Static dielectric constant tensor:
#      x y z
#    x 3.771840 0.000000 0.000000 
#    y 0.000000 4.253510 0.000000 
#    z 0.000000 0.000000 3.557490 
# 
# 
# High freq. dielectric constant tensor:
#      x y z
#    x 1.810290 0.000000 0.000000 
#    y 0.000000 1.833430 0.000000 
#    z 0.000000 0.000000 1.789530 
# 
# From -- ./inp_files/20893.got.cif
#   From: 2010.03.12/outbox.cif.g09.slc.cpg/sg57_11_cif.got.tgz:20893.got - 2010.04.16 15:48:40.
