data_PCOD8233487
_publ_section_title
;
Structure prediction by ZEFSAII (Michael W. Deem and Ramdas Pophale) SiO2 
 PCOD8233487
Probable space group: P B C M
;
_chemical_formula_sum "Si O2"
_cell_formula_units_Z 40
_cell_length_a 6.812446
_cell_length_b 14.871017
_cell_length_c 19.139865
_cell_angle_alpha 90.000000
_cell_angle_beta 90.000000
_cell_angle_gamma 90.000000
_cell_volume 1939.021449
_symmetry_space_group_name_H-M "P B C M"
_symmetry_group_IT_number 57
_symmetry_cell_setting 'orthorhombic'
loop_
_space_group_symop_operation_xyz
x,y,z
-x,-y,1/2+z
x,1/2-y,-z
-x,1/2+y,1/2-z
-x,-y,-z
x,y,1/2-z
-x,1/2+y,z
x,1/2-y,1/2+z
loop_
_atom_site_type_symbol
_atom_site_label
_atom_site_fract_x
_atom_site_fract_y
_atom_site_fract_z
Si Si1 0.513010 0.514344 0.611059
Si Si2 0.306332 0.750000 0.500000
Si Si3 0.798982 0.053197 0.496365
Si Si4 0.787967 0.715537 0.250000
Si Si5 0.501194 0.285702 0.361521
Si Si6 0.696961 0.523402 0.250000
Si Si7 0.184343 0.824603 0.250000
O O1 0.697580 0.460816 0.579134
O O2 0.332683 0.511564 0.557345
O O3 0.585254 0.615690 0.624168
O O4 0.447038 0.469805 0.683476
O O5 0.171785 0.839247 0.491688
O O6 0.450271 0.764057 0.566144
O O7 0.000000 0.000000 0.500000
O O8 0.662584 0.731751 0.180300
O O9 0.843122 0.609556 0.250000
O O10 0.971876 0.780956 0.250000
O O11 0.703533 0.292689 0.318821
O O12 0.829648 0.433577 0.250000
#
# Coordination Sequence:
#
# PCOD8233487 Si02
#       7
#     8   4   8   4   8   4   4
#     4   9  20  39  58  82 117 150 191 241 284 344
#     4  10  20  38  60  86 120 148 190 248 282 336
#     4  10  21  38  59  84 116 154 191 234 292 344
#     4  11  21  37  63  86 114 158 195 233 293 349
#     4   9  20  38  59  84 116 153 191 238 291 341
#     4  10  20  38  62  86 116 156 196 238 292 348
#     4   9  21  39  53  84 124 146 189 245 283 341
#
# _framework density 20.628961
#
# number of rings (size 3 to 8) (size 9 to 14) (size 15 to 20)
#    0.000    2.400    0.000    1.800    0.000    6.400 
#    0.000   19.000    0.000    0.000    0.000    0.000 
#    0.000    0.000    0.000    0.000    0.000    0.000 
#
# Total GULP energy -495993.214572 kJ/mol
# GULP energy per Si atom -12399.830364 kJ/mol
# Density = 2.058201 g / cm^3
# Si number density = 20.628961 Si / 1000 Ang^3
#
#
#
# Elastic Constant Matrix: (Units=GPa)
#
#
# Indices 1 2 3 4 5 6 
#
# 1 116.3131 76.1398 48.9914 0.0000 0.0000 0.0000
# 2 76.1398 125.4082 42.8938 0.0000 0.0000 0.0000
# 3 48.9914 42.8938 145.7347 0.0000 0.0000 0.0000
# 4 0.0000 0.0000 0.0000 30.6435 0.0000 0.0000
# 5 0.0000 0.0000 0.0000 0.0000 7.0570 0.0000
# 6 0.0000 0.0000 0.0000 0.0000 0.0000 20.6799
#
#
#
# Elastic Compliance Matrix: (Units=1/GPa)
#
#
# Indices 1 2 3 4 5 6 
#
# 1 0.015136 -0.008283 -0.002650 0.000000 0.000000 0.000000
# 2 -0.008283 0.013399 -0.001159 0.000000 0.000000 0.000000
# 3 -0.002650 -0.001159 0.008094 0.000000 0.000000 0.000000
# 4 0.000000 0.000000 0.000000 0.032633 0.000000 0.000000
# 5 0.000000 0.000000 0.000000 0.000000 0.141704 0.000000
# 6 0.000000 0.000000 0.000000 0.000000 0.000000 0.048356
#
#
# Mechanical properties :
#
#
# Convention : Reuss Voigt Hill
#
# Bulk Modulus (GPa) = 80.36025 80.38955 80.37490
# Shear Modulus (GPa) = 17.38185 26.30480 21.84332
#
# Velocity S-wave (km/s) = 2.90590 3.57478 3.25755
# Velocity P-wave (km/s) = 7.09215 7.48950 7.29353
#
# Compressibility (1/GPa) = 0.01244396
#
# Stress axis : x y z
#
# Youngs Moduli (GPa) = 66.06756 74.62983 123.54906
#
# Poissons Ratio (x) = 0.61817 0.32744
# Poissons Ratio (y) = 0.54725 0.14323
# Poissons Ratio (z) = 0.17510 0.08652
#
# Static dielectric constant tensor:
#      x y z
#    x 3.241110 0.000000 0.000000 
#    y 0.000000 3.837170 0.000000 
#    z 0.000000 0.000000 4.078420 
# 
# 
# High freq. dielectric constant tensor:
#      x y z
#    x 1.766090 0.000000 0.000000 
#    y 0.000000 1.819340 0.000000 
#    z 0.000000 0.000000 1.826940 
# 
# From -- ./inp_files/23602.got.cif
#   From: 2010.03.12/outbox.cif.g09.slc.cpg/sg57_12_cif.got.tgz:23602.got - 2010.04.16 15:48:40.
