data_PCOD8233065
_publ_section_title
;
Structure prediction by ZEFSAII (Michael W. Deem and Ramdas Pophale) SiO2 
 PCOD8233065
Probable space group: P B C M
;
_chemical_formula_sum "Si O2"
_cell_formula_units_Z 64
_cell_length_a 24.697931
_cell_length_b 14.303612
_cell_length_c 8.921826
_cell_angle_alpha 90.000000
_cell_angle_beta 90.000000
_cell_angle_gamma 90.000000
_cell_volume 3151.810101
_symmetry_space_group_name_H-M "P B C M"
_symmetry_group_IT_number 57
_symmetry_cell_setting 'orthorhombic'
loop_
_space_group_symop_operation_xyz
x,y,z
-x,-y,1/2+z
x,1/2-y,-z
-x,1/2+y,1/2-z
-x,-y,-z
x,y,1/2-z
-x,1/2+y,z
x,1/2-y,1/2+z
loop_
_atom_site_type_symbol
_atom_site_label
_atom_site_fract_x
_atom_site_fract_y
_atom_site_fract_z
Si Si1 0.562297 0.094528 0.585827
Si Si2 0.781276 0.349982 0.073293
Si Si3 0.027398 0.657076 0.423428
Si Si4 0.538044 0.620777 0.085464
Si Si5 0.874301 0.469384 0.926279
Si Si6 0.324247 0.968974 0.425832
Si Si7 0.646833 0.842695 0.426857
Si Si8 0.904449 0.653521 0.427869
O O1 0.562040 0.142436 0.750000
O O2 0.521309 0.150366 0.477165
O O3 0.623631 0.091863 0.520197
O O4 0.540844 0.989743 0.601930
O O5 0.790928 0.339274 0.250000
O O6 0.729066 0.411739 0.036109
O O7 0.772078 0.250000 0.000000
O O8 0.832466 0.398305 0.998529
O O9 0.050938 0.750000 0.500000
O O10 0.027091 0.680258 0.250000
O O11 0.065634 0.569676 0.461062
O O12 0.966537 0.635554 0.478516
O O13 0.546404 0.666708 0.250000
O O14 0.583587 0.656182 0.971317
O O15 0.863249 0.478555 0.750000
O O16 0.868498 0.570113 0.004282
O O17 0.330773 0.991338 0.250000
O O18 0.321344 0.067156 0.512040
O O19 0.673584 0.750000 0.500000
O O20 0.653122 0.839050 0.250000
O O21 0.883441 0.750000 0.500000
O O22 0.897054 0.656862 0.250000
#
# Coordination Sequence:
#
# PCOD8233065 Si02
#       8
#     8   8   8   8   8   8   8   8
#     4   8  14  27  48  73 102 138 178 221 271 325
#     4  11  24  43  65  88 114 145 185 236 289 340
#     4   9  19  33  53  83 119 157 196 238 284 336
#     4   9  16  27  45  73 108 143 180 221 266 320
#     4  11  22  37  58  86 118 154 196 240 287 339
#     4   9  20  39  60  81 109 146 188 234 284 335
#     4  11  21  34  55  82 114 149 186 228 276 334
#     4  10  20  36  57  84 119 158 196 236 284 339
#
# _framework density 20.305790999999999
#
# number of rings (size 3 to 8) (size 9 to 14) (size 15 to 20)
#    0.000    2.250    0.000    4.125    0.000    6.500 
#    0.000    1.250    0.000    4.500    0.000    0.000 
#    0.000    0.000    0.000    0.000    0.000    0.000 
#
# Total GULP energy -793558.840360 kJ/mol
# GULP energy per Si atom -12399.356881 kJ/mol
# Density = 2.025957 g / cm^3
# Si number density = 20.305791 Si / 1000 Ang^3
#
#
#
# Elastic Constant Matrix: (Units=GPa)
#
#
# Indices 1 2 3 4 5 6 
#
# 1 59.2597 31.4789 37.2589 0.0000 0.0000 0.0000
# 2 31.4789 117.5774 63.7609 0.0000 0.0000 0.0000
# 3 37.2589 63.7609 117.1462 0.0000 0.0000 0.0000
# 4 0.0000 0.0000 0.0000 35.0663 0.0000 0.0000
# 5 0.0000 0.0000 0.0000 0.0000 25.8711 0.0000
# 6 0.0000 0.0000 0.0000 0.0000 0.0000 12.7120
#
#
#
# Elastic Compliance Matrix: (Units=1/GPa)
#
#
# Indices 1 2 3 4 5 6 
#
# 1 0.021788 -0.002944 -0.005327 0.000000 0.000000 0.000000
# 2 -0.002944 0.012465 -0.005848 0.000000 0.000000 0.000000
# 3 -0.005327 -0.005848 0.013414 0.000000 0.000000 0.000000
# 4 0.000000 0.000000 0.000000 0.028517 0.000000 0.000000
# 5 0.000000 0.000000 0.000000 0.000000 0.038653 0.000000
# 6 0.000000 0.000000 0.000000 0.000000 0.000000 0.078666
#
#
# Mechanical properties :
#
#
# Convention : Reuss Voigt Hill
#
# Bulk Modulus (GPa) = 51.47339 62.10897 56.79118
# Shear Modulus (GPa) = 21.90891 25.49552 23.70222
#
# Velocity S-wave (km/s) = 3.28830 3.54726 3.42023
# Velocity P-wave (km/s) = 6.31042 6.88699 6.60500
#
# Compressibility (1/GPa) = 0.01942751
#
# Stress axis : x y z
#
# Youngs Moduli (GPa) = 45.89583 80.22767 74.55151
#
# Poissons Ratio (x) = 0.23623 0.39716
# Poissons Ratio (y) = 0.13514 0.43596
# Poissons Ratio (z) = 0.24450 0.46915
#
# Static dielectric constant tensor:
#      x y z
#    x 3.665290 0.000000 0.000000 
#    y 0.000000 3.605590 0.000000 
#    z 0.000000 0.000000 3.808990 
# 
# 
# High freq. dielectric constant tensor:
#      x y z
#    x 1.774590 0.000000 0.000000 
#    y 0.000000 1.790660 0.000000 
#    z 0.000000 0.000000 1.799050 
# 
# From -- ./inp_files/9416.got.cif
#   From: 2010.03.12/outbox.cif.g09.slc.cpg/sg57_5_cif.got.tgz:9416.got - 2010.04.16 15:48:40.
