data_PCOD8233505
_publ_section_title
;
Structure prediction by ZEFSAII (Michael W. Deem and Ramdas Pophale) SiO2 
 PCOD8233505
Probable space group: P B C M
;
_chemical_formula_sum "Si O2"
_cell_formula_units_Z 32
_cell_length_a 10.843574
_cell_length_b 9.064253
_cell_length_c 14.207936
_cell_angle_alpha 90.000000
_cell_angle_beta 90.000000
_cell_angle_gamma 90.000000
_cell_volume 1396.482375
_symmetry_space_group_name_H-M "P B C M"
_symmetry_group_IT_number 57
_symmetry_cell_setting 'orthorhombic'
loop_
_space_group_symop_operation_xyz
x,y,z
-x,-y,1/2+z
x,1/2-y,-z
-x,1/2+y,1/2-z
-x,-y,-z
x,y,1/2-z
-x,1/2+y,z
x,1/2-y,1/2+z
loop_
_atom_site_type_symbol
_atom_site_label
_atom_site_fract_x
_atom_site_fract_y
_atom_site_fract_z
Si Si1 0.335877 0.391541 0.857298
Si Si2 0.459231 0.686732 0.601763
Si Si3 0.139877 0.531587 0.975811
Si Si4 0.213951 0.803689 0.646824
O O1 0.295210 0.420461 0.750000
O O2 0.402653 0.232017 0.865881
O O3 0.439278 0.510128 0.892433
O O4 0.214113 0.398630 0.923576
O O5 0.429524 0.750000 0.500000
O O6 0.355438 0.760410 0.667336
O O7 0.143394 0.669590 0.904787
O O8 0.205125 0.557247 0.076803
O O9 0.000000 0.500000 0.000000
O O10 0.154571 0.837144 0.750000
#
# Coordination Sequence:
#
# PCOD8233505 Si02
#       4
#     8   8   8   8
#     4  11  22  39  64  96 129 166 208 258 316 379
#     4  11  20  38  63  92 127 164 199 258 322 376
#     4  10  21  39  60  83 119 166 207 256 305 364
#     4  10  20  38  61  86 117 160 204 253 319 378
#
# _framework density 22.914718000000001
#
# number of rings (size 3 to 8) (size 9 to 14) (size 15 to 20)
#    0.000    1.500    5.000    5.250    0.000    2.000 
#    4.500    0.000    0.000    0.000    0.000    0.000 
#    0.000    0.000    0.000    0.000    0.000    0.000 
#
# Total GULP energy -396515.912356 kJ/mol
# GULP energy per Si atom -12391.122261 kJ/mol
# Density = 2.286256 g / cm^3
# Si number density = 22.914718 Si / 1000 Ang^3
#
#
#
# Elastic Constant Matrix: (Units=GPa)
#
#
# Indices 1 2 3 4 5 6 
#
# 1 154.3008 29.2148 33.6475 0.0000 0.0000 0.0000
# 2 29.2148 19.7682 5.7948 0.0000 0.0000 0.0000
# 3 33.6475 5.7948 175.0455 0.0000 0.0000 0.0000
# 4 0.0000 0.0000 0.0000 7.9679 0.0000 0.0000
# 5 0.0000 0.0000 0.0000 0.0000 14.6665 0.0000
# 6 0.0000 0.0000 0.0000 0.0000 0.0000 29.7442
#
#
#
# Elastic Compliance Matrix: (Units=1/GPa)
#
#
# Indices 1 2 3 4 5 6 
#
# 1 0.009303 -0.013354 -0.001346 0.000000 0.000000 0.000000
# 2 -0.013354 0.070250 0.000241 0.000000 0.000000 0.000000
# 3 -0.001346 0.000241 0.005964 0.000000 0.000000 0.000000
# 4 0.000000 0.000000 0.000000 0.125503 0.000000 0.000000
# 5 0.000000 0.000000 0.000000 0.000000 0.068183 0.000000
# 6 0.000000 0.000000 0.000000 0.000000 0.000000 0.033620
#
#
# Mechanical properties :
#
#
# Convention : Reuss Voigt Hill
#
# Bulk Modulus (GPa) = 17.66794 54.04762 35.85778
# Shear Modulus (GPa) = 13.86555 29.17288 21.51922
#
# Velocity S-wave (km/s) = 2.46253 3.57193 3.06780
# Velocity P-wave (km/s) = 3.97649 6.37567 5.31327
#
# Compressibility (1/GPa) = 0.05659969
#
# Stress axis : x y z
#
# Youngs Moduli (GPa) = 107.49562 14.23482 167.68492
#
# Poissons Ratio (x) = 0.19009 0.22572
# Poissons Ratio (y) = 1.43545 -0.04045
# Poissons Ratio (z) = 0.14470 -0.00343
#
# Static dielectric constant tensor:
#      x y z
#    x 3.883560 0.000000 0.000000 
#    y 0.000000 3.994470 0.000000 
#    z 0.000000 0.000000 4.288150 
# 
# 
# High freq. dielectric constant tensor:
#      x y z
#    x 1.877640 0.000000 0.000000 
#    y 0.000000 1.872860 0.000000 
#    z 0.000000 0.000000 1.928200 
# 
# From -- ./inp_files/15508.got.cif
#   From: 2010.03.12/outbox.cif.g09.slc.cpg/sg57_8_cif.got.tgz:15508.got - 2010.04.16 15:48:40.
