data_PCOD8233963
_publ_section_title
;
Structure prediction by ZEFSAII (Michael W. Deem and Ramdas Pophale) SiO2 
 PCOD8233963
Probable space group: P B C M
;
_chemical_formula_sum "Si O2"
_cell_formula_units_Z 40
_cell_length_a 14.278010
_cell_length_b 8.359859
_cell_length_c 16.585721
_cell_angle_alpha 90.000000
_cell_angle_beta 90.000000
_cell_angle_gamma 90.000000
_cell_volume 1979.707325
_symmetry_space_group_name_H-M "P B C M"
_symmetry_group_IT_number 57
_symmetry_cell_setting 'orthorhombic'
loop_
_space_group_symop_operation_xyz
x,y,z
-x,-y,1/2+z
x,1/2-y,-z
-x,1/2+y,1/2-z
-x,-y,-z
x,y,1/2-z
-x,1/2+y,z
x,1/2-y,1/2+z
loop_
_atom_site_type_symbol
_atom_site_label
_atom_site_fract_x
_atom_site_fract_y
_atom_site_fract_z
Si Si1 0.553785 0.957239 0.917365
Si Si2 0.401058 0.134455 0.840973
Si Si3 0.786261 0.051144 0.341742
Si Si4 0.255418 0.640066 0.575494
Si Si5 0.896084 0.938282 0.489455
O O1 0.576470 0.769931 0.907369
O O2 0.485418 0.007090 0.844471
O O3 0.651399 0.045407 0.904283
O O4 0.500000 0.000000 0.000000
O O5 0.392245 0.201953 0.750000
O O6 0.306991 0.044093 0.867429
O O7 0.814841 0.015383 0.250000
O O8 0.771899 0.242523 0.351004
O O9 0.868027 0.987680 0.399066
O O10 0.278118 0.750000 0.500000
O O11 0.170455 0.519525 0.556412
O O12 0.890373 0.750000 0.500000
O O13 0.000000 0.000000 0.500000
#
# Coordination Sequence:
#
# PCOD8233963 Si02
#       5
#     8   8   8   8   8
#     4  12  22  35  56  84 116 159 209 251 293 354
#     4  11  23  37  55  82 120 161 199 248 306 358
#     4  10  22  41  63  89 121 157 203 255 307 366
#     4  10  21  37  59  86 117 154 197 248 301 354
#     4  11  22  42  67  91 120 157 197 244 305 368
#
# _framework density 20.205006999999998
#
# number of rings (size 3 to 8) (size 9 to 14) (size 15 to 20)
#    0.000    1.200    0.000    9.000    0.000    3.200 
#    0.000    5.000    0.000    0.000    0.000    0.000 
#    0.000    0.000    0.000    0.000    0.000    0.000 
#
# Total GULP energy -496038.772608 kJ/mol
# GULP energy per Si atom -12400.969315 kJ/mol
# Density = 2.015902 g / cm^3
# Si number density = 20.205007 Si / 1000 Ang^3
#
#
#
# Elastic Constant Matrix: (Units=GPa)
#
#
# Indices 1 2 3 4 5 6 
#
# 1 166.7959 62.8209 59.5159 0.0000 0.0000 0.0000
# 2 62.8209 146.8073 49.4164 0.0000 0.0000 0.0000
# 3 59.5159 49.4164 93.7931 0.0000 0.0000 0.0000
# 4 0.0000 0.0000 0.0000 29.3189 0.0000 0.0000
# 5 0.0000 0.0000 0.0000 0.0000 25.0931 0.0000
# 6 0.0000 0.0000 0.0000 0.0000 0.0000 41.4166
#
#
#
# Elastic Compliance Matrix: (Units=1/GPa)
#
#
# Indices 1 2 3 4 5 6 
#
# 1 0.008276 -0.002156 -0.004115 0.000000 0.000000 0.000000
# 2 -0.002156 0.008842 -0.003290 0.000000 0.000000 0.000000
# 3 -0.004115 -0.003290 0.015007 0.000000 0.000000 0.000000
# 4 0.000000 0.000000 0.000000 0.034108 0.000000 0.000000
# 5 0.000000 0.000000 0.000000 0.000000 0.039852 0.000000
# 6 0.000000 0.000000 0.000000 0.000000 0.000000 0.024145
#
#
# Mechanical properties :
#
#
# Convention : Reuss Voigt Hill
#
# Bulk Modulus (GPa) = 76.91863 83.43365 80.17614
# Shear Modulus (GPa) = 32.53387 34.87525 33.70456
#
# Velocity S-wave (km/s) = 4.01707 4.15911 4.08870
# Velocity P-wave (km/s) = 7.72448 8.02791 7.87766
#
# Compressibility (1/GPa) = 0.01300075
#
# Stress axis : x y z
#
# Youngs Moduli (GPa) = 120.83320 113.09898 66.63655
#
# Poissons Ratio (x) = 0.24385 0.27424
# Poissons Ratio (y) = 0.26052 0.21926
# Poissons Ratio (z) = 0.49728 0.37213
#
# Static dielectric constant tensor:
#      x y z
#    x 3.664530 0.000000 0.000000 
#    y 0.000000 2.070590 0.000000 
#    z 0.000000 0.000000 3.617480 
# 
# 
# High freq. dielectric constant tensor:
#      x y z
#    x 1.791660 0.000000 0.000000 
#    y 0.000000 1.804600 0.000000 
#    z 0.000000 0.000000 1.781130 
# 
# From -- ./inp_files/18194.got.cif
#   From: 2010.03.12/outbox.cif.g09.slc.cpg/sg57_10_cif.got.tgz:18194.got - 2010.04.16 15:48:40.
