data_PCOD8233366
_publ_section_title
;
Structure prediction by ZEFSAII (Michael W. Deem and Ramdas Pophale) SiO2 
 PCOD8233366
Probable space group: P B C M
;
_chemical_formula_sum "Si O2"
_cell_formula_units_Z 56
_cell_length_a 8.520237
_cell_length_b 22.949191
_cell_length_c 13.915689
_cell_angle_alpha 90.000000
_cell_angle_beta 90.000000
_cell_angle_gamma 90.000000
_cell_volume 2720.970103
_symmetry_space_group_name_H-M "P B C M"
_symmetry_group_IT_number 57
_symmetry_cell_setting 'orthorhombic'
loop_
_space_group_symop_operation_xyz
x,y,z
-x,-y,1/2+z
x,1/2-y,-z
-x,1/2+y,1/2-z
-x,-y,-z
x,y,1/2-z
-x,1/2+y,z
x,1/2-y,1/2+z
loop_
_atom_site_type_symbol
_atom_site_label
_atom_site_fract_x
_atom_site_fract_y
_atom_site_fract_z
Si Si1 0.406991 0.610158 0.009137
Si Si2 0.340740 0.093097 0.861227
Si Si3 0.652278 0.671929 0.138123
Si Si4 0.826993 0.710124 0.636897
Si Si5 0.787163 0.472170 0.640016
Si Si6 0.130950 0.688463 0.982951
Si Si7 0.964762 0.882452 0.859178
O O1 0.500841 0.656956 0.074749
O O2 0.344232 0.558778 0.076186
O O3 0.507593 0.580256 0.925547
O O4 0.264961 0.642673 0.953503
O O5 0.391152 0.095666 0.750000
O O6 0.271613 0.154171 0.897444
O O7 0.213537 0.041590 0.879331
O O8 0.602863 0.678247 0.250000
O O9 0.738109 0.731350 0.101000
O O10 0.777281 0.618774 0.122982
O O11 0.843461 0.711891 0.750000
O O12 0.000860 0.700733 0.597373
O O13 0.740491 0.459502 0.750000
O O14 0.961626 0.446394 0.617763
O O15 0.216872 0.750000 0.000000
O O16 0.049666 0.667227 0.080465
O O17 0.998959 0.864145 0.750000
#
# Coordination Sequence:
#
# PCOD8233366 Si02
#       7
#     8   8   8   8   8   8   8
#     4  11  23  35  58  88 120 154 190 240 292 353
#     4  10  22  39  59  82 117 161 196 236 288 348
#     4  10  20  37  61  88 115 147 192 241 292 345
#     4  10  22  40  60  82 114 156 198 238 285 345
#     4   9  19  39  60  84 117 153 199 243 287 336
#     4  11  22  35  55  83 117 150 186 233 295 340
#     4   9  18  35  59  84 109 146 193 242 282 327
#
# _framework density 20.580895000000002
#
# number of rings (size 3 to 8) (size 9 to 14) (size 15 to 20)
#    0.000    2.000    1.429    1.714    2.000    1.143 
#    0.000    7.857    0.000    3.429    0.000    0.000 
#    0.000    0.000    0.000    0.000    0.000    0.000 
#
# Total GULP energy -694171.242323 kJ/mol
# GULP energy per Si atom -12395.915041 kJ/mol
# Density = 2.053405 g / cm^3
# Si number density = 20.580895 Si / 1000 Ang^3
#
#
#
# Elastic Constant Matrix: (Units=GPa)
#
#
# Indices 1 2 3 4 5 6 
#
# 1 74.1621 26.8102 18.8944 0.0000 0.0000 0.0000
# 2 26.8102 88.9290 15.7096 0.0000 0.0000 0.0000
# 3 18.8944 15.7096 28.0752 0.0000 0.0000 0.0000
# 4 0.0000 0.0000 0.0000 19.3079 0.0000 0.0000
# 5 0.0000 0.0000 0.0000 0.0000 33.2120 0.0000
# 6 0.0000 0.0000 0.0000 0.0000 0.0000 26.3927
#
#
#
# Elastic Compliance Matrix: (Units=1/GPa)
#
#
# Indices 1 2 3 4 5 6 
#
# 1 0.017195 -0.003484 -0.009623 0.000000 0.000000 0.000000
# 2 -0.003484 0.013184 -0.005033 0.000000 0.000000 0.000000
# 3 -0.009623 -0.005033 0.044911 0.000000 0.000000 0.000000
# 4 0.000000 0.000000 0.000000 0.051792 0.000000 0.000000
# 5 0.000000 0.000000 0.000000 0.000000 0.030110 0.000000
# 6 0.000000 0.000000 0.000000 0.000000 0.000000 0.037889
#
#
# Mechanical properties :
#
#
# Convention : Reuss Voigt Hill
#
# Bulk Modulus (GPa) = 25.63351 34.88830 30.26091
# Shear Modulus (GPa) = 20.46131 24.43266 22.44698
#
# Velocity S-wave (km/s) = 3.15650 3.44925 3.30611
# Velocity P-wave (km/s) = 5.07609 5.73164 5.41379
#
# Compressibility (1/GPa) = 0.03901143
#
# Stress axis : x y z
#
# Youngs Moduli (GPa) = 58.15614 75.84760 22.26643
#
# Poissons Ratio (x) = 0.26426 0.21426
# Poissons Ratio (y) = 0.20262 0.11206
# Poissons Ratio (z) = 0.55962 0.38171
#
# Static dielectric constant tensor:
#      x y z
#    x 3.676010 0.000000 0.000000 
#    y 0.000000 3.920840 0.000000 
#    z 0.000000 0.000000 3.701060 
# 
# 
# High freq. dielectric constant tensor:
#      x y z
#    x 1.790710 0.000000 0.000000 
#    y 0.000000 1.805540 0.000000 
#    z 0.000000 0.000000 1.811440 
# 
# From -- ./inp_files/16721.got.cif
#   From: 2010.03.12/outbox.cif.g09.slc.cpg/sg57_9_cif.got.tgz:16721.got - 2010.04.16 15:48:40.
