data_PCOD8233742
_publ_section_title
;
Structure prediction by ZEFSAII (Michael W. Deem and Ramdas Pophale) SiO2 
 PCOD8233742
Probable space group: P B C M
;
_chemical_formula_sum "Si O2"
_cell_formula_units_Z 64
_cell_length_a 23.117126
_cell_length_b 15.325194
_cell_length_c 9.111486
_cell_angle_alpha 90.000000
_cell_angle_beta 90.000000
_cell_angle_gamma 90.000000
_cell_volume 3227.966606
_symmetry_space_group_name_H-M "P B C M"
_symmetry_group_IT_number 57
_symmetry_cell_setting 'orthorhombic'
loop_
_space_group_symop_operation_xyz
x,y,z
-x,-y,1/2+z
x,1/2-y,-z
-x,1/2+y,1/2-z
-x,-y,-z
x,y,1/2-z
-x,1/2+y,z
x,1/2-y,1/2+z
loop_
_atom_site_type_symbol
_atom_site_label
_atom_site_fract_x
_atom_site_fract_y
_atom_site_fract_z
Si Si1 0.038057 0.597728 0.584346
Si Si2 0.631335 0.160915 0.078302
Si Si3 0.808748 0.522334 0.076958
Si Si4 0.083412 0.064139 0.582547
Si Si5 0.692917 0.985762 0.419963
Si Si6 0.155553 0.668916 0.914093
Si Si7 0.396750 0.333614 0.077708
Si Si8 0.504910 0.093059 0.424433
O O1 0.042494 0.556483 0.750000
O O2 0.055566 0.528312 0.461036
O O3 0.085373 0.674907 0.575157
O O4 0.971368 0.630938 0.559544
O O5 0.637410 0.176105 0.250000
O O6 0.673323 0.081959 0.027303
O O7 0.566243 0.135549 0.036185
O O8 0.650587 0.250000 0.000000
O O9 0.807780 0.532685 0.250000
O O10 0.822381 0.423673 0.023663
O O11 0.859908 0.585324 0.015209
O O12 0.747152 0.549260 0.012255
O O13 0.104494 0.062310 0.750000
O O14 0.710267 0.986488 0.250000
O O15 0.640781 0.919586 0.449239
O O16 0.178201 0.678902 0.750000
O O17 0.183280 0.750000 0.000000
O O18 0.406494 0.316644 0.250000
O O19 0.366366 0.250000 0.000000
O O20 0.457504 0.343988 0.994851
O O21 0.496474 0.082795 0.250000
O O22 0.500000 0.000000 0.500000
#
# Coordination Sequence:
#
# PCOD8233742 Si02
#       8
#     8   8   8   8   8   8   8   8
#     4   8  15  27  43  67  98 126 159 206 256 311
#     4  10  22  39  57  83 117 154 192 233 282 339
#     4  10  21  35  51  74 103 136 182 231 274 324
#     4   9  15  26  47  71  94 125 163 206 263 319
#     4  10  22  41  59  79 113 150 192 241 287 339
#     4   9  18  31  46  69 103 138 174 220 265 318
#     4  11  23  41  63  90 119 149 190 240 294 354
#     4  11  21  37  61  89 122 157 192 236 290 347
#
# _framework density 19.826723000000001
#
# number of rings (size 3 to 8) (size 9 to 14) (size 15 to 20)
#    0.000    2.250    1.250    2.625    0.000    7.000 
#    0.000    2.500    0.000    0.750    0.000    1.750 
#    0.000    0.000    0.000    0.000    0.000    0.000 
#
# Total GULP energy -793187.952537 kJ/mol
# GULP energy per Si atom -12393.561758 kJ/mol
# Density = 1.978160 g / cm^3
# Si number density = 19.826723 Si / 1000 Ang^3
#
#
#
# Elastic Constant Matrix: (Units=GPa)
#
#
# Indices 1 2 3 4 5 6 
#
# 1 97.8185 -2.2365 37.8125 0.0000 0.0000 0.0000
# 2 -2.2365 55.8425 19.5651 0.0000 0.0000 0.0000
# 3 37.8125 19.5651 77.9337 0.0000 0.0000 0.0000
# 4 0.0000 0.0000 0.0000 29.3853 0.0000 0.0000
# 5 0.0000 0.0000 0.0000 0.0000 31.6527 0.0000
# 6 0.0000 0.0000 0.0000 0.0000 0.0000 11.6898
#
#
#
# Elastic Compliance Matrix: (Units=1/GPa)
#
#
# Indices 1 2 3 4 5 6 
#
# 1 0.013026 0.003000 -0.007073 0.000000 0.000000 0.000000
# 2 0.003000 0.020325 -0.006558 0.000000 0.000000 0.000000
# 3 -0.007073 -0.006558 0.017910 0.000000 0.000000 0.000000
# 4 0.000000 0.000000 0.000000 0.034031 0.000000 0.000000
# 5 0.000000 0.000000 0.000000 0.000000 0.031593 0.000000
# 6 0.000000 0.000000 0.000000 0.000000 0.000000 0.085545
#
#
# Mechanical properties :
#
#
# Convention : Reuss Voigt Hill
#
# Bulk Modulus (GPa) = 33.33557 37.98634 35.66095
# Shear Modulus (GPa) = 21.39579 26.30914 23.85246
#
# Velocity S-wave (km/s) = 3.28859 3.64669 3.47226
# Velocity P-wave (km/s) = 5.59193 6.07716 5.83959
#
# Compressibility (1/GPa) = 0.02999799
#
# Stress axis : x y z
#
# Youngs Moduli (GPa) = 76.77102 49.19962 55.83603
#
# Poissons Ratio (x) = -0.14759 0.39493
# Poissons Ratio (y) = -0.23030 0.36618
# Poissons Ratio (z) = 0.54300 0.32266
#
# Static dielectric constant tensor:
#      x y z
#    x 3.801360 0.000000 0.000000 
#    y 0.000000 3.464240 0.000000 
#    z 0.000000 0.000000 3.595050 
# 
# 
# High freq. dielectric constant tensor:
#      x y z
#    x 1.778600 0.000000 0.000000 
#    y 0.000000 1.737150 0.000000 
#    z 0.000000 0.000000 1.777250 
# 
# From -- ./inp_files/9326.got.cif
#   From: 2010.03.12/outbox.cif.g09.slc.cpg/sg57_5_cif.got.tgz:9326.got - 2010.04.16 15:48:40.
