data_PCOD8233554
_publ_section_title
;
Structure prediction by ZEFSAII (Michael W. Deem and Ramdas Pophale) SiO2 
 PCOD8233554
Probable space group: P B C M
;
_chemical_formula_sum "Si O2"
_cell_formula_units_Z 48
_cell_length_a 28.786092
_cell_length_b 8.754765
_cell_length_c 9.202355
_cell_angle_alpha 90.000000
_cell_angle_beta 90.000000
_cell_angle_gamma 90.000000
_cell_volume 2319.135827
_symmetry_space_group_name_H-M "P B C M"
_symmetry_group_IT_number 57
_symmetry_cell_setting 'orthorhombic'
loop_
_space_group_symop_operation_xyz
x,y,z
-x,-y,1/2+z
x,1/2-y,-z
-x,1/2+y,1/2-z
-x,-y,-z
x,y,1/2-z
-x,1/2+y,z
x,1/2-y,1/2+z
loop_
_atom_site_type_symbol
_atom_site_label
_atom_site_fract_x
_atom_site_fract_y
_atom_site_fract_z
Si Si1 0.562271 0.426483 0.250000
Si Si2 0.535726 0.430449 0.750000
Si Si3 0.879063 0.910173 0.078802
Si Si4 0.600740 0.931066 0.478539
Si Si5 0.690106 0.102506 0.412293
Si Si6 0.958081 0.411113 0.427357
Si Si7 0.773536 0.905662 0.417172
O O1 0.519280 0.544311 0.250000
O O2 0.546701 0.250138 0.250000
O O3 0.596603 0.466784 0.379421
O O4 0.556461 0.516477 0.612652
O O5 0.893645 0.900823 0.250000
O O6 0.825994 0.966116 0.063495
O O7 0.886439 0.750000 0.000000
O O8 0.909231 0.026838 0.985593
O O9 0.598504 0.750000 0.500000
O O10 0.649776 0.974762 0.407401
O O11 0.674172 0.250000 0.500000
O O12 0.700120 0.158266 0.250000
O O13 0.737440 0.030736 0.479016
O O14 0.964109 0.250000 0.500000
O O15 0.960028 0.409776 0.250000
O O16 0.000000 0.500000 0.500000
O O17 0.765301 0.750000 0.500000
O O18 0.762122 0.871815 0.250000
#
# Coordination Sequence:
#
# PCOD8233554 Si02
#       7
#     4   4   8   8   8   8   8
#     4  12  26  42  70  92 130 164 208 252 315 366
#     4  12  24  46  64  98 126 166 204 258 305 380
#     4  10  20  38  63  92 127 167 211 262 319 378
#     4  12  25  43  66  93 126 164 210 257 312 374
#     4  11  24  42  63  91 126 163 208 259 315 374
#     4  12  25  42  63  90 125 166 214 265 322 385
#     4   9  20  39  63  92 126 164 210 259 310 376
#
# _framework density 20.697365000000001
#
# number of rings (size 3 to 8) (size 9 to 14) (size 15 to 20)
#    0.000    1.000    0.833    6.500    1.167    2.000 
#    0.000    1.667    0.000    0.000    0.000    0.000 
#    0.000    0.000    0.000    0.000    0.000    0.000 
#
# Total GULP energy -595069.971259 kJ/mol
# GULP energy per Si atom -12397.291068 kJ/mol
# Density = 2.065026 g / cm^3
# Si number density = 20.697365 Si / 1000 Ang^3
#
#
#
# Elastic Constant Matrix: (Units=GPa)
#
#
# Indices 1 2 3 4 5 6 
#
# 1 106.0551 46.2819 34.9134 0.0000 0.0000 0.0000
# 2 46.2819 139.5133 38.0011 0.0000 0.0000 0.0000
# 3 34.9134 38.0011 127.9118 0.0000 0.0000 0.0000
# 4 0.0000 0.0000 0.0000 35.1089 0.0000 0.0000
# 5 0.0000 0.0000 0.0000 0.0000 30.6376 0.0000
# 6 0.0000 0.0000 0.0000 0.0000 0.0000 37.7968
#
#
#
# Elastic Compliance Matrix: (Units=1/GPa)
#
#
# Indices 1 2 3 4 5 6 
#
# 1 0.011565 -0.003239 -0.002194 0.000000 0.000000 0.000000
# 2 -0.003239 0.008706 -0.001702 0.000000 0.000000 0.000000
# 3 -0.002194 -0.001702 0.008923 0.000000 0.000000 0.000000
# 4 0.000000 0.000000 0.000000 0.028483 0.000000 0.000000
# 5 0.000000 0.000000 0.000000 0.000000 0.032640 0.000000
# 6 0.000000 0.000000 0.000000 0.000000 0.000000 0.026457
#
#
# Mechanical properties :
#
#
# Convention : Reuss Voigt Hill
#
# Bulk Modulus (GPa) = 67.01430 67.98587 67.50009
# Shear Modulus (GPa) = 36.75976 37.66092 37.21034
#
# Velocity S-wave (km/s) = 4.21890 4.27030 4.24468
# Velocity P-wave (km/s) = 7.49538 7.56524 7.53039
#
# Compressibility (1/GPa) = 0.01492219
#
# Stress axis : x y z
#
# Youngs Moduli (GPa) = 86.46895 114.86447 112.07478
#
# Poissons Ratio (x) = 0.37202 0.24594
# Poissons Ratio (y) = 0.28005 0.19080
# Poissons Ratio (z) = 0.18975 0.19555
#
# Static dielectric constant tensor:
#      x y z
#    x 3.851100 0.000000 0.000000 
#    y 0.000000 3.685000 0.000000 
#    z 0.000000 0.000000 4.427070 
# 
# 
# High freq. dielectric constant tensor:
#      x y z
#    x 1.825270 0.000000 0.000000 
#    y 0.000000 1.810930 0.000000 
#    z 0.000000 0.000000 1.823400 
# 
# From -- ./inp_files/10197.got.cif
#   From: 2010.03.12/outbox.cif.g09.slc.cpg/sg57_6_cif.got.tgz:10197.got - 2010.04.16 15:48:40.
