data_PCOD8233945
_publ_section_title
;
Structure prediction by ZEFSAII (Michael W. Deem and Ramdas Pophale) SiO2 
 PCOD8233945
Probable space group: P B C M
;
_chemical_formula_sum "Si O2"
_cell_formula_units_Z 64
_cell_length_a 29.585388
_cell_length_b 5.389350
_cell_length_c 18.638882
_cell_angle_alpha 90.000000
_cell_angle_beta 90.000000
_cell_angle_gamma 90.000000
_cell_volume 2971.895381
_symmetry_space_group_name_H-M "P B C M"
_symmetry_group_IT_number 57
_symmetry_cell_setting 'orthorhombic'
loop_
_space_group_symop_operation_xyz
x,y,z
-x,-y,1/2+z
x,1/2-y,-z
-x,1/2+y,1/2-z
-x,-y,-z
x,y,1/2-z
-x,1/2+y,z
x,1/2-y,1/2+z
loop_
_atom_site_type_symbol
_atom_site_label
_atom_site_fract_x
_atom_site_fract_y
_atom_site_fract_z
Si Si1 0.235554 0.708813 0.828602
Si Si2 0.523865 0.585165 0.335367
Si Si3 0.327912 0.570308 0.166583
Si Si4 0.855096 0.509894 0.828932
Si Si5 0.373253 0.072226 0.164455
Si Si6 0.812838 0.896401 0.569565
Si Si7 0.027409 0.066249 0.167301
Si Si8 0.097883 0.838630 0.073106
O O1 0.247766 0.587096 0.750000
O O2 0.273900 0.911720 0.847414
O O3 0.186289 0.822203 0.822361
O O4 0.232135 0.514927 0.894415
O O5 0.521386 0.584626 0.250000
O O6 0.499900 0.335393 0.365260
O O7 0.575329 0.585721 0.362404
O O8 0.339877 0.562267 0.250000
O O9 0.346853 0.314061 0.132714
O O10 0.351120 0.818554 0.133669
O O11 0.872979 0.584106 0.750000
O O12 0.837341 0.748642 0.868114
O O13 0.897102 0.387613 0.870688
O O14 0.370310 0.071468 0.250000
O O15 0.795410 0.750000 0.500000
O O16 0.852264 0.082231 0.544803
O O17 0.043379 0.061427 0.250000
O O18 0.070568 0.056674 0.113919
O O19 0.998245 0.820662 0.149650
O O20 0.072454 0.750000 0.000000
#
# Coordination Sequence:
#
# PCOD8233945 Si02
#       8
#     8   8   8   8   8   8   8   8
#     4   9  20  34  51  78 107 143 189 237 285 339
#     4   9  15  22  33  50  77 115 164 217 268 328
#     4   9  17  28  43  63  92 126 171 226 275 327
#     4  10  21  37  59  84 112 149 192 239 285 338
#     4   9  16  25  38  58  85 123 169 223 279 326
#     4  11  22  37  59  84 115 150 189 240 287 344
#     4  10  24  44  66  94 126 161 201 243 290 348
#     4  11  23  40  61  89 123 154 194 239 295 347
#
# _framework density 21.535081000000002
#
# number of rings (size 3 to 8) (size 9 to 14) (size 15 to 20)
#    0.000    2.250    1.250    1.500    3.500    5.000 
#    0.000    0.000    0.000    0.000    0.000    0.000 
#    0.000    0.000    0.000    0.000    0.000   12.500 
#
# Total GULP energy -793185.065197 kJ/mol
# GULP energy per Si atom -12393.516644 kJ/mol
# Density = 2.148607 g / cm^3
# Si number density = 21.535081 Si / 1000 Ang^3
#
#
#
# Elastic Constant Matrix: (Units=GPa)
#
#
# Indices 1 2 3 4 5 6 
#
# 1 56.0539 4.4084 7.9259 0.0000 0.0000 0.0000
# 2 4.4084 104.0482 9.7008 0.0000 0.0000 0.0000
# 3 7.9259 9.7008 76.6612 0.0000 0.0000 0.0000
# 4 0.0000 0.0000 0.0000 18.5121 0.0000 0.0000
# 5 0.0000 0.0000 0.0000 0.0000 -0.5660 0.0000
# 6 0.0000 0.0000 0.0000 0.0000 0.0000 25.2586
#
#
#
# Elastic Compliance Matrix: (Units=1/GPa)
#
#
# Indices 1 2 3 4 5 6 
#
# 1 0.018142 -0.000601 -0.001800 0.000000 0.000000 0.000000
# 2 -0.000601 0.009746 -0.001171 0.000000 0.000000 0.000000
# 3 -0.001800 -0.001171 0.013379 0.000000 0.000000 0.000000
# 4 0.000000 0.000000 0.000000 0.054019 0.000000 0.000000
# 5 0.000000 0.000000 0.000000 0.000000 -1.766784 0.000000
# 6 0.000000 0.000000 0.000000 0.000000 0.000000 0.039590
#
#
# Mechanical properties :
#
#
# Convention : Reuss Voigt Hill
#
# Bulk Modulus (GPa) = 29.30591 31.20371 30.25481
# Shear Modulus (GPa) = -3.09906 22.95617 9.92855
#
# Velocity S-wave (km/s) = -1.20092 3.26849 2.14952
# Velocity P-wave (km/s) = 3.42273 5.36332 4.49890
#
# Compressibility (1/GPa) = 0.03412281
#
# Stress axis : x y z
#
# Youngs Moduli (GPa) = 55.12162 102.61067 74.74590
#
# Poissons Ratio (x) = 0.06165 0.13451
# Poissons Ratio (y) = 0.03312 0.08753
# Poissons Ratio (z) = 0.09920 0.12017
#
# Static dielectric constant tensor:
#      x y z
#    x 3.894510 0.000000 0.000000 
#    y 0.000000 4.126360 0.000000 
#    z 0.000000 0.000000 3.599060 
# 
# 
# High freq. dielectric constant tensor:
#      x y z
#    x 1.836090 0.000000 0.000000 
#    y 0.000000 1.855210 0.000000 
#    z 0.000000 0.000000 1.794690 
# 
# From -- ./inp_files/23211.got.cif
#   From: 2010.03.12/outbox.cif.g09.slc.cpg/sg57_12_cif.got.tgz:23211.got - 2010.04.16 15:48:40.
