data_PCOD8233522
_publ_section_title
;
Structure prediction by ZEFSAII (Michael W. Deem and Ramdas Pophale) SiO2 
 PCOD8233522
Probable space group: P B C M
;
_chemical_formula_sum "Si O2"
_cell_formula_units_Z 48
_cell_length_a 9.976184
_cell_length_b 28.519003
_cell_length_c 8.682309
_cell_angle_alpha 90.000000
_cell_angle_beta 90.000000
_cell_angle_gamma 90.000000
_cell_volume 2470.210865
_symmetry_space_group_name_H-M "P B C M"
_symmetry_group_IT_number 57
_symmetry_cell_setting 'orthorhombic'
loop_
_space_group_symop_operation_xyz
x,y,z
-x,-y,1/2+z
x,1/2-y,-z
-x,1/2+y,1/2-z
-x,-y,-z
x,y,1/2-z
-x,1/2+y,z
x,1/2-y,1/2+z
loop_
_atom_site_type_symbol
_atom_site_label
_atom_site_fract_x
_atom_site_fract_y
_atom_site_fract_z
Si Si1 0.770350 0.799829 0.569287
Si Si2 0.488376 0.699144 0.933055
Si Si3 0.119461 0.027937 0.925190
Si Si4 0.279921 0.879122 0.432885
Si Si5 0.977875 0.632738 0.574452
Si Si6 0.364460 0.980973 0.431557
O O1 0.810092 0.750000 0.500000
O O2 0.746187 0.795202 0.750000
O O3 0.633030 0.818323 0.492094
O O4 0.893124 0.833977 0.535646
O O5 0.491366 0.702136 0.750000
O O6 0.377905 0.661994 0.991741
O O7 0.451313 0.750000 0.000000
O O8 0.138840 0.011229 0.750000
O O9 0.089462 0.082415 0.933345
O O10 0.251960 0.018068 0.021840
O O11 0.000000 0.000000 0.000000
O O12 0.278327 0.881805 0.250000
O O13 0.330086 0.929215 0.498243
O O14 0.129317 0.868952 0.491335
O O15 0.975986 0.651690 0.750000
O O16 0.377274 0.978743 0.250000
O O17 0.500000 0.000000 0.500000
#
# Coordination Sequence:
#
# PCOD8233522 Si02
#       6
#     8   8   8   8   8   8
#     4  11  23  40  61  89 119 152 195 243 293 351
#     4  10  20  38  62  86 115 153 193 238 294 353
#     4  11  22  39  63  88 121 163 201 247 301 355
#     4   9  20  39  61  84 117 157 195 237 296 355
#     4  10  21  40  62  86 118 159 197 239 297 356
#     4  11  23  41  60  88 122 160 205 250 300 357
#
# _framework density 19.431539999999998
#
# number of rings (size 3 to 8) (size 9 to 14) (size 15 to 20)
#    0.000    1.667    1.667    4.000    2.333    2.000 
#    0.000    5.833    0.000    0.000    0.000    0.000 
#    0.000    0.000    0.000    0.000    0.000    0.000 
#
# Total GULP energy -595336.200207 kJ/mol
# GULP energy per Si atom -12402.837504 kJ/mol
# Density = 1.938731 g / cm^3
# Si number density = 19.431540 Si / 1000 Ang^3
#
#
#
# Elastic Constant Matrix: (Units=GPa)
#
#
# Indices 1 2 3 4 5 6 
#
# 1 171.8869 78.2672 38.0507 0.0000 0.0000 0.0000
# 2 78.2672 101.4713 38.1804 0.0000 0.0000 0.0000
# 3 38.0507 38.1804 84.9867 0.0000 0.0000 0.0000
# 4 0.0000 0.0000 0.0000 31.1164 0.0000 0.0000
# 5 0.0000 0.0000 0.0000 0.0000 34.1599 0.0000
# 6 0.0000 0.0000 0.0000 0.0000 0.0000 43.5986
#
#
#
# Elastic Compliance Matrix: (Units=1/GPa)
#
#
# Indices 1 2 3 4 5 6 
#
# 1 0.009052 -0.006567 -0.001103 0.000000 0.000000 0.000000
# 2 -0.006567 0.016624 -0.004528 0.000000 0.000000 0.000000
# 3 -0.001103 -0.004528 0.014294 0.000000 0.000000 0.000000
# 4 0.000000 0.000000 0.000000 0.032137 0.000000 0.000000
# 5 0.000000 0.000000 0.000000 0.000000 0.029274 0.000000
# 6 0.000000 0.000000 0.000000 0.000000 0.000000 0.022937
#
#
# Mechanical properties :
#
#
# Convention : Reuss Voigt Hill
#
# Bulk Modulus (GPa) = 64.20548 74.14907 69.17727
# Shear Modulus (GPa) = 32.48722 35.36477 33.92599
#
# Velocity S-wave (km/s) = 4.09330 4.27074 4.18296
# Velocity P-wave (km/s) = 7.44673 7.90954 7.68162
#
# Compressibility (1/GPa) = 0.01557500
#
# Stress axis : x y z
#
# Youngs Moduli (GPa) = 110.46999 60.15273 69.95721
#
# Poissons Ratio (x) = 0.39504 0.07713
# Poissons Ratio (y) = 0.72550 0.31678
# Poissons Ratio (z) = 0.12180 0.27238
#
# Static dielectric constant tensor:
#      x y z
#    x 3.684640 0.000000 0.000000 
#    y 0.000000 3.566300 0.000000 
#    z 0.000000 0.000000 3.458220 
# 
# 
# High freq. dielectric constant tensor:
#      x y z
#    x 1.769790 0.000000 0.000000 
#    y 0.000000 1.761360 0.000000 
#    z 0.000000 0.000000 1.749980 
# 
# From -- ./inp_files/2124.got.cif
#   From: 2010.03.12/outbox.cif.g09.slc.cpg/sg57_2_cif.got.tgz:2124.got - 2010.04.16 15:48:40.
