data_PCOD8233595
_publ_section_title
;
Structure prediction by ZEFSAII (Michael W. Deem and Ramdas Pophale) SiO2 
 PCOD8233595
Probable space group: P B C M
;
_chemical_formula_sum "Si O2"
_cell_formula_units_Z 56
_cell_length_a 20.163554
_cell_length_b 9.699901
_cell_length_c 14.387159
_cell_angle_alpha 90.000000
_cell_angle_beta 90.000000
_cell_angle_gamma 90.000000
_cell_volume 2813.904977
_symmetry_space_group_name_H-M "P B C M"
_symmetry_group_IT_number 57
_symmetry_cell_setting 'orthorhombic'
loop_
_space_group_symop_operation_xyz
x,y,z
-x,-y,1/2+z
x,1/2-y,-z
-x,1/2+y,1/2-z
-x,-y,-z
x,y,1/2-z
-x,1/2+y,z
x,1/2-y,1/2+z
loop_
_atom_site_type_symbol
_atom_site_label
_atom_site_fract_x
_atom_site_fract_y
_atom_site_fract_z
Si Si1 0.925994 0.460282 0.857197
Si Si2 0.953460 0.148664 0.642861
Si Si3 0.697870 0.541838 0.462632
Si Si4 0.469959 0.272297 0.606368
Si Si5 0.420618 0.937024 0.145564
Si Si6 0.331887 0.183147 0.646175
Si Si7 0.834473 0.406984 0.014460
O O1 0.905143 0.473850 0.750000
O O2 0.958961 0.311246 0.878828
O O3 0.977711 0.578026 0.887059
O O4 0.859285 0.475815 0.917859
O O5 0.938855 0.119137 0.750000
O O6 0.893695 0.078298 0.587882
O O7 0.641157 0.437862 0.425397
O O8 0.695482 0.677522 0.399738
O O9 0.686053 0.562154 0.573445
O O10 0.770681 0.483277 0.446178
O O11 0.451875 0.250000 0.500000
O O12 0.540211 0.206217 0.632952
O O13 0.471249 0.435794 0.627319
O O14 0.410838 0.197790 0.661711
O O15 0.392529 0.945685 0.250000
O O16 0.301488 0.156466 0.750000
O O17 0.813486 0.250000 0.000000
#
# Coordination Sequence:
#
# PCOD8233595 Si02
#       7
#     8   8   8   8   8   8   8
#     4   9  18  35  57  85 116 147 188 237 282 331
#     4   9  18  34  57  84 114 148 188 233 282 331
#     4  10  21  38  56  83 114 154 194 234 286 353
#     4  11  20  37  61  85 114 149 189 243 297 349
#     4  11  22  38  61  89 118 151 194 245 300 357
#     4  10  20  39  60  78 110 151 192 241 296 344
#     4  10  21  37  57  80 114 158 190 226 282 344
#
# _framework density 19.901168999999999
#
# number of rings (size 3 to 8) (size 9 to 14) (size 15 to 20)
#    0.000    2.000    2.857    3.429    0.000    2.286 
#    5.143    0.000    0.000    0.000    0.000    0.000 
#    0.000    0.000    0.000    0.000    0.000    0.000 
#
# Total GULP energy -694342.004487 kJ/mol
# GULP energy per Si atom -12398.964366 kJ/mol
# Density = 1.985587 g / cm^3
# Si number density = 19.901169 Si / 1000 Ang^3
#
#
#
# Elastic Constant Matrix: (Units=GPa)
#
#
# Indices 1 2 3 4 5 6 
#
# 1 109.5377 43.9201 34.5294 0.0000 0.0000 0.0000
# 2 43.9201 42.9984 22.9162 0.0000 0.0000 0.0000
# 3 34.5294 22.9162 120.9117 0.0000 0.0000 0.0000
# 4 0.0000 0.0000 0.0000 16.4842 0.0000 0.0000
# 5 0.0000 0.0000 0.0000 0.0000 17.1217 0.0000
# 6 0.0000 0.0000 0.0000 0.0000 0.0000 25.3198
#
#
#
# Elastic Compliance Matrix: (Units=1/GPa)
#
#
# Indices 1 2 3 4 5 6 
#
# 1 0.015739 -0.015218 -0.001610 0.000000 0.000000 0.000000
# 2 -0.015218 0.040584 -0.003346 0.000000 0.000000 0.000000
# 3 -0.001610 -0.003346 0.009365 0.000000 0.000000 0.000000
# 4 0.000000 0.000000 0.000000 0.060664 0.000000 0.000000
# 5 0.000000 0.000000 0.000000 0.000000 0.058405 0.000000
# 6 0.000000 0.000000 0.000000 0.000000 0.000000 0.039495
#
#
# Mechanical properties :
#
#
# Convention : Reuss Voigt Hill
#
# Bulk Modulus (GPa) = 39.46505 52.90881 46.18693
# Shear Modulus (GPa) = 18.31193 23.25726 20.78459
#
# Velocity S-wave (km/s) = 3.03668 3.42224 3.23521
# Velocity P-wave (km/s) = 5.67175 6.50070 6.10033
#
# Compressibility (1/GPa) = 0.02533888
#
# Stress axis : x y z
#
# Youngs Moduli (GPa) = 63.53796 24.64026 106.78575
#
# Poissons Ratio (x) = 0.37497 0.17196
# Poissons Ratio (y) = 0.96691 0.35731
# Poissons Ratio (z) = 0.10232 0.08245
#
# Static dielectric constant tensor:
#      x y z
#    x 3.381820 0.000000 0.000000 
#    y 0.000000 3.516240 0.000000 
#    z 0.000000 0.000000 3.846020 
# 
# 
# High freq. dielectric constant tensor:
#      x y z
#    x 1.754800 0.000000 0.000000 
#    y 0.000000 1.758630 0.000000 
#    z 0.000000 0.000000 1.795270 
# 
# From -- ./inp_files/19348.got.cif
#   From: 2010.03.12/outbox.cif.g09.slc.cpg/sg57_10_cif.got.tgz:19348.got - 2010.04.16 15:48:40.
