data_PCOD8233476
_publ_section_title
;
Structure prediction by ZEFSAII (Michael W. Deem and Ramdas Pophale) SiO2 
 PCOD8233476
Probable space group: P B C M
;
_chemical_formula_sum "Si O2"
_cell_formula_units_Z 64
_cell_length_a 23.813896
_cell_length_b 15.092341
_cell_length_c 8.682007
_cell_angle_alpha 90.000000
_cell_angle_beta 90.000000
_cell_angle_gamma 90.000000
_cell_volume 3120.377901
_symmetry_space_group_name_H-M "P B C M"
_symmetry_group_IT_number 57
_symmetry_cell_setting 'orthorhombic'
loop_
_space_group_symop_operation_xyz
x,y,z
-x,-y,1/2+z
x,1/2-y,-z
-x,1/2+y,1/2-z
-x,-y,-z
x,y,1/2-z
-x,1/2+y,z
x,1/2-y,1/2+z
loop_
_atom_site_type_symbol
_atom_site_label
_atom_site_fract_x
_atom_site_fract_y
_atom_site_fract_z
Si Si1 0.496880 0.340924 0.930770
Si Si2 0.080039 0.506564 0.930663
Si Si3 0.605541 0.916776 0.077780
Si Si4 0.379490 0.619094 0.076290
Si Si5 0.201372 0.498937 0.068595
Si Si6 0.733123 0.339850 0.069215
Si Si7 0.002321 0.850066 0.568094
Si Si8 0.719545 0.841274 0.432415
O O1 0.500473 0.337971 0.750000
O O2 0.559136 0.360094 0.995193
O O3 0.473430 0.250000 0.000000
O O4 0.451362 0.414528 0.978237
O O5 0.072472 0.520904 0.750000
O O6 0.049304 0.414769 0.982202
O O7 0.144363 0.496637 0.974077
O O8 0.057251 0.596236 0.011814
O O9 0.590259 0.884839 0.250000
O O10 0.656218 0.858963 0.005113
O O11 0.629723 0.014864 0.081488
O O12 0.372236 0.657642 0.250000
O O13 0.333781 0.660555 0.962301
O O14 0.188820 0.497085 0.250000
O O15 0.236992 0.415020 0.011590
O O16 0.237233 0.584260 0.027140
O O17 0.745408 0.348672 0.250000
O O18 0.759013 0.250000 0.000000
O O19 0.997190 0.750000 0.500000
O O20 0.005260 0.838201 0.750000
O O21 0.742292 0.750000 0.500000
O O22 0.717293 0.839065 0.250000
#
# Coordination Sequence:
#
# PCOD8233476 Si02
#       8
#     8   8   8   8   8   8   8   8
#     4  11  23  36  54  81 112 148 191 244 301 368
#     4  10  22  40  63  95 131 167 213 261 307 360
#     4  10  20  38  60  82 113 150 192 246 306 367
#     4  10  21  40  61  83 115 150 192 246 307 370
#     4  11  23  43  65  89 126 167 209 257 310 360
#     4  12  25  41  64  91 120 158 204 254 308 371
#     4  10  21  39  65  96 133 174 213 257 306 360
#     4  10  22  39  61  86 118 159 201 251 306 365
#
# _framework density 20.510335999999999
#
# number of rings (size 3 to 8) (size 9 to 14) (size 15 to 20)
#    0.000    1.500    1.250    3.750    0.000    7.500 
#    0.000    5.000    0.000    0.000    0.000    0.000 
#    0.000    0.000    0.000    0.000    0.000    0.000 
#
# Total GULP energy -793602.502030 kJ/mol
# GULP energy per Si atom -12400.039094 kJ/mol
# Density = 2.046365 g / cm^3
# Si number density = 20.510336 Si / 1000 Ang^3
#
#
#
# Elastic Constant Matrix: (Units=GPa)
#
#
# Indices 1 2 3 4 5 6 
#
# 1 111.8380 39.8734 17.2156 0.0000 0.0000 0.0000
# 2 39.8734 136.1627 25.6267 0.0000 0.0000 0.0000
# 3 17.2156 25.6267 50.8325 0.0000 0.0000 0.0000
# 4 0.0000 0.0000 0.0000 30.5681 0.0000 0.0000
# 5 0.0000 0.0000 0.0000 0.0000 33.6630 0.0000
# 6 0.0000 0.0000 0.0000 0.0000 0.0000 -26.8865
#
#
#
# Elastic Compliance Matrix: (Units=1/GPa)
#
#
# Indices 1 2 3 4 5 6 
#
# 1 0.010192 -0.002580 -0.002151 0.000000 0.000000 0.000000
# 2 -0.002580 0.008767 -0.003546 0.000000 0.000000 0.000000
# 3 -0.002151 -0.003546 0.022189 0.000000 0.000000 0.000000
# 4 0.000000 0.000000 0.000000 0.032714 0.000000 0.000000
# 5 0.000000 0.000000 0.000000 0.000000 0.029706 0.000000
# 6 0.000000 0.000000 0.000000 0.000000 0.000000 -0.037193
#
#
# Mechanical properties :
#
#
# Convention : Reuss Voigt Hill
#
# Bulk Modulus (GPa) = 40.66066 51.58495 46.12281
# Shear Modulus (GPa) = 54.86826 21.87674 38.37250
#
# Velocity S-wave (km/s) = 5.17780 3.26946 4.33007
# Velocity P-wave (km/s) = 7.45745 6.28154 6.89461
#
# Compressibility (1/GPa) = 0.02459379
#
# Stress axis : x y z
#
# Youngs Moduli (GPa) = 98.11188 114.06386 45.06779
#
# Poissons Ratio (x) = 0.29427 0.09695
# Poissons Ratio (y) = 0.25311 0.15981
# Poissons Ratio (z) = 0.21107 0.40448
#
# Static dielectric constant tensor:
#      x y z
#    x 3.736630 0.000000 0.000000 
#    y 0.000000 4.035660 0.000000 
#    z 0.000000 0.000000 3.599380 
# 
# 
# High freq. dielectric constant tensor:
#      x y z
#    x 1.801170 0.000000 0.000000 
#    y 0.000000 1.812800 0.000000 
#    z 0.000000 0.000000 1.797730 
# 
# From -- ./inp_files/9369.got.cif
#   From: 2010.03.12/outbox.cif.g09.slc.cpg/sg57_5_cif.got.tgz:9369.got - 2010.04.16 15:48:40.
