data_PCOD8233313
_publ_section_title
;
Structure prediction by ZEFSAII (Michael W. Deem and Ramdas Pophale) SiO2 
 PCOD8233313
Probable space group: P B C M
;
_chemical_formula_sum "Si O2"
_cell_formula_units_Z 64
_cell_length_a 21.490162
_cell_length_b 18.160682
_cell_length_c 8.791781
_cell_angle_alpha 90.000000
_cell_angle_beta 90.000000
_cell_angle_gamma 90.000000
_cell_volume 3431.221106
_symmetry_space_group_name_H-M "P B C M"
_symmetry_group_IT_number 57
_symmetry_cell_setting 'orthorhombic'
loop_
_space_group_symop_operation_xyz
x,y,z
-x,-y,1/2+z
x,1/2-y,-z
-x,1/2+y,1/2-z
-x,-y,-z
x,y,1/2-z
-x,1/2+y,z
x,1/2-y,1/2+z
loop_
_atom_site_type_symbol
_atom_site_label
_atom_site_fract_x
_atom_site_fract_y
_atom_site_fract_z
Si Si1 0.390388 0.403317 0.426525
Si Si2 0.752250 0.416569 0.928292
Si Si3 0.935193 0.023874 0.069501
Si Si4 0.741395 0.670969 0.573134
Si Si5 0.180582 0.049713 0.429577
Si Si6 0.385588 0.931266 0.570710
Si Si7 0.505820 0.328145 0.930044
Si Si8 0.870132 0.172462 0.072861
O O1 0.409435 0.399745 0.250000
O O2 0.322087 0.372647 0.453392
O O3 0.391914 0.486074 0.493053
O O4 0.437951 0.354642 0.522062
O O5 0.758690 0.437298 0.750000
O O6 0.681458 0.395404 0.971979
O O7 0.798864 0.349647 0.969545
O O8 0.769209 0.488565 0.023610
O O9 0.937720 0.019106 0.250000
O O10 0.916146 0.106951 0.017406
O O11 0.884997 0.966264 0.008636
O O12 0.000000 0.000000 0.000000
O O13 0.733747 0.750000 0.500000
O O14 0.757886 0.677860 0.750000
O O15 0.796850 0.628938 0.487643
O O16 0.171657 0.050885 0.250000
O O17 0.391733 0.935390 0.750000
O O18 0.441246 0.882540 0.502787
O O19 0.508972 0.322551 0.750000
O O20 0.521031 0.250000 0.000000
O O21 0.877462 0.183779 0.250000
O O22 0.888723 0.250000 0.000000
#
# Coordination Sequence:
#
# PCOD8233313 Si02
#       8
#     8   8   8   8   8   8   8   8
#     4  10  20  37  60  80 103 140 186 233 287 344
#     4   9  17  35  57  79 109 147 185 228 283 334
#     4  10  21  39  62  88 117 156 198 239 283 330
#     4  11  22  37  58  83 113 147 185 234 289 344
#     4  11  21  35  57  86 116 147 186 229 275 337
#     4   9  18  35  58  80 104 142 184 230 285 339
#     4  11  23  37  53  75 108 145 185 233 286 343
#     4   9  19  33  55  84 117 151 186 228 277 329
#
# _framework density 18.652253999999999
#
# number of rings (size 3 to 8) (size 9 to 14) (size 15 to 20)
#    0.000    2.000    1.250    3.750    0.000    5.000 
#    0.000    2.500    0.000    1.500    0.000    0.000 
#    0.000    0.000    0.000    0.000    0.000    0.000 
#
# Total GULP energy -793637.478173 kJ/mol
# GULP energy per Si atom -12400.585596 kJ/mol
# Density = 1.860980 g / cm^3
# Si number density = 18.652254 Si / 1000 Ang^3
#
#
#
# Elastic Constant Matrix: (Units=GPa)
#
#
# Indices 1 2 3 4 5 6 
#
# 1 90.5402 42.6691 38.8600 0.0000 0.0000 0.0000
# 2 42.6691 128.8418 43.4105 0.0000 0.0000 0.0000
# 3 38.8600 43.4105 74.9241 0.0000 0.0000 0.0000
# 4 0.0000 0.0000 0.0000 29.0951 0.0000 0.0000
# 5 0.0000 0.0000 0.0000 0.0000 25.0443 0.0000
# 6 0.0000 0.0000 0.0000 0.0000 0.0000 -178.4721
#
#
#
# Elastic Compliance Matrix: (Units=1/GPa)
#
#
# Indices 1 2 3 4 5 6 
#
# 1 0.015045 -0.002924 -0.006109 0.000000 0.000000 0.000000
# 2 -0.002924 0.010213 -0.004400 0.000000 0.000000 0.000000
# 3 -0.006109 -0.004400 0.019065 0.000000 0.000000 0.000000
# 4 0.000000 0.000000 0.000000 0.034370 0.000000 0.000000
# 5 0.000000 0.000000 0.000000 0.000000 0.039929 0.000000
# 6 0.000000 0.000000 0.000000 0.000000 0.000000 -0.005603
#
#
# Mechanical properties :
#
#
# Convention : Reuss Voigt Hill
#
# Bulk Modulus (GPa) = 57.28942 60.46503 58.87723
# Shear Modulus (GPa) = 34.31622 -13.57544 10.37039
#
# Velocity S-wave (km/s) = 4.29393 -2.70074 2.36049
# Velocity P-wave (km/s) = 7.44076 4.77096 6.25008
#
# Compressibility (1/GPa) = 0.01745523
#
# Stress axis : x y z
#
# Youngs Moduli (GPa) = 66.46791 97.91920 52.45262
#
# Poissons Ratio (x) = 0.28634 0.32043
# Poissons Ratio (y) = 0.19437 0.23081
# Poissons Ratio (z) = 0.40604 0.43088
#
# Static dielectric constant tensor:
#      x y z
#    x 3.534060 0.000000 0.000000 
#    y 0.000000 3.562750 0.000000 
#    z 0.000000 0.000000 3.331460 
# 
# 
# High freq. dielectric constant tensor:
#      x y z
#    x 1.725550 0.000000 0.000000 
#    y 0.000000 1.724320 0.000000 
#    z 0.000000 0.000000 1.715690 
# 
# From -- ./inp_files/8411.got.cif
#   From: 2010.03.12/outbox.cif.g09.slc.cpg/sg57_5_cif.got.tgz:8411.got - 2010.04.16 15:48:40.
