data_PCOD8233264
_publ_section_title
;
Structure prediction by ZEFSAII (Michael W. Deem and Ramdas Pophale) SiO2 
 PCOD8233264
Probable space group: P B C M
;
_chemical_formula_sum "Si O2"
_cell_formula_units_Z 48
_cell_length_a 12.243268
_cell_length_b 21.747988
_cell_length_c 10.121334
_cell_angle_alpha 90.000000
_cell_angle_beta 90.000000
_cell_angle_gamma 90.000000
_cell_volume 2694.971628
_symmetry_space_group_name_H-M "P B C M"
_symmetry_group_IT_number 57
_symmetry_cell_setting 'orthorhombic'
loop_
_space_group_symop_operation_xyz
x,y,z
-x,-y,1/2+z
x,1/2-y,-z
-x,1/2+y,1/2-z
-x,-y,-z
x,y,1/2-z
-x,1/2+y,z
x,1/2-y,1/2+z
loop_
_atom_site_type_symbol
_atom_site_label
_atom_site_fract_x
_atom_site_fract_y
_atom_site_fract_z
Si Si1 0.319865 0.985657 0.250000
Si Si2 0.450831 0.393941 0.750000
Si Si3 0.821283 0.025103 0.007288
Si Si4 0.971119 0.579500 0.900136
Si Si5 0.532493 0.903610 0.250000
Si Si6 0.597733 0.821588 0.011851
Si Si7 0.332132 0.973104 0.750000
Si Si8 0.162136 0.301593 0.400335
O O1 0.248741 0.974777 0.377076
O O2 0.418903 0.938436 0.250000
O O3 0.357464 0.055507 0.250000
O O4 0.435908 0.351352 0.624656
O O5 0.567484 0.426706 0.750000
O O6 0.919486 0.074032 0.987950
O O7 0.741181 0.043518 0.124655
O O8 0.873683 0.958892 0.034210
O O9 0.991690 0.555880 0.750000
O O10 0.934399 0.649495 0.899434
O O11 0.534399 0.859053 0.124157
O O12 0.629593 0.955045 0.250000
O O13 0.725707 0.829013 0.042700
O O14 0.564042 0.750000 0.000000
O O15 0.119566 0.250000 0.500000
O O16 0.181977 0.277063 0.250000
#
# Coordination Sequence:
#
# PCOD8233264 Si02
#       8
#     4   4   8   8   4   8   4   8
#     4  11  22  35  58  87 114 149 186 230 279 341
#     4  11  23  36  56  87 115 145 194 232 273 338
#     4  11  21  36  56  86 112 147 185 223 284 337
#     4  10  20  37  58  82 116 148 181 228 284 338
#     4  11  21  38  58  83 117 153 180 226 297 334
#     4  11  22  37  58  83 113 152 185 231 280 334
#     4  11  22  37  58  83 118 149 182 238 285 333
#     4  10  21  37  58  84 112 146 182 229 285 330
#
# _framework density 17.810946999999999
#
# number of rings (size 3 to 8) (size 9 to 14) (size 15 to 20)
#    0.000    1.333    2.500    4.500    3.500    2.667 
#    3.000    0.000    0.000    6.000    0.000    0.000 
#    0.000    0.000    0.000    0.000    0.000    0.000 
#
# Total GULP energy -595178.389331 kJ/mol
# GULP energy per Si atom -12399.549778 kJ/mol
# Density = 1.777041 g / cm^3
# Si number density = 17.810947 Si / 1000 Ang^3
#
#
#
# Elastic Constant Matrix: (Units=GPa)
#
#
# Indices 1 2 3 4 5 6 
#
# 1 81.6506 39.3343 51.4247 0.0000 0.0000 0.0000
# 2 39.3343 106.6377 59.5725 0.0000 0.0000 0.0000
# 3 51.4247 59.5725 163.3815 0.0000 0.0000 0.0000
# 4 0.0000 0.0000 0.0000 41.1899 0.0000 0.0000
# 5 0.0000 0.0000 0.0000 0.0000 41.7457 0.0000
# 6 0.0000 0.0000 0.0000 0.0000 0.0000 20.9687
#
#
#
# Elastic Compliance Matrix: (Units=1/GPa)
#
#
# Indices 1 2 3 4 5 6 
#
# 1 0.016536 -0.004008 -0.003743 0.000000 0.000000 0.000000
# 2 -0.004008 0.012748 -0.003387 0.000000 0.000000 0.000000
# 3 -0.003743 -0.003387 0.008534 0.000000 0.000000 0.000000
# 4 0.000000 0.000000 0.000000 0.024278 0.000000 0.000000
# 5 0.000000 0.000000 0.000000 0.000000 0.023955 0.000000
# 6 0.000000 0.000000 0.000000 0.000000 0.000000 0.047690
#
#
# Mechanical properties :
#
#
# Convention : Reuss Voigt Hill
#
# Bulk Modulus (GPa) = 64.34466 72.48143 68.41305
# Shear Modulus (GPa) = 31.01808 34.20341 32.61075
#
# Velocity S-wave (km/s) = 4.17768 4.38694 4.28359
# Velocity P-wave (km/s) = 7.71204 8.15129 7.93471
#
# Compressibility (1/GPa) = 0.01554130
#
# Stress axis : x y z
#
# Youngs Moduli (GPa) = 60.47501 78.44422 117.18344
#
# Poissons Ratio (x) = 0.31443 0.43864
# Poissons Ratio (y) = 0.24240 0.39685
# Poissons Ratio (z) = 0.22637 0.26566
#
# Static dielectric constant tensor:
#      x y z
#    x 3.323500 0.000000 0.000000 
#    y 0.000000 3.356100 0.000000 
#    z 0.000000 0.000000 3.543280 
# 
# 
# High freq. dielectric constant tensor:
#      x y z
#    x 1.687540 0.000000 0.000000 
#    y 0.000000 1.678860 0.000000 
#    z 0.000000 0.000000 1.712260 
# 
# From -- ./inp_files/3234.got.cif
#   From: 2010.03.12/outbox.cif.g09.slc.cpg/sg57_2_cif.got.tgz:3234.got - 2010.04.16 15:48:40.
