data_PCOD8233702
_publ_section_title
;
Structure prediction by ZEFSAII (Michael W. Deem and Ramdas Pophale) SiO2 
 PCOD8233702
Probable space group: P B C M
;
_chemical_formula_sum "Si O2"
_cell_formula_units_Z 40
_cell_length_a 14.190432
_cell_length_b 9.284296
_cell_length_c 15.792398
_cell_angle_alpha 90.000000
_cell_angle_beta 90.000000
_cell_angle_gamma 90.000000
_cell_volume 2080.619553
_symmetry_space_group_name_H-M "P B C M"
_symmetry_group_IT_number 57
_symmetry_cell_setting 'orthorhombic'
loop_
_space_group_symop_operation_xyz
x,y,z
-x,-y,1/2+z
x,1/2-y,-z
-x,1/2+y,1/2-z
-x,-y,-z
x,y,1/2-z
-x,1/2+y,z
x,1/2-y,1/2+z
loop_
_atom_site_type_symbol
_atom_site_label
_atom_site_fract_x
_atom_site_fract_y
_atom_site_fract_z
Si Si1 0.105846 0.735145 0.250000
Si Si2 0.915042 0.904918 0.250000
Si Si3 0.421366 0.276774 0.595896
Si Si4 0.239011 0.778905 0.907077
Si Si5 0.741070 0.910635 0.344655
Si Si6 0.409715 0.599978 0.654008
O O1 0.067529 0.574708 0.250000
O O2 0.165836 0.766769 0.165737
O O3 0.015832 0.835612 0.250000
O O4 0.851766 0.864323 0.333522
O O5 0.451150 0.250000 0.500000
O O6 0.315518 0.219529 0.612757
O O7 0.427654 0.444521 0.614500
O O8 0.493347 0.189153 0.654502
O O9 0.332004 0.682116 0.900705
O O10 0.268670 0.946058 0.900616
O O11 0.194422 0.750000 0.000000
O O12 0.701519 0.947100 0.250000
O O13 0.374058 0.583881 0.750000
#
# Coordination Sequence:
#
# PCOD8233702 Si02
#       6
#     4   4   8   8   8   8
#     4  10  20  42  59  92 113 160 191 246 304 354
#     4   8  20  36  65  78 119 150 197 238 300 352
#     4  12  24  38  57  88 123 156 201 247 293 348
#     4  11  21  39  63  89 121 156 201 247 295 351
#     4   9  19  40  59  81 116 162 193 238 295 348
#     4  12  23  37  57  87 116 163 205 238 294 352
#
# _framework density 19.225042999999999
#
# number of rings (size 3 to 8) (size 9 to 14) (size 15 to 20)
#    0.600    0.800    2.000    5.400    0.000    1.600 
#    0.000    5.000    0.000    0.000    0.000    0.000 
#    0.000    0.000    0.000    0.000    0.000    0.000 
#
# Total GULP energy -495958.298267 kJ/mol
# GULP energy per Si atom -12398.957457 kJ/mol
# Density = 1.918129 g / cm^3
# Si number density = 19.225043 Si / 1000 Ang^3
#
#
#
# Elastic Constant Matrix: (Units=GPa)
#
#
# Indices 1 2 3 4 5 6 
#
# 1 91.7843 48.3071 31.5385 0.0000 0.0000 0.0000
# 2 48.3071 75.2026 8.2860 0.0000 0.0000 0.0000
# 3 31.5385 8.2860 107.0509 0.0000 0.0000 0.0000
# 4 0.0000 0.0000 0.0000 24.7761 0.0000 0.0000
# 5 0.0000 0.0000 0.0000 0.0000 14.6616 0.0000
# 6 0.0000 0.0000 0.0000 0.0000 0.0000 41.5548
#
#
#
# Elastic Compliance Matrix: (Units=1/GPa)
#
#
# Indices 1 2 3 4 5 6 
#
# 1 0.018424 -0.011333 -0.004551 0.000000 0.000000 0.000000
# 2 -0.011333 0.020383 0.001761 0.000000 0.000000 0.000000
# 3 -0.004551 0.001761 0.010546 0.000000 0.000000 0.000000
# 4 0.000000 0.000000 0.000000 0.040361 0.000000 0.000000
# 5 0.000000 0.000000 0.000000 0.000000 0.068205 0.000000
# 6 0.000000 0.000000 0.000000 0.000000 0.000000 0.024065
#
#
# Mechanical properties :
#
#
# Convention : Reuss Voigt Hill
#
# Bulk Modulus (GPa) = 47.37671 50.03345 48.70508
# Shear Modulus (GPa) = 23.01339 28.59224 25.80282
#
# Velocity S-wave (km/s) = 3.46360 3.86066 3.66751
# Velocity P-wave (km/s) = 6.37903 6.77898 6.58204
#
# Compressibility (1/GPa) = 0.02110742
#
# Stress axis : x y z
#
# Youngs Moduli (GPa) = 54.27847 49.05973 94.82549
#
# Poissons Ratio (x) = 0.55600 0.43151
# Poissons Ratio (y) = 0.61514 -0.16700
# Poissons Ratio (z) = 0.24700 -0.08640
#
# Static dielectric constant tensor:
#      x y z
#    x 3.351860 0.000000 0.000000 
#    y 0.000000 3.426380 0.000000 
#    z 0.000000 0.000000 3.495770 
# 
# 
# High freq. dielectric constant tensor:
#      x y z
#    x 1.735360 0.000000 0.000000 
#    y 0.000000 1.751470 0.000000 
#    z 0.000000 0.000000 1.748930 
# 
# From -- ./inp_files/18276.got.cif
#   From: 2010.03.12/outbox.cif.g09.slc.cpg/sg57_10_cif.got.tgz:18276.got - 2010.04.16 15:48:40.
