data_PCOD8233931
_publ_section_title
;
Structure prediction by ZEFSAII (Michael W. Deem and Ramdas Pophale) SiO2 
 PCOD8233931
Probable space group: P B C M
;
_chemical_formula_sum "Si O2"
_cell_formula_units_Z 48
_cell_length_a 30.266040
_cell_length_b 9.466172
_cell_length_c 8.612013
_cell_angle_alpha 90.000000
_cell_angle_beta 90.000000
_cell_angle_gamma 90.000000
_cell_volume 2467.372214
_symmetry_space_group_name_H-M "P B C M"
_symmetry_group_IT_number 57
_symmetry_cell_setting 'orthorhombic'
loop_
_space_group_symop_operation_xyz
x,y,z
-x,-y,1/2+z
x,1/2-y,-z
-x,1/2+y,1/2-z
-x,-y,-z
x,y,1/2-z
-x,1/2+y,z
x,1/2-y,1/2+z
loop_
_atom_site_type_symbol
_atom_site_label
_atom_site_fract_x
_atom_site_fract_y
_atom_site_fract_z
Si Si1 0.708717 0.095912 0.068174
Si Si2 0.037905 0.902733 0.565286
Si Si3 0.868129 0.096783 0.565823
Si Si4 0.535850 0.897990 0.932331
Si Si5 0.364193 0.098834 0.432964
Si Si6 0.792539 0.905676 0.433174
O O1 0.702159 0.110700 0.250000
O O2 0.749442 0.995695 0.024951
O O3 0.717729 0.250000 0.000000
O O4 0.664757 0.028842 0.997207
O O5 0.027188 0.750000 0.500000
O O6 0.038176 0.902560 0.750000
O O7 0.085261 0.954342 0.503246
O O8 0.000000 0.000000 0.500000
O O9 0.854127 0.250000 0.500000
O O10 0.871493 0.108872 0.750000
O O11 0.833464 0.978380 0.517862
O O12 0.532279 0.895249 0.750000
O O13 0.585690 0.936693 0.984406
O O14 0.521802 0.750000 0.000000
O O15 0.500000 0.000000 0.000000
O O16 0.348757 0.250000 0.500000
O O17 0.358864 0.107789 0.250000
O O18 0.785701 0.750000 0.500000
O O19 0.801286 0.899502 0.250000
#
# Coordination Sequence:
#
# PCOD8233931 Si02
#       6
#     8   8   8   8   8   8
#     4  11  24  40  61  87 117 152 192 236 286 341
#     4  11  22  39  61  88 120 156 197 242 291 345
#     4  11  22  39  62  88 118 155 195 239 290 344
#     4  10  21  37  58  84 114 151 191 236 286 341
#     4  10  21  38  60  85 115 150 191 236 287 341
#     4  11  24  41  61  88 118 152 192 237 287 342
#
# _framework density 19.453893999999998
#
# number of rings (size 3 to 8) (size 9 to 14) (size 15 to 20)
#    0.000    1.333    0.000    7.000    0.000    8.667 
#    0.000    3.333    0.000    0.000    0.000    0.000 
#    0.000    0.000    0.000    0.000    0.000    0.000 
#
# Total GULP energy -595386.411630 kJ/mol
# GULP energy per Si atom -12403.883576 kJ/mol
# Density = 1.940962 g / cm^3
# Si number density = 19.453894 Si / 1000 Ang^3
#
#
#
# Elastic Constant Matrix: (Units=GPa)
#
#
# Indices 1 2 3 4 5 6 
#
# 1 127.5007 90.4249 62.9750 0.0000 0.0000 0.0000
# 2 90.4249 140.5282 68.4975 0.0000 0.0000 0.0000
# 3 62.9750 68.4975 132.7514 0.0000 0.0000 0.0000
# 4 0.0000 0.0000 0.0000 40.3876 0.0000 0.0000
# 5 0.0000 0.0000 0.0000 0.0000 31.0383 0.0000
# 6 0.0000 0.0000 0.0000 0.0000 0.0000 38.6167
#
#
#
# Elastic Compliance Matrix: (Units=1/GPa)
#
#
# Indices 1 2 3 4 5 6 
#
# 1 0.015216 -0.008380 -0.002894 0.000000 0.000000 0.000000
# 2 -0.008380 0.014123 -0.003312 0.000000 0.000000 0.000000
# 3 -0.002894 -0.003312 0.010614 0.000000 0.000000 0.000000
# 4 0.000000 0.000000 0.000000 0.024760 0.000000 0.000000
# 5 0.000000 0.000000 0.000000 0.000000 0.032218 0.000000
# 6 0.000000 0.000000 0.000000 0.000000 0.000000 0.025896
#
#
# Mechanical properties :
#
#
# Convention : Reuss Voigt Hill
#
# Bulk Modulus (GPa) = 92.75440 93.84168 93.29804
# Shear Modulus (GPa) = 32.13528 33.93405 33.03466
#
# Velocity S-wave (km/s) = 4.06873 4.18105 4.12527
# Velocity P-wave (km/s) = 8.35795 8.46469 8.41149
#
# Compressibility (1/GPa) = 0.01078116
#
# Stress axis : x y z
#
# Youngs Moduli (GPa) = 65.72082 70.80891 94.21077
#
# Poissons Ratio (x) = 0.59339 0.27266
# Poissons Ratio (y) = 0.55075 0.31198
# Poissons Ratio (z) = 0.19020 0.23449
#
# Static dielectric constant tensor:
#      x y z
#    x 3.717100 0.000000 0.000000 
#    y 0.000000 3.594690 0.000000 
#    z 0.000000 0.000000 3.862440 
# 
# 
# High freq. dielectric constant tensor:
#      x y z
#    x 1.771460 0.000000 0.000000 
#    y 0.000000 1.761700 0.000000 
#    z 0.000000 0.000000 1.779390 
# 
# From -- ./inp_files/9900.got.cif
#   From: 2010.03.12/outbox.cif.g09.slc.cpg/sg57_5_cif.got.tgz:9900.got - 2010.04.16 15:48:40.
