data_PCOD8233584
_publ_section_title
;
Structure prediction by ZEFSAII (Michael W. Deem and Ramdas Pophale) SiO2 
 PCOD8233584
Probable space group: P B C M
;
_chemical_formula_sum "Si O2"
_cell_formula_units_Z 64
_cell_length_a 11.930387
_cell_length_b 14.010878
_cell_length_c 16.755828
_cell_angle_alpha 90.000000
_cell_angle_beta 90.000000
_cell_angle_gamma 90.000000
_cell_volume 2800.823726
_symmetry_space_group_name_H-M "P B C M"
_symmetry_group_IT_number 57
_symmetry_cell_setting 'orthorhombic'
loop_
_space_group_symop_operation_xyz
x,y,z
-x,-y,1/2+z
x,1/2-y,-z
-x,1/2+y,1/2-z
-x,-y,-z
x,y,1/2-z
-x,1/2+y,z
x,1/2-y,1/2+z
loop_
_atom_site_type_symbol
_atom_site_label
_atom_site_fract_x
_atom_site_fract_y
_atom_site_fract_z
Si Si1 0.345851 0.210877 0.341930
Si Si2 0.552229 0.520434 0.086980
Si Si3 0.155710 0.514411 0.074127
Si Si4 0.137830 0.727474 0.092431
Si Si5 0.643939 0.578001 0.840246
Si Si6 0.910368 0.800657 0.842383
Si Si7 0.272831 0.612111 0.662163
Si Si8 0.916102 0.493424 0.100528
O O1 0.360403 0.176451 0.250000
O O2 0.403620 0.314174 0.357683
O O3 0.215010 0.237486 0.359285
O O4 0.398539 0.128212 0.399000
O O5 0.455516 0.498579 0.151136
O O6 0.648993 0.443089 0.099928
O O7 0.500000 0.500000 0.000000
O O8 0.163693 0.618054 0.115622
O O9 0.259920 0.448529 0.096813
O O10 0.044438 0.456873 0.101987
O O11 0.148724 0.535411 0.980245
O O12 0.242483 0.782885 0.131503
O O13 0.016749 0.762915 0.128334
O O14 0.134725 0.750000 0.000000
O O15 0.691580 0.573238 0.750000
O O16 0.926453 0.824479 0.750000
O O17 0.920209 0.893843 0.895939
O O18 0.328551 0.617290 0.750000
O O19 0.155864 0.553425 0.670935
#
# Coordination Sequence:
#
# PCOD8233584 Si02
#       8
#     8   8   8   8   8   8   8   8
#     4  10  23  45  71 102 139 181 237 298 356 430
#     4  12  27  49  73 100 137 186 242 304 357 429
#     4  10  23  42  64 100 146 185 237 291 353 423
#     4  11  24  41  66 104 153 193 234 287 352 436
#     4  11  26  45  70 101 138 183 235 294 362 427
#     4  10  21  39  66 102 143 185 232 285 351 424
#     4  12  24  42  71 102 137 187 241 293 361 432
#     4  10  20  38  66  98 138 185 231 288 356 419
#
# _framework density 22.85042
#
# number of rings (size 3 to 8) (size 9 to 14) (size 15 to 20)
#    0.000    1.250    2.500    2.625    1.750    4.500 
#    0.000    0.000    0.000    0.000    0.000    0.000 
#    0.000    0.000    0.000    0.000    0.000    0.000 
#
# Total GULP energy -793142.070352 kJ/mol
# GULP energy per Si atom -12392.844849 kJ/mol
# Density = 2.279841 g / cm^3
# Si number density = 22.850420 Si / 1000 Ang^3
#
#
#
# Elastic Constant Matrix: (Units=GPa)
#
#
# Indices 1 2 3 4 5 6 
#
# 1 102.0228 44.7751 39.4860 0.0000 0.0000 0.0000
# 2 44.7751 109.8055 41.7054 0.0000 0.0000 0.0000
# 3 39.4860 41.7054 72.1549 0.0000 0.0000 0.0000
# 4 0.0000 0.0000 0.0000 18.0211 0.0000 0.0000
# 5 0.0000 0.0000 0.0000 0.0000 8.6212 0.0000
# 6 0.0000 0.0000 0.0000 0.0000 0.0000 30.3110
#
#
#
# Elastic Compliance Matrix: (Units=1/GPa)
#
#
# Indices 1 2 3 4 5 6 
#
# 1 0.013371 -0.003425 -0.005337 0.000000 0.000000 0.000000
# 2 -0.003425 0.012546 -0.005377 0.000000 0.000000 0.000000
# 3 -0.005337 -0.005377 0.019888 0.000000 0.000000 0.000000
# 4 0.000000 0.000000 0.000000 0.055490 0.000000 0.000000
# 5 0.000000 0.000000 0.000000 0.000000 0.115994 0.000000
# 6 0.000000 0.000000 0.000000 0.000000 0.000000 0.032991
#
#
# Mechanical properties :
#
#
# Convention : Reuss Voigt Hill
#
# Bulk Modulus (GPa) = 57.06002 59.54627 58.30314
# Shear Modulus (GPa) = 17.58083 21.92509 19.75296
#
# Velocity S-wave (km/s) = 2.77679 3.10095 2.94334
# Velocity P-wave (km/s) = 5.94189 6.23994 6.09274
#
# Compressibility (1/GPa) = 0.01752541
#
# Stress axis : x y z
#
# Youngs Moduli (GPa) = 74.79140 79.70715 50.28181
#
# Poissons Ratio (x) = 0.27299 0.26837
# Poissons Ratio (y) = 0.25615 0.27038
# Poissons Ratio (z) = 0.39918 0.42861
#
# Static dielectric constant tensor:
#      x y z
#    x 4.356750 0.000000 0.000000 
#    y 0.000000 4.119250 0.000000 
#    z 0.000000 0.000000 3.943840 
# 
# 
# High freq. dielectric constant tensor:
#      x y z
#    x 1.904170 0.000000 0.000000 
#    y 0.000000 1.900750 0.000000 
#    z 0.000000 0.000000 1.894840 
# 
# From -- ./inp_files/22015.got.cif
#   From: 2010.03.12/outbox.cif.g09.slc.cpg/sg57_12_cif.got.tgz:22015.got - 2010.04.16 15:48:40.
