data_PCOD8233714
_publ_section_title
;
Structure prediction by ZEFSAII (Michael W. Deem and Ramdas Pophale) SiO2 
 PCOD8233714
Probable space group: P B C M
;
_chemical_formula_sum "Si O2"
_cell_formula_units_Z 52
_cell_length_a 13.003426
_cell_length_b 22.412286
_cell_length_c 10.090138
_cell_angle_alpha 90.000000
_cell_angle_beta 90.000000
_cell_angle_gamma 90.000000
_cell_volume 2940.634528
_symmetry_space_group_name_H-M "P B C M"
_symmetry_group_IT_number 57
_symmetry_cell_setting 'orthorhombic'
loop_
_space_group_symop_operation_xyz
x,y,z
-x,-y,1/2+z
x,1/2-y,-z
-x,1/2+y,1/2-z
-x,-y,-z
x,y,1/2-z
-x,1/2+y,z
x,1/2-y,1/2+z
loop_
_atom_site_type_symbol
_atom_site_label
_atom_site_fract_x
_atom_site_fract_y
_atom_site_fract_z
Si Si1 0.179529 0.116767 0.250000
Si Si2 0.042952 0.918647 0.750000
Si Si3 0.749226 0.821099 0.489605
Si Si4 0.541438 0.802856 0.102196
Si Si5 0.685688 0.192947 0.595848
Si Si6 0.879066 0.011005 0.750000
Si Si7 0.038893 0.197560 0.895155
Si Si8 0.134826 0.893131 0.029090
O O1 0.054846 0.127692 0.250000
O O2 0.235118 0.147309 0.371829
O O3 0.199505 0.045415 0.250000
O O4 0.114883 0.909523 0.623026
O O5 0.996562 0.985911 0.750000
O O6 0.740930 0.750000 0.500000
O O7 0.641182 0.845102 0.426833
O O8 0.849688 0.834543 0.401353
O O9 0.552310 0.776529 0.250000
O O10 0.430199 0.834453 0.087251
O O11 0.543044 0.750000 0.000000
O O12 0.699869 0.250000 0.500000
O O13 0.711808 0.209778 0.750000
O O14 0.758162 0.141269 0.541369
O O15 0.858849 0.047510 0.616558
O O16 0.024926 0.226244 0.750000
O O17 0.955838 0.146856 0.914482
O O18 0.024087 0.250000 0.000000
#
# Coordination Sequence:
#
# PCOD8233714 Si02
#       8
#     4   4   8   8   8   4   8   8
#     4  10  22  40  56  86 114 154 187 238 286 349
#     4  10  24  36  58  83 113 143 197 241 287 337
#     4  10  21  32  56  82 117 146 186 229 295 345
#     4   9  19  34  55  84 117 157 188 233 281 349
#     4  10  21  37  57  88 125 157 196 235 290 344
#     4  10  22  42  62  77 113 157 202 243 279 344
#     4  11  22  31  51  81 119 147 187 232 291 349
#     4  12  21  38  58  86 111 156 195 238 291 340
#
# _framework density 17.683257999999999
#
# number of rings (size 3 to 8) (size 9 to 14) (size 15 to 20)
#    0.462    1.231    3.077    1.385   10.769    0.000 
#    0.000    0.000    1.692    0.923    0.000    0.000 
#    0.000    0.000    0.000    0.000    0.000    0.000 
#
# Total GULP energy -644294.125523 kJ/mol
# GULP energy per Si atom -12390.271645 kJ/mol
# Density = 1.764301 g / cm^3
# Si number density = 17.683258 Si / 1000 Ang^3
#
#
#
# Elastic Constant Matrix: (Units=GPa)
#
#
# Indices 1 2 3 4 5 6 
#
# 1 134.4201 50.1768 51.7702 0.0000 0.0000 0.0000
# 2 50.1768 88.9819 59.0449 0.0000 0.0000 0.0000
# 3 51.7702 59.0449 168.1406 0.0000 0.0000 0.0000
# 4 0.0000 0.0000 0.0000 29.0700 0.0000 0.0000
# 5 0.0000 0.0000 0.0000 0.0000 18.2220 0.0000
# 6 0.0000 0.0000 0.0000 0.0000 0.0000 -11.0183
#
#
#
# Elastic Compliance Matrix: (Units=1/GPa)
#
#
# Indices 1 2 3 4 5 6 
#
# 1 0.009664 -0.004531 -0.001384 0.000000 0.000000 0.000000
# 2 -0.004531 0.016777 -0.004496 0.000000 0.000000 0.000000
# 3 -0.001384 -0.004496 0.007953 0.000000 0.000000 0.000000
# 4 0.000000 0.000000 0.000000 0.034400 0.000000 0.000000
# 5 0.000000 0.000000 0.000000 0.000000 0.054879 0.000000
# 6 0.000000 0.000000 0.000000 0.000000 0.000000 -0.090758
#
#
# Mechanical properties :
#
#
# Convention : Reuss Voigt Hill
#
# Bulk Modulus (GPa) = 73.69162 79.28072 76.48617
# Shear Modulus (GPa) = 85.82209 22.62479 54.22344
#
# Velocity S-wave (km/s) = 6.97412 3.58082 5.54349
# Velocity P-wave (km/s) = 10.32544 7.87575 9.18265
#
# Compressibility (1/GPa) = 0.01357006
#
# Stress axis : x y z
#
# Youngs Moduli (GPa) = 103.47881 59.60626 125.74452
#
# Poissons Ratio (x) = 0.27006 0.17408
# Poissons Ratio (y) = 0.46884 0.56540
# Poissons Ratio (z) = 0.14326 0.26801
#
# Static dielectric constant tensor:
#      x y z
#    x 4.348220 0.000000 0.000000 
#    y 0.000000 2.747550 0.000000 
#    z 0.000000 0.000000 3.535740 
# 
# 
# High freq. dielectric constant tensor:
#      x y z
#    x 1.693160 0.000000 0.000000 
#    y 0.000000 1.638790 0.000000 
#    z 0.000000 0.000000 1.704490 
# 
# From -- ./inp_files/5086.got.cif
#   From: 2010.03.12/outbox.cif.g09.slc.cpg/sg57_3_cif.got.tgz:5086.got - 2010.04.16 15:48:40.
