data_PCOD8233040
_publ_section_title
;
Structure prediction by ZEFSAII (Michael W. Deem and Ramdas Pophale) SiO2 
 PCOD8233040
Probable space group: P B C M
;
_chemical_formula_sum "Si O2"
_cell_formula_units_Z 64
_cell_length_a 12.188393
_cell_length_b 14.671323
_cell_length_c 17.760200
_cell_angle_alpha 90.000000
_cell_angle_beta 90.000000
_cell_angle_gamma 90.000000
_cell_volume 3175.876310
_symmetry_space_group_name_H-M "P B C M"
_symmetry_group_IT_number 57
_symmetry_cell_setting 'orthorhombic'
loop_
_space_group_symop_operation_xyz
x,y,z
-x,-y,1/2+z
x,1/2-y,-z
-x,1/2+y,1/2-z
-x,-y,-z
x,y,1/2-z
-x,1/2+y,z
x,1/2-y,1/2+z
loop_
_atom_site_type_symbol
_atom_site_label
_atom_site_fract_x
_atom_site_fract_y
_atom_site_fract_z
Si Si1 0.592063 0.663834 0.161237
Si Si2 0.499936 0.994761 0.411413
Si Si3 0.701991 0.402422 0.166352
Si Si4 0.656108 0.639657 0.662151
Si Si5 0.901412 0.882389 0.339058
Si Si6 0.886211 0.274757 0.339532
Si Si7 0.950944 0.081520 0.339820
Si Si8 0.187550 0.411780 0.832958
O O1 0.587594 0.641206 0.250000
O O2 0.503011 0.598330 0.121485
O O3 0.579192 0.771504 0.145116
O O4 0.710381 0.636293 0.125688
O O5 0.398514 0.931953 0.385614
O O6 0.611102 0.946642 0.383656
O O7 0.500000 0.000000 0.500000
O O8 0.655281 0.378497 0.250000
O O9 0.772428 0.319202 0.130460
O O10 0.791964 0.481034 0.173846
O O11 0.651076 0.614996 0.750000
O O12 0.782591 0.659015 0.637955
O O13 0.912690 0.884577 0.250000
O O14 0.002338 0.822270 0.372299
O O15 0.904373 0.986278 0.371427
O O16 0.888151 0.285304 0.250000
O O17 0.878375 0.168545 0.364007
O O18 0.961802 0.074854 0.250000
O O19 0.071973 0.101142 0.374946
O O20 0.179315 0.366290 0.750000
#
# Coordination Sequence:
#
# PCOD8233040 Si02
#       8
#     8   8   8   8   8   8   8   8
#     4   9  18  34  58  84 105 140 188 232 277 326
#     4  11  23  38  56  77 108 145 190 234 282 332
#     4   9  16  30  51  74 104 139 182 229 269 321
#     4  10  20  36  57  81 111 142 181 234 285 330
#     4   9  16  27  45  76 113 141 169 221 281 332
#     4   9  15  24  43  74 108 139 171 215 274 331
#     4   9  14  21  38  71 111 141 166 206 270 333
#     4   8  12  22  43  71 104 136 167 211 262 315
#
# _framework density 20.151917999999998
#
# number of rings (size 3 to 8) (size 9 to 14) (size 15 to 20)
#    0.000    2.750    1.250    2.625    0.000    3.500 
#    2.250    0.000    0.000    0.750    0.000    0.000 
#    0.000    0.000    0.000    0.000    0.000    0.000 
#
# Total GULP energy -792909.627829 kJ/mol
# GULP energy per Si atom -12389.212935 kJ/mol
# Density = 2.010605 g / cm^3
# Si number density = 20.151918 Si / 1000 Ang^3
#
#
#
# Elastic Constant Matrix: (Units=GPa)
#
#
# Indices 1 2 3 4 5 6 
#
# 1 54.0041 13.8937 19.0249 0.0000 0.0000 0.0000
# 2 13.8937 105.0503 19.3714 0.0000 0.0000 0.0000
# 3 19.0249 19.3714 49.5247 0.0000 0.0000 0.0000
# 4 0.0000 0.0000 0.0000 8.0819 0.0000 0.0000
# 5 0.0000 0.0000 0.0000 0.0000 4.6959 0.0000
# 6 0.0000 0.0000 0.0000 0.0000 0.0000 30.7098
#
#
#
# Elastic Compliance Matrix: (Units=1/GPa)
#
#
# Indices 1 2 3 4 5 6 
#
# 1 0.021613 -0.001431 -0.007743 0.000000 0.000000 0.000000
# 2 -0.001431 0.010354 -0.003500 0.000000 0.000000 0.000000
# 3 -0.007743 -0.003500 0.024536 0.000000 0.000000 0.000000
# 4 0.000000 0.000000 0.000000 0.123733 0.000000 0.000000
# 5 0.000000 0.000000 0.000000 0.000000 0.212954 0.000000
# 6 0.000000 0.000000 0.000000 0.000000 0.000000 0.032563
#
#
# Mechanical properties :
#
#
# Convention : Reuss Voigt Hill
#
# Bulk Modulus (GPa) = 32.09812 34.79544 33.44678
# Shear Modulus (GPa) = 10.83460 19.11680 14.97570
#
# Velocity S-wave (km/s) = 2.32123 3.08333 2.72902
# Velocity P-wave (km/s) = 4.81111 5.47540 5.15397
#
# Compressibility (1/GPa) = 0.03115447
#
# Stress axis : x y z
#
# Youngs Moduli (GPa) = 46.26865 96.58178 40.75717
#
# Poissons Ratio (x) = 0.13817 0.31558
# Poissons Ratio (y) = 0.06619 0.14266
# Poissons Ratio (z) = 0.35826 0.33807
#
# Static dielectric constant tensor:
#      x y z
#    x 3.677320 0.000000 0.000000 
#    y 0.000000 3.882830 0.000000 
#    z 0.000000 0.000000 2.872720 
# 
# 
# High freq. dielectric constant tensor:
#      x y z
#    x 1.784350 0.000000 0.000000 
#    y 0.000000 1.798560 0.000000 
#    z 0.000000 0.000000 1.697830 
# 
# From -- ./inp_files/22038.got.cif
#   From: 2010.03.12/outbox.cif.g09.slc.cpg/sg57_12_cif.got.tgz:22038.got - 2010.04.16 15:48:40.
