data_PCOD8233952
_publ_section_title
;
Structure prediction by ZEFSAII (Michael W. Deem and Ramdas Pophale) SiO2 
 PCOD8233952
Probable space group: P B C M
;
_chemical_formula_sum "Si O2"
_cell_formula_units_Z 48
_cell_length_a 30.548707
_cell_length_b 9.077975
_cell_length_c 8.727479
_cell_angle_alpha 90.000000
_cell_angle_beta 90.000000
_cell_angle_gamma 90.000000
_cell_volume 2420.307954
_symmetry_space_group_name_H-M "P B C M"
_symmetry_group_IT_number 57
_symmetry_cell_setting 'orthorhombic'
loop_
_space_group_symop_operation_xyz
x,y,z
-x,-y,1/2+z
x,1/2-y,-z
-x,1/2+y,1/2-z
-x,-y,-z
x,y,1/2-z
-x,1/2+y,z
x,1/2-y,1/2+z
loop_
_atom_site_type_symbol
_atom_site_label
_atom_site_fract_x
_atom_site_fract_y
_atom_site_fract_z
Si Si1 0.037196 0.905691 0.424785
Si Si2 0.211480 0.089624 0.568086
Si Si3 0.374933 0.089890 0.430015
Si Si4 0.459808 0.911573 0.431921
Si Si5 0.864299 0.411143 0.428032
Si Si6 0.709768 0.410017 0.067733
O O1 0.035938 0.750000 0.500000
O O2 0.024660 0.887914 0.250000
O O3 0.086034 0.970328 0.446529
O O4 0.000000 0.000000 0.500000
O O5 0.220905 0.250000 0.500000
O O6 0.214172 0.098564 0.750000
O O7 0.164165 0.031965 0.516363
O O8 0.246452 0.974526 0.504653
O O9 0.378627 0.250000 0.500000
O O10 0.375693 0.108142 0.250000
O O11 0.415522 0.991672 0.485789
O O12 0.330360 0.012681 0.484415
O O13 0.459557 0.750000 0.500000
O O14 0.464000 0.903612 0.250000
O O15 0.500000 0.000000 0.500000
O O16 0.857544 0.250000 0.500000
O O17 0.850679 0.402371 0.250000
O O18 0.714481 0.400906 0.250000
O O19 0.700924 0.250000 0.000000
#
# Coordination Sequence:
#
# PCOD8233952 Si02
#       6
#     8   8   8   8   8   8
#     4  10  21  37  59  85 116 152 193 238 288 343
#     4  12  25  41  61  87 118 153 192 240 291 345
#     4  10  23  40  61  88 120 156 197 243 294 348
#     4  11  23  40  61  89 121 158 201 247 297 352
#     4  10  21  39  61  86 115 152 194 238 287 344
#     4  11  23  41  63  89 119 155 196 240 289 346
#
# _framework density 19.832187000000001
#
# number of rings (size 3 to 8) (size 9 to 14) (size 15 to 20)
#    0.000    1.333    0.000    5.500    0.000    8.000 
#    0.000    0.000    0.000    0.000    0.000    0.000 
#    0.000    0.000    0.000    0.000    0.000    0.000 
#
# Total GULP energy -595387.617969 kJ/mol
# GULP energy per Si atom -12403.908708 kJ/mol
# Density = 1.978705 g / cm^3
# Si number density = 19.832187 Si / 1000 Ang^3
#
#
#
# Elastic Constant Matrix: (Units=GPa)
#
#
# Indices 1 2 3 4 5 6 
#
# 1 127.4494 55.6960 60.8668 0.0000 0.0000 0.0000
# 2 55.6960 131.2028 55.3340 0.0000 0.0000 0.0000
# 3 60.8668 55.3340 127.5089 0.0000 0.0000 0.0000
# 4 0.0000 0.0000 0.0000 43.2813 0.0000 0.0000
# 5 0.0000 0.0000 0.0000 0.0000 32.5682 0.0000
# 6 0.0000 0.0000 0.0000 0.0000 0.0000 43.3491
#
#
#
# Elastic Compliance Matrix: (Units=1/GPa)
#
#
# Indices 1 2 3 4 5 6 
#
# 1 0.011063 -0.003022 -0.003969 0.000000 0.000000 0.000000
# 2 -0.003022 0.010155 -0.002964 0.000000 0.000000 0.000000
# 3 -0.003969 -0.002964 0.011024 0.000000 0.000000 0.000000
# 4 0.000000 0.000000 0.000000 0.023105 0.000000 0.000000
# 5 0.000000 0.000000 0.000000 0.000000 0.030705 0.000000
# 6 0.000000 0.000000 0.000000 0.000000 0.000000 0.023069
#
#
# Mechanical properties :
#
#
# Convention : Reuss Voigt Hill
#
# Bulk Modulus (GPa) = 81.10344 81.10610 81.10477
# Shear Modulus (GPa) = 37.55441 38.12400 37.83921
#
# Velocity S-wave (km/s) = 4.35628 4.38919 4.37277
# Velocity P-wave (km/s) = 8.14166 8.16527 8.15347
#
# Compressibility (1/GPa) = 0.01232993
#
# Stress axis : x y z
#
# Youngs Moduli (GPa) = 90.39509 98.47553 90.71369
#
# Poissons Ratio (x) = 0.29760 0.36007
# Poissons Ratio (y) = 0.27318 0.26889
# Poissons Ratio (z) = 0.35880 0.29190
#
# Static dielectric constant tensor:
#      x y z
#    x 3.845580 0.000000 0.000000 
#    y 0.000000 3.829640 0.000000 
#    z 0.000000 0.000000 3.790670 
# 
# 
# High freq. dielectric constant tensor:
#      x y z
#    x 1.792930 0.000000 0.000000 
#    y 0.000000 1.781220 0.000000 
#    z 0.000000 0.000000 1.788250 
# 
# From -- ./inp_files/10008.got.cif
#   From: 2010.03.12/outbox.cif.g09.slc.cpg/sg57_6_cif.got.tgz:10008.got - 2010.04.16 15:48:40.
