data_PCOD8233769
_publ_section_title
;
Structure prediction by ZEFSAII (Michael W. Deem and Ramdas Pophale) SiO2 
 PCOD8233769
Probable space group: P B C M
;
_chemical_formula_sum "Si O2"
_cell_formula_units_Z 40
_cell_length_a 9.139990
_cell_length_b 9.571867
_cell_length_c 23.767080
_cell_angle_alpha 90.000000
_cell_angle_beta 90.000000
_cell_angle_gamma 90.000000
_cell_volume 2079.305030
_symmetry_space_group_name_H-M "P B C M"
_symmetry_group_IT_number 57
_symmetry_cell_setting 'orthorhombic'
loop_
_space_group_symop_operation_xyz
x,y,z
-x,-y,1/2+z
x,1/2-y,-z
-x,1/2+y,1/2-z
-x,-y,-z
x,y,1/2-z
-x,1/2+y,z
x,1/2-y,1/2+z
loop_
_atom_site_type_symbol
_atom_site_label
_atom_site_fract_x
_atom_site_fract_y
_atom_site_fract_z
Si Si1 0.400535 0.613347 0.469686
Si Si2 0.396829 0.328446 0.872414
Si Si3 0.847550 0.476767 0.600785
Si Si4 0.605247 0.968953 0.183978
Si Si5 0.102190 0.226721 0.432209
O O1 0.339195 0.750000 0.500000
O O2 0.500000 0.500000 0.500000
O O3 0.482362 0.691708 0.419554
O O4 0.263430 0.521119 0.451632
O O5 0.450460 0.461544 0.835354
O O6 0.393764 0.192657 0.833314
O O7 0.244319 0.351152 0.905954
O O8 0.749014 0.455388 0.657092
O O9 0.923762 0.626737 0.599027
O O10 0.964439 0.357861 0.590342
O O11 0.620998 0.983671 0.250000
O O12 0.109764 0.250000 0.500000
#
# Coordination Sequence:
#
# PCOD8233769 Si02
#       5
#     8   8   8   8   8
#     4  11  20  35  56  84 117 151 188 233 286 347
#     4  10  21  35  58  85 111 146 191 235 287 351
#     4  10  23  36  54  81 113 151 190 230 282 349
#     4  10  21  40  59  80 109 147 198 255 294 331
#     4  11  21  36  55  84 120 151 181 227 287 354
#
# _framework density 19.237196999999998
#
# number of rings (size 3 to 8) (size 9 to 14) (size 15 to 20)
#    0.000    1.600    0.000    7.200    0.000    4.800 
#    0.000    5.000    0.000    0.000    0.000    0.000 
#    0.000    0.000    0.000    0.000    0.000    0.000 
#
# Total GULP energy -495536.375023 kJ/mol
# GULP energy per Si atom -12388.409376 kJ/mol
# Density = 1.919341 g / cm^3
# Si number density = 19.237197 Si / 1000 Ang^3
#
#
#
# Elastic Constant Matrix: (Units=GPa)
#
#
# Indices 1 2 3 4 5 6 
#
# 1 121.1228 52.2362 46.9422 0.0000 0.0000 0.0000
# 2 52.2362 80.4290 32.7355 0.0000 0.0000 0.0000
# 3 46.9422 32.7355 120.1940 0.0000 0.0000 0.0000
# 4 0.0000 0.0000 0.0000 28.2381 0.0000 0.0000
# 5 0.0000 0.0000 0.0000 0.0000 20.5059 0.0000
# 6 0.0000 0.0000 0.0000 0.0000 0.0000 41.0099
#
#
#
# Elastic Compliance Matrix: (Units=1/GPa)
#
#
# Indices 1 2 3 4 5 6 
#
# 1 0.012342 -0.006809 -0.002966 0.000000 0.000000 0.000000
# 2 -0.006809 0.017739 -0.002172 0.000000 0.000000 0.000000
# 3 -0.002966 -0.002172 0.010070 0.000000 0.000000 0.000000
# 4 0.000000 0.000000 0.000000 0.035413 0.000000 0.000000
# 5 0.000000 0.000000 0.000000 0.000000 0.048766 0.000000
# 6 0.000000 0.000000 0.000000 0.000000 0.000000 0.024384
#
#
# Mechanical properties :
#
#
# Convention : Reuss Voigt Hill
#
# Bulk Modulus (GPa) = 61.50915 65.06376 63.28645
# Shear Modulus (GPa) = 28.08554 30.60623 29.34589
#
# Velocity S-wave (km/s) = 3.82509 3.99305 3.90997
# Velocity P-wave (km/s) = 7.17996 7.42661 7.30433
#
# Compressibility (1/GPa) = 0.01625774
#
# Stress axis : x y z
#
# Youngs Moduli (GPa) = 81.02558 56.37168 99.30651
#
# Poissons Ratio (x) = 0.38381 0.29452
# Poissons Ratio (y) = 0.55166 0.21573
# Poissons Ratio (z) = 0.24031 0.12246
#
# Static dielectric constant tensor:
#      x y z
#    x 3.424100 0.000000 0.000000 
#    y 0.000000 3.831140 0.000000 
#    z 0.000000 0.000000 3.483180 
# 
# 
# High freq. dielectric constant tensor:
#      x y z
#    x 1.748610 0.000000 0.000000 
#    y 0.000000 1.759290 0.000000 
#    z 0.000000 0.000000 1.737220 
# 
# From -- ./inp_files/26500.got.cif
#   From: 2010.03.12/outbox.cif.g09.slc.cpg/sg57_14_cif.got.tgz:26500.got - 2010.04.16 15:48:40.
