data_PCOD8233937
_publ_section_title
;
Structure prediction by ZEFSAII (Michael W. Deem and Ramdas Pophale) SiO2 
 PCOD8233937
Probable space group: P B C M
;
_chemical_formula_sum "Si O2"
_cell_formula_units_Z 56
_cell_length_a 16.126516
_cell_length_b 19.258301
_cell_length_c 8.865086
_cell_angle_alpha 90.000000
_cell_angle_beta 90.000000
_cell_angle_gamma 90.000000
_cell_volume 2753.223546
_symmetry_space_group_name_H-M "P B C M"
_symmetry_group_IT_number 57
_symmetry_cell_setting 'orthorhombic'
loop_
_space_group_symop_operation_xyz
x,y,z
-x,-y,1/2+z
x,1/2-y,-z
-x,1/2+y,1/2-z
-x,-y,-z
x,y,1/2-z
-x,1/2+y,z
x,1/2-y,1/2+z
loop_
_atom_site_type_symbol
_atom_site_label
_atom_site_fract_x
_atom_site_fract_y
_atom_site_fract_z
Si Si1 0.005038 0.677253 0.577590
Si Si2 0.325424 0.917560 0.922284
Si Si3 0.640141 0.825847 0.072249
Si Si4 0.762580 0.943369 0.421487
Si Si5 0.931933 0.549220 0.427110
Si Si6 0.507901 0.075539 0.928206
Si Si7 0.804536 0.176556 0.922664
O O1 0.992388 0.750000 0.500000
O O2 0.974606 0.680147 0.750000
O O3 0.100111 0.653104 0.568629
O O4 0.947415 0.626723 0.482759
O O5 0.340470 0.895069 0.750000
O O6 0.311331 0.000357 0.933935
O O7 0.403610 0.893652 0.021332
O O8 0.244157 0.880858 0.985273
O O9 0.633660 0.815959 0.250000
O O10 0.723231 0.869312 0.029479
O O11 0.561074 0.869918 0.013351
O O12 0.643626 0.750000 0.000000
O O13 0.795685 0.939822 0.250000
O O14 0.837792 0.968245 0.527095
O O15 0.941351 0.542026 0.250000
O O16 0.000000 0.500000 0.500000
O O17 0.502644 0.066856 0.750000
O O18 0.500000 0.000000 0.000000
O O19 0.774401 0.180801 0.750000
O O20 0.789573 0.250000 0.000000
#
# Coordination Sequence:
#
# PCOD8233937 Si02
#       7
#     8   8   8   8   8   8   8
#     4  10  21  39  62  87 118 158 203 251 309 371
#     4  11  22  38  62  90 122 160 200 249 308 365
#     4  10  23  43  65  93 126 163 206 254 309 366
#     4  10  22  42  63  87 123 162 203 255 312 371
#     4  12  25  40  61  91 124 162 209 259 313 369
#     4  11  22  40  64  91 123 160 206 254 306 369
#     4  10  21  37  58  87 120 157 201 250 303 365
#
# _framework density 20.339794000000001
#
# number of rings (size 3 to 8) (size 9 to 14) (size 15 to 20)
#    0.000    1.429    1.429    3.857    0.000    8.000 
#    0.000    2.857    0.000    0.000    0.000    0.000 
#    0.000    0.000    0.000    0.000    0.000    0.000 
#
# Total GULP energy -694568.337857 kJ/mol
# GULP energy per Si atom -12403.006033 kJ/mol
# Density = 2.029350 g / cm^3
# Si number density = 20.339794 Si / 1000 Ang^3
#
#
#
# Elastic Constant Matrix: (Units=GPa)
#
#
# Indices 1 2 3 4 5 6 
#
# 1 94.5433 36.4452 45.0000 0.0000 0.0000 0.0000
# 2 36.4452 75.6917 37.7357 0.0000 0.0000 0.0000
# 3 45.0000 37.7357 123.2204 0.0000 0.0000 0.0000
# 4 0.0000 0.0000 0.0000 36.9624 0.0000 0.0000
# 5 0.0000 0.0000 0.0000 0.0000 35.4148 0.0000
# 6 0.0000 0.0000 0.0000 0.0000 0.0000 14.8450
#
#
#
# Elastic Compliance Matrix: (Units=1/GPa)
#
#
# Indices 1 2 3 4 5 6 
#
# 1 0.014265 -0.005041 -0.003666 0.000000 0.000000 0.000000
# 2 -0.005041 0.017373 -0.003480 0.000000 0.000000 0.000000
# 3 -0.003666 -0.003480 0.010520 0.000000 0.000000 0.000000
# 4 0.000000 0.000000 0.000000 0.027055 0.000000 0.000000
# 5 0.000000 0.000000 0.000000 0.000000 0.028237 0.000000
# 6 0.000000 0.000000 0.000000 0.000000 0.000000 0.067363
#
#
# Mechanical properties :
#
#
# Convention : Reuss Voigt Hill
#
# Bulk Modulus (GPa) = 56.22502 59.09080 57.65791
# Shear Modulus (GPa) = 25.62599 29.06273 27.34436
#
# Velocity S-wave (km/s) = 3.55335 3.78413 3.67055
# Velocity P-wave (km/s) = 6.67367 6.94318 6.80976
#
# Compressibility (1/GPa) = 0.01778568
#
# Stress axis : x y z
#
# Youngs Moduli (GPa) = 70.10028 57.55911 95.05785
#
# Poissons Ratio (x) = 0.29016 0.34847
# Poissons Ratio (y) = 0.35338 0.33076
# Poissons Ratio (z) = 0.25698 0.20028
#
# Static dielectric constant tensor:
#      x y z
#    x 3.803910 0.000000 0.000000 
#    y 0.000000 3.660440 0.000000 
#    z 0.000000 0.000000 3.702750 
# 
# 
# High freq. dielectric constant tensor:
#      x y z
#    x 1.799580 0.000000 0.000000 
#    y 0.000000 1.798400 0.000000 
#    z 0.000000 0.000000 1.799110 
# 
# From -- ./inp_files/5235.got.cif
#   From: 2010.03.12/outbox.cif.g09.slc.cpg/sg57_3_cif.got.tgz:5235.got - 2010.04.16 15:48:40.
