data_PCOD8233205
_publ_section_title
;
Structure prediction by ZEFSAII (Michael W. Deem and Ramdas Pophale) SiO2 
 PCOD8233205
Probable space group: P B C M
;
_chemical_formula_sum "Si O2"
_cell_formula_units_Z 64
_cell_length_a 17.022412
_cell_length_b 11.279759
_cell_length_c 17.017075
_cell_angle_alpha 90.000000
_cell_angle_beta 90.000000
_cell_angle_gamma 90.000000
_cell_volume 3267.426533
_symmetry_space_group_name_H-M "P B C M"
_symmetry_group_IT_number 57
_symmetry_cell_setting 'orthorhombic'
loop_
_space_group_symop_operation_xyz
x,y,z
-x,-y,1/2+z
x,1/2-y,-z
-x,1/2+y,1/2-z
-x,-y,-z
x,y,1/2-z
-x,1/2+y,z
x,1/2-y,1/2+z
loop_
_atom_site_type_symbol
_atom_site_label
_atom_site_fract_x
_atom_site_fract_y
_atom_site_fract_z
Si Si1 0.400679 0.621724 0.541014
Si Si2 0.194851 0.879572 0.837802
Si Si3 0.951369 0.977638 0.344056
Si Si4 0.418541 0.127168 0.546997
Si Si5 0.286864 0.390047 0.161730
Si Si6 0.738814 0.139140 0.655792
Si Si7 0.857679 0.726267 0.590326
Si Si8 0.876476 0.972874 0.659142
O O1 0.382428 0.750000 0.500000
O O2 0.390288 0.498163 0.492135
O O3 0.490314 0.623461 0.569613
O O4 0.344015 0.608282 0.615933
O O5 0.171019 0.841906 0.750000
O O6 0.229770 0.763773 0.878997
O O7 0.114422 0.929769 0.877336
O O8 0.266574 0.971460 0.836750
O O9 0.947716 0.976826 0.250000
O O10 0.929436 0.848861 0.375507
O O11 0.037568 0.004363 0.378837
O O12 0.399867 0.250000 0.500000
O O13 0.373761 0.134153 0.629964
O O14 0.279651 0.337037 0.250000
O O15 0.226364 0.333774 0.100404
O O16 0.726315 0.135562 0.750000
O O17 0.806066 0.050756 0.624123
O O18 0.874580 0.750000 0.500000
O O19 0.852773 0.840213 0.644086
O O20 0.884009 0.002581 0.750000
#
# Coordination Sequence:
#
# PCOD8233205 Si02
#       8
#     8   8   8   8   8   8   8   8
#     4  10  22  41  61  87 120 157 193 237 298 363
#     4   8  16  33  56  83 110 145 193 238 278 338
#     4   9  19  37  61  82 110 154 199 240 288 346
#     4  10  22  39  62  88 120 154 192 238 297 362
#     4  10  20  36  61  86 112 152 200 239 286 353
#     4  10  21  36  58  87 117 149 195 246 293 342
#     4  11  23  37  56  82 119 154 190 245 293 348
#     4  10  22  37  58  85 114 150 194 245 295 345
#
# _framework density 19.58728
#
# number of rings (size 3 to 8) (size 9 to 14) (size 15 to 20)
#    0.000    2.250    0.000    3.000    5.250    1.000 
#    0.000    0.625    0.000    4.500    0.000    0.000 
#    0.000    0.000    0.000    0.000    0.000    0.000 
#
# Total GULP energy -792986.235846 kJ/mol
# GULP energy per Si atom -12390.409935 kJ/mol
# Density = 1.954270 g / cm^3
# Si number density = 19.587280 Si / 1000 Ang^3
#
#
#
# Elastic Constant Matrix: (Units=GPa)
#
#
# Indices 1 2 3 4 5 6 
#
# 1 118.1889 41.9626 42.7782 0.0000 0.0000 0.0000
# 2 41.9626 127.9681 22.3612 0.0000 0.0000 0.0000
# 3 42.7782 22.3612 39.4265 0.0000 0.0000 0.0000
# 4 0.0000 0.0000 0.0000 16.5118 0.0000 0.0000
# 5 0.0000 0.0000 0.0000 0.0000 32.3711 0.0000
# 6 0.0000 0.0000 0.0000 0.0000 0.0000 15.0588
#
#
#
# Elastic Compliance Matrix: (Units=1/GPa)
#
#
# Indices 1 2 3 4 5 6 
#
# 1 0.014481 -0.002223 -0.014451 0.000000 0.000000 0.000000
# 2 -0.002223 0.009015 -0.002701 0.000000 0.000000 0.000000
# 3 -0.014451 -0.002701 0.042575 0.000000 0.000000 0.000000
# 4 0.000000 0.000000 0.000000 0.060563 0.000000 0.000000
# 5 0.000000 0.000000 0.000000 0.000000 0.030892 0.000000
# 6 0.000000 0.000000 0.000000 0.000000 0.000000 0.066406
#
#
# Mechanical properties :
#
#
# Convention : Reuss Voigt Hill
#
# Bulk Modulus (GPa) = 36.60190 55.53193 46.06692
# Shear Modulus (GPa) = 18.39659 24.68711 21.54185
#
# Velocity S-wave (km/s) = 3.06798 3.55401 3.31990
# Velocity P-wave (km/s) = 5.59260 6.72710 6.18591
#
# Compressibility (1/GPa) = 0.02732099
#
# Stress axis : x y z
#
# Youngs Moduli (GPa) = 69.05648 110.92048 23.48796
#
# Poissons Ratio (x) = 0.24661 0.33942
# Poissons Ratio (y) = 0.15354 0.06344
# Poissons Ratio (z) = 0.99793 0.29959
#
# Static dielectric constant tensor:
#      x y z
#    x 3.731410 0.000000 0.000000 
#    y 0.000000 3.798240 0.000000 
#    z 0.000000 0.000000 3.160270 
# 
# 
# High freq. dielectric constant tensor:
#      x y z
#    x 1.772350 0.000000 0.000000 
#    y 0.000000 1.776400 0.000000 
#    z 0.000000 0.000000 1.731750 
# 
# From -- ./inp_files/19153.got.cif
#   From: 2010.03.12/outbox.cif.g09.slc.cpg/sg57_10_cif.got.tgz:19153.got - 2010.04.16 15:48:40.
