data_PCOD8233944
_publ_section_title
;
Structure prediction by ZEFSAII (Michael W. Deem and Ramdas Pophale) SiO2 
 PCOD8233944
Probable space group: P B C M
;
_chemical_formula_sum "Si O2"
_cell_formula_units_Z 64
_cell_length_a 25.675566
_cell_length_b 14.608101
_cell_length_c 8.686036
_cell_angle_alpha 90.000000
_cell_angle_beta 90.000000
_cell_angle_gamma 90.000000
_cell_volume 3257.882479
_symmetry_space_group_name_H-M "P B C M"
_symmetry_group_IT_number 57
_symmetry_cell_setting 'orthorhombic'
loop_
_space_group_symop_operation_xyz
x,y,z
-x,-y,1/2+z
x,1/2-y,-z
-x,1/2+y,1/2-z
-x,-y,-z
x,y,1/2-z
-x,1/2+y,z
x,1/2-y,1/2+z
loop_
_atom_site_type_symbol
_atom_site_label
_atom_site_fract_x
_atom_site_fract_y
_atom_site_fract_z
Si Si1 0.639000 0.647731 0.432559
Si Si2 0.117341 0.344642 0.069328
Si Si3 0.714706 0.996295 0.429458
Si Si4 0.897381 0.160381 0.069943
Si Si5 0.000922 0.098976 0.570941
Si Si6 0.826211 0.009077 0.929418
Si Si7 0.369624 0.849866 0.571186
Si Si8 0.556773 0.494100 0.431096
O O1 0.632685 0.750000 0.500000
O O2 0.645855 0.654762 0.250000
O O3 0.689118 0.596356 0.503165
O O4 0.588969 0.585554 0.478026
O O5 0.129914 0.354839 0.250000
O O6 0.056381 0.356520 0.035636
O O7 0.135629 0.250000 0.000000
O O8 0.153013 0.409781 0.968106
O O9 0.725754 0.979773 0.250000
O O10 0.767020 0.018772 0.519523
O O11 0.680254 0.086325 0.457796
O O12 0.900840 0.168044 0.250000
O O13 0.869696 0.250000 0.000000
O O14 0.863163 0.074514 0.026420
O O15 0.955976 0.158189 0.006185
O O16 0.989193 0.091388 0.750000
O O17 0.000000 0.000000 0.500000
O O18 0.831290 0.031510 0.750000
O O19 0.359930 0.750000 0.500000
O O20 0.381686 0.837582 0.750000
O O21 0.418397 0.900574 0.494364
O O22 0.500000 0.500000 0.500000
O O23 0.553466 0.485227 0.250000
#
# Coordination Sequence:
#
# PCOD8233944 Si02
#       8
#     8   8   8   8   8   8   8   8
#     4  10  21  38  61  89 119 157 203 249 299 354
#     4  11  24  41  62  89 120 155 195 241 293 353
#     4  10  22  41  63  87 118 154 196 247 300 355
#     4  12  25  42  63  89 121 156 198 244 294 356
#     4  11  22  38  63  90 120 157 195 238 291 353
#     4  12  25  42  64  89 120 155 196 246 301 358
#     4  10  21  38  62  89 119 158 201 247 298 354
#     4  10  21  37  58  87 126 165 205 251 297 351
#
# _framework density 19.644660999999999
#
# number of rings (size 3 to 8) (size 9 to 14) (size 15 to 20)
#    0.000    1.250    1.250    4.875    0.000    7.000 
#    0.000    5.000    0.000    0.000    0.000    0.000 
#    0.000    0.000    0.000    0.000    0.000    0.000 
#
# Total GULP energy -793750.650282 kJ/mol
# GULP energy per Si atom -12402.353911 kJ/mol
# Density = 1.959995 g / cm^3
# Si number density = 19.644661 Si / 1000 Ang^3
#
#
#
# Elastic Constant Matrix: (Units=GPa)
#
#
# Indices 1 2 3 4 5 6 
#
# 1 96.7911 22.5090 41.2210 0.0000 0.0000 0.0000
# 2 22.5090 127.2290 38.4153 0.0000 0.0000 0.0000
# 3 41.2210 38.4153 119.3142 0.0000 0.0000 0.0000
# 4 0.0000 0.0000 0.0000 39.0635 0.0000 0.0000
# 5 0.0000 0.0000 0.0000 0.0000 61.4742 0.0000
# 6 0.0000 0.0000 0.0000 0.0000 0.0000 48.9450
#
#
#
# Elastic Compliance Matrix: (Units=1/GPa)
#
#
# Indices 1 2 3 4 5 6 
#
# 1 0.012224 -0.000983 -0.003907 0.000000 0.000000 0.000000
# 2 -0.000983 0.008785 -0.002489 0.000000 0.000000 0.000000
# 3 -0.003907 -0.002489 0.010532 0.000000 0.000000 0.000000
# 4 0.000000 0.000000 0.000000 0.025599 0.000000 0.000000
# 5 0.000000 0.000000 0.000000 0.000000 0.016267 0.000000
# 6 0.000000 0.000000 0.000000 0.000000 0.000000 0.020431
#
#
# Mechanical properties :
#
#
# Convention : Reuss Voigt Hill
#
# Bulk Modulus (GPa) = 59.57996 60.84719 60.21358
# Shear Modulus (GPa) = 43.78635 45.97580 44.88108
#
# Velocity S-wave (km/s) = 4.72626 4.84299 4.78498
# Velocity P-wave (km/s) = 7.75745 7.89391 7.82598
#
# Compressibility (1/GPa) = 0.01678417
#
# Stress axis : x y z
#
# Youngs Moduli (GPa) = 81.80709 113.82695 94.94633
#
# Poissons Ratio (x) = 0.11190 0.37092
# Poissons Ratio (y) = 0.08042 0.23632
# Poissons Ratio (z) = 0.31959 0.28331
#
# Static dielectric constant tensor:
#      x y z
#    x 3.605990 0.000000 0.000000 
#    y 0.000000 3.630190 0.000000 
#    z 0.000000 0.000000 3.717240 
# 
# 
# High freq. dielectric constant tensor:
#      x y z
#    x 1.763490 0.000000 0.000000 
#    y 0.000000 1.778950 0.000000 
#    z 0.000000 0.000000 1.784960 
# 
# From -- ./inp_files/9422.got.cif
#   From: 2010.03.12/outbox.cif.g09.slc.cpg/sg57_5_cif.got.tgz:9422.got - 2010.04.16 15:48:40.
