data_PCOD8233200
_publ_section_title
;
Structure prediction by ZEFSAII (Michael W. Deem and Ramdas Pophale) SiO2 
 PCOD8233200
Probable space group: P B C M
;
_chemical_formula_sum "Si O2"
_cell_formula_units_Z 64
_cell_length_a 23.749768
_cell_length_b 15.038522
_cell_length_c 9.001917
_cell_angle_alpha 90.000000
_cell_angle_beta 90.000000
_cell_angle_gamma 90.000000
_cell_volume 3215.137355
_symmetry_space_group_name_H-M "P B C M"
_symmetry_group_IT_number 57
_symmetry_cell_setting 'orthorhombic'
loop_
_space_group_symop_operation_xyz
x,y,z
-x,-y,1/2+z
x,1/2-y,-z
-x,1/2+y,1/2-z
-x,-y,-z
x,y,1/2-z
-x,1/2+y,z
x,1/2-y,1/2+z
loop_
_atom_site_type_symbol
_atom_site_label
_atom_site_fract_x
_atom_site_fract_y
_atom_site_fract_z
Si Si1 0.104003 0.415902 0.416404
Si Si2 0.504847 0.348886 0.073752
Si Si3 0.218997 0.161695 0.575274
Si Si4 0.879889 0.118330 0.083132
Si Si5 0.422543 0.507053 0.078440
Si Si6 0.708470 0.495309 0.921995
Si Si7 0.230800 0.663648 0.575467
Si Si8 0.995056 0.660128 0.074710
O O1 0.085960 0.387283 0.250000
O O2 0.154854 0.355730 0.479015
O O3 0.129656 0.513717 0.413368
O O4 0.049030 0.414315 0.520739
O O5 0.510466 0.334342 0.250000
O O6 0.451876 0.413149 0.032662
O O7 0.499954 0.250000 0.000000
O O8 0.558129 0.405994 0.014636
O O9 0.242284 0.250000 0.500000
O O10 0.219730 0.173432 0.750000
O O11 0.261158 0.084696 0.525453
O O12 0.872047 0.157083 0.250000
O O13 0.941955 0.139566 0.019641
O O14 0.834502 0.159816 0.973340
O O15 0.435688 0.527917 0.250000
O O16 0.357149 0.492964 0.047613
O O17 0.721599 0.473375 0.750000
O O18 0.732684 0.418688 0.024091
O O19 0.258580 0.750000 0.500000
O O20 0.233866 0.672618 0.750000
O O21 0.992816 0.665737 0.250000
O O22 0.973034 0.750000 0.000000
#
# Coordination Sequence:
#
# PCOD8233200 Si02
#       8
#     8   8   8   8   8   8   8   8
#     4  10  20  37  59  81 110 147 187 236 298 354
#     4  10  20  36  60  92 128 164 203 245 295 348
#     4  10  21  37  59  84 115 154 193 241 294 352
#     4  10  21  40  61  82 111 147 188 240 299 356
#     4   9  20  38  62  89 119 162 207 249 295 344
#     4  10  21  42  64  85 120 160 202 249 298 347
#     4  12  25  40  62  89 117 154 198 245 299 360
#     4  11  23  36  54  80 110 144 187 237 292 356
#
# _framework density 19.905836999999998
#
# number of rings (size 3 to 8) (size 9 to 14) (size 15 to 20)
#    0.000    1.750    1.250    3.000    0.000    6.500 
#    0.000    0.000    0.000    0.000    0.000    0.000 
#    0.000    0.000    0.000    0.000    0.000    0.000 
#
# Total GULP energy -793585.665257 kJ/mol
# GULP energy per Si atom -12399.776020 kJ/mol
# Density = 1.986053 g / cm^3
# Si number density = 19.905837 Si / 1000 Ang^3
#
#
#
# Elastic Constant Matrix: (Units=GPa)
#
#
# Indices 1 2 3 4 5 6 
#
# 1 105.8481 48.9336 46.5477 0.0000 0.0000 0.0000
# 2 48.9336 136.6287 57.7025 0.0000 0.0000 0.0000
# 3 46.5477 57.7025 93.0496 0.0000 0.0000 0.0000
# 4 0.0000 0.0000 0.0000 33.1454 0.0000 0.0000
# 5 0.0000 0.0000 0.0000 0.0000 42.1496 0.0000
# 6 0.0000 0.0000 0.0000 0.0000 0.0000 146.2821
#
#
#
# Elastic Compliance Matrix: (Units=1/GPa)
#
#
# Indices 1 2 3 4 5 6 
#
# 1 0.012728 -0.002533 -0.004796 0.000000 0.000000 0.000000
# 2 -0.002533 0.010420 -0.005195 0.000000 0.000000 0.000000
# 3 -0.004796 -0.005195 0.016368 0.000000 0.000000 0.000000
# 4 0.000000 0.000000 0.000000 0.030170 0.000000 0.000000
# 5 0.000000 0.000000 0.000000 0.000000 0.023725 0.000000
# 6 0.000000 0.000000 0.000000 0.000000 0.000000 0.006836
#
#
# Mechanical properties :
#
#
# Convention : Reuss Voigt Hill
#
# Bulk Modulus (GPa) = 69.11931 71.32156 70.22043
# Shear Modulus (GPa) = 38.42695 56.47159 47.44927
#
# Velocity S-wave (km/s) = 4.39844 5.33207 4.88760
# Velocity P-wave (km/s) = 7.78419 8.59158 8.19783
#
# Compressibility (1/GPa) = 0.01446774
#
# Stress axis : x y z
#
# Youngs Moduli (GPa) = 78.56922 95.96805 61.09591
#
# Poissons Ratio (x) = 0.24307 0.29303
# Poissons Ratio (y) = 0.19900 0.31738
# Poissons Ratio (z) = 0.37684 0.49853
#
# Static dielectric constant tensor:
#      x y z
#    x 3.616920 0.000000 0.000000 
#    y 0.000000 3.896120 0.000000 
#    z 0.000000 0.000000 3.449880 
# 
# 
# High freq. dielectric constant tensor:
#      x y z
#    x 1.774380 0.000000 0.000000 
#    y 0.000000 1.786620 0.000000 
#    z 0.000000 0.000000 1.769890 
# 
# From -- ./inp_files/9400.got.cif
#   From: 2010.03.12/outbox.cif.g09.slc.cpg/sg57_5_cif.got.tgz:9400.got - 2010.04.16 15:48:40.
