data_PCOD8233182
_publ_section_title
;
Structure prediction by ZEFSAII (Michael W. Deem and Ramdas Pophale) SiO2 
 PCOD8233182
Probable space group: P B C M
;
_chemical_formula_sum "Si O2"
_cell_formula_units_Z 36
_cell_length_a 15.909068
_cell_length_b 5.042064
_cell_length_c 21.448719
_cell_angle_alpha 90.000000
_cell_angle_beta 90.000000
_cell_angle_gamma 90.000000
_cell_volume 1720.499108
_symmetry_space_group_name_H-M "P B C M"
_symmetry_group_IT_number 57
_symmetry_cell_setting 'orthorhombic'
loop_
_space_group_symop_operation_xyz
x,y,z
-x,-y,1/2+z
x,1/2-y,-z
-x,1/2+y,1/2-z
-x,-y,-z
x,y,1/2-z
-x,1/2+y,z
x,1/2-y,1/2+z
loop_
_atom_site_type_symbol
_atom_site_label
_atom_site_fract_x
_atom_site_fract_y
_atom_site_fract_z
Si Si1 0.555571 0.043413 0.677687
Si Si2 0.264309 0.889073 0.128007
Si Si3 0.810237 0.250000 0.000000
Si Si4 0.944733 0.939870 0.069927
Si Si5 0.826718 0.601117 0.677799
O O1 0.582458 0.043383 0.750000
O O2 0.499466 0.292281 0.659901
O O3 0.638825 0.037569 0.636333
O O4 0.245480 0.613568 0.163271
O O5 0.204677 0.110970 0.157389
O O6 0.247882 0.867771 0.054352
O O7 0.866550 0.007191 0.025383
O O8 0.021955 0.142202 0.056954
O O9 0.912647 0.968447 0.140962
O O10 0.849604 0.601404 0.750000
#
# Coordination Sequence:
#
# PCOD8233182 Si02
#       5
#     8   8   4   8   8
#     4  10  20  36  60  89 119 152 193 243 300 359
#     4  11  23  40  62  89 122 160 202 248 294 361
#     4  10  24  42  62  88 120 166 212 248 296 358
#     4  11  23  39  61  86 116 155 201 252 296 348
#     4  11  23  39  61  89 120 158 200 249 312 364
#
# _framework density 20.924160000000001
#
# number of rings (size 3 to 8) (size 9 to 14) (size 15 to 20)
#    0.000    1.333    0.000    6.667    0.000    9.778 
#    0.000    1.111    0.000    0.000    0.000    0.000 
#    0.000    0.000    0.000    0.000    0.000    0.000 
#
# Total GULP energy -446627.232926 kJ/mol
# GULP energy per Si atom -12406.312026 kJ/mol
# Density = 2.087654 g / cm^3
# Si number density = 20.924160 Si / 1000 Ang^3
#
#
#
# Elastic Constant Matrix: (Units=GPa)
#
#
# Indices 1 2 3 4 5 6 
#
# 1 121.4982 29.8270 56.7887 0.0000 0.0000 0.0000
# 2 29.8270 113.3522 36.2015 0.0000 0.0000 0.0000
# 3 56.7887 36.2015 150.8176 0.0000 0.0000 0.0000
# 4 0.0000 0.0000 0.0000 32.4082 0.0000 0.0000
# 5 0.0000 0.0000 0.0000 0.0000 34.4730 0.0000
# 6 0.0000 0.0000 0.0000 0.0000 0.0000 -317.9432
#
#
#
# Elastic Compliance Matrix: (Units=1/GPa)
#
#
# Indices 1 2 3 4 5 6 
#
# 1 0.010245 -0.001585 -0.003477 0.000000 0.000000 0.000000
# 2 -0.001585 0.009800 -0.001755 0.000000 0.000000 0.000000
# 3 -0.003477 -0.001755 0.008361 0.000000 0.000000 0.000000
# 4 0.000000 0.000000 0.000000 0.030856 0.000000 0.000000
# 5 0.000000 0.000000 0.000000 0.000000 0.029008 0.000000
# 6 0.000000 0.000000 0.000000 0.000000 0.000000 -0.003145
#
#
# Mechanical properties :
#
#
# Convention : Reuss Voigt Hill
#
# Bulk Modulus (GPa) = 67.70318 70.14473 68.92396
# Shear Modulus (GPa) = 48.22329 -32.68901 7.76714
#
# Velocity S-wave (km/s) = 4.80591 -3.95683 1.92876
# Velocity P-wave (km/s) = 7.95125 3.56661 6.16210
#
# Compressibility (1/GPa) = 0.01477035
#
# Stress axis : x y z
#
# Youngs Moduli (GPa) = 97.60880 102.04256 119.60091
#
# Poissons Ratio (x) = 0.16177 0.41586
# Poissons Ratio (y) = 0.15474 0.20994
# Poissons Ratio (z) = 0.33940 0.17912
#
# Static dielectric constant tensor:
#      x y z
#    x 3.706000 0.000000 0.000000 
#    y 0.000000 3.931300 0.000000 
#    z 0.000000 0.000000 3.934250 
# 
# 
# High freq. dielectric constant tensor:
#      x y z
#    x 1.809680 0.000000 0.000000 
#    y 0.000000 1.840320 0.000000 
#    z 0.000000 0.000000 1.821710 
# 
# From -- ./inp_files/25199.got.cif
#   From: 2010.03.12/outbox.cif.g09.slc.cpg/sg57_13_cif.got.tgz:25199.got - 2010.04.16 15:48:40.
