data_PCOD8233508
_publ_section_title
;
Structure prediction by ZEFSAII (Michael W. Deem and Ramdas Pophale) SiO2 
 PCOD8233508
Probable space group: P B C M
;
_chemical_formula_sum "Si O2"
_cell_formula_units_Z 64
_cell_length_a 12.355462
_cell_length_b 18.145572
_cell_length_c 14.027185
_cell_angle_alpha 90.000000
_cell_angle_beta 90.000000
_cell_angle_gamma 90.000000
_cell_volume 3144.851748
_symmetry_space_group_name_H-M "P B C M"
_symmetry_group_IT_number 57
_symmetry_cell_setting 'orthorhombic'
loop_
_space_group_symop_operation_xyz
x,y,z
-x,-y,1/2+z
x,1/2-y,-z
-x,1/2+y,1/2-z
-x,-y,-z
x,y,1/2-z
-x,1/2+y,z
x,1/2-y,1/2+z
loop_
_atom_site_type_symbol
_atom_site_label
_atom_site_fract_x
_atom_site_fract_y
_atom_site_fract_z
Si Si1 0.767857 0.416228 0.859700
Si Si2 0.651841 0.903890 0.858288
Si Si3 0.879855 0.568159 0.858550
Si Si4 0.899471 0.138308 0.640479
Si Si5 0.946482 0.198560 0.136449
Si Si6 0.161466 0.331848 0.969859
Si Si7 0.453212 0.921360 0.525150
Si Si8 0.324147 0.578284 0.858172
O O1 0.734796 0.411010 0.750000
O O2 0.847894 0.484518 0.878441
O O3 0.835374 0.343600 0.889979
O O4 0.656372 0.427055 0.914431
O O5 0.625822 0.883370 0.750000
O O6 0.754443 0.857806 0.890743
O O7 0.546662 0.877598 0.919243
O O8 0.676765 0.990332 0.868314
O O9 0.848480 0.592272 0.750000
O O10 0.008828 0.576567 0.873433
O O11 0.821360 0.620043 0.934836
O O12 0.873730 0.152945 0.750000
O O13 0.936647 0.217194 0.597821
O O14 0.788640 0.107217 0.596187
O O15 0.970685 0.194442 0.250000
O O16 0.043341 0.160480 0.078074
O O17 0.190229 0.250000 0.000000
O O18 0.419509 0.885759 0.422929
O O19 0.500000 0.000000 0.500000
O O20 0.343862 0.603607 0.750000
#
# Coordination Sequence:
#
# PCOD8233508 Si02
#       8
#     8   8   8   8   8   8   8   8
#     4  10  22  38  61  89 116 154 203 253 305 358
#     4  10  22  40  62  87 117 156 201 255 302 353
#     4  10  21  36  55  84 121 157 192 236 290 353
#     4   9  18  35  56  85 126 160 187 231 294 358
#     4  10  22  39  59  88 124 157 192 241 300 363
#     4  12  24  38  59  84 118 160 204 238 301 364
#     4  10  20  38  61  87 119 153 202 253 305 352
#     4   9  19  35  61  90 118 155 197 242 298 356
#
# _framework density 20.350721
#
# number of rings (size 3 to 8) (size 9 to 14) (size 15 to 20)
#    0.000    2.000    1.250    2.250    3.500    1.500 
#    0.000    1.875    0.000    1.500    0.000    0.000 
#    0.000    0.000    0.000    0.000    0.000    0.000 
#
# Total GULP energy -793348.323979 kJ/mol
# GULP energy per Si atom -12396.067562 kJ/mol
# Density = 2.030440 g / cm^3
# Si number density = 20.350721 Si / 1000 Ang^3
#
#
#
# Elastic Constant Matrix: (Units=GPa)
#
#
# Indices 1 2 3 4 5 6 
#
# 1 138.7121 33.3098 57.8876 0.0000 0.0000 0.0000
# 2 33.3098 52.3269 24.1874 0.0000 0.0000 0.0000
# 3 57.8876 24.1874 89.7613 0.0000 0.0000 0.0000
# 4 0.0000 0.0000 0.0000 22.1453 0.0000 0.0000
# 5 0.0000 0.0000 0.0000 0.0000 45.1674 0.0000
# 6 0.0000 0.0000 0.0000 0.0000 0.0000 22.1028
#
#
#
# Elastic Compliance Matrix: (Units=1/GPa)
#
#
# Indices 1 2 3 4 5 6 
#
# 1 0.010578 -0.004090 -0.005720 0.000000 0.000000 0.000000
# 2 -0.004090 0.023411 -0.003671 0.000000 0.000000 0.000000
# 3 -0.005720 -0.003671 0.015819 0.000000 0.000000 0.000000
# 4 0.000000 0.000000 0.000000 0.045156 0.000000 0.000000
# 5 0.000000 0.000000 0.000000 0.000000 0.022140 0.000000
# 6 0.000000 0.000000 0.000000 0.000000 0.000000 0.045243
#
#
# Mechanical properties :
#
#
# Convention : Reuss Voigt Hill
#
# Bulk Modulus (GPa) = 43.77019 56.84109 50.30564
# Shear Modulus (GPa) = 25.39049 28.91081 27.15065
#
# Velocity S-wave (km/s) = 3.53603 3.77321 3.65655
# Velocity P-wave (km/s) = 6.18272 6.85377 6.52688
#
# Compressibility (1/GPa) = 0.02284660
#
# Stress axis : x y z
#
# Youngs Moduli (GPa) = 94.53246 42.71513 63.21656
#
# Poissons Ratio (x) = 0.17470 0.36160
# Poissons Ratio (y) = 0.38663 0.23205
# Poissons Ratio (z) = 0.54072 0.15680
#
# Static dielectric constant tensor:
#      x y z
#    x 3.829220 0.000000 0.000000 
#    y 0.000000 3.533370 0.000000 
#    z 0.000000 0.000000 4.138180 
# 
# 
# High freq. dielectric constant tensor:
#      x y z
#    x 1.791380 0.000000 0.000000 
#    y 0.000000 1.767180 0.000000 
#    z 0.000000 0.000000 1.820110 
# 
# From -- ./inp_files/18007.got.cif
#   From: 2010.03.12/outbox.cif.g09.slc.cpg/sg57_10_cif.got.tgz:18007.got - 2010.04.16 15:48:40.
