data_PCOD8233304
_publ_section_title
;
Structure prediction by ZEFSAII (Michael W. Deem and Ramdas Pophale) SiO2 
 PCOD8233304
Probable space group: P B C M
;
_chemical_formula_sum "Si O2"
_cell_formula_units_Z 40
_cell_length_a 7.649047
_cell_length_b 18.924692
_cell_length_c 13.641838
_cell_angle_alpha 90.000000
_cell_angle_beta 90.000000
_cell_angle_gamma 90.000000
_cell_volume 1974.735972
_symmetry_space_group_name_H-M "P B C M"
_symmetry_group_IT_number 57
_symmetry_cell_setting 'orthorhombic'
loop_
_space_group_symop_operation_xyz
x,y,z
-x,-y,1/2+z
x,1/2-y,-z
-x,1/2+y,1/2-z
-x,-y,-z
x,y,1/2-z
-x,1/2+y,z
x,1/2-y,1/2+z
loop_
_atom_site_type_symbol
_atom_site_label
_atom_site_fract_x
_atom_site_fract_y
_atom_site_fract_z
Si Si1 0.862538 0.460091 0.632542
Si Si2 0.843408 0.586380 0.995416
Si Si3 0.019278 0.290569 0.138751
Si Si4 0.731564 0.313434 0.642765
Si Si5 0.355051 0.203507 0.410862
O O1 0.874489 0.470089 0.750000
O O2 0.772759 0.529197 0.583566
O O3 0.754612 0.391247 0.596537
O O4 0.052991 0.452486 0.583151
O O5 0.955511 0.644806 0.935620
O O6 0.683470 0.624625 0.050005
O O7 0.990722 0.318746 0.250000
O O8 0.185911 0.237586 0.140467
O O9 0.849939 0.248670 0.094966
O O10 0.817309 0.319188 0.750000
O O11 0.526714 0.296662 0.656280
O O12 0.420086 0.250000 0.500000
#
# Coordination Sequence:
#
# PCOD8233304 Si02
#       5
#     8   8   8   8   8
#     4  10  21  37  58  84 115 152 194 237 285 343
#     4  10  21  37  58  85 115 156 191 233 292 340
#     4  10  20  37  59  85 118 150 191 237 285 344
#     4  10  21  35  58  84 113 150 188 238 288 337
#     4  10  21  33  56  86 112 150 190 239 283 338
#
# _framework density 20.255870999999999
#
# number of rings (size 3 to 8) (size 9 to 14) (size 15 to 20)
#    0.000    2.000    2.000    1.200    2.800    1.600 
#    0.000    0.000    0.000    0.000    0.000    0.000 
#    0.000    0.000    0.000    0.000    0.000    0.000 
#
# Total GULP energy -495545.052430 kJ/mol
# GULP energy per Si atom -12388.626311 kJ/mol
# Density = 2.020977 g / cm^3
# Si number density = 20.255871 Si / 1000 Ang^3
#
#
#
# Elastic Constant Matrix: (Units=GPa)
#
#
# Indices 1 2 3 4 5 6 
#
# 1 92.5660 9.4373 0.3455 0.0000 0.0000 0.0000
# 2 9.4373 80.7874 3.3376 0.0000 0.0000 0.0000
# 3 0.3455 3.3376 72.6749 0.0000 0.0000 0.0000
# 4 0.0000 0.0000 0.0000 29.0172 0.0000 0.0000
# 5 0.0000 0.0000 0.0000 0.0000 -4.7294 0.0000
# 6 0.0000 0.0000 0.0000 0.0000 0.0000 9.1471
#
#
#
# Elastic Compliance Matrix: (Units=1/GPa)
#
#
# Indices 1 2 3 4 5 6 
#
# 1 0.010933 -0.001277 0.000007 0.000000 0.000000 0.000000
# 2 -0.001277 0.012551 -0.000570 0.000000 0.000000 0.000000
# 3 0.000007 -0.000570 0.013786 0.000000 0.000000 0.000000
# 4 0.000000 0.000000 0.000000 0.034462 0.000000 0.000000
# 5 0.000000 0.000000 0.000000 0.000000 -0.211444 0.000000
# 6 0.000000 0.000000 0.000000 0.000000 0.000000 0.109325
#
#
# Mechanical properties :
#
#
# Convention : Reuss Voigt Hill
#
# Bulk Modulus (GPa) = 29.77244 30.25214 30.01229
# Shear Modulus (GPa) = -322.39883 22.21418 -150.09233
#
# Velocity S-wave (km/s) = -12.62967 3.31521 -8.61737
# Velocity P-wave (km/s) = 14.06940 5.44257 9.17406
#
# Compressibility (1/GPa) = 0.03358811
#
# Stress axis : x y z
#
# Youngs Moduli (GPa) = 91.46355 79.67522 72.53697
#
# Poissons Ratio (x) = 0.10178 -0.00048
# Poissons Ratio (y) = 0.11684 0.04137
# Poissons Ratio (z) = -0.00061 0.04544
#
# Static dielectric constant tensor:
#      x y z
#    x 3.259970 0.000000 0.000000 
#    y 0.000000 3.858560 0.000000 
#    z 0.000000 0.000000 3.675510 
# 
# 
# High freq. dielectric constant tensor:
#      x y z
#    x 1.761400 0.000000 0.000000 
#    y 0.000000 1.794050 0.000000 
#    z 0.000000 0.000000 1.801740 
# 
# From -- ./inp_files/16108.got.cif
#   From: 2010.03.12/outbox.cif.g09.slc.cpg/sg57_9_cif.got.tgz:16108.got - 2010.04.16 15:48:40.
