data_PCOD8233708
_publ_section_title
;
Structure prediction by ZEFSAII (Michael W. Deem and Ramdas Pophale) SiO2 
 PCOD8233708
Probable space group: P B C M
;
_chemical_formula_sum "Si O2"
_cell_formula_units_Z 64
_cell_length_a 14.308923
_cell_length_b 11.990623
_cell_length_c 17.565531
_cell_angle_alpha 90.000000
_cell_angle_beta 90.000000
_cell_angle_gamma 90.000000
_cell_volume 3013.769115
_symmetry_space_group_name_H-M "P B C M"
_symmetry_group_IT_number 57
_symmetry_cell_setting 'orthorhombic'
loop_
_space_group_symop_operation_xyz
x,y,z
-x,-y,1/2+z
x,1/2-y,-z
-x,1/2+y,1/2-z
-x,-y,-z
x,y,1/2-z
-x,1/2+y,z
x,1/2-y,1/2+z
loop_
_atom_site_type_symbol
_atom_site_label
_atom_site_fract_x
_atom_site_fract_y
_atom_site_fract_z
Si Si1 0.379325 0.836042 0.396600
Si Si2 0.360123 0.908366 0.559763
Si Si3 0.180519 0.637168 0.662834
Si Si4 0.830872 0.521911 0.563700
Si Si5 0.722649 0.737469 0.588151
Si Si6 0.429703 0.106208 0.836341
Si Si7 0.874129 0.586578 0.101142
Si Si8 0.936556 0.151912 0.340779
O O1 0.409836 0.884700 0.478885
O O2 0.366223 0.703497 0.391447
O O3 0.279643 0.887535 0.375878
O O4 0.460280 0.868021 0.337637
O O5 0.252815 0.937900 0.542769
O O6 0.410167 0.004840 0.606804
O O7 0.198553 0.663080 0.750000
O O8 0.121002 0.524898 0.651713
O O9 0.123504 0.742592 0.628822
O O10 0.791136 0.633288 0.602387
O O11 0.886826 0.554315 0.487418
O O12 0.897707 0.463182 0.624567
O O13 0.693671 0.750000 0.500000
O O14 0.628400 0.716002 0.636672
O O15 0.776078 0.848693 0.615102
O O16 0.401307 0.075182 0.750000
O O17 0.958275 0.666677 0.127782
O O18 0.935701 0.144020 0.250000
#
# Coordination Sequence:
#
# PCOD8233708 Si02
#       8
#     8   8   8   8   8   8   8   8
#     4  11  22  42  68  97 131 176 220 275 335 393
#     4  10  22  41  68  95 129 173 224 275 330 392
#     4  11  24  41  64  96 134 171 218 275 333 396
#     4  10  20  43  67  94 122 170 219 270 323 391
#     4   9  23  43  66  93 128 172 220 271 327 394
#     4  11  25  41  66 101 135 177 224 272 337 400
#     4  11  23  43  66  95 133 168 225 271 325 396
#     4  11  25  41  62  95 132 171 213 270 337 395
#
# _framework density 21.235866999999999
#
# number of rings (size 3 to 8) (size 9 to 14) (size 15 to 20)
#    0.000    1.500    2.500    1.500    3.500    5.500 
#    2.250    0.000    0.000    0.000    0.000    0.000 
#    0.000    0.000    0.000    0.000    0.000    0.000 
#
# Total GULP energy -793709.262835 kJ/mol
# GULP energy per Si atom -12401.707232 kJ/mol
# Density = 2.118753 g / cm^3
# Si number density = 21.235867 Si / 1000 Ang^3
#
#
#
# Elastic Constant Matrix: (Units=GPa)
#
#
# Indices 1 2 3 4 5 6 
#
# 1 115.3177 39.0746 43.0810 0.0000 0.0000 0.0000
# 2 39.0746 104.6224 39.5591 0.0000 0.0000 0.0000
# 3 43.0810 39.5591 85.2100 0.0000 0.0000 0.0000
# 4 0.0000 0.0000 0.0000 26.9445 0.0000 0.0000
# 5 0.0000 0.0000 0.0000 0.0000 29.4426 0.0000
# 6 0.0000 0.0000 0.0000 0.0000 0.0000 25.5449
#
#
#
# Elastic Compliance Matrix: (Units=1/GPa)
#
#
# Indices 1 2 3 4 5 6 
#
# 1 0.011196 -0.002476 -0.004511 0.000000 0.000000 0.000000
# 2 -0.002476 0.012141 -0.004385 0.000000 0.000000 0.000000
# 3 -0.004511 -0.004385 0.016052 0.000000 0.000000 0.000000
# 4 0.000000 0.000000 0.000000 0.037113 0.000000 0.000000
# 5 0.000000 0.000000 0.000000 0.000000 0.033964 0.000000
# 6 0.000000 0.000000 0.000000 0.000000 0.000000 0.039147
#
#
# Mechanical properties :
#
#
# Convention : Reuss Voigt Hill
#
# Bulk Modulus (GPa) = 60.07591 60.95328 60.51459
# Shear Modulus (GPa) = 28.10495 28.61545 28.36020
#
# Velocity S-wave (km/s) = 3.64189 3.67482 3.65839
# Velocity P-wave (km/s) = 6.78497 6.83894 6.81200
#
# Compressibility (1/GPa) = 0.01664561
#
# Stress axis : x y z
#
# Youngs Moduli (GPa) = 89.31875 82.36729 62.29729
#
# Poissons Ratio (x) = 0.20392 0.28103
# Poissons Ratio (y) = 0.22113 0.27315
# Poissons Ratio (z) = 0.40293 0.36115
#
# Static dielectric constant tensor:
#      x y z
#    x 3.791250 0.000000 0.000000 
#    y 0.000000 3.866800 0.000000 
#    z 0.000000 0.000000 3.624850 
# 
# 
# High freq. dielectric constant tensor:
#      x y z
#    x 1.831430 0.000000 0.000000 
#    y 0.000000 1.838040 0.000000 
#    z 0.000000 0.000000 1.823660 
# 
# From -- ./inp_files/22698.got.cif
#   From: 2010.03.12/outbox.cif.g09.slc.cpg/sg57_12_cif.got.tgz:22698.got - 2010.04.16 15:48:40.
