data_PCOD8233091
_publ_section_title
;
Structure prediction by ZEFSAII (Michael W. Deem and Ramdas Pophale) SiO2 
 PCOD8233091
Probable space group: P B C M
;
_chemical_formula_sum "Si O2"
_cell_formula_units_Z 48
_cell_length_a 15.055301
_cell_length_b 18.963544
_cell_length_c 8.655742
_cell_angle_alpha 90.000000
_cell_angle_beta 90.000000
_cell_angle_gamma 90.000000
_cell_volume 2471.230466
_symmetry_space_group_name_H-M "P B C M"
_symmetry_group_IT_number 57
_symmetry_cell_setting 'orthorhombic'
loop_
_space_group_symop_operation_xyz
x,y,z
-x,-y,1/2+z
x,1/2-y,-z
-x,1/2+y,1/2-z
-x,-y,-z
x,y,1/2-z
-x,1/2+y,z
x,1/2-y,1/2+z
loop_
_atom_site_type_symbol
_atom_site_label
_atom_site_fract_x
_atom_site_fract_y
_atom_site_fract_z
Si Si1 0.905814 0.324725 0.932422
Si Si2 0.753916 0.083253 0.930563
Si Si3 0.756799 0.919062 0.929765
Si Si4 0.904297 0.675575 0.568370
Si Si5 0.603423 0.175156 0.433541
Si Si6 0.597273 0.677044 0.069237
O O1 0.911581 0.318244 0.750000
O O2 0.873874 0.250000 0.000000
O O3 0.836324 0.384232 0.978623
O O4 0.001436 0.346593 0.997528
O O5 0.764401 0.098911 0.750000
O O6 0.752480 0.000934 0.967856
O O7 0.661788 0.114072 0.991866
O O8 0.775851 0.904356 0.750000
O O9 0.662708 0.885641 0.981349
O O10 0.834872 0.885255 0.029620
O O11 0.870977 0.750000 0.500000
O O12 0.915193 0.683829 0.750000
O O13 0.635951 0.250000 0.500000
O O14 0.615005 0.175094 0.250000
O O15 0.502433 0.159981 0.488020
O O16 0.596052 0.687468 0.250000
O O17 0.633223 0.750000 0.000000
#
# Coordination Sequence:
#
# PCOD8233091 Si02
#       6
#     8   8   8   8   8   8
#     4  11  22  39  62  85 111 144 186 232 278 330
#     4  11  23  38  56  81 115 151 186 228 280 334
#     4  10  22  39  57  81 115 152 188 228 277 331
#     4  11  22  38  61  87 114 145 185 230 277 329
#     4  10  20  36  58  83 111 144 187 233 278 330
#     4   9  19  36  58  83 110 144 186 232 277 325
#
# _framework density 19.423522999999999
#
# number of rings (size 3 to 8) (size 9 to 14) (size 15 to 20)
#    0.000    1.667    0.000    6.000    0.000    5.333 
#    0.000    0.000    0.000    0.000    0.000    0.000 
#    0.000    0.000    0.000    0.000    0.000    0.000 
#
# Total GULP energy -595437.970693 kJ/mol
# GULP energy per Si atom -12404.957723 kJ/mol
# Density = 1.937931 g / cm^3
# Si number density = 19.423523 Si / 1000 Ang^3
#
#
#
# Elastic Constant Matrix: (Units=GPa)
#
#
# Indices 1 2 3 4 5 6 
#
# 1 123.7381 81.8919 53.0617 0.0000 0.0000 0.0000
# 2 81.8919 132.1224 59.0097 0.0000 0.0000 0.0000
# 3 53.0617 59.0097 118.5137 0.0000 0.0000 0.0000
# 4 0.0000 0.0000 0.0000 30.2930 0.0000 0.0000
# 5 0.0000 0.0000 0.0000 0.0000 26.5647 0.0000
# 6 0.0000 0.0000 0.0000 0.0000 0.0000 35.7093
#
#
#
# Elastic Compliance Matrix: (Units=1/GPa)
#
#
# Indices 1 2 3 4 5 6 
#
# 1 0.014279 -0.007710 -0.002554 0.000000 0.000000 0.000000
# 2 -0.007710 0.013896 -0.003467 0.000000 0.000000 0.000000
# 3 -0.002554 -0.003467 0.011308 0.000000 0.000000 0.000000
# 4 0.000000 0.000000 0.000000 0.033011 0.000000 0.000000
# 5 0.000000 0.000000 0.000000 0.000000 0.037644 0.000000
# 6 0.000000 0.000000 0.000000 0.000000 0.000000 0.028004
#
#
# Mechanical properties :
#
#
# Convention : Reuss Voigt Hill
#
# Bulk Modulus (GPa) = 83.19104 84.70007 83.94556
# Shear Modulus (GPa) = 29.47913 30.54080 30.00997
#
# Velocity S-wave (km/s) = 3.90000 3.96960 3.93495
# Velocity P-wave (km/s) = 7.95003 8.04437 7.99734
#
# Compressibility (1/GPa) = 0.01202053
#
# Stress axis : x y z
#
# Youngs Moduli (GPa) = 70.03075 71.96365 88.43391
#
# Poissons Ratio (x) = 0.55482 0.22590
# Poissons Ratio (y) = 0.53992 0.30661
# Poissons Ratio (z) = 0.17889 0.24951
#
# Static dielectric constant tensor:
#      x y z
#    x 3.747090 0.000000 0.000000 
#    y 0.000000 3.418940 0.000000 
#    z 0.000000 0.000000 3.615570 
# 
# 
# High freq. dielectric constant tensor:
#      x y z
#    x 1.769490 0.000000 0.000000 
#    y 0.000000 1.751330 0.000000 
#    z 0.000000 0.000000 1.765470 
# 
# From -- ./inp_files/4605.got.cif
#   From: 2010.03.12/outbox.cif.g09.slc.cpg/sg57_3_cif.got.tgz:4605.got - 2010.04.16 15:48:40.
