data_PCOD8233198
_publ_section_title
;
Structure prediction by ZEFSAII (Michael W. Deem and Ramdas Pophale) SiO2 
 PCOD8233198
Probable space group: P B C M
;
_chemical_formula_sum "Si O2"
_cell_formula_units_Z 64
_cell_length_a 23.878064
_cell_length_b 15.060173
_cell_length_c 8.812154
_cell_angle_alpha 90.000000
_cell_angle_beta 90.000000
_cell_angle_gamma 90.000000
_cell_volume 3168.919091
_symmetry_space_group_name_H-M "P B C M"
_symmetry_group_IT_number 57
_symmetry_cell_setting 'orthorhombic'
loop_
_space_group_symop_operation_xyz
x,y,z
-x,-y,1/2+z
x,1/2-y,-z
-x,1/2+y,1/2-z
-x,-y,-z
x,y,1/2-z
-x,1/2+y,z
x,1/2-y,1/2+z
loop_
_atom_site_type_symbol
_atom_site_label
_atom_site_fract_x
_atom_site_fract_y
_atom_site_fract_z
Si Si1 0.617917 0.611416 0.920320
Si Si2 0.497273 0.657598 0.931109
Si Si3 0.735824 0.837241 0.070791
Si Si4 0.922577 0.481243 0.926665
Si Si5 0.207410 0.983397 0.573325
Si Si6 0.284443 0.839019 0.071503
Si Si7 0.392385 0.591433 0.421189
Si Si8 0.006688 0.349190 0.070801
O O1 0.612795 0.647746 0.750000
O O2 0.558973 0.635871 0.000490
O O3 0.672615 0.654079 0.999228
O O4 0.630653 0.507610 0.919747
O O5 0.496767 0.655655 0.750000
O O6 0.476655 0.750000 0.000000
O O7 0.452062 0.587767 0.993255
O O8 0.732360 0.829536 0.250000
O O9 0.774754 0.918396 0.023225
O O10 0.764029 0.750000 0.000000
O O11 0.935544 0.467188 0.750000
O O12 0.857514 0.473897 0.964600
O O13 0.944029 0.580322 0.974981
O O14 0.950367 0.398788 0.015720
O O15 0.220606 0.965475 0.750000
O O16 0.242798 0.917172 0.471856
O O17 0.288150 0.830480 0.250000
O O18 0.258621 0.750000 0.000000
O O19 0.347200 0.849670 0.008131
O O20 0.399918 0.627694 0.250000
O O21 0.003990 0.334708 0.250000
O O22 0.014964 0.250000 0.000000
#
# Coordination Sequence:
#
# PCOD8233198 Si02
#       8
#     8   8   8   8   8   8   8   8
#     4   9  19  36  58  80 109 146 187 234 292 351
#     4  11  22  36  53  80 111 143 185 235 289 354
#     4  10  20  37  59  85 116 154 194 239 293 351
#     4   9  20  38  61  89 120 162 207 248 294 344
#     4  10  21  41  64  86 121 160 200 248 297 347
#     4  12  25  41  62  88 116 152 198 245 299 361
#     4  11  21  39  61  81 109 147 188 239 299 355
#     4  10  20  36  60  91 127 165 203 247 295 347
#
# _framework density 20.196161
#
# number of rings (size 3 to 8) (size 9 to 14) (size 15 to 20)
#    0.000    1.750    1.250    3.375    0.000    2.500 
#    0.000    2.500    0.000    0.000    0.000    0.000 
#    0.000    0.000    0.000    0.000    0.000    0.000 
#
# Total GULP energy -793428.056408 kJ/mol
# GULP energy per Si atom -12397.313381 kJ/mol
# Density = 2.015019 g / cm^3
# Si number density = 20.196161 Si / 1000 Ang^3
#
#
#
# Elastic Constant Matrix: (Units=GPa)
#
#
# Indices 1 2 3 4 5 6 
#
# 1 86.7572 16.9726 36.8774 0.0000 0.0000 0.0000
# 2 16.9726 102.1333 41.7797 0.0000 0.0000 0.0000
# 3 36.8774 41.7797 94.2396 0.0000 0.0000 0.0000
# 4 0.0000 0.0000 0.0000 32.8339 0.0000 0.0000
# 5 0.0000 0.0000 0.0000 0.0000 18.9454 0.0000
# 6 0.0000 0.0000 0.0000 0.0000 0.0000 4.2677
#
#
#
# Elastic Compliance Matrix: (Units=1/GPa)
#
#
# Indices 1 2 3 4 5 6 
#
# 1 0.013827 -0.000103 -0.005365 0.000000 0.000000 0.000000
# 2 -0.000103 0.011961 -0.005262 0.000000 0.000000 0.000000
# 3 -0.005365 -0.005262 0.015044 0.000000 0.000000 0.000000
# 4 0.000000 0.000000 0.000000 0.030456 0.000000 0.000000
# 5 0.000000 0.000000 0.000000 0.000000 0.052783 0.000000
# 6 0.000000 0.000000 0.000000 0.000000 0.000000 0.234316
#
#
# Mechanical properties :
#
#
# Convention : Reuss Voigt Hill
#
# Bulk Modulus (GPa) = 51.62445 52.70995 52.16720
# Shear Modulus (GPa) = 12.94316 23.70945 18.32630
#
# Velocity S-wave (km/s) = 2.53429 3.43002 3.01560
# Velocity P-wave (km/s) = 5.84641 6.46857 6.16534
#
# Compressibility (1/GPa) = 0.01937067
#
# Stress axis : x y z
#
# Youngs Moduli (GPa) = 72.32184 83.60557 66.47325
#
# Poissons Ratio (x) = 0.00862 0.35663
# Poissons Ratio (y) = 0.00746 0.34980
# Poissons Ratio (z) = 0.38801 0.43996
#
# Static dielectric constant tensor:
#      x y z
#    x 3.701300 0.000000 0.000000 
#    y 0.000000 3.624870 0.000000 
#    z 0.000000 0.000000 3.519000 
# 
# 
# High freq. dielectric constant tensor:
#      x y z
#    x 1.789330 0.000000 0.000000 
#    y 0.000000 1.798020 0.000000 
#    z 0.000000 0.000000 1.774800 
# 
# From -- ./inp_files/9282.got.cif
#   From: 2010.03.12/outbox.cif.g09.slc.cpg/sg57_5_cif.got.tgz:9282.got - 2010.04.16 15:48:40.
