data_PCOD8233780
_publ_section_title
;
Structure prediction by ZEFSAII (Michael W. Deem and Ramdas Pophale) SiO2 
 PCOD8233780
Probable space group: P B C M
;
_chemical_formula_sum "Si O2"
_cell_formula_units_Z 64
_cell_length_a 20.325080
_cell_length_b 20.209046
_cell_length_c 9.293002
_cell_angle_alpha 90.000000
_cell_angle_beta 90.000000
_cell_angle_gamma 90.000000
_cell_volume 3817.105001
_symmetry_space_group_name_H-M "P B C M"
_symmetry_group_IT_number 57
_symmetry_cell_setting 'orthorhombic'
loop_
_space_group_symop_operation_xyz
x,y,z
-x,-y,1/2+z
x,1/2-y,-z
-x,1/2+y,1/2-z
-x,-y,-z
x,y,1/2-z
-x,1/2+y,z
x,1/2-y,1/2+z
loop_
_atom_site_type_symbol
_atom_site_label
_atom_site_fract_x
_atom_site_fract_y
_atom_site_fract_z
Si Si1 0.838901 0.036277 0.080388
Si Si2 0.428041 0.570288 0.588249
Si Si3 0.817025 0.888433 0.079126
Si Si4 0.325573 0.398294 0.088720
Si Si5 0.965546 0.060453 0.580618
Si Si6 0.552040 0.913663 0.587967
Si Si7 0.056442 0.314747 0.417139
Si Si8 0.693090 0.054939 0.090619
O O1 0.855883 0.039825 0.250000
O O2 0.768503 0.070860 0.048067
O O3 0.837748 0.960815 0.022965
O O4 0.893729 0.073746 0.986847
O O5 0.430045 0.597984 0.750000
O O6 0.486066 0.605115 0.498304
O O7 0.437760 0.491931 0.586552
O O8 0.357477 0.589127 0.519731
O O9 0.815480 0.893706 0.250000
O O10 0.743295 0.867994 0.027430
O O11 0.870734 0.835431 0.026118
O O12 0.340912 0.372536 0.250000
O O13 0.316788 0.476679 0.092130
O O14 0.385660 0.377538 0.985868
O O15 0.961195 0.044686 0.750000
O O16 0.006356 0.126475 0.550959
O O17 0.000000 0.000000 0.500000
O O18 0.545415 0.886956 0.750000
O O19 0.032321 0.250000 0.500000
O O20 0.059002 0.297479 0.250000
O O21 0.677873 0.082678 0.250000
#
# Coordination Sequence:
#
# PCOD8233780 Si02
#       8
#     8   8   8   8   8   8   8   8
#     4   9  16  29  47  66  89 115 148 189 233 280
#     4   9  15  21  30  44  68 102 140 177 211 257
#     4   8  14  28  46  62  85 115 145 184 229 274
#     4   8  13  22  37  52  69 100 139 174 214 260
#     4  11  21  33  51  72  95 121 154 196 238 285
#     4   9  15  21  29  44  69  99 135 178 217 254
#     4  10  21  36  51  69  95 124 156 193 237 286
#     4   8  14  23  36  53  75 105 137 174 221 266
#
# _framework density 16.766634
#
# number of rings (size 3 to 8) (size 9 to 14) (size 15 to 20)
#    0.000    3.000    1.250    2.625    0.000    4.500 
#    0.000    2.500    0.000    0.000    0.000    0.000 
#    0.000    0.000    0.000    1.125    0.000   17.000 
#
# Total GULP energy -793230.402078 kJ/mol
# GULP energy per Si atom -12394.225032 kJ/mol
# Density = 1.672847 g / cm^3
# Si number density = 16.766634 Si / 1000 Ang^3
#
#
#
# Elastic Constant Matrix: (Units=GPa)
#
#
# Indices 1 2 3 4 5 6 
#
# 1 154.7552 31.2897 82.4397 0.0000 0.0000 0.0000
# 2 31.2897 39.1782 30.2949 0.0000 0.0000 0.0000
# 3 82.4397 30.2949 111.6200 0.0000 0.0000 0.0000
# 4 0.0000 0.0000 0.0000 13.3024 0.0000 0.0000
# 5 0.0000 0.0000 0.0000 0.0000 34.3666 0.0000
# 6 0.0000 0.0000 0.0000 0.0000 0.0000 9.5968
#
#
#
# Elastic Compliance Matrix: (Units=1/GPa)
#
#
# Indices 1 2 3 4 5 6 
#
# 1 0.010953 -0.003154 -0.007233 0.000000 0.000000 0.000000
# 2 -0.003154 0.033212 -0.006685 0.000000 0.000000 0.000000
# 3 -0.007233 -0.006685 0.016116 0.000000 0.000000 0.000000
# 4 0.000000 0.000000 0.000000 0.075174 0.000000 0.000000
# 5 0.000000 0.000000 0.000000 0.000000 0.029098 0.000000
# 6 0.000000 0.000000 0.000000 0.000000 0.000000 0.104202
#
#
# Mechanical properties :
#
#
# Convention : Reuss Voigt Hill
#
# Bulk Modulus (GPa) = 38.26066 65.95578 52.10822
# Shear Modulus (GPa) = 16.04562 22.22176 19.13369
#
# Velocity S-wave (km/s) = 3.09689 3.64449 3.38180
# Velocity P-wave (km/s) = 5.97132 7.55862 6.81137
#
# Compressibility (1/GPa) = 0.02613651
#
# Stress axis : x y z
#
# Youngs Moduli (GPa) = 91.30009 30.10918 62.05138
#
# Poissons Ratio (x) = 0.09497 0.44884
# Poissons Ratio (y) = 0.28798 0.41479
# Poissons Ratio (z) = 0.66041 0.20127
#
# Static dielectric constant tensor:
#      x y z
#    x 3.561930 0.000000 0.000000 
#    y 0.000000 2.518620 0.000000 
#    z 0.000000 0.000000 3.166430 
# 
# 
# High freq. dielectric constant tensor:
#      x y z
#    x 1.666540 0.000000 0.000000 
#    y 0.000000 1.562620 0.000000 
#    z 0.000000 0.000000 1.641150 
# 
# From -- ./inp_files/8693.got.cif
#   From: 2010.03.12/outbox.cif.g09.slc.cpg/sg57_5_cif.got.tgz:8693.got - 2010.04.16 15:48:40.
