data_PCOD8233934
_publ_section_title
;
Structure prediction by ZEFSAII (Michael W. Deem and Ramdas Pophale) SiO2 
 PCOD8233934
Probable space group: P B C M
;
_chemical_formula_sum "Si O2"
_cell_formula_units_Z 64
_cell_length_a 8.713854
_cell_length_b 20.188864
_cell_length_c 18.372567
_cell_angle_alpha 90.000000
_cell_angle_beta 90.000000
_cell_angle_gamma 90.000000
_cell_volume 3232.153675
_symmetry_space_group_name_H-M "P B C M"
_symmetry_group_IT_number 57
_symmetry_cell_setting 'orthorhombic'
loop_
_space_group_symop_operation_xyz
x,y,z
-x,-y,1/2+z
x,1/2-y,-z
-x,1/2+y,1/2-z
-x,-y,-z
x,y,1/2-z
-x,1/2+y,z
x,1/2-y,1/2+z
loop_
_atom_site_type_symbol
_atom_site_label
_atom_site_fract_x
_atom_site_fract_y
_atom_site_fract_z
Si Si1 0.676539 0.492287 0.423630
Si Si2 0.144921 0.125103 0.425294
Si Si3 0.343350 0.250925 0.915088
Si Si4 0.342617 0.749569 0.334864
Si Si5 0.834119 0.119944 0.835314
Si Si6 0.842591 0.379223 0.834828
Si Si7 0.330583 0.507308 0.409215
Si Si8 0.150832 0.125645 0.592674
O O1 0.729503 0.567840 0.416670
O O2 0.787484 0.446087 0.377353
O O3 0.505013 0.486402 0.392470
O O4 0.684469 0.468995 0.507329
O O5 0.219750 0.192570 0.395709
O O6 0.095517 0.132557 0.509325
O O7 0.996579 0.106634 0.379130
O O8 0.500771 0.266481 0.875247
O O9 0.277843 0.180723 0.888471
O O10 0.380394 0.250000 0.000000
O O11 0.378989 0.749333 0.250000
O O12 0.274396 0.819756 0.360379
O O13 0.218900 0.693462 0.354573
O O14 0.820169 0.106914 0.750000
O O15 0.008305 0.137773 0.854491
O O16 0.879772 0.386258 0.750000
O O17 0.714860 0.432735 0.856831
O O18 0.221374 0.445867 0.391391
#
# Coordination Sequence:
#
# PCOD8233934 Si02
#       8
#     8   8   8   8   8   8   8   8
#     4  10  21  38  59  83 113 147 183 230 284 330
#     4  10  21  37  58  85 114 144 183 230 278 328
#     4  10  21  38  62  88 110 142 189 232 274 330
#     4  10  23  40  56  80 114 148 183 228 280 328
#     4  11  23  38  57  82 113 150 189 227 273 331
#     4  11  23  38  57  82 113 150 189 227 273 331
#     4  10  21  38  59  83 113 147 183 230 284 330
#     4  10  21  37  58  85 114 144 183 230 278 328
#
# _framework density 19.801037999999998
#
# number of rings (size 3 to 8) (size 9 to 14) (size 15 to 20)
#    0.000    1.750    0.000    3.750    0.000    9.500 
#    0.000    0.000    0.000    0.000    0.000    0.000 
#    0.000    0.000    0.000    0.000    0.000    0.000 
#
# Total GULP energy -794059.759808 kJ/mol
# GULP energy per Si atom -12407.183747 kJ/mol
# Density = 1.975597 g / cm^3
# Si number density = 19.801038 Si / 1000 Ang^3
#
#
#
# Elastic Constant Matrix: (Units=GPa)
#
#
# Indices 1 2 3 4 5 6 
#
# 1 87.0995 5.7666 26.5604 0.0000 0.0000 0.0000
# 2 5.7666 82.0920 26.3865 0.0000 0.0000 0.0000
# 3 26.5604 26.3865 44.0424 0.0000 0.0000 0.0000
# 4 0.0000 0.0000 0.0000 29.0380 0.0000 0.0000
# 5 0.0000 0.0000 0.0000 0.0000 24.0029 0.0000
# 6 0.0000 0.0000 0.0000 0.0000 0.0000 28.1038
#
#
#
# Elastic Compliance Matrix: (Units=1/GPa)
#
#
# Indices 1 2 3 4 5 6 
#
# 1 0.014383 0.002202 -0.009993 0.000000 0.000000 0.000000
# 2 0.002202 0.015424 -0.010568 0.000000 0.000000 0.000000
# 3 -0.009993 -0.010568 0.035063 0.000000 0.000000 0.000000
# 4 0.000000 0.000000 0.000000 0.034438 0.000000 0.000000
# 5 0.000000 0.000000 0.000000 0.000000 0.041662 0.000000
# 6 0.000000 0.000000 0.000000 0.000000 0.000000 0.035582
#
#
# Mechanical properties :
#
#
# Convention : Reuss Voigt Hill
#
# Bulk Modulus (GPa) = 35.52294 36.74012 36.13153
# Shear Modulus (GPa) = 22.45644 26.53030 24.49337
#
# Velocity S-wave (km/s) = 3.37130 3.66436 3.52088
# Velocity P-wave (km/s) = 5.75614 6.04138 5.90048
#
# Compressibility (1/GPa) = 0.02815083
#
# Stress axis : x y z
#
# Youngs Moduli (GPa) = 69.52879 64.83521 28.51994
#
# Poissons Ratio (x) = -0.14274 0.28499
# Poissons Ratio (y) = -0.15307 0.30141
# Poissons Ratio (z) = 0.69477 0.68520
#
# Static dielectric constant tensor:
#      x y z
#    x 3.514140 0.000000 0.000000 
#    y 0.000000 3.695790 0.000000 
#    z 0.000000 0.000000 3.495030 
# 
# 
# High freq. dielectric constant tensor:
#      x y z
#    x 1.780640 0.000000 0.000000 
#    y 0.000000 1.786390 0.000000 
#    z 0.000000 0.000000 1.762770 
# 
# From -- ./inp_files/21404.got.cif
#   From: 2010.03.12/outbox.cif.g09.slc.cpg/sg57_11_cif.got.tgz:21404.got - 2010.04.16 15:48:40.
