data_PCOD8233139
_publ_section_title
;
Structure prediction by ZEFSAII (Michael W. Deem and Ramdas Pophale) SiO2 
 PCOD8233139
Probable space group: P B C M
;
_chemical_formula_sum "Si O2"
_cell_formula_units_Z 36
_cell_length_a 21.111096
_cell_length_b 9.074380
_cell_length_c 9.437085
_cell_angle_alpha 90.000000
_cell_angle_beta 90.000000
_cell_angle_gamma 90.000000
_cell_volume 1807.863386
_symmetry_space_group_name_H-M "P B C M"
_symmetry_group_IT_number 57
_symmetry_cell_setting 'orthorhombic'
loop_
_space_group_symop_operation_xyz
x,y,z
-x,-y,1/2+z
x,1/2-y,-z
-x,1/2+y,1/2-z
-x,-y,-z
x,y,1/2-z
-x,1/2+y,z
x,1/2-y,1/2+z
loop_
_atom_site_type_symbol
_atom_site_label
_atom_site_fract_x
_atom_site_fract_y
_atom_site_fract_z
Si Si1 0.666386 0.608171 0.589132
Si Si2 0.912642 0.006254 0.597986
Si Si3 0.550632 0.402422 0.918154
Si Si4 0.997872 0.750000 0.500000
Si Si5 0.190853 0.101844 0.915508
O O1 0.645728 0.750000 0.500000
O O2 0.662785 0.662650 0.750000
O O3 0.619417 0.473894 0.560883
O O4 0.737129 0.551569 0.552673
O O5 0.877755 0.005617 0.750000
O O6 0.957813 0.148037 0.596768
O O7 0.953943 0.857143 0.592151
O O8 0.859076 0.017649 0.475162
O O9 0.534103 0.384719 0.750000
O O10 0.552077 0.250000 0.000000
O O11 0.500000 0.500000 0.000000
O O12 0.178504 0.125714 0.750000
O O13 0.175958 0.250000 0.000000
#
# Coordination Sequence:
#
# PCOD8233139 Si02
#       5
#     8   8   8   4   8
#     4   9  20  38  60  86 118 155 197 243 293 348
#     4  11  22  39  60  85 113 151 194 240 296 354
#     4  11  23  40  62  91 126 162 202 245 295 348
#     4  10  24  38  58  84 118 146 190 240 298 354
#     4  10  20  36  59  85 116 153 196 243 291 349
#
# _framework density 19.913007
#
# number of rings (size 3 to 8) (size 9 to 14) (size 15 to 20)
#    0.000    1.778    1.111    2.667    0.000    8.889 
#    2.000    0.000    0.000    0.000    0.000    0.000 
#    0.000    0.000    0.000    0.000    0.000    0.000 
#
# Total GULP energy -446277.435076 kJ/mol
# GULP energy per Si atom -12396.595419 kJ/mol
# Density = 1.986768 g / cm^3
# Si number density = 19.913007 Si / 1000 Ang^3
#
#
#
# Elastic Constant Matrix: (Units=GPa)
#
#
# Indices 1 2 3 4 5 6 
#
# 1 122.4199 56.5295 67.2999 0.0000 0.0000 0.0000
# 2 56.5295 117.7146 59.5403 0.0000 0.0000 0.0000
# 3 67.2999 59.5403 152.6453 0.0000 0.0000 0.0000
# 4 0.0000 0.0000 0.0000 24.5315 0.0000 0.0000
# 5 0.0000 0.0000 0.0000 0.0000 33.9706 0.0000
# 6 0.0000 0.0000 0.0000 0.0000 0.0000 23.7893
#
#
#
# Elastic Compliance Matrix: (Units=1/GPa)
#
#
# Indices 1 2 3 4 5 6 
#
# 1 0.012042 -0.003859 -0.003804 0.000000 0.000000 0.000000
# 2 -0.003859 0.011820 -0.002909 0.000000 0.000000 0.000000
# 3 -0.003804 -0.002909 0.009363 0.000000 0.000000 0.000000
# 4 0.000000 0.000000 0.000000 0.040764 0.000000 0.000000
# 5 0.000000 0.000000 0.000000 0.000000 0.029437 0.000000
# 6 0.000000 0.000000 0.000000 0.000000 0.000000 0.042036
#
#
# Mechanical properties :
#
#
# Convention : Reuss Voigt Hill
#
# Bulk Modulus (GPa) = 82.77577 84.39104 83.58340
# Shear Modulus (GPa) = 29.30296 30.41895 29.86096
#
# Velocity S-wave (km/s) = 3.84024 3.91268 3.87663
# Velocity P-wave (km/s) = 7.83085 7.92994 7.88055
#
# Compressibility (1/GPa) = 0.01208083
#
# Stress axis : x y z
#
# Youngs Moduli (GPa) = 83.04544 84.60566 106.80388
#
# Poissons Ratio (x) = 0.32646 0.40628
# Poissons Ratio (y) = 0.32044 0.31070
# Poissons Ratio (z) = 0.31590 0.24612
#
# Static dielectric constant tensor:
#      x y z
#    x 3.969650 0.000000 0.000000 
#    y 0.000000 3.698130 0.000000 
#    z 0.000000 0.000000 3.763050 
# 
# 
# High freq. dielectric constant tensor:
#      x y z
#    x 1.787730 0.000000 0.000000 
#    y 0.000000 1.760380 0.000000 
#    z 0.000000 0.000000 1.787270 
# 
# From -- ./inp_files/7627.got.cif
#   From: 2010.03.12/outbox.cif.g09.slc.cpg/sg57_4_cif.got.tgz:7627.got - 2010.04.16 15:48:40.
