data_PCOD8233523
_publ_section_title
;
Structure prediction by ZEFSAII (Michael W. Deem and Ramdas Pophale) SiO2 
 PCOD8233523
Probable space group: P B C M
;
_chemical_formula_sum "Si O2"
_cell_formula_units_Z 48
_cell_length_a 14.198515
_cell_length_b 17.439709
_cell_length_c 9.790298
_cell_angle_alpha 90.000000
_cell_angle_beta 90.000000
_cell_angle_gamma 90.000000
_cell_volume 2424.253715
_symmetry_space_group_name_H-M "P B C M"
_symmetry_group_IT_number 57
_symmetry_cell_setting 'orthorhombic'
loop_
_space_group_symop_operation_xyz
x,y,z
-x,-y,1/2+z
x,1/2-y,-z
-x,1/2+y,1/2-z
-x,-y,-z
x,y,1/2-z
-x,1/2+y,z
x,1/2-y,1/2+z
loop_
_atom_site_type_symbol
_atom_site_label
_atom_site_fract_x
_atom_site_fract_y
_atom_site_fract_z
Si Si1 0.984608 0.922756 0.914522
Si Si2 0.490634 0.336428 0.750000
Si Si3 0.720970 0.359169 0.250000
Si Si4 0.300751 0.677616 0.250000
Si Si5 0.620139 0.659083 0.990980
Si Si6 0.490177 0.845756 0.250000
Si Si7 0.187081 0.418297 0.409737
Si Si8 0.813256 0.096589 0.472269
O O1 0.968443 0.934994 0.750000
O O2 0.079631 0.874364 0.942623
O O3 0.894404 0.884541 0.989131
O O4 0.000000 0.000000 0.000000
O O5 0.597858 0.364872 0.750000
O O6 0.429164 0.369392 0.627524
O O7 0.508965 0.245862 0.750000
O O8 0.707483 0.268593 0.250000
O O9 0.612093 0.387197 0.250000
O O10 0.781785 0.392973 0.373097
O O11 0.252856 0.651361 0.112416
O O12 0.547644 0.627307 0.880387
O O13 0.719965 0.621580 0.964318
O O14 0.634080 0.750000 0.000000
O O15 0.167273 0.397894 0.250000
O O16 0.197475 0.509291 0.423965
#
# Coordination Sequence:
#
# PCOD8233523 Si02
#       8
#     8   4   4   4   8   4   8   8
#     4  10  21  38  63  87 117 157 199 237 292 369
#     4   9  20  33  62  85 114 160 203 241 284 367
#     4  11  24  35  65  89 120 162 204 247 291 359
#     4  11  20  43  59  87 124 160 202 245 303 345
#     4  10  20  38  62  86 118 156 202 247 294 353
#     4   9  18  39  56  85 116 162 205 231 290 365
#     4  11  23  40  64  88 122 161 197 246 301 357
#     4  11  22  39  61  90 122 156 201 249 295 357
#
# _framework density 19.799907000000001
#
# number of rings (size 3 to 8) (size 9 to 14) (size 15 to 20)
#    0.000    1.667    2.500    3.000    7.000    2.667 
#    0.000    6.667    0.000    0.000    0.000    0.000 
#    0.000    0.000    0.000    0.000    0.000    0.000 
#
# Total GULP energy -594700.238744 kJ/mol
# GULP energy per Si atom -12389.588307 kJ/mol
# Density = 1.975484 g / cm^3
# Si number density = 19.799907 Si / 1000 Ang^3
#
#
#
# Elastic Constant Matrix: (Units=GPa)
#
#
# Indices 1 2 3 4 5 6 
#
# 1 186.0859 29.7554 100.5262 0.0000 0.0000 0.0000
# 2 29.7554 25.6837 10.0883 0.0000 0.0000 0.0000
# 3 100.5262 10.0883 187.2556 0.0000 0.0000 0.0000
# 4 0.0000 0.0000 0.0000 30.7031 0.0000 0.0000
# 5 0.0000 0.0000 0.0000 0.0000 51.0896 0.0000
# 6 0.0000 0.0000 0.0000 0.0000 0.0000 29.3440
#
#
#
# Elastic Compliance Matrix: (Units=1/GPa)
#
#
# Indices 1 2 3 4 5 6 
#
# 1 0.009212 -0.008919 -0.004465 0.000000 0.000000 0.000000
# 2 -0.008919 0.048412 0.002180 0.000000 0.000000 0.000000
# 3 -0.004465 0.002180 0.007620 0.000000 0.000000 0.000000
# 4 0.000000 0.000000 0.000000 0.032570 0.000000 0.000000
# 5 0.000000 0.000000 0.000000 0.000000 0.019573 0.000000
# 6 0.000000 0.000000 0.000000 0.000000 0.000000 0.034079
#
#
# Mechanical properties :
#
#
# Convention : Reuss Voigt Hill
#
# Bulk Modulus (GPa) = 23.34496 75.52944 49.43720
# Shear Modulus (GPa) = 26.57437 39.47103 33.02270
#
# Velocity S-wave (km/s) = 3.66751 4.46970 4.08833
# Velocity P-wave (km/s) = 5.45437 8.05399 6.87812
#
# Compressibility (1/GPa) = 0.04283579
#
# Stress axis : x y z
#
# Youngs Moduli (GPa) = 108.55511 20.65623 131.23763
#
# Poissons Ratio (x) = 0.18422 0.58595
# Poissons Ratio (y) = 0.96815 -0.28605
# Poissons Ratio (z) = 0.48468 -0.04502
#
# Static dielectric constant tensor:
#      x y z
#    x 4.337580 0.000000 0.000000 
#    y 0.000000 3.174370 0.000000 
#    z 0.000000 0.000000 3.961600 
# 
# 
# High freq. dielectric constant tensor:
#      x y z
#    x 1.797040 0.000000 0.000000 
#    y 0.000000 1.727480 0.000000 
#    z 0.000000 0.000000 1.795040 
# 
# From -- ./inp_files/4969.got.cif
#   From: 2010.03.12/outbox.cif.g09.slc.cpg/sg57_3_cif.got.tgz:4969.got - 2010.04.16 15:48:40.
