data_PCOD8233367
_publ_section_title
;
Structure prediction by ZEFSAII (Michael W. Deem and Ramdas Pophale) SiO2 
 PCOD8233367
Probable space group: P B C M
;
_chemical_formula_sum "Si O2"
_cell_formula_units_Z 48
_cell_length_a 14.967897
_cell_length_b 18.422532
_cell_length_c 8.754022
_cell_angle_alpha 90.000000
_cell_angle_beta 90.000000
_cell_angle_gamma 90.000000
_cell_volume 2413.891465
_symmetry_space_group_name_H-M "P B C M"
_symmetry_group_IT_number 57
_symmetry_cell_setting 'orthorhombic'
loop_
_space_group_symop_operation_xyz
x,y,z
-x,-y,1/2+z
x,1/2-y,-z
-x,1/2+y,1/2-z
-x,-y,-z
x,y,1/2-z
-x,1/2+y,z
x,1/2-y,1/2+z
loop_
_atom_site_type_symbol
_atom_site_label
_atom_site_fract_x
_atom_site_fract_y
_atom_site_fract_z
Si Si1 0.609276 0.438806 0.427115
Si Si2 0.743009 0.673224 0.070410
Si Si3 0.591403 0.910669 0.072960
Si Si4 0.891505 0.574159 0.928841
Si Si5 0.077242 0.591390 0.429203
Si Si6 0.762101 0.326090 0.430016
O O1 0.613856 0.461485 0.250000
O O2 0.513330 0.403491 0.465593
O O3 0.626691 0.509869 0.527336
O O4 0.684015 0.381551 0.472979
O O5 0.748006 0.680108 0.250000
O O6 0.770892 0.750000 0.000000
O O7 0.642912 0.651372 0.020584
O O8 0.809864 0.611080 0.014853
O O9 0.611966 0.898348 0.250000
O O10 0.882548 0.588816 0.750000
O O11 0.887727 0.488971 0.969114
O O12 0.984055 0.607754 0.987676
O O13 0.063027 0.601776 0.250000
O O14 0.146469 0.649688 0.491682
O O15 0.732252 0.250000 0.500000
O O16 0.776407 0.319898 0.250000
#
# Coordination Sequence:
#
# PCOD8233367 Si02
#       6
#     8   8   8   8   8   8
#     4   9  20  38  60  86 115 150 192 237 283 335
#     4  12  25  40  58  83 117 154 192 235 286 342
#     4  10  20  37  61  88 116 148 190 237 285 338
#     4  10  21  39  63  89 115 146 187 234 282 335
#     4  10  21  38  61  88 116 148 187 231 280 335
#     4  11  23  38  56  81 115 152 191 234 282 335
#
# _framework density 19.884906000000001
#
# number of rings (size 3 to 8) (size 9 to 14) (size 15 to 20)
#    0.000    1.667    0.000    4.500    0.000    8.000 
#    0.000    5.000    0.000    0.000    0.000    0.000 
#    0.000    0.000    0.000    0.000    0.000    0.000 
#
# Total GULP energy -595530.607022 kJ/mol
# GULP energy per Si atom -12406.887646 kJ/mol
# Density = 1.983965 g / cm^3
# Si number density = 19.884906 Si / 1000 Ang^3
#
#
#
# Elastic Constant Matrix: (Units=GPa)
#
#
# Indices 1 2 3 4 5 6 
#
# 1 75.1193 20.3683 25.4480 0.0000 0.0000 0.0000
# 2 20.3683 49.2627 27.1150 0.0000 0.0000 0.0000
# 3 25.4480 27.1150 101.3691 0.0000 0.0000 0.0000
# 4 0.0000 0.0000 0.0000 36.4502 0.0000 0.0000
# 5 0.0000 0.0000 0.0000 0.0000 33.4365 0.0000
# 6 0.0000 0.0000 0.0000 0.0000 0.0000 20.1550
#
#
#
# Elastic Compliance Matrix: (Units=1/GPa)
#
#
# Indices 1 2 3 4 5 6 
#
# 1 0.015539 -0.005016 -0.002559 0.000000 0.000000 0.000000
# 2 -0.005016 0.025423 -0.005541 0.000000 0.000000 0.000000
# 3 -0.002559 -0.005541 0.011990 0.000000 0.000000 0.000000
# 4 0.000000 0.000000 0.000000 0.027435 0.000000 0.000000
# 5 0.000000 0.000000 0.000000 0.000000 0.029907 0.000000
# 6 0.000000 0.000000 0.000000 0.000000 0.000000 0.049616
#
#
# Mechanical properties :
#
#
# Convention : Reuss Voigt Hill
#
# Bulk Modulus (GPa) = 37.42664 41.29040 39.35852
# Shear Modulus (GPa) = 25.63453 28.19632 26.91543
#
# Velocity S-wave (km/s) = 3.59436 3.76969 3.68307
# Velocity P-wave (km/s) = 6.00736 6.30533 6.15815
#
# Compressibility (1/GPa) = 0.02671893
#
# Stress axis : x y z
#
# Youngs Moduli (GPa) = 64.35305 39.33401 83.40559
#
# Poissons Ratio (x) = 0.19731 0.21346
# Poissons Ratio (y) = 0.32281 0.46216
# Poissons Ratio (z) = 0.16470 0.21795
#
# Static dielectric constant tensor:
#      x y z
#    x 3.728330 0.000000 0.000000 
#    y 0.000000 3.541030 0.000000 
#    z 0.000000 0.000000 3.683470 
# 
# 
# High freq. dielectric constant tensor:
#      x y z
#    x 1.786790 0.000000 0.000000 
#    y 0.000000 1.768820 0.000000 
#    z 0.000000 0.000000 1.787680 
# 
# From -- ./inp_files/4532.got.cif
#   From: 2010.03.12/outbox.cif.g09.slc.cpg/sg57_3_cif.got.tgz:4532.got - 2010.04.16 15:48:40.
