data_PCOD8233400
_publ_section_title
;
Structure prediction by ZEFSAII (Michael W. Deem and Ramdas Pophale) SiO2 
 PCOD8233400
Probable space group: P B C M
;
_chemical_formula_sum "Si O2"
_cell_formula_units_Z 56
_cell_length_a 9.533533
_cell_length_b 16.204727
_cell_length_c 18.300594
_cell_angle_alpha 90.000000
_cell_angle_beta 90.000000
_cell_angle_gamma 90.000000
_cell_volume 2827.227649
_symmetry_space_group_name_H-M "P B C M"
_symmetry_group_IT_number 57
_symmetry_cell_setting 'orthorhombic'
loop_
_space_group_symop_operation_xyz
x,y,z
-x,-y,1/2+z
x,1/2-y,-z
-x,1/2+y,1/2-z
-x,-y,-z
x,y,1/2-z
-x,1/2+y,z
x,1/2-y,1/2+z
loop_
_atom_site_type_symbol
_atom_site_label
_atom_site_fract_x
_atom_site_fract_y
_atom_site_fract_z
Si Si1 0.384963 0.594167 0.576877
Si Si2 0.738493 0.952493 0.836530
Si Si3 0.654033 0.251176 0.331474
Si Si4 0.317688 0.165108 0.539600
Si Si5 0.209716 0.834857 0.957353
Si Si6 0.932068 0.573810 0.043256
Si Si7 0.324008 0.234058 0.329531
O O1 0.376889 0.508855 0.622242
O O2 0.315369 0.661528 0.630537
O O3 0.545250 0.609317 0.553168
O O4 0.290192 0.593167 0.502941
O O5 0.746520 0.971773 0.750000
O O6 0.887449 0.964201 0.877827
O O7 0.702357 0.858563 0.855246
O O8 0.719433 0.249694 0.250000
O O9 0.720982 0.175884 0.377447
O O10 0.489199 0.242275 0.327667
O O11 0.365775 0.250000 0.500000
O O12 0.201279 0.111843 0.499009
O O13 0.255440 0.197792 0.617042
O O14 0.046623 0.854918 0.945808
O O15 0.228092 0.750000 0.000000
O O16 0.000000 0.500000 0.000000
O O17 0.257280 0.250026 0.250000
#
# Coordination Sequence:
#
# PCOD8233400 Si02
#       7
#     8   8   8   8   8   8   8
#     4  10  20  37  62  91 118 157 205 251 315 367
#     4  11  23  39  60  88 126 161 195 252 318 372
#     4   9  18  35  60  89 120 151 199 258 310 360
#     4  11  21  39  66  91 119 162 211 263 308 368
#     4  10  21  36  59  87 120 157 207 251 293 361
#     4  12  25  41  59  88 126 167 208 251 306 372
#     4   9  19  37  62  92 120 154 203 257 311 364
#
# _framework density 19.807392
#
# number of rings (size 3 to 8) (size 9 to 14) (size 15 to 20)
#    0.000    1.714    2.857    3.000    0.000    2.857 
#    0.000    0.714    0.000    0.000    0.000    0.000 
#    0.000    0.000    0.000    0.000    0.000    0.000 
#
# Total GULP energy -694098.636169 kJ/mol
# GULP energy per Si atom -12394.618503 kJ/mol
# Density = 1.976231 g / cm^3
# Si number density = 19.807392 Si / 1000 Ang^3
#
#
#
# Elastic Constant Matrix: (Units=GPa)
#
#
# Indices 1 2 3 4 5 6 
#
# 1 56.1535 36.6841 53.1032 0.0000 0.0000 0.0000
# 2 36.6841 50.1893 40.9921 0.0000 0.0000 0.0000
# 3 53.1032 40.9921 129.3275 0.0000 0.0000 0.0000
# 4 0.0000 0.0000 0.0000 32.7123 0.0000 0.0000
# 5 0.0000 0.0000 0.0000 0.0000 21.9665 0.0000
# 6 0.0000 0.0000 0.0000 0.0000 0.0000 33.0803
#
#
#
# Elastic Compliance Matrix: (Units=1/GPa)
#
#
# Indices 1 2 3 4 5 6 
#
# 1 0.042099 -0.022469 -0.010165 0.000000 0.000000 0.000000
# 2 -0.022469 0.038877 -0.003096 0.000000 0.000000 0.000000
# 3 -0.010165 -0.003096 0.012887 0.000000 0.000000 0.000000
# 4 0.000000 0.000000 0.000000 0.030570 0.000000 0.000000
# 5 0.000000 0.000000 0.000000 0.000000 0.045524 0.000000
# 6 0.000000 0.000000 0.000000 0.000000 0.000000 0.030229
#
#
# Mechanical properties :
#
#
# Convention : Reuss Voigt Hill
#
# Bulk Modulus (GPa) = 44.63648 55.24769 49.94208
# Shear Modulus (GPa) = 17.91381 24.54454 21.22918
#
# Velocity S-wave (km/s) = 3.01059 3.52399 3.27736
# Velocity P-wave (km/s) = 5.88804 6.67166 6.29206
#
# Compressibility (1/GPa) = 0.02240320
#
# Stress axis : x y z
#
# Youngs Moduli (GPa) = 23.75331 25.72241 77.59513
#
# Poissons Ratio (x) = 0.57796 0.78872
# Poissons Ratio (y) = 0.53372 0.24027
# Poissons Ratio (z) = 0.24144 0.07965
#
# Static dielectric constant tensor:
#      x y z
#    x 3.566030 0.000000 0.000000 
#    y 0.000000 3.639530 0.000000 
#    z 0.000000 0.000000 2.567060 
# 
# 
# High freq. dielectric constant tensor:
#      x y z
#    x 1.750690 0.000000 0.000000 
#    y 0.000000 1.769060 0.000000 
#    z 0.000000 0.000000 1.788510 
# 
# From -- ./inp_files/24399.got.cif
#   From: 2010.03.12/outbox.cif.g09.slc.cpg/sg57_13_cif.got.tgz:24399.got - 2010.04.16 15:48:40.
