data_PCOD8233267
_publ_section_title
;
Structure prediction by ZEFSAII (Michael W. Deem and Ramdas Pophale) SiO2 
 PCOD8233267
Probable space group: P B C M
;
_chemical_formula_sum "Si O2"
_cell_formula_units_Z 48
_cell_length_a 30.912384
_cell_length_b 9.054513
_cell_length_c 8.661709
_cell_angle_alpha 90.000000
_cell_angle_beta 90.000000
_cell_angle_gamma 90.000000
_cell_volume 2424.382750
_symmetry_space_group_name_H-M "P B C M"
_symmetry_group_IT_number 57
_symmetry_cell_setting 'orthorhombic'
loop_
_space_group_symop_operation_xyz
x,y,z
-x,-y,1/2+z
x,1/2-y,-z
-x,1/2+y,1/2-z
-x,-y,-z
x,y,1/2-z
-x,1/2+y,z
x,1/2-y,1/2+z
loop_
_atom_site_type_symbol
_atom_site_label
_atom_site_fract_x
_atom_site_fract_y
_atom_site_fract_z
Si Si1 0.039503 0.911203 0.930688
Si Si2 0.539864 0.087895 0.066486
Si Si3 0.628830 0.411664 0.066486
Si Si4 0.287346 0.411088 0.568218
Si Si5 0.125176 0.089626 0.568435
Si Si6 0.795932 0.411964 0.067456
O O1 0.032394 0.898797 0.750000
O O2 0.083734 0.992453 0.973634
O O3 0.041458 0.750000 0.000000
O O4 0.000000 0.000000 0.000000
O O5 0.538669 0.088065 0.250000
O O6 0.536204 0.250000 0.000000
O O7 0.585103 0.019339 0.006492
O O8 0.500000 0.000000 0.000000
O O9 0.624097 0.400297 0.250000
O O10 0.667298 0.519394 0.014279
O O11 0.638467 0.250000 0.000000
O O12 0.281100 0.250000 0.500000
O O13 0.285460 0.395992 0.750000
O O14 0.249242 0.518413 0.509485
O O15 0.117048 0.250000 0.500000
O O16 0.133142 0.100439 0.750000
O O17 0.166481 0.017933 0.489738
O O18 0.797808 0.400198 0.250000
O O19 0.801771 0.250000 0.000000
#
# Coordination Sequence:
#
# PCOD8233267 Si02
#       6
#     8   8   8   8   8   8
#     4  11  24  41  63  90 122 158 200 246 297 352
#     4  11  22  38  59  85 115 151 192 237 288 344
#     4  10  20  37  58  83 113 148 190 236 285 342
#     4  10  23  39  58  85 117 151 191 237 288 343
#     4  11  24  41  62  90 122 158 197 244 295 349
#     4  11  23  40  62  89 119 156 198 242 291 348
#
# _framework density 19.798853000000001
#
# number of rings (size 3 to 8) (size 9 to 14) (size 15 to 20)
#    0.000    1.333    0.000    6.500    0.000   10.000 
#    0.000    1.667    0.000    0.000    0.000    0.000 
#    0.000    0.000    0.000    0.000    0.000    0.000 
#
# Total GULP energy -595404.645363 kJ/mol
# GULP energy per Si atom -12404.263445 kJ/mol
# Density = 1.975379 g / cm^3
# Si number density = 19.798853 Si / 1000 Ang^3
#
#
#
# Elastic Constant Matrix: (Units=GPa)
#
#
# Indices 1 2 3 4 5 6 
#
# 1 158.5531 67.6488 71.9729 0.0000 0.0000 0.0000
# 2 67.6488 132.7296 52.0521 0.0000 0.0000 0.0000
# 3 71.9729 52.0521 103.0344 0.0000 0.0000 0.0000
# 4 0.0000 0.0000 0.0000 40.3972 0.0000 0.0000
# 5 0.0000 0.0000 0.0000 0.0000 34.8770 0.0000
# 6 0.0000 0.0000 0.0000 0.0000 0.0000 51.4907
#
#
#
# Elastic Compliance Matrix: (Units=1/GPa)
#
#
# Indices 1 2 3 4 5 6 
#
# 1 0.010093 -0.002967 -0.005551 0.000000 0.000000 0.000000
# 2 -0.002967 0.010268 -0.003115 0.000000 0.000000 0.000000
# 3 -0.005551 -0.003115 0.015157 0.000000 0.000000 0.000000
# 4 0.000000 0.000000 0.000000 0.024754 0.000000 0.000000
# 5 0.000000 0.000000 0.000000 0.000000 0.028672 0.000000
# 6 0.000000 0.000000 0.000000 0.000000 0.000000 0.019421
#
#
# Mechanical properties :
#
#
# Convention : Reuss Voigt Hill
#
# Bulk Modulus (GPa) = 81.62265 86.40719 84.01492
# Shear Modulus (GPa) = 36.84205 38.86254 37.85229
#
# Velocity S-wave (km/s) = 4.31840 4.43523 4.37721
# Velocity P-wave (km/s) = 8.13512 8.36455 8.25063
#
# Compressibility (1/GPa) = 0.01225150
#
# Stress axis : x y z
#
# Youngs Moduli (GPa) = 99.07968 97.39198 65.97736
#
# Poissons Ratio (x) = 0.28897 0.36626
# Poissons Ratio (y) = 0.29397 0.20549
# Poissons Ratio (z) = 0.55002 0.30334
#
# Static dielectric constant tensor:
#      x y z
#    x 3.208040 0.000000 0.000000 
#    y 0.000000 3.751920 0.000000 
#    z 0.000000 0.000000 3.754680 
# 
# 
# High freq. dielectric constant tensor:
#      x y z
#    x 1.795100 0.000000 0.000000 
#    y 0.000000 1.779940 0.000000 
#    z 0.000000 0.000000 1.785880 
# 
# From -- ./inp_files/10052.got.cif
#   From: 2010.03.12/outbox.cif.g09.slc.cpg/sg57_6_cif.got.tgz:10052.got - 2010.04.16 15:48:40.
