data_PCOD8233354
_publ_section_title
;
Structure prediction by ZEFSAII (Michael W. Deem and Ramdas Pophale) SiO2 
 PCOD8233354
Probable space group: P B C M
;
_chemical_formula_sum "Si O2"
_cell_formula_units_Z 56
_cell_length_a 18.667316
_cell_length_b 9.619055
_cell_length_c 17.168097
_cell_angle_alpha 90.000000
_cell_angle_beta 90.000000
_cell_angle_gamma 90.000000
_cell_volume 3082.736792
_symmetry_space_group_name_H-M "P B C M"
_symmetry_group_IT_number 57
_symmetry_cell_setting 'orthorhombic'
loop_
_space_group_symop_operation_xyz
x,y,z
-x,-y,1/2+z
x,1/2-y,-z
-x,1/2+y,1/2-z
-x,-y,-z
x,y,1/2-z
-x,1/2+y,z
x,1/2-y,1/2+z
loop_
_atom_site_type_symbol
_atom_site_label
_atom_site_fract_x
_atom_site_fract_y
_atom_site_fract_z
Si Si1 0.041858 0.535905 0.076520
Si Si2 0.937204 0.745765 0.160957
Si Si3 0.658335 0.835830 0.837035
Si Si4 0.434845 0.403898 0.523443
Si Si5 0.295673 0.382457 0.445929
Si Si6 0.811770 0.541112 0.337731
Si Si7 0.184445 0.900928 0.499207
O O1 0.061083 0.392188 0.118236
O O2 0.112920 0.615469 0.049772
O O3 0.996189 0.637827 0.130305
O O4 0.000000 0.500000 0.000000
O O5 0.955886 0.774229 0.250000
O O6 0.857392 0.682432 0.150544
O O7 0.629136 0.827036 0.750000
O O8 0.591629 0.898262 0.886490
O O9 0.685880 0.680884 0.861198
O O10 0.727072 0.935307 0.844528
O O11 0.458132 0.250000 0.500000
O O12 0.500000 0.500000 0.500000
O O13 0.366987 0.460057 0.475185
O O14 0.278464 0.250000 0.500000
O O15 0.230967 0.489002 0.451749
O O16 0.829076 0.480740 0.250000
O O17 0.832385 0.440115 0.409071
O O18 0.222400 0.750000 0.500000
#
# Coordination Sequence:
#
# PCOD8233354 Si02
#       7
#     8   8   8   8   8   8   8
#     4  12  24  37  58  83 111 150 196 242 292 356
#     4  11  24  41  59  81 112 151 193 246 302 355
#     4   9  17  34  60  87 110 148 199 247 284 339
#     4   9  18  33  54  84 114 153 193 233 280 343
#     4   9  18  35  59  82 112 151 197 238 277 348
#     4  10  20  37  61  83 110 148 192 238 295 352
#     4  12  23  37  56  90 117 150 192 245 298 351
#
# _framework density 18.165678
#
# number of rings (size 3 to 8) (size 9 to 14) (size 15 to 20)
#    0.000    2.000    4.286    2.571    0.000    0.571 
#    0.000    5.000    0.000    0.000    0.000    0.000 
#    0.000    0.000    0.000    0.000    0.000    0.000 
#
# Total GULP energy -693885.801414 kJ/mol
# GULP energy per Si atom -12390.817882 kJ/mol
# Density = 1.812433 g / cm^3
# Si number density = 18.165678 Si / 1000 Ang^3
#
#
#
# Elastic Constant Matrix: (Units=GPa)
#
#
# Indices 1 2 3 4 5 6 
#
# 1 93.0256 34.7799 39.4409 0.0000 0.0000 0.0000
# 2 34.7799 83.9873 41.4622 0.0000 0.0000 0.0000
# 3 39.4409 41.4622 134.1181 0.0000 0.0000 0.0000
# 4 0.0000 0.0000 0.0000 24.3620 0.0000 0.0000
# 5 0.0000 0.0000 0.0000 0.0000 23.4091 0.0000
# 6 0.0000 0.0000 0.0000 0.0000 0.0000 33.9377
#
#
#
# Elastic Compliance Matrix: (Units=1/GPa)
#
#
# Indices 1 2 3 4 5 6 
#
# 1 0.013466 -0.004274 -0.002639 0.000000 0.000000 0.000000
# 2 -0.004274 0.015407 -0.003506 0.000000 0.000000 0.000000
# 3 -0.002639 -0.003506 0.009316 0.000000 0.000000 0.000000
# 4 0.000000 0.000000 0.000000 0.041047 0.000000 0.000000
# 5 0.000000 0.000000 0.000000 0.000000 0.042718 0.000000
# 6 0.000000 0.000000 0.000000 0.000000 0.000000 0.029466
#
#
# Mechanical properties :
#
#
# Convention : Reuss Voigt Hill
#
# Bulk Modulus (GPa) = 57.63079 60.27743 58.95411
# Shear Modulus (GPa) = 28.08301 29.37164 28.72732
#
# Velocity S-wave (km/s) = 3.93611 4.02540 3.98100
# Velocity P-wave (km/s) = 7.24232 7.40670 7.32497
#
# Compressibility (1/GPa) = 0.01735183
#
# Stress axis : x y z
#
# Youngs Moduli (GPa) = 74.25868 64.90411 107.34078
#
# Poissons Ratio (x) = 0.27739 0.28326
# Poissons Ratio (y) = 0.31737 0.37637
# Poissons Ratio (z) = 0.19596 0.22757
#
# Static dielectric constant tensor:
#      x y z
#    x 3.283770 0.000000 0.000000 
#    y 0.000000 3.237680 0.000000 
#    z 0.000000 0.000000 3.379660 
# 
# 
# High freq. dielectric constant tensor:
#      x y z
#    x 1.700830 0.000000 0.000000 
#    y 0.000000 1.683950 0.000000 
#    z 0.000000 0.000000 1.711930 
# 
# From -- ./inp_files/22998.got.cif
#   From: 2010.03.12/outbox.cif.g09.slc.cpg/sg57_12_cif.got.tgz:22998.got - 2010.04.16 15:48:40.
