data_PCOD8233983
_publ_section_title
;
Structure prediction by ZEFSAII (Michael W. Deem and Ramdas Pophale) SiO2 
 PCOD8233983
Probable space group: P B C M
;
_chemical_formula_sum "Si O2"
_cell_formula_units_Z 56
_cell_length_a 9.280739
_cell_length_b 21.540630
_cell_length_c 12.669949
_cell_angle_alpha 90.000000
_cell_angle_beta 90.000000
_cell_angle_gamma 90.000000
_cell_volume 2532.887070
_symmetry_space_group_name_H-M "P B C M"
_symmetry_group_IT_number 57
_symmetry_cell_setting 'orthorhombic'
loop_
_space_group_symop_operation_xyz
x,y,z
-x,-y,1/2+z
x,1/2-y,-z
-x,1/2+y,1/2-z
-x,-y,-z
x,y,1/2-z
-x,1/2+y,z
x,1/2-y,1/2+z
loop_
_atom_site_type_symbol
_atom_site_label
_atom_site_fract_x
_atom_site_fract_y
_atom_site_fract_z
Si Si1 0.536517 0.785012 0.630093
Si Si2 0.378217 0.903345 0.871315
Si Si3 0.947916 0.088354 0.427390
Si Si4 0.399492 0.350393 0.375891
Si Si5 0.127224 0.972435 0.367142
Si Si6 0.823213 0.683659 0.465324
Si Si7 0.543939 0.022345 0.626128
O O1 0.487066 0.777082 0.750000
O O2 0.437839 0.839245 0.576586
O O3 0.527112 0.714727 0.579972
O O4 0.701203 0.807982 0.623806
O O5 0.429419 0.904364 0.750000
O O6 0.206932 0.903689 0.875460
O O7 0.447396 0.966139 0.926660
O O8 0.934453 0.078088 0.552814
O O9 0.043007 0.149247 0.411683
O O10 0.027815 0.032694 0.368783
O O11 0.374183 0.347345 0.250000
O O12 0.244699 0.354537 0.434810
O O13 0.496861 0.408682 0.411077
O O14 0.125266 0.943261 0.250000
O O15 0.289502 0.989739 0.401226
O O16 0.884679 0.750000 0.500000
O O17 0.514630 0.019347 0.750000
#
# Coordination Sequence:
#
# PCOD8233983 Si02
#       7
#     8   8   8   8   8   8   8
#     4   9  19  38  62  86 114 154 201 247 294 345
#     4  10  21  37  60  89 118 151 197 248 292 344
#     4  11  24  38  58  88 120 161 193 234 298 357
#     4   9  19  36  62  88 113 150 200 248 294 343
#     4  10  23  41  58  84 120 155 194 239 294 358
#     4  10  22  40  58  85 116 156 199 239 286 354
#     4   9  19  36  60  86 112 147 193 247 296 340
#
# _framework density 22.109158000000001
#
# number of rings (size 3 to 8) (size 9 to 14) (size 15 to 20)
#    0.000    2.286    0.000    1.286    6.000    3.429 
#    2.571    0.000    0.000    0.000    0.000    0.000 
#    0.000    0.000    0.000    0.000    0.000    0.000 
#
# Total GULP energy -694283.453388 kJ/mol
# GULP energy per Si atom -12397.918811 kJ/mol
# Density = 2.205884 g / cm^3
# Si number density = 22.109158 Si / 1000 Ang^3
#
#
#
# Elastic Constant Matrix: (Units=GPa)
#
#
# Indices 1 2 3 4 5 6 
#
# 1 126.1181 75.8199 -0.7832 0.0000 0.0000 0.0000
# 2 75.8199 144.4389 22.6853 0.0000 0.0000 0.0000
# 3 -0.7832 22.6853 47.9078 0.0000 0.0000 0.0000
# 4 0.0000 0.0000 0.0000 23.7628 0.0000 0.0000
# 5 0.0000 0.0000 0.0000 0.0000 28.7706 0.0000
# 6 0.0000 0.0000 0.0000 0.0000 0.0000 31.7134
#
#
#
# Elastic Compliance Matrix: (Units=1/GPa)
#
#
# Indices 1 2 3 4 5 6 
#
# 1 0.012094 -0.006892 0.003461 0.000000 0.000000 0.000000
# 2 -0.006892 0.011407 -0.005514 0.000000 0.000000 0.000000
# 3 0.003461 -0.005514 0.023541 0.000000 0.000000 0.000000
# 4 0.000000 0.000000 0.000000 0.042083 0.000000 0.000000
# 5 0.000000 0.000000 0.000000 0.000000 0.034758 0.000000
# 6 0.000000 0.000000 0.000000 0.000000 0.000000 0.031532
#
#
# Mechanical properties :
#
#
# Convention : Reuss Voigt Hill
#
# Bulk Modulus (GPa) = 34.30274 57.10099 45.70186
# Shear Modulus (GPa) = 27.31905 31.56554 29.44229
#
# Velocity S-wave (km/s) = 3.51899 3.78261 3.65318
# Velocity P-wave (km/s) = 5.66214 6.70525 6.20565
#
# Compressibility (1/GPa) = 0.02915219
#
# Stress axis : x y z
#
# Youngs Moduli (GPa) = 82.68597 87.66375 42.47891
#
# Poissons Ratio (x) = 0.60418 -0.14703
# Poissons Ratio (y) = 0.56988 0.23424
# Poissons Ratio (z) = -0.28620 0.48340
#
# Static dielectric constant tensor:
#      x y z
#    x 3.694340 0.000000 0.000000 
#    y 0.000000 4.264450 0.000000 
#    z 0.000000 0.000000 4.200400 
# 
# 
# High freq. dielectric constant tensor:
#      x y z
#    x 1.845710 0.000000 0.000000 
#    y 0.000000 1.875990 0.000000 
#    z 0.000000 0.000000 1.897490 
# 
# From -- ./inp_files/16718.got.cif
#   From: 2010.03.12/outbox.cif.g09.slc.cpg/sg57_9_cif.got.tgz:16718.got - 2010.04.16 15:48:40.
