data_PCOD8233157
_publ_section_title
;
Structure prediction by ZEFSAII (Michael W. Deem and Ramdas Pophale) SiO2 
 PCOD8233157
Probable space group: P B C M
;
_chemical_formula_sum "Si O2"
_cell_formula_units_Z 40
_cell_length_a 25.811048
_cell_length_b 9.189984
_cell_length_c 8.558218
_cell_angle_alpha 90.000000
_cell_angle_beta 90.000000
_cell_angle_gamma 90.000000
_cell_volume 2030.035995
_symmetry_space_group_name_H-M "P B C M"
_symmetry_group_IT_number 57
_symmetry_cell_setting 'orthorhombic'
loop_
_space_group_symop_operation_xyz
x,y,z
-x,-y,1/2+z
x,1/2-y,-z
-x,1/2+y,1/2-z
-x,-y,-z
x,y,1/2-z
-x,1/2+y,z
x,1/2-y,1/2+z
loop_
_atom_site_type_symbol
_atom_site_label
_atom_site_fract_x
_atom_site_fract_y
_atom_site_fract_z
Si Si1 0.253526 0.907687 0.430570
Si Si2 0.452162 0.088939 0.065522
Si Si3 0.860826 0.088877 0.931539
Si Si4 0.047317 0.090013 0.566643
Si Si5 0.642570 0.086804 0.066157
O O1 0.245955 0.750000 0.500000
O O2 0.269875 0.898498 0.250000
O O3 0.197035 0.981071 0.451887
O O4 0.300880 0.982959 0.524803
O O5 0.456068 0.094507 0.250000
O O6 0.454276 0.250000 0.000000
O O7 0.500000 0.000000 0.000000
O O8 0.399231 0.013696 0.015518
O O9 0.876143 0.096164 0.750000
O O10 0.865631 0.250000 0.000000
O O11 0.898454 0.982287 0.022571
O O12 0.044981 0.250000 0.500000
O O13 0.041741 0.097549 0.750000
O O14 0.000000 0.000000 0.500000
O O15 0.633024 0.087779 0.250000
O O16 0.638741 0.250000 0.000000
#
# Coordination Sequence:
#
# PCOD8233157 Si02
#       5
#     8   8   8   8   8
#     4   9  17  31  54  84 117 153 193 237 282 335
#     4  12  25  43  63  87 117 151 192 238 290 345
#     4  10  20  36  59  88 120 154 194 237 285 338
#     4  12  25  42  62  85 115 150 191 237 289 344
#     4  11  21  36  59  88 120 156 196 239 286 338
#
# _framework density 19.704084000000002
#
# number of rings (size 3 to 8) (size 9 to 14) (size 15 to 20)
#    0.000    1.200    0.000    9.000    0.000    2.400 
#    0.000    1.000    0.000    4.800    0.000    0.000 
#    0.000    0.000    0.000    0.000    0.000    0.000 
#
# Total GULP energy -495947.096463 kJ/mol
# GULP energy per Si atom -12398.677412 kJ/mol
# Density = 1.965924 g / cm^3
# Si number density = 19.704084 Si / 1000 Ang^3
#
#
#
# Elastic Constant Matrix: (Units=GPa)
#
#
# Indices 1 2 3 4 5 6 
#
# 1 161.6006 74.8874 64.0826 0.0000 0.0000 0.0000
# 2 74.8874 121.1461 57.7210 0.0000 0.0000 0.0000
# 3 64.0826 57.7210 183.9544 0.0000 0.0000 0.0000
# 4 0.0000 0.0000 0.0000 33.8522 0.0000 0.0000
# 5 0.0000 0.0000 0.0000 0.0000 39.4515 0.0000
# 6 0.0000 0.0000 0.0000 0.0000 0.0000 42.3033
#
#
#
# Elastic Compliance Matrix: (Units=1/GPa)
#
#
# Indices 1 2 3 4 5 6 
#
# 1 0.009078 -0.004827 -0.001648 0.000000 0.000000 0.000000
# 2 -0.004827 0.012272 -0.002169 0.000000 0.000000 0.000000
# 3 -0.001648 -0.002169 0.006691 0.000000 0.000000 0.000000
# 4 0.000000 0.000000 0.000000 0.029540 0.000000 0.000000
# 5 0.000000 0.000000 0.000000 0.000000 0.025348 0.000000
# 6 0.000000 0.000000 0.000000 0.000000 0.000000 0.023639
#
#
# Mechanical properties :
#
#
# Convention : Reuss Voigt Hill
#
# Bulk Modulus (GPa) = 92.99583 95.56480 94.28031
# Shear Modulus (GPa) = 39.23431 41.12208 40.17820
#
# Velocity S-wave (km/s) = 4.46710 4.57331 4.52052
# Velocity P-wave (km/s) = 8.59682 8.74598 8.67172
#
# Compressibility (1/GPa) = 0.01075317
#
# Stress axis : x y z
#
# Youngs Moduli (GPa) = 110.15240 81.48883 149.45702
#
# Poissons Ratio (x) = 0.39332 0.24631
# Poissons Ratio (y) = 0.53166 0.32420
# Poissons Ratio (z) = 0.18154 0.17676
#
# Static dielectric constant tensor:
#      x y z
#    x 4.020710 0.000000 0.000000 
#    y 0.000000 3.399780 0.000000 
#    z 0.000000 0.000000 3.880510 
# 
# 
# High freq. dielectric constant tensor:
#      x y z
#    x 1.797140 0.000000 0.000000 
#    y 0.000000 1.739670 0.000000 
#    z 0.000000 0.000000 1.793340 
# 
# From -- ./inp_files/8929.got.cif
#   From: 2010.03.12/outbox.cif.g09.slc.cpg/sg57_5_cif.got.tgz:8929.got - 2010.04.16 15:48:40.
