data_PCOD8233955
_publ_section_title
;
Structure prediction by ZEFSAII (Michael W. Deem and Ramdas Pophale) SiO2 
 PCOD8233955
Probable space group: P B C M
;
_chemical_formula_sum "Si O2"
_cell_formula_units_Z 48
_cell_length_a 30.323260
_cell_length_b 9.042561
_cell_length_c 8.697232
_cell_angle_alpha 90.000000
_cell_angle_beta 90.000000
_cell_angle_gamma 90.000000
_cell_volume 2384.780391
_symmetry_space_group_name_H-M "P B C M"
_symmetry_group_IT_number 57
_symmetry_cell_setting 'orthorhombic'
loop_
_space_group_symop_operation_xyz
x,y,z
-x,-y,1/2+z
x,1/2-y,-z
-x,1/2+y,1/2-z
-x,-y,-z
x,y,1/2-z
-x,1/2+y,z
x,1/2-y,1/2+z
loop_
_atom_site_type_symbol
_atom_site_label
_atom_site_fract_x
_atom_site_fract_y
_atom_site_fract_z
Si Si1 0.461988 0.406817 0.574137
Si Si2 0.362973 0.411903 0.571339
Si Si3 0.286024 0.910111 0.568418
Si Si4 0.791792 0.593149 0.072028
Si Si5 0.959151 0.912419 0.432199
Si Si6 0.879752 0.088776 0.571526
O O1 0.463355 0.250000 0.500000
O O2 0.500000 0.500000 0.500000
O O3 0.473867 0.390056 0.750000
O O4 0.412888 0.471909 0.549348
O O5 0.355888 0.250000 0.500000
O O6 0.350117 0.401840 0.750000
O O7 0.333439 0.533439 0.487170
O O8 0.275180 0.750000 0.500000
O O9 0.285536 0.896536 0.750000
O O10 0.250064 0.028384 0.515473
O O11 0.779758 0.614331 0.250000
O O12 0.832047 0.481853 0.049784
O O13 0.804888 0.750000 0.000000
O O14 0.959370 0.750000 0.500000
O O15 0.963198 0.904756 0.250000
O O16 0.914152 0.991116 0.478382
O O17 0.000000 0.000000 0.500000
O O18 0.878725 0.250000 0.500000
O O19 0.893618 0.096468 0.750000
#
# Coordination Sequence:
#
# PCOD8233955 Si02
#       6
#     8   8   8   8   8   8
#     4  10  21  37  59  85 116 153 194 241 292 350
#     4  10  21  39  61  86 116 153 196 241 293 351
#     4  12  25  41  62  88 120 156 197 246 298 353
#     4  11  24  42  65  92 124 161 202 247 297 356
#     4  12  25  43  66  93 127 165 208 256 307 363
#     4  11  24  42  65  94 127 164 205 251 304 359
#
# _framework density 20.127638999999999
#
# number of rings (size 3 to 8) (size 9 to 14) (size 15 to 20)
#    0.000    1.000    0.000    7.000    0.000    8.000 
#    0.000    0.000    0.000    0.000    0.000    0.000 
#    0.000    0.000    0.000    0.000    0.000    0.000 
#
# Total GULP energy -595437.381898 kJ/mol
# GULP energy per Si atom -12404.945456 kJ/mol
# Density = 2.008183 g / cm^3
# Si number density = 20.127639 Si / 1000 Ang^3
#
#
#
# Elastic Constant Matrix: (Units=GPa)
#
#
# Indices 1 2 3 4 5 6 
#
# 1 106.8438 42.5084 69.9312 0.0000 0.0000 0.0000
# 2 42.5084 122.9961 67.8351 0.0000 0.0000 0.0000
# 3 69.9312 67.8351 190.8531 0.0000 0.0000 0.0000
# 4 0.0000 0.0000 0.0000 41.8193 0.0000 0.0000
# 5 0.0000 0.0000 0.0000 0.0000 32.9347 0.0000
# 6 0.0000 0.0000 0.0000 0.0000 0.0000 311.0112
#
#
#
# Elastic Compliance Matrix: (Units=1/GPa)
#
#
# Indices 1 2 3 4 5 6 
#
# 1 0.012809 -0.002287 -0.003881 0.000000 0.000000 0.000000
# 2 -0.002287 0.010521 -0.002902 0.000000 0.000000 0.000000
# 3 -0.003881 -0.002902 0.007693 0.000000 0.000000 0.000000
# 4 0.000000 0.000000 0.000000 0.023912 0.000000 0.000000
# 5 0.000000 0.000000 0.000000 0.000000 0.030363 0.000000
# 6 0.000000 0.000000 0.000000 0.000000 0.000000 0.003215
#
#
# Mechanical properties :
#
#
# Convention : Reuss Voigt Hill
#
# Bulk Modulus (GPa) = 77.60910 86.80468 82.20689
# Shear Modulus (GPa) = 45.06662 93.18093 69.12377
#
# Velocity S-wave (km/s) = 4.73698 6.81143 5.86662
# Velocity P-wave (km/s) = 8.28015 10.25092 9.31779
#
# Compressibility (1/GPa) = 0.01288509
#
# Stress axis : x y z
#
# Youngs Moduli (GPa) = 78.06874 95.04865 129.98993
#
# Poissons Ratio (x) = 0.21734 0.50446
# Poissons Ratio (y) = 0.17852 0.37718
# Poissons Ratio (z) = 0.30296 0.27579
#
# Static dielectric constant tensor:
#      x y z
#    x 3.778460 0.000000 0.000000 
#    y 0.000000 3.683040 0.000000 
#    z 0.000000 0.000000 3.901770 
# 
# 
# High freq. dielectric constant tensor:
#      x y z
#    x 1.803450 0.000000 0.000000 
#    y 0.000000 1.794190 0.000000 
#    z 0.000000 0.000000 1.808850 
# 
# From -- ./inp_files/10068.got.cif
#   From: 2010.03.12/outbox.cif.g09.slc.cpg/sg57_6_cif.got.tgz:10068.got - 2010.04.16 15:48:40.
