data_PCOD8233893
_publ_section_title
;
Structure prediction by ZEFSAII (Michael W. Deem and Ramdas Pophale) SiO2 
 PCOD8233893
Probable space group: P B C M
;
_chemical_formula_sum "Si O2"
_cell_formula_units_Z 56
_cell_length_a 20.900523
_cell_length_b 15.377461
_cell_length_c 8.655529
_cell_angle_alpha 90.000000
_cell_angle_beta 90.000000
_cell_angle_gamma 90.000000
_cell_volume 2781.860858
_symmetry_space_group_name_H-M "P B C M"
_symmetry_group_IT_number 57
_symmetry_cell_setting 'orthorhombic'
loop_
_space_group_symop_operation_xyz
x,y,z
-x,-y,1/2+z
x,1/2-y,-z
-x,1/2+y,1/2-z
-x,-y,-z
x,y,1/2-z
-x,1/2+y,z
x,1/2-y,1/2+z
loop_
_atom_site_type_symbol
_atom_site_label
_atom_site_fract_x
_atom_site_fract_y
_atom_site_fract_z
Si Si1 0.790504 0.997306 0.068633
Si Si2 0.590402 0.337799 0.427778
Si Si3 0.119024 0.338063 0.067497
Si Si4 0.008115 0.595343 0.433107
Si Si5 0.536548 0.580508 0.929571
Si Si6 0.654919 0.985298 0.932515
Si Si7 0.859260 0.158615 0.932920
O O1 0.794166 0.016030 0.250000
O O2 0.838386 0.920437 0.020174
O O3 0.720429 0.966175 0.020005
O O4 0.808433 0.084441 0.977009
O O5 0.618599 0.250000 0.500000
O O6 0.607123 0.334983 0.250000
O O7 0.513217 0.340153 0.455325
O O8 0.626827 0.422501 0.494336
O O9 0.111003 0.331350 0.250000
O O10 0.151072 0.250000 0.000000
O O11 0.050253 0.345417 0.987192
O O12 0.011181 0.589483 0.250000
O O13 0.072490 0.638316 0.493627
O O14 0.000000 0.500000 0.500000
O O15 0.550603 0.565269 0.750000
O O16 0.500000 0.500000 0.000000
O O17 0.604212 0.590581 0.018972
O O18 0.665554 0.982915 0.750000
O O19 0.865588 0.164261 0.750000
O O20 0.833894 0.250000 0.000000
#
# Coordination Sequence:
#
# PCOD8233893 Si02
#       7
#     8   8   8   8   8   8   8
#     4  11  24  42  63  88 121 161 206 254 304 363
#     4   9  19  33  53  83 115 146 184 233 284 343
#     4  11  24  42  65  91 121 156 202 254 310 370
#     4  12  23  39  64  93 124 158 200 250 310 368
#     4   9  17  32  53  79 108 140 182 228 277 331
#     4  10  21  37  57  82 113 152 196 238 289 351
#     4  12  25  42  64  90 124 163 204 253 307 367
#
# _framework density 20.130410000000001
#
# number of rings (size 3 to 8) (size 9 to 14) (size 15 to 20)
#    0.000    1.429    1.429    5.571    0.000    5.714 
#    0.000    2.143    0.000    0.000    0.000    0.000 
#    0.000    0.000    0.000    0.000    0.000    0.000 
#
# Total GULP energy -694387.240064 kJ/mol
# GULP energy per Si atom -12399.772144 kJ/mol
# Density = 2.008459 g / cm^3
# Si number density = 20.130410 Si / 1000 Ang^3
#
#
#
# Elastic Constant Matrix: (Units=GPa)
#
#
# Indices 1 2 3 4 5 6 
#
# 1 90.8398 0.6634 24.8784 0.0000 0.0000 0.0000
# 2 0.6634 72.9166 35.3021 0.0000 0.0000 0.0000
# 3 24.8784 35.3021 101.0913 0.0000 0.0000 0.0000
# 4 0.0000 0.0000 0.0000 34.3706 0.0000 0.0000
# 5 0.0000 0.0000 0.0000 0.0000 34.7154 0.0000
# 6 0.0000 0.0000 0.0000 0.0000 0.0000 15.6914
#
#
#
# Elastic Compliance Matrix: (Units=1/GPa)
#
#
# Indices 1 2 3 4 5 6 
#
# 1 0.011954 0.001583 -0.003495 0.000000 0.000000 0.000000
# 2 0.001583 0.016714 -0.006226 0.000000 0.000000 0.000000
# 3 -0.003495 -0.006226 0.012926 0.000000 0.000000 0.000000
# 4 0.000000 0.000000 0.000000 0.029095 0.000000 0.000000
# 5 0.000000 0.000000 0.000000 0.000000 0.028806 0.000000
# 6 0.000000 0.000000 0.000000 0.000000 0.000000 0.063729
#
#
# Mechanical properties :
#
#
# Convention : Reuss Voigt Hill
#
# Bulk Modulus (GPa) = 39.49635 42.94838 41.22237
# Shear Modulus (GPa) = 26.60426 30.55574 28.58000
#
# Velocity S-wave (km/s) = 3.63932 3.90024 3.77203
# Velocity P-wave (km/s) = 6.10920 6.45475 6.28435
#
# Compressibility (1/GPa) = 0.02531880
#
# Stress axis : x y z
#
# Youngs Moduli (GPa) = 83.65456 59.82866 77.36086
#
# Poissons Ratio (x) = -0.09472 0.27035
# Poissons Ratio (y) = -0.13244 0.48168
# Poissons Ratio (z) = 0.29235 0.37252
#
# Static dielectric constant tensor:
#      x y z
#    x 3.845450 0.000000 0.000000 
#    y 0.000000 4.132560 0.000000 
#    z 0.000000 0.000000 3.764320 
# 
# 
# High freq. dielectric constant tensor:
#      x y z
#    x 1.784550 0.000000 0.000000 
#    y 0.000000 1.777690 0.000000 
#    z 0.000000 0.000000 1.797950 
# 
# From -- ./inp_files/8209.got.cif
#   From: 2010.03.12/outbox.cif.g09.slc.cpg/sg57_5_cif.got.tgz:8209.got - 2010.04.16 15:48:40.
