data_PCOD8233471
_publ_section_title
;
Structure prediction by ZEFSAII (Michael W. Deem and Ramdas Pophale) SiO2 
 PCOD8233471
Probable space group: P B C M
;
_chemical_formula_sum "Si O2"
_cell_formula_units_Z 32
_cell_length_a 8.656999
_cell_length_b 13.381404
_cell_length_c 14.034280
_cell_angle_alpha 90.000000
_cell_angle_beta 90.000000
_cell_angle_gamma 90.000000
_cell_volume 1625.770306
_symmetry_space_group_name_H-M "P B C M"
_symmetry_group_IT_number 57
_symmetry_cell_setting 'orthorhombic'
loop_
_space_group_symop_operation_xyz
x,y,z
-x,-y,1/2+z
x,1/2-y,-z
-x,1/2+y,1/2-z
-x,-y,-z
x,y,1/2-z
-x,1/2+y,z
x,1/2-y,1/2+z
loop_
_atom_site_type_symbol
_atom_site_label
_atom_site_fract_x
_atom_site_fract_y
_atom_site_fract_z
Si Si1 0.083373 0.302782 0.250000
Si Si2 0.644123 0.180712 0.250000
Si Si3 0.406172 0.528361 0.594274
Si Si4 0.172001 0.799137 0.402685
Si Si5 0.681689 0.629906 0.250000
Si Si6 0.367770 0.444132 0.250000
O O1 0.158836 0.191863 0.250000
O O2 0.207619 0.388918 0.250000
O O3 0.981803 0.321198 0.156518
O O4 0.719038 0.224199 0.155066
O O5 0.461694 0.207669 0.250000
O O6 0.666598 0.062091 0.250000
O O7 0.500000 0.500000 0.500000
O O8 0.262915 0.599920 0.571324
O O9 0.333313 0.435591 0.653425
O O10 0.531009 0.586407 0.658529
O O11 0.116780 0.750000 0.500000
#
# Coordination Sequence:
#
# PCOD8233471 Si02
#       6
#     4   4   8   8   4   4
#     4  11  24  38  56  85 124 155 186 235 296 358
#     4   9  19  38  61  81 108 147 193 237 280 336
#     4  10  21  39  63  86 110 149 202 246 282 338
#     4  11  22  37  56  84 117 152 187 234 293 349
#     4  10  20  38  59  85 111 148 193 241 292 345
#     4  10  21  38  60  85 111 150 194 239 286 337
#
# _framework density 19.682977000000001
#
# number of rings (size 3 to 8) (size 9 to 14) (size 15 to 20)
#    0.000    2.000    0.000    7.500    0.000    6.000 
#    0.000    5.000    0.000    0.000    0.000    0.000 
#    0.000    0.000    0.000    0.000    0.000    0.000 
#
# Total GULP energy -396725.844431 kJ/mol
# GULP energy per Si atom -12397.682638 kJ/mol
# Density = 1.963818 g / cm^3
# Si number density = 19.682977 Si / 1000 Ang^3
#
#
#
# Elastic Constant Matrix: (Units=GPa)
#
#
# Indices 1 2 3 4 5 6 
#
# 1 144.8946 53.1216 57.4724 0.0000 0.0000 0.0000
# 2 53.1216 68.7468 30.8923 0.0000 0.0000 0.0000
# 3 57.4724 30.8923 153.6788 0.0000 0.0000 0.0000
# 4 0.0000 0.0000 0.0000 20.8827 0.0000 0.0000
# 5 0.0000 0.0000 0.0000 0.0000 22.3087 0.0000
# 6 0.0000 0.0000 0.0000 0.0000 0.0000 44.9432
#
#
#
# Elastic Compliance Matrix: (Units=1/GPa)
#
#
# Indices 1 2 3 4 5 6 
#
# 1 0.010442 -0.006941 -0.002510 0.000000 0.000000 0.000000
# 2 -0.006941 0.020604 -0.001546 0.000000 0.000000 0.000000
# 3 -0.002510 -0.001546 0.007756 0.000000 0.000000 0.000000
# 4 0.000000 0.000000 0.000000 0.047887 0.000000 0.000000
# 5 0.000000 0.000000 0.000000 0.000000 0.044826 0.000000
# 6 0.000000 0.000000 0.000000 0.000000 0.000000 0.022250
#
#
# Mechanical properties :
#
#
# Convention : Reuss Voigt Hill
#
# Bulk Modulus (GPa) = 59.49157 72.25476 65.87317
# Shear Modulus (GPa) = 27.56938 32.68251 30.12595
#
# Velocity S-wave (km/s) = 3.74661 4.07928 3.91648
# Velocity P-wave (km/s) = 7.00048 7.67960 7.34789
#
# Compressibility (1/GPa) = 0.01680910
#
# Stress axis : x y z
#
# Youngs Moduli (GPa) = 95.77042 48.53423 128.92452
#
# Poissons Ratio (x) = 0.33686 0.32357
# Poissons Ratio (y) = 0.66470 0.19934
# Poissons Ratio (z) = 0.24036 0.07504
#
# Static dielectric constant tensor:
#      x y z
#    x 3.663450 0.000000 0.000000 
#    y 0.000000 3.511960 0.000000 
#    z 0.000000 0.000000 3.689370 
# 
# 
# High freq. dielectric constant tensor:
#      x y z
#    x 1.770320 0.000000 0.000000 
#    y 0.000000 1.768970 0.000000 
#    z 0.000000 0.000000 1.772920 
# 
# From -- ./inp_files/15576.got.cif
#   From: 2010.03.12/outbox.cif.g09.slc.cpg/sg57_8_cif.got.tgz:15576.got - 2010.04.16 15:48:40.
