data_PCOD8233254
_publ_section_title
;
Structure prediction by ZEFSAII (Michael W. Deem and Ramdas Pophale) SiO2 
 PCOD8233254
Probable space group: P B C M
;
_chemical_formula_sum "Si O2"
_cell_formula_units_Z 64
_cell_length_a 9.420135
_cell_length_b 20.556333
_cell_length_c 16.593947
_cell_angle_alpha 90.000000
_cell_angle_beta 90.000000
_cell_angle_gamma 90.000000
_cell_volume 3213.308847
_symmetry_space_group_name_H-M "P B C M"
_symmetry_group_IT_number 57
_symmetry_cell_setting 'orthorhombic'
loop_
_space_group_symop_operation_xyz
x,y,z
-x,-y,1/2+z
x,1/2-y,-z
-x,1/2+y,1/2-z
-x,-y,-z
x,y,1/2-z
-x,1/2+y,z
x,1/2-y,1/2+z
loop_
_atom_site_type_symbol
_atom_site_label
_atom_site_fract_x
_atom_site_fract_y
_atom_site_fract_z
Si Si1 0.362220 0.523930 0.157638
Si Si2 0.888141 0.630928 0.343462
Si Si3 0.379244 0.377199 0.344634
Si Si4 0.681243 0.982764 0.655014
Si Si5 0.846826 0.775101 0.157794
Si Si6 0.157331 0.764893 0.340352
Si Si7 0.311007 0.621245 0.904049
Si Si8 0.188320 0.636387 0.077432
O O1 0.352872 0.545092 0.250000
O O2 0.311583 0.449221 0.145855
O O3 0.522462 0.532073 0.124719
O O4 0.263937 0.571966 0.108643
O O5 0.935643 0.620165 0.250000
O O6 0.781309 0.575516 0.372675
O O7 0.803414 0.699284 0.351535
O O8 0.021255 0.628352 0.403894
O O9 0.419007 0.365592 0.250000
O O10 0.269607 0.323704 0.381092
O O11 0.518519 0.373459 0.400991
O O12 0.678789 0.993694 0.750000
O O13 0.740289 0.048529 0.615331
O O14 0.852759 0.797668 0.250000
O O15 0.004222 0.782388 0.118862
O O16 0.124601 0.740798 0.250000
O O17 0.255557 0.828000 0.337660
O O18 0.237240 0.704518 0.382997
O O19 0.233359 0.643800 0.985188
#
# Coordination Sequence:
#
# PCOD8233254 Si02
#       8
#     8   8   8   8   8   8   8   8
#     4   9  18  34  55  79 107 142 184 228 271 321
#     4   9  18  35  57  80 108 143 186 232 272 318
#     4   9  18  34  56  83 112 143 183 226 269 322
#     4   9  19  35  54  78 108 145 190 231 269 320
#     4   8  16  32  56  82 103 132 180 232 270 307
#     4  10  20  37  58  78 103 139 184 229 273 323
#     4  11  22  35  53  80 115 147 175 220 281 336
#     4  11  22  35  53  80 112 143 180 226 277 332
#
# _framework density 19.917164
#
# number of rings (size 3 to 8) (size 9 to 14) (size 15 to 20)
#    0.000    2.500    0.000    4.125    0.000    4.500 
#    0.000    6.250    0.000    1.500    0.000    0.000 
#    0.000    0.000    0.000    0.000    0.000    0.000 
#
# Total GULP energy -793213.371893 kJ/mol
# GULP energy per Si atom -12393.958936 kJ/mol
# Density = 1.987183 g / cm^3
# Si number density = 19.917164 Si / 1000 Ang^3
#
#
#
# Elastic Constant Matrix: (Units=GPa)
#
#
# Indices 1 2 3 4 5 6 
#
# 1 85.9294 71.4387 28.1953 0.0000 0.0000 0.0000
# 2 71.4387 144.6806 22.0852 0.0000 0.0000 0.0000
# 3 28.1953 22.0852 49.3887 0.0000 0.0000 0.0000
# 4 0.0000 0.0000 0.0000 19.9788 0.0000 0.0000
# 5 0.0000 0.0000 0.0000 0.0000 10.1192 0.0000
# 6 0.0000 0.0000 0.0000 0.0000 0.0000 46.2051
#
#
#
# Elastic Compliance Matrix: (Units=1/GPa)
#
#
# Indices 1 2 3 4 5 6 
#
# 1 0.022646 -0.009883 -0.008509 0.000000 0.000000 0.000000
# 2 -0.009883 0.011731 0.000396 0.000000 0.000000 0.000000
# 3 -0.008509 0.000396 0.024928 0.000000 0.000000 0.000000
# 4 0.000000 0.000000 0.000000 0.050053 0.000000 0.000000
# 5 0.000000 0.000000 0.000000 0.000000 0.098822 0.000000
# 6 0.000000 0.000000 0.000000 0.000000 0.000000 0.021643
#
#
# Mechanical properties :
#
#
# Convention : Reuss Voigt Hill
#
# Bulk Modulus (GPa) = 42.89305 58.15966 50.52635
# Shear Modulus (GPa) = 18.27589 25.81259 22.04424
#
# Velocity S-wave (km/s) = 3.03247 3.60390 3.33046
# Velocity P-wave (km/s) = 5.81753 6.82507 6.34134
#
# Compressibility (1/GPa) = 0.02331380
#
# Stress axis : x y z
#
# Youngs Moduli (GPa) = 44.15875 85.24326 40.11573
#
# Poissons Ratio (x) = 0.84244 0.34133
# Poissons Ratio (y) = 0.43641 -0.01589
# Poissons Ratio (z) = 0.37573 -0.03377
#
# Static dielectric constant tensor:
#      x y z
#    x 3.564360 0.000000 0.000000 
#    y 0.000000 3.782220 0.000000 
#    z 0.000000 0.000000 3.335140 
# 
# 
# High freq. dielectric constant tensor:
#      x y z
#    x 1.765200 0.000000 0.000000 
#    y 0.000000 1.793490 0.000000 
#    z 0.000000 0.000000 1.749160 
# 
# From -- ./inp_files/21394.got.cif
#   From: 2010.03.12/outbox.cif.g09.slc.cpg/sg57_11_cif.got.tgz:21394.got - 2010.04.16 15:48:40.
