data_PCOD8233470
_publ_section_title
;
Structure prediction by ZEFSAII (Michael W. Deem and Ramdas Pophale) SiO2 
 PCOD8233470
Probable space group: P B C M
;
_chemical_formula_sum "Si O2"
_cell_formula_units_Z 64
_cell_length_a 14.466713
_cell_length_b 25.155622
_cell_length_c 8.983747
_cell_angle_alpha 90.000000
_cell_angle_beta 90.000000
_cell_angle_gamma 90.000000
_cell_volume 3269.357696
_symmetry_space_group_name_H-M "P B C M"
_symmetry_group_IT_number 57
_symmetry_cell_setting 'orthorhombic'
loop_
_space_group_symop_operation_xyz
x,y,z
-x,-y,1/2+z
x,1/2-y,-z
-x,1/2+y,1/2-z
-x,-y,-z
x,y,1/2-z
-x,1/2+y,z
x,1/2-y,1/2+z
loop_
_atom_site_type_symbol
_atom_site_label
_atom_site_fract_x
_atom_site_fract_y
_atom_site_fract_z
Si Si1 0.665357 0.096407 0.419540
Si Si2 0.213289 0.696623 0.072977
Si Si3 0.285729 0.408865 0.426873
Si Si4 0.181016 0.197169 0.924664
Si Si5 0.963239 0.450701 0.413946
Si Si6 0.234161 0.991463 0.083866
Si Si7 0.976936 0.165668 0.926783
Si Si8 0.473005 0.444685 0.577801
O O1 0.697031 0.086043 0.250000
O O2 0.718716 0.148819 0.478547
O O3 0.685432 0.044118 0.515471
O O4 0.554280 0.100011 0.432514
O O5 0.210869 0.702195 0.250000
O O6 0.255063 0.750000 0.000000
O O7 0.108474 0.690946 0.014295
O O8 0.294375 0.411493 0.250000
O O9 0.239733 0.353575 0.480093
O O10 0.218320 0.455998 0.483925
O O11 0.385482 0.417196 0.500277
O O12 0.191792 0.202670 0.750000
O O13 0.072670 0.193949 0.968765
O O14 0.222550 0.250000 0.000000
O O15 0.006196 0.453895 0.250000
O O16 0.853387 0.453365 0.413362
O O17 0.990221 0.394633 0.485605
O O18 0.000000 0.500000 0.500000
O O19 0.261869 0.009518 0.250000
O O20 0.955977 0.166899 0.750000
O O21 0.500000 0.500000 0.500000
O O22 0.450958 0.457135 0.750000
#
# Coordination Sequence:
#
# PCOD8233470 Si02
#       8
#     8   8   8   8   8   8   8   8
#     4  10  22  39  59  84 119 155 190 236 295 351
#     4  11  23  39  60  87 117 157 200 243 295 351
#     4  11  23  40  61  88 121 158 195 242 302 359
#     4  10  23  41  62  84 115 157 201 247 298 346
#     4  10  21  34  51  80 118 158 198 241 293 351
#     4  11  21  34  57  87 118 154 194 240 292 349
#     4  10  20  38  59  84 117 155 199 247 291 346
#     4  11  22  38  62  92 121 154 195 242 295 357
#
# _framework density 19.575710000000001
#
# number of rings (size 3 to 8) (size 9 to 14) (size 15 to 20)
#    0.000    1.500    2.500    2.625    0.000    6.000 
#    0.000    0.625    0.000    3.000    0.000    0.000 
#    0.000    0.000    0.000    0.000    0.000    0.000 
#
# Total GULP energy -793420.445493 kJ/mol
# GULP energy per Si atom -12397.194461 kJ/mol
# Density = 1.953115 g / cm^3
# Si number density = 19.575710 Si / 1000 Ang^3
#
#
#
# Elastic Constant Matrix: (Units=GPa)
#
#
# Indices 1 2 3 4 5 6 
#
# 1 76.1361 40.8491 31.2822 0.0000 0.0000 0.0000
# 2 40.8491 146.2284 49.2067 0.0000 0.0000 0.0000
# 3 31.2822 49.2067 82.3089 0.0000 0.0000 0.0000
# 4 0.0000 0.0000 0.0000 34.8592 0.0000 0.0000
# 5 0.0000 0.0000 0.0000 0.0000 29.0103 0.0000
# 6 0.0000 0.0000 0.0000 0.0000 0.0000 23.2322
#
#
#
# Elastic Compliance Matrix: (Units=1/GPa)
#
#
# Indices 1 2 3 4 5 6 
#
# 1 0.016653 -0.003158 -0.004442 0.000000 0.000000 0.000000
# 2 -0.003158 0.009159 -0.004276 0.000000 0.000000 0.000000
# 3 -0.004442 -0.004276 0.016394 0.000000 0.000000 0.000000
# 4 0.000000 0.000000 0.000000 0.028687 0.000000 0.000000
# 5 0.000000 0.000000 0.000000 0.000000 0.034471 0.000000
# 6 0.000000 0.000000 0.000000 0.000000 0.000000 0.043044
#
#
# Mechanical properties :
#
#
# Convention : Reuss Voigt Hill
#
# Bulk Modulus (GPa) = 54.18087 60.81659 57.49873
# Shear Modulus (GPa) = 28.04112 29.64270 28.84191
#
# Velocity S-wave (km/s) = 3.78887 3.89557 3.84259
# Velocity P-wave (km/s) = 6.84678 7.16720 7.00882
#
# Compressibility (1/GPa) = 0.01845670
#
# Stress axis : x y z
#
# Youngs Moduli (GPa) = 60.04775 109.17635 60.99940
#
# Poissons Ratio (x) = 0.34473 0.27094
# Poissons Ratio (y) = 0.18960 0.26082
# Poissons Ratio (z) = 0.26671 0.46681
#
# Static dielectric constant tensor:
#      x y z
#    x 3.842230 0.000000 0.000000 
#    y 0.000000 4.009830 0.000000 
#    z 0.000000 0.000000 3.590860 
# 
# 
# High freq. dielectric constant tensor:
#      x y z
#    x 1.761520 0.000000 0.000000 
#    y 0.000000 1.764090 0.000000 
#    z 0.000000 0.000000 1.763500 
# 
# From -- ./inp_files/5748.got.cif
#   From: 2010.03.12/outbox.cif.g09.slc.cpg/sg57_3_cif.got.tgz:5748.got - 2010.04.16 15:48:40.
