data_PCOD8233850
_publ_section_title
;
Structure prediction by ZEFSAII (Michael W. Deem and Ramdas Pophale) SiO2 
 PCOD8233850
Probable space group: P B C M
;
_chemical_formula_sum "Si O2"
_cell_formula_units_Z 48
_cell_length_a 15.174820
_cell_length_b 16.327723
_cell_length_c 10.004952
_cell_angle_alpha 90.000000
_cell_angle_beta 90.000000
_cell_angle_gamma 90.000000
_cell_volume 2478.929534
_symmetry_space_group_name_H-M "P B C M"
_symmetry_group_IT_number 57
_symmetry_cell_setting 'orthorhombic'
loop_
_space_group_symop_operation_xyz
x,y,z
-x,-y,1/2+z
x,1/2-y,-z
-x,1/2+y,1/2-z
-x,-y,-z
x,y,1/2-z
-x,1/2+y,z
x,1/2-y,1/2+z
loop_
_atom_site_type_symbol
_atom_site_label
_atom_site_fract_x
_atom_site_fract_y
_atom_site_fract_z
Si Si1 0.161291 0.331312 0.750000
Si Si2 0.781977 0.922122 0.486627
Si Si3 0.378723 0.176155 0.597545
Si Si4 0.122333 0.152338 0.750000
Si Si5 0.975911 0.272160 0.750000
Si Si6 0.248177 0.905669 0.096744
Si Si7 0.423226 0.677296 0.901613
Si Si8 0.858545 0.250000 0.000000
O O1 0.202931 0.372621 0.621500
O O2 0.185094 0.233897 0.750000
O O3 0.054421 0.339824 0.750000
O O4 0.686482 0.899480 0.427489
O O5 0.858745 0.900404 0.381900
O O6 0.785651 0.019080 0.508503
O O7 0.352688 0.250000 0.500000
O O8 0.371417 0.207121 0.750000
O O9 0.478224 0.144999 0.567398
O O10 0.019966 0.180659 0.750000
O O11 0.918514 0.284892 0.881530
O O12 0.223908 0.923788 0.250000
O O13 0.353668 0.896249 0.078025
O O14 0.201799 0.822828 0.051758
O O15 0.416194 0.711058 0.750000
O O16 0.396983 0.750000 0.000000
#
# Coordination Sequence:
#
# PCOD8233850 Si02
#       8
#     4   8   8   4   4   8   8   4
#     4  10  22  41  68  88 128 167 199 255 327 380
#     4  12  22  39  63  97 131 168 205 258 314 368
#     4  10  21  36  61  95 129 167 216 250 305 374
#     4  10  22  41  64  94 128 157 207 255 313 386
#     4  10  24  42  70  94 116 166 208 252 322 390
#     4  11  24  42  65  94 131 163 216 263 310 370
#     4   9  19  39  61  89 126 168 211 262 302 358
#     4  12  22  46  70  88 120 166 212 260 312 390
#
# _framework density 19.363197
#
# number of rings (size 3 to 8) (size 9 to 14) (size 15 to 20)
#    0.500    1.000    3.333    2.500    1.167    1.333 
#    1.500    5.000    0.000    0.000    0.000    0.000 
#    0.000    0.000    0.000    0.000    0.000    0.000 
#
# Total GULP energy -595213.390290 kJ/mol
# GULP energy per Si atom -12400.278964 kJ/mol
# Density = 1.931913 g / cm^3
# Si number density = 19.363197 Si / 1000 Ang^3
#
#
#
# Elastic Constant Matrix: (Units=GPa)
#
#
# Indices 1 2 3 4 5 6 
#
# 1 70.3922 6.2394 10.9880 0.0000 0.0000 0.0000
# 2 6.2394 75.3057 13.5162 0.0000 0.0000 0.0000
# 3 10.9880 13.5162 101.2378 0.0000 0.0000 0.0000
# 4 0.0000 0.0000 0.0000 104.1216 0.0000 0.0000
# 5 0.0000 0.0000 0.0000 0.0000 11.4989 0.0000
# 6 0.0000 0.0000 0.0000 0.0000 0.0000 14.0799
#
#
#
# Elastic Compliance Matrix: (Units=1/GPa)
#
#
# Indices 1 2 3 4 5 6 
#
# 1 0.014516 -0.000943 -0.001450 0.000000 0.000000 0.000000
# 2 -0.000943 0.013666 -0.001722 0.000000 0.000000 0.000000
# 3 -0.001450 -0.001722 0.010265 0.000000 0.000000 0.000000
# 4 0.000000 0.000000 0.000000 0.009604 0.000000 0.000000
# 5 0.000000 0.000000 0.000000 0.000000 0.086964 0.000000
# 6 0.000000 0.000000 0.000000 0.000000 0.000000 0.071023
#
#
# Mechanical properties :
#
#
# Convention : Reuss Voigt Hill
#
# Bulk Modulus (GPa) = 33.09240 34.26921 33.68080
# Shear Modulus (GPa) = 22.28749 40.35289 31.32019
#
# Velocity S-wave (km/s) = 3.39635 4.57004 4.02619
# Velocity P-wave (km/s) = 5.70156 6.75156 6.24865
#
# Compressibility (1/GPa) = 0.03021842
#
# Stress axis : x y z
#
# Youngs Moduli (GPa) = 68.88975 73.17206 97.41824
#
# Poissons Ratio (x) = 0.06897 0.14122
# Poissons Ratio (y) = 0.06493 0.16778
# Poissons Ratio (z) = 0.09987 0.12602
#
# Static dielectric constant tensor:
#      x y z
#    x 3.664140 0.000000 0.000000 
#    y 0.000000 3.193150 0.000000 
#    z 0.000000 0.000000 3.951690 
# 
# 
# High freq. dielectric constant tensor:
#      x y z
#    x 1.764830 0.000000 0.000000 
#    y 0.000000 1.720500 0.000000 
#    z 0.000000 0.000000 1.769460 
# 
# From -- ./inp_files/6639.got.cif
#   From: 2010.03.12/outbox.cif.g09.slc.cpg/sg57_4_cif.got.tgz:6639.got - 2010.04.16 15:48:40.
