data_PCOD8233772
_publ_section_title
;
Structure prediction by ZEFSAII (Michael W. Deem and Ramdas Pophale) SiO2 
 PCOD8233772
Probable space group: P B C M
;
_chemical_formula_sum "Si O2"
_cell_formula_units_Z 64
_cell_length_a 17.834032
_cell_length_b 11.949731
_cell_length_c 14.397578
_cell_angle_alpha 90.000000
_cell_angle_beta 90.000000
_cell_angle_gamma 90.000000
_cell_volume 3068.294988
_symmetry_space_group_name_H-M "P B C M"
_symmetry_group_IT_number 57
_symmetry_cell_setting 'orthorhombic'
loop_
_space_group_symop_operation_xyz
x,y,z
-x,-y,1/2+z
x,1/2-y,-z
-x,1/2+y,1/2-z
-x,-y,-z
x,y,1/2-z
-x,1/2+y,z
x,1/2-y,1/2+z
loop_
_atom_site_type_symbol
_atom_site_label
_atom_site_fract_x
_atom_site_fract_y
_atom_site_fract_z
Si Si1 0.838982 0.886549 0.361113
Si Si2 0.225672 0.723112 0.895343
Si Si3 0.199485 0.029671 0.355979
Si Si4 0.609937 0.257282 0.146136
Si Si5 0.064340 0.318267 0.642866
Si Si6 0.093287 0.885893 0.855288
Si Si7 0.299296 0.126273 0.990782
Si Si8 0.422284 0.563403 0.006711
O O1 0.829732 0.883810 0.250000
O O2 0.892630 0.788363 0.400875
O O3 0.756562 0.875377 0.403481
O O4 0.875386 0.000756 0.401187
O O5 0.200963 0.596008 0.890343
O O6 0.300491 0.751664 0.838839
O O7 0.156541 0.792325 0.856974
O O8 0.246710 0.750000 0.000000
O O9 0.225985 0.039904 0.250000
O O10 0.114530 0.071317 0.369072
O O11 0.255567 0.106348 0.413640
O O12 0.574343 0.263348 0.250000
O O13 0.592254 0.370667 0.089400
O O14 0.577189 0.149274 0.093104
O O15 0.051214 0.287540 0.750000
O O16 0.983076 0.341591 0.595252
O O17 0.072414 0.916279 0.750000
O O18 0.336638 0.250000 0.000000
O O19 0.360220 0.030588 0.975155
O O20 0.500000 0.500000 0.000000
#
# Coordination Sequence:
#
# PCOD8233772 Si02
#       8
#     8   8   8   8   8   8   8   8
#     4  10  21  40  61  88 128 168 220 279 328 391
#     4  12  22  40  63  97 126 166 223 281 328 388
#     4  11  22  40  64  90 127 173 221 270 322 387
#     4  11  23  46  75 101 135 178 225 273 325 391
#     4   9  20  37  55  84 125 172 219 272 335 392
#     4  10  21  35  59  87 119 169 225 277 335 389
#     4  12  24  41  68  96 129 173 223 264 331 402
#     4  11  26  46  72 104 142 173 212 272 336 400
#
# _framework density 20.858491000000001
#
# number of rings (size 3 to 8) (size 9 to 14) (size 15 to 20)
#    0.000    1.250    3.750    2.625    3.500    2.000 
#    2.250    1.250    0.000    0.000    0.000    0.000 
#    0.000    0.000    0.000    0.000    0.000    0.000 
#
# Total GULP energy -793606.188510 kJ/mol
# GULP energy per Si atom -12400.096695 kJ/mol
# Density = 2.081102 g / cm^3
# Si number density = 20.858491 Si / 1000 Ang^3
#
#
#
# Elastic Constant Matrix: (Units=GPa)
#
#
# Indices 1 2 3 4 5 6 
#
# 1 127.7671 60.6330 26.6775 0.0000 0.0000 0.0000
# 2 60.6330 166.5607 43.1251 0.0000 0.0000 0.0000
# 3 26.6775 43.1251 92.7084 0.0000 0.0000 0.0000
# 4 0.0000 0.0000 0.0000 26.2150 0.0000 0.0000
# 5 0.0000 0.0000 0.0000 0.0000 22.3040 0.0000
# 6 0.0000 0.0000 0.0000 0.0000 0.0000 36.9902
#
#
#
# Elastic Compliance Matrix: (Units=1/GPa)
#
#
# Indices 1 2 3 4 5 6 
#
# 1 0.009595 -0.003159 -0.001292 0.000000 0.000000 0.000000
# 2 -0.003159 0.007866 -0.002750 0.000000 0.000000 0.000000
# 3 -0.001292 -0.002750 0.012437 0.000000 0.000000 0.000000
# 4 0.000000 0.000000 0.000000 0.038146 0.000000 0.000000
# 5 0.000000 0.000000 0.000000 0.000000 0.044835 0.000000
# 6 0.000000 0.000000 0.000000 0.000000 0.000000 0.027034
#
#
# Mechanical properties :
#
#
# Convention : Reuss Voigt Hill
#
# Bulk Modulus (GPa) = 64.52563 71.98972 68.25768
# Shear Modulus (GPa) = 31.35180 34.20854 32.78017
#
# Velocity S-wave (km/s) = 3.88115 4.05412 3.96858
# Velocity P-wave (km/s) = 7.14749 7.51684 7.33449
#
# Compressibility (1/GPa) = 0.01549772
#
# Stress axis : x y z
#
# Youngs Moduli (GPa) = 104.21672 127.13565 80.40232
#
# Poissons Ratio (x) = 0.40156 0.10387
# Poissons Ratio (y) = 0.32917 0.22110
# Poissons Ratio (z) = 0.13464 0.34962
#
# Static dielectric constant tensor:
#      x y z
#    x 3.752750 0.000000 0.000000 
#    y 0.000000 4.053820 0.000000 
#    z 0.000000 0.000000 3.788390 
# 
# 
# High freq. dielectric constant tensor:
#      x y z
#    x 1.804270 0.000000 0.000000 
#    y 0.000000 1.834420 0.000000 
#    z 0.000000 0.000000 1.812920 
# 
# From -- ./inp_files/19098.got.cif
#   From: 2010.03.12/outbox.cif.g09.slc.cpg/sg57_10_cif.got.tgz:19098.got - 2010.04.16 15:48:40.
