data_PCOD8233768
_publ_section_title
;
Structure prediction by ZEFSAII (Michael W. Deem and Ramdas Pophale) SiO2 
 PCOD8233768
Probable space group: P B C M
;
_chemical_formula_sum "Si O2"
_cell_formula_units_Z 48
_cell_length_a 11.827257
_cell_length_b 11.650516
_cell_length_c 18.988836
_cell_angle_alpha 90.000000
_cell_angle_beta 90.000000
_cell_angle_gamma 90.000000
_cell_volume 2616.540963
_symmetry_space_group_name_H-M "P B C M"
_symmetry_group_IT_number 57
_symmetry_cell_setting 'orthorhombic'
loop_
_space_group_symop_operation_xyz
x,y,z
-x,-y,1/2+z
x,1/2-y,-z
-x,1/2+y,1/2-z
-x,-y,-z
x,y,1/2-z
-x,1/2+y,z
x,1/2-y,1/2+z
loop_
_atom_site_type_symbol
_atom_site_label
_atom_site_fract_x
_atom_site_fract_y
_atom_site_fract_z
Si Si1 0.179868 0.358478 0.668494
Si Si2 0.391504 0.976018 0.581723
Si Si3 0.222409 0.097789 0.669920
Si Si4 0.253248 0.746294 0.082211
Si Si5 0.075543 0.616753 0.167981
Si Si6 0.648205 0.491459 0.081791
O O1 0.208590 0.388487 0.750000
O O2 0.176425 0.223305 0.655171
O O3 0.270410 0.414745 0.616526
O O4 0.054881 0.398465 0.646945
O O5 0.347311 0.849150 0.600793
O O6 0.358247 0.003876 0.501886
O O7 0.334164 0.076976 0.625393
O O8 0.520915 0.984031 0.606014
O O9 0.257476 0.079830 0.750000
O O10 0.127237 0.006192 0.647943
O O11 0.138214 0.718056 0.124657
O O12 0.306493 0.867162 0.106214
O O13 0.222626 0.750000 0.000000
O O14 0.087869 0.648819 0.250000
#
# Coordination Sequence:
#
# PCOD8233768 Si02
#       6
#     8   8   8   8   8   8
#     4  10  22  36  55  85 113 140 184 229 267 325
#     4   9  20  38  57  80 110 146 183 224 277 327
#     4   9  19  37  56  77 110 146 181 226 275 324
#     4   9  19  37  55  81 113 141 184 230 269 325
#     4   9  19  37  58  78 109 151 183 220 279 330
#     4  10  21  35  58  83 109 144 184 228 272 327
#
# _framework density 18.344830999999999
#
# number of rings (size 3 to 8) (size 9 to 14) (size 15 to 20)
#    0.000    2.667    0.000    0.000    4.667    2.000 
#    3.000    2.500    0.000    0.000    0.000    0.000 
#    0.000    0.000    0.000    0.000    0.000    0.000 
#
# Total GULP energy -595102.774464 kJ/mol
# GULP energy per Si atom -12397.974468 kJ/mol
# Density = 1.830308 g / cm^3
# Si number density = 18.344831 Si / 1000 Ang^3
#
#
#
# Elastic Constant Matrix: (Units=GPa)
#
#
# Indices 1 2 3 4 5 6 
#
# 1 154.0632 49.4317 55.3325 0.0000 0.0000 0.0000
# 2 49.4317 75.7411 33.9259 0.0000 0.0000 0.0000
# 3 55.3325 33.9259 40.1877 0.0000 0.0000 0.0000
# 4 0.0000 0.0000 0.0000 30.2184 0.0000 0.0000
# 5 0.0000 0.0000 0.0000 0.0000 33.9935 0.0000
# 6 0.0000 0.0000 0.0000 0.0000 0.0000 26.5448
#
#
#
# Elastic Compliance Matrix: (Units=1/GPa)
#
#
# Indices 1 2 3 4 5 6 
#
# 1 0.012866 -0.000743 -0.017088 0.000000 0.000000 0.000000
# 2 -0.000743 0.021274 -0.016936 0.000000 0.000000 0.000000
# 3 -0.017088 -0.016936 0.062708 0.000000 0.000000 0.000000
# 4 0.000000 0.000000 0.000000 0.033092 0.000000 0.000000
# 5 0.000000 0.000000 0.000000 0.000000 0.029417 0.000000
# 6 0.000000 0.000000 0.000000 0.000000 0.000000 0.037672
#
#
# Mechanical properties :
#
#
# Convention : Reuss Voigt Hill
#
# Bulk Modulus (GPa) = 36.61093 60.81916 48.71505
# Shear Modulus (GPa) = 18.13775 26.90478 22.52126
#
# Velocity S-wave (km/s) = 3.14779 3.83379 3.50760
# Velocity P-wave (km/s) = 5.76297 7.26791 6.55875
#
# Compressibility (1/GPa) = 0.02731425
#
# Stress axis : x y z
#
# Youngs Moduli (GPa) = 77.72140 47.00624 15.94704
#
# Poissons Ratio (x) = 0.03494 0.27250
# Poissons Ratio (y) = 0.05776 0.27008
# Poissons Ratio (z) = 1.32809 0.79609
#
# Static dielectric constant tensor:
#      x y z
#    x 3.461910 0.000000 0.000000 
#    y 0.000000 3.453530 0.000000 
#    z 0.000000 0.000000 3.327680 
# 
# 
# High freq. dielectric constant tensor:
#      x y z
#    x 1.715360 0.000000 0.000000 
#    y 0.000000 1.716170 0.000000 
#    z 0.000000 0.000000 1.703650 
# 
# From -- ./inp_files/21785.got.cif
#   From: 2010.03.12/outbox.cif.g09.slc.cpg/sg57_11_cif.got.tgz:21785.got - 2010.04.16 15:48:40.
