data_PCOD8233233
_publ_section_title
;
Structure prediction by ZEFSAII (Michael W. Deem and Ramdas Pophale) SiO2 
 PCOD8233233
Probable space group: P B C M
;
_chemical_formula_sum "Si O2"
_cell_formula_units_Z 56
_cell_length_a 14.674993
_cell_length_b 22.409816
_cell_length_c 8.656218
_cell_angle_alpha 90.000000
_cell_angle_beta 90.000000
_cell_angle_gamma 90.000000
_cell_volume 2846.717550
_symmetry_space_group_name_H-M "P B C M"
_symmetry_group_IT_number 57
_symmetry_cell_setting 'orthorhombic'
loop_
_space_group_symop_operation_xyz
x,y,z
-x,-y,1/2+z
x,1/2-y,-z
-x,1/2+y,1/2-z
-x,-y,-z
x,y,1/2-z
-x,1/2+y,z
x,1/2-y,1/2+z
loop_
_atom_site_type_symbol
_atom_site_label
_atom_site_fract_x
_atom_site_fract_y
_atom_site_fract_z
Si Si1 0.933343 0.687651 0.428592
Si Si2 0.095999 0.982421 0.929924
Si Si3 0.614577 0.556287 0.928640
Si Si4 0.424667 0.578475 0.430379
Si Si5 0.119750 0.641943 0.568011
Si Si6 0.700592 0.188581 0.432460
Si Si7 0.205347 0.083978 0.426669
O O1 0.903581 0.750000 0.500000
O O2 0.959542 0.694438 0.250000
O O3 0.846376 0.645775 0.453479
O O4 0.020184 0.662092 0.516615
O O5 0.084086 0.968220 0.750000
O O6 0.137231 0.925267 0.014012
O O7 0.166048 0.035644 0.954892
O O8 0.000000 0.000000 0.000000
O O9 0.632766 0.569346 0.750000
O O10 0.621721 0.485466 0.964610
O O11 0.517176 0.583243 0.973266
O O12 0.688774 0.591436 0.030999
O O13 0.447905 0.584426 0.250000
O O14 0.358646 0.631603 0.487466
O O15 0.127514 0.646838 0.750000
O O16 0.196432 0.683498 0.493435
O O17 0.658297 0.250000 0.500000
O O18 0.701995 0.192306 0.250000
O O19 0.193389 0.062571 0.250000
#
# Coordination Sequence:
#
# PCOD8233233 Si02
#       7
#     8   8   8   8   8   8   8
#     4  11  24  41  60  81 113 155 202 248 292 346
#     4  12  23  37  58  87 121 156 196 243 297 350
#     4  10  20  36  63  93 119 150 191 244 300 360
#     4   9  20  39  61  87 119 154 190 239 300 360
#     4  12  24  39  61  87 119 159 201 245 297 357
#     4  11  23  40  61  87 122 161 204 251 300 361
#     4  11  23  39  60  87 120 157 196 243 294 352
#
# _framework density 19.671779999999998
#
# number of rings (size 3 to 8) (size 9 to 14) (size 15 to 20)
#    0.000    1.143    1.429    5.571    0.000    4.571 
#    0.000    0.714    0.000    0.000    0.000    0.000 
#    0.000    0.000    0.000    0.000    0.000    0.000 
#
# Total GULP energy -694728.131468 kJ/mol
# GULP energy per Si atom -12405.859491 kJ/mol
# Density = 1.962701 g / cm^3
# Si number density = 19.671780 Si / 1000 Ang^3
#
#
#
# Elastic Constant Matrix: (Units=GPa)
#
#
# Indices 1 2 3 4 5 6 
#
# 1 100.0910 39.6936 47.3232 0.0000 0.0000 0.0000
# 2 39.6936 105.4250 45.7905 0.0000 0.0000 0.0000
# 3 47.3232 45.7905 87.6805 0.0000 0.0000 0.0000
# 4 0.0000 0.0000 0.0000 33.7925 0.0000 0.0000
# 5 0.0000 0.0000 0.0000 0.0000 34.4991 0.0000
# 6 0.0000 0.0000 0.0000 0.0000 0.0000 27.5329
#
#
#
# Elastic Compliance Matrix: (Units=1/GPa)
#
#
# Indices 1 2 3 4 5 6 
#
# 1 0.013928 -0.002560 -0.006181 0.000000 0.000000 0.000000
# 2 -0.002560 0.012739 -0.005271 0.000000 0.000000 0.000000
# 3 -0.006181 -0.005271 0.017494 0.000000 0.000000 0.000000
# 4 0.000000 0.000000 0.000000 0.029592 0.000000 0.000000
# 5 0.000000 0.000000 0.000000 0.000000 0.028986 0.000000
# 6 0.000000 0.000000 0.000000 0.000000 0.000000 0.036320
#
#
# Mechanical properties :
#
#
# Convention : Reuss Voigt Hill
#
# Bulk Modulus (GPa) = 61.96669 62.09012 62.02840
# Shear Modulus (GPa) = 28.99198 29.85750 29.42474
#
# Velocity S-wave (km/s) = 3.84316 3.90010 3.87173
# Velocity P-wave (km/s) = 7.15974 7.20504 7.18242
#
# Compressibility (1/GPa) = 0.01613770
#
# Stress axis : x y z
#
# Youngs Moduli (GPa) = 71.79673 78.50140 57.16331
#
# Poissons Ratio (x) = 0.20093 0.35331
# Poissons Ratio (y) = 0.18377 0.30132
# Poissons Ratio (z) = 0.44375 0.41380
#
# Static dielectric constant tensor:
#      x y z
#    x 3.711380 0.000000 0.000000 
#    y 0.000000 3.680230 0.000000 
#    z 0.000000 0.000000 3.759870 
# 
# 
# High freq. dielectric constant tensor:
#      x y z
#    x 1.766270 0.000000 0.000000 
#    y 0.000000 1.763750 0.000000 
#    z 0.000000 0.000000 1.779650 
# 
# From -- ./inp_files/5283.got.cif
#   From: 2010.03.12/outbox.cif.g09.slc.cpg/sg57_3_cif.got.tgz:5283.got - 2010.04.16 15:48:40.
