data_PCOD8233590
_publ_section_title
;
Structure prediction by ZEFSAII (Michael W. Deem and Ramdas Pophale) SiO2 
 PCOD8233590
Probable space group: P B C M
;
_chemical_formula_sum "Si O2"
_cell_formula_units_Z 64
_cell_length_a 10.222380
_cell_length_b 10.716723
_cell_length_c 26.966354
_cell_angle_alpha 90.000000
_cell_angle_beta 90.000000
_cell_angle_gamma 90.000000
_cell_volume 2954.175268
_symmetry_space_group_name_H-M "P B C M"
_symmetry_group_IT_number 57
_symmetry_cell_setting 'orthorhombic'
loop_
_space_group_symop_operation_xyz
x,y,z
-x,-y,1/2+z
x,1/2-y,-z
-x,1/2+y,1/2-z
-x,-y,-z
x,y,1/2-z
-x,1/2+y,z
x,1/2-y,1/2+z
loop_
_atom_site_type_symbol
_atom_site_label
_atom_site_fract_x
_atom_site_fract_y
_atom_site_fract_z
Si Si1 0.641401 0.053264 0.988341
Si Si2 0.178648 0.440442 0.305829
Si Si3 0.091543 0.882533 0.619573
Si Si4 0.679681 0.267213 0.575608
Si Si5 0.835808 0.752084 0.607233
Si Si6 0.481181 0.066727 0.805606
Si Si7 0.876384 0.943740 0.029605
Si Si8 0.553311 0.824753 0.638985
O O1 0.698308 0.158134 0.024845
O O2 0.751707 0.945485 0.992115
O O3 0.640373 0.121957 0.934692
O O4 0.500000 0.000000 0.000000
O O5 0.132204 0.406213 0.250000
O O6 0.108778 0.566572 0.324579
O O7 0.140913 0.330417 0.343494
O O8 0.330984 0.472728 0.306602
O O9 0.187512 0.763771 0.609218
O O10 0.148281 0.981406 0.580361
O O11 0.938332 0.863728 0.611857
O O12 0.561311 0.344067 0.599863
O O13 0.879168 0.695264 0.553242
O O14 0.687542 0.802273 0.608575
O O15 0.535237 0.079474 0.750000
O O16 0.564914 0.954335 0.830482
O O17 0.492190 0.203845 0.829667
O O18 0.000000 0.000000 0.000000
#
# Coordination Sequence:
#
# PCOD8233590 Si02
#       8
#     8   8   8   8   8   8   8   8
#     4  10  21  35  56  82 116 150 204 251 305 367
#     4   9  19  38  61  83 116 160 198 249 320 382
#     4  10  20  39  58  82 116 154 206 244 311 371
#     4  10  21  36  57  83 114 160 198 252 305 372
#     4  10  22  37  59  88 118 156 206 261 312 364
#     4  10  21  40  65  93 123 164 206 254 321 387
#     4  10  21  38  59  81 117 163 201 253 306 376
#     4  11  22  39  65  91 127 161 206 263 314 375
#
# _framework density 21.664252999999999
#
# number of rings (size 3 to 8) (size 9 to 14) (size 15 to 20)
#    0.000    2.000    1.250    1.875    3.500    3.500 
#    4.500    0.000    0.000    0.000    0.000    0.000 
#    0.000    0.000    0.000    0.000    0.000    0.000 
#
# Total GULP energy -792845.590566 kJ/mol
# GULP energy per Si atom -12388.212353 kJ/mol
# Density = 2.161494 g / cm^3
# Si number density = 21.664253 Si / 1000 Ang^3
#
#
#
# Elastic Constant Matrix: (Units=GPa)
#
#
# Indices 1 2 3 4 5 6 
#
# 1 98.8219 -1.5193 -0.7485 0.0000 0.0000 0.0000
# 2 -1.5193 50.5415 -4.7309 0.0000 0.0000 0.0000
# 3 -0.7485 -4.7309 55.1005 0.0000 0.0000 0.0000
# 4 0.0000 0.0000 0.0000 24.8892 0.0000 0.0000
# 5 0.0000 0.0000 0.0000 0.0000 24.2592 0.0000
# 6 0.0000 0.0000 0.0000 0.0000 0.0000 35.0262
#
#
#
# Elastic Compliance Matrix: (Units=1/GPa)
#
#
# Indices 1 2 3 4 5 6 
#
# 1 0.010125 0.000320 0.000165 0.000000 0.000000 0.000000
# 2 0.000320 0.019956 0.001718 0.000000 0.000000 0.000000
# 3 0.000165 0.001718 0.018298 0.000000 0.000000 0.000000
# 4 0.000000 0.000000 0.000000 0.040178 0.000000 0.000000
# 5 0.000000 0.000000 0.000000 0.000000 0.041222 0.000000
# 6 0.000000 0.000000 0.000000 0.000000 0.000000 0.028550
#
#
# Mechanical properties :
#
#
# Convention : Reuss Voigt Hill
#
# Bulk Modulus (GPa) = 18.94473 21.16293 20.05383
# Shear Modulus (GPa) = 29.15122 30.93242 30.04182
#
# Velocity S-wave (km/s) = 3.67221 3.78274 3.72788
# Velocity P-wave (km/s) = 5.17144 5.37295 5.27316
#
# Compressibility (1/GPa) = 0.05278514
#
# Stress axis : x y z
#
# Youngs Moduli (GPa) = 98.76168 50.10989 54.64959
#
# Poissons Ratio (x) = -0.01603 -0.00902
# Poissons Ratio (y) = -0.03159 -0.09388
# Poissons Ratio (z) = -0.01630 -0.08608
#
# Static dielectric constant tensor:
#      x y z
#    x 3.657420 0.000000 0.000000 
#    y 0.000000 6.689670 0.000000 
#    z 0.000000 0.000000 4.550110 
# 
# 
# High freq. dielectric constant tensor:
#      x y z
#    x 1.841730 0.000000 0.000000 
#    y 0.000000 1.844230 0.000000 
#    z 0.000000 0.000000 1.850240 
# 
# From -- ./inp_files/29617.got.cif
#   From: 2010.03.12/outbox.cif.g09.slc.cpg/sg57_15_cif.got.tgz:29617.got - 2010.04.16 15:48:40.
