data_PCOD8233685
_publ_section_title
;
Structure prediction by ZEFSAII (Michael W. Deem and Ramdas Pophale) SiO2 
 PCOD8233685
Probable space group: P B C M
;
_chemical_formula_sum "Si O2"
_cell_formula_units_Z 64
_cell_length_a 16.984607
_cell_length_b 8.632530
_cell_length_c 20.722374
_cell_angle_alpha 90.000000
_cell_angle_beta 90.000000
_cell_angle_gamma 90.000000
_cell_volume 3038.317159
_symmetry_space_group_name_H-M "P B C M"
_symmetry_group_IT_number 57
_symmetry_cell_setting 'orthorhombic'
loop_
_space_group_symop_operation_xyz
x,y,z
-x,-y,1/2+z
x,1/2-y,-z
-x,1/2+y,1/2-z
-x,-y,-z
x,y,1/2-z
-x,1/2+y,z
x,1/2-y,1/2+z
loop_
_atom_site_type_symbol
_atom_site_label
_atom_site_fract_x
_atom_site_fract_y
_atom_site_fract_z
Si Si1 0.752034 0.583457 0.489838
Si Si2 0.229025 0.213424 0.822614
Si Si3 0.106767 0.394414 0.906539
Si Si4 0.800858 0.411872 0.614660
Si Si5 0.676075 0.312850 0.073497
Si Si6 0.398978 0.159802 0.824878
Si Si7 0.560012 0.185940 0.326456
Si Si8 0.054007 0.765109 0.424462
O O1 0.711526 0.750000 0.500000
O O2 0.844307 0.601992 0.472246
O O3 0.757193 0.498445 0.556859
O O4 0.701373 0.491235 0.436487
O O5 0.231399 0.268640 0.750000
O O6 0.168753 0.333480 0.854096
O O7 0.316797 0.223062 0.854825
O O8 0.202312 0.032195 0.826058
O O9 0.072332 0.566290 0.894515
O O10 0.036417 0.271566 0.910193
O O11 0.747418 0.258598 0.616618
O O12 0.891424 0.363506 0.608747
O O13 0.602461 0.300655 0.122325
O O14 0.661179 0.250000 0.000000
O O15 0.383408 0.135485 0.750000
O O16 0.467540 0.283480 0.837577
O O17 0.421235 0.987925 0.850450
O O18 0.581358 0.217212 0.250000
O O19 0.072567 0.750000 0.500000
#
# Coordination Sequence:
#
# PCOD8233685 Si02
#       8
#     8   8   8   8   8   8   8   8
#     4  11  21  37  61  95 128 168 210 266 330 384
#     4  11  24  43  65  92 128 174 219 262 322 395
#     4  12  24  39  64  97 128 165 214 272 326 376
#     4  11  20  39  66  91 127 166 214 264 321 383
#     4  10  21  38  62  93 135 173 217 271 337 399
#     4   9  20  39  65  92 124 167 220 272 319 381
#     4  10  20  40  68  96 128 171 222 277 327 389
#     4  12  23  40  65  99 128 162 216 274 323 386
#
# _framework density 21.064291000000001
#
# number of rings (size 3 to 8) (size 9 to 14) (size 15 to 20)
#    0.000    1.250    5.000    1.875    0.000    1.000 
#    0.000    5.625    2.750    0.000    0.000    0.000 
#    0.000    0.000    0.000    0.000    0.000    0.000 
#
# Total GULP energy -792858.362366 kJ/mol
# GULP energy per Si atom -12388.411912 kJ/mol
# Density = 2.101635 g / cm^3
# Si number density = 21.064291 Si / 1000 Ang^3
#
#
#
# Elastic Constant Matrix: (Units=GPa)
#
#
# Indices 1 2 3 4 5 6 
#
# 1 141.6165 53.8166 41.6102 0.0000 0.0000 0.0000
# 2 53.8166 132.9930 26.2322 0.0000 0.0000 0.0000
# 3 41.6102 26.2322 51.2349 0.0000 0.0000 0.0000
# 4 0.0000 0.0000 0.0000 22.4962 0.0000 0.0000
# 5 0.0000 0.0000 0.0000 0.0000 28.9839 0.0000
# 6 0.0000 0.0000 0.0000 0.0000 0.0000 21.4619
#
#
#
# Elastic Compliance Matrix: (Units=1/GPa)
#
#
# Indices 1 2 3 4 5 6 
#
# 1 0.010103 -0.002747 -0.006798 0.000000 0.000000 0.000000
# 2 -0.002747 0.009111 -0.002434 0.000000 0.000000 0.000000
# 3 -0.006798 -0.002434 0.026285 0.000000 0.000000 0.000000
# 4 0.000000 0.000000 0.000000 0.044452 0.000000 0.000000
# 5 0.000000 0.000000 0.000000 0.000000 0.034502 0.000000
# 6 0.000000 0.000000 0.000000 0.000000 0.000000 0.046594
#
#
# Mechanical properties :
#
#
# Convention : Reuss Voigt Hill
#
# Bulk Modulus (GPa) = 46.42422 63.24026 54.83224
# Shear Modulus (GPa) = 24.72974 28.20075 26.46525
#
# Velocity S-wave (km/s) = 3.43010 3.66292 3.54842
# Velocity P-wave (km/s) = 6.14611 6.92654 6.54796
#
# Compressibility (1/GPa) = 0.02154048
#
# Stress axis : x y z
#
# Youngs Moduli (GPa) = 98.98193 109.75862 38.04420
#
# Poissons Ratio (x) = 0.30153 0.25864
# Poissons Ratio (y) = 0.27193 0.09258
# Poissons Ratio (z) = 0.67292 0.26711
#
# Static dielectric constant tensor:
#      x y z
#    x 3.906080 0.000000 0.000000 
#    y 0.000000 4.166720 0.000000 
#    z 0.000000 0.000000 3.658900 
# 
# 
# High freq. dielectric constant tensor:
#      x y z
#    x 1.828860 0.000000 0.000000 
#    y 0.000000 1.835520 0.000000 
#    z 0.000000 0.000000 1.793760 
# 
# From -- ./inp_files/25581.got.cif
#   From: 2010.03.12/outbox.cif.g09.slc.cpg/sg57_13_cif.got.tgz:25581.got - 2010.04.16 15:48:40.
