data_PCOD8233341
_publ_section_title
;
Structure prediction by ZEFSAII (Michael W. Deem and Ramdas Pophale) SiO2 
 PCOD8233341
Probable space group: P B C M
;
_chemical_formula_sum "Si O2"
_cell_formula_units_Z 48
_cell_length_a 28.691868
_cell_length_b 9.119133
_cell_length_c 9.119038
_cell_angle_alpha 90.000000
_cell_angle_beta 90.000000
_cell_angle_gamma 90.000000
_cell_volume 2385.950336
_symmetry_space_group_name_H-M "P B C M"
_symmetry_group_IT_number 57
_symmetry_cell_setting 'orthorhombic'
loop_
_space_group_symop_operation_xyz
x,y,z
-x,-y,1/2+z
x,1/2-y,-z
-x,1/2+y,1/2-z
-x,-y,-z
x,y,1/2-z
-x,1/2+y,z
x,1/2-y,1/2+z
loop_
_atom_site_type_symbol
_atom_site_label
_atom_site_fract_x
_atom_site_fract_y
_atom_site_fract_z
Si Si1 0.723991 0.596074 0.079874
Si Si2 0.540865 0.091665 0.428491
Si Si3 0.940759 0.988625 0.250000
Si Si4 0.806065 0.396297 0.088241
Si Si5 0.032354 0.340104 0.750000
Si Si6 0.891951 0.914331 0.526611
Si Si7 0.365944 0.597153 0.923500
O O1 0.733690 0.625880 0.250000
O O2 0.764829 0.492095 0.014467
O O3 0.674902 0.518326 0.053635
O O4 0.724289 0.750000 0.000000
O O5 0.535800 0.250000 0.500000
O O6 0.538859 0.092604 0.250000
O O7 0.589932 0.028572 0.489010
O O8 0.500000 0.000000 0.500000
O O9 0.967878 0.835007 0.250000
O O10 0.904943 0.003931 0.382566
O O11 0.978391 0.117309 0.250000
O O12 0.789821 0.348255 0.250000
O O13 0.852247 0.494427 0.106591
O O14 0.816488 0.250000 0.000000
O O15 0.059225 0.404226 0.888823
O O16 0.872392 0.750000 0.500000
O O17 0.376880 0.622428 0.750000
O O18 0.351536 0.750000 0.000000
#
# Coordination Sequence:
#
# PCOD8233341 Si02
#       7
#     8   8   4   8   4   8   8
#     4  10  23  41  62  89 120 155 195 242 293 355
#     4  11  22  38  60  88 123 164 210 257 310 364
#     4  10  22  34  60  84 116 150 194 226 297 334
#     4  11  24  41  61  88 118 150 193 241 290 347
#     4  10  20  38  56  86 114 154 186 244 277 348
#     4  10  21  39  60  83 117 153 193 237 288 343
#     4  10  20  37  60  87 121 158 202 252 303 357
#
# _framework density 20.11777
#
# number of rings (size 3 to 8) (size 9 to 14) (size 15 to 20)
#    0.000    1.667    0.833    4.500    1.167    4.000 
#    0.000    1.667    0.000    0.000    0.000    0.000 
#    0.000    0.000    0.000    0.000    0.000    0.000 
#
# Total GULP energy -595064.338613 kJ/mol
# GULP energy per Si atom -12397.173721 kJ/mol
# Density = 2.007198 g / cm^3
# Si number density = 20.117770 Si / 1000 Ang^3
#
#
#
# Elastic Constant Matrix: (Units=GPa)
#
#
# Indices 1 2 3 4 5 6 
#
# 1 100.4851 46.4137 27.5354 0.0000 0.0000 0.0000
# 2 46.4137 87.6191 33.5072 0.0000 0.0000 0.0000
# 3 27.5354 33.5072 120.2912 0.0000 0.0000 0.0000
# 4 0.0000 0.0000 0.0000 33.8354 0.0000 0.0000
# 5 0.0000 0.0000 0.0000 0.0000 406.0185 0.0000
# 6 0.0000 0.0000 0.0000 0.0000 0.0000 38.9899
#
#
#
# Elastic Compliance Matrix: (Units=1/GPa)
#
#
# Indices 1 2 3 4 5 6 
#
# 1 0.013332 -0.006598 -0.001214 0.000000 0.000000 0.000000
# 2 -0.006598 0.016039 -0.002957 0.000000 0.000000 0.000000
# 3 -0.001214 -0.002957 0.009415 0.000000 0.000000 0.000000
# 4 0.000000 0.000000 0.000000 0.029555 0.000000 0.000000
# 5 0.000000 0.000000 0.000000 0.000000 0.002463 0.000000
# 6 0.000000 0.000000 0.000000 0.000000 0.000000 0.025648
#
#
# Mechanical properties :
#
#
# Convention : Reuss Voigt Hill
#
# Bulk Modulus (GPa) = 57.98002 58.14532 58.06267
# Shear Modulus (GPa) = 40.40767 109.16473 74.78620
#
# Velocity S-wave (km/s) = 4.48655 7.37432 6.10368
# Velocity P-wave (km/s) = 7.46470 10.07337 8.86551
#
# Compressibility (1/GPa) = 0.01724732
#
# Stress axis : x y z
#
# Youngs Moduli (GPa) = 75.00780 62.34768 106.21575
#
# Poissons Ratio (x) = 0.41137 0.12893
# Poissons Ratio (y) = 0.49490 0.31412
# Poissons Ratio (z) = 0.09105 0.18439
#
# Static dielectric constant tensor:
#      x y z
#    x 1.808930 0.000000 0.000000 
#    y 0.000000 3.525830 0.000000 
#    z 0.000000 0.000000 3.947570 
# 
# 
# High freq. dielectric constant tensor:
#      x y z
#    x 1.793990 0.000000 0.000000 
#    y 0.000000 1.778590 0.000000 
#    z 0.000000 0.000000 1.797130 
# 
# From -- ./inp_files/10165.got.cif
#   From: 2010.03.12/outbox.cif.g09.slc.cpg/sg57_6_cif.got.tgz:10165.got - 2010.04.16 15:48:40.
