data_PCOD8233046
_publ_section_title
;
Structure prediction by ZEFSAII (Michael W. Deem and Ramdas Pophale) SiO2 
 PCOD8233046
Probable space group: P B C M
;
_chemical_formula_sum "Si O2"
_cell_formula_units_Z 48
_cell_length_a 11.814475
_cell_length_b 25.154791
_cell_length_c 8.819859
_cell_angle_alpha 90.000000
_cell_angle_beta 90.000000
_cell_angle_gamma 90.000000
_cell_volume 2621.179624
_symmetry_space_group_name_H-M "P B C M"
_symmetry_group_IT_number 57
_symmetry_cell_setting 'orthorhombic'
loop_
_space_group_symop_operation_xyz
x,y,z
-x,-y,1/2+z
x,1/2-y,-z
-x,1/2+y,1/2-z
-x,-y,-z
x,y,1/2-z
-x,1/2+y,z
x,1/2-y,1/2+z
loop_
_atom_site_type_symbol
_atom_site_label
_atom_site_fract_x
_atom_site_fract_y
_atom_site_fract_z
Si Si1 0.237957 0.897849 0.428937
Si Si2 0.378329 0.000385 0.072703
Si Si3 0.621989 0.306758 0.569932
Si Si4 0.614187 0.694535 0.927571
Si Si5 0.001615 0.942606 0.426384
Si Si6 0.243087 0.406736 0.424831
O O1 0.249179 0.886968 0.250000
O O2 0.280650 0.847313 0.521614
O O3 0.108717 0.907997 0.480410
O O4 0.310054 0.948743 0.480870
O O5 0.395007 0.000216 0.250000
O O6 0.311005 0.052712 0.027680
O O7 0.500000 0.000000 0.000000
O O8 0.653739 0.250000 0.500000
O O9 0.614835 0.302604 0.750000
O O10 0.501273 0.326312 0.504641
O O11 0.590695 0.702537 0.750000
O O12 0.713710 0.652593 0.958611
O O13 0.653741 0.750000 0.000000
O O14 0.013094 0.953702 0.250000
O O15 0.889291 0.909346 0.467342
O O16 0.000000 0.000000 0.500000
O O17 0.263805 0.422184 0.250000
#
# Coordination Sequence:
#
# PCOD8233046 Si02
#       6
#     8   8   8   8   8   8
#     4  10  21  37  55  79 112 147 184 228 276 328
#     4  11  22  34  52  80 112 146 181 226 279 330
#     4  11  22  37  59  84 110 145 184 228 277 331
#     4  10  20  36  57  82 111 145 181 224 277 331
#     4  10  20  37  58  80 110 149 188 230 276 327
#     4  10  21  36  56  81 111 145 183 228 278 329
#
# _framework density 18.312366000000001
#
# number of rings (size 3 to 8) (size 9 to 14) (size 15 to 20)
#    0.000    1.667    1.667    4.500    0.000    7.333 
#    0.000    0.833    0.000    2.000    0.000    0.000 
#    0.000    0.000    0.000    0.000    0.000    0.000 
#
# Total GULP energy -595359.181345 kJ/mol
# GULP energy per Si atom -12403.316278 kJ/mol
# Density = 1.827069 g / cm^3
# Si number density = 18.312366 Si / 1000 Ang^3
#
#
#
# Elastic Constant Matrix: (Units=GPa)
#
#
# Indices 1 2 3 4 5 6 
#
# 1 168.1242 84.8463 56.5480 0.0000 0.0000 0.0000
# 2 84.8463 120.5027 53.3254 0.0000 0.0000 0.0000
# 3 56.5480 53.3254 83.9504 0.0000 0.0000 0.0000
# 4 0.0000 0.0000 0.0000 33.6755 0.0000 0.0000
# 5 0.0000 0.0000 0.0000 0.0000 25.8768 0.0000
# 6 0.0000 0.0000 0.0000 0.0000 0.0000 24.2219
#
#
#
# Elastic Compliance Matrix: (Units=1/GPa)
#
#
# Indices 1 2 3 4 5 6 
#
# 1 0.009766 -0.005515 -0.003075 0.000000 0.000000 0.000000
# 2 -0.005515 0.014658 -0.005596 0.000000 0.000000 0.000000
# 3 -0.003075 -0.005596 0.017537 0.000000 0.000000 0.000000
# 4 0.000000 0.000000 0.000000 0.029695 0.000000 0.000000
# 5 0.000000 0.000000 0.000000 0.000000 0.038645 0.000000
# 6 0.000000 0.000000 0.000000 0.000000 0.000000 0.041285
#
#
# Mechanical properties :
#
#
# Convention : Reuss Voigt Hill
#
# Bulk Modulus (GPa) = 73.58637 84.66853 79.12745
# Shear Modulus (GPa) = 27.10215 28.61202 27.85709
#
# Velocity S-wave (km/s) = 3.85124 3.95706 3.90451
# Velocity P-wave (km/s) = 7.74902 8.19841 7.97688
#
# Compressibility (1/GPa) = 0.01358947
#
# Stress axis : x y z
#
# Youngs Moduli (GPa) = 102.40116 68.22099 57.02138
#
# Poissons Ratio (x) = 0.37626 0.17532
# Poissons Ratio (y) = 0.56478 0.31908
# Poissons Ratio (z) = 0.31484 0.38175
#
# Static dielectric constant tensor:
#      x y z
#    x 3.663120 0.000000 0.000000 
#    y 0.000000 3.277970 0.000000 
#    z 0.000000 0.000000 3.427350 
# 
# 
# High freq. dielectric constant tensor:
#      x y z
#    x 1.714580 0.000000 0.000000 
#    y 0.000000 1.709810 0.000000 
#    z 0.000000 0.000000 1.715130 
# 
# From -- ./inp_files/3133.got.cif
#   From: 2010.03.12/outbox.cif.g09.slc.cpg/sg57_2_cif.got.tgz:3133.got - 2010.04.16 15:48:40.
