data_PCOD8233556
_publ_section_title
;
Structure prediction by ZEFSAII (Michael W. Deem and Ramdas Pophale) SiO2 
 PCOD8233556
Probable space group: P B C M
;
_chemical_formula_sum "Si O2"
_cell_formula_units_Z 64
_cell_length_a 17.520064
_cell_length_b 9.769860
_cell_length_c 18.081808
_cell_angle_alpha 90.000000
_cell_angle_beta 90.000000
_cell_angle_gamma 90.000000
_cell_volume 3095.037263
_symmetry_space_group_name_H-M "P B C M"
_symmetry_group_IT_number 57
_symmetry_cell_setting 'orthorhombic'
loop_
_space_group_symop_operation_xyz
x,y,z
-x,-y,1/2+z
x,1/2-y,-z
-x,1/2+y,1/2-z
-x,-y,-z
x,y,1/2-z
-x,1/2+y,z
x,1/2-y,1/2+z
loop_
_atom_site_type_symbol
_atom_site_label
_atom_site_fract_x
_atom_site_fract_y
_atom_site_fract_z
Si Si1 0.044520 0.777159 0.162449
Si Si2 0.518749 0.255666 0.664674
Si Si3 0.547724 0.979167 0.424967
Si Si4 0.317011 0.875816 0.165984
Si Si5 0.915053 0.922760 0.838143
Si Si6 0.201687 0.648842 0.162587
Si Si7 0.279163 0.078244 0.928738
Si Si8 0.751126 0.620676 0.091973
O O1 0.041762 0.784319 0.250000
O O2 0.116281 0.685115 0.137866
O O3 0.968801 0.700821 0.132474
O O4 0.052027 0.931939 0.131557
O O5 0.490589 0.257529 0.750000
O O6 0.521701 0.410155 0.635536
O O7 0.463462 0.169608 0.611604
O O8 0.600597 0.187475 0.657147
O O9 0.637819 0.989975 0.440974
O O10 0.500000 0.000000 0.500000
O O11 0.295788 0.907749 0.250000
O O12 0.255520 0.770274 0.133021
O O13 0.312912 0.017513 0.122326
O O14 0.912648 0.926047 0.750000
O O15 0.830575 0.897615 0.866560
O O16 0.210486 0.629586 0.250000
O O17 0.226597 0.508055 0.125789
O O18 0.284594 0.229854 0.894222
O O19 0.235286 0.088216 0.006184
#
# Coordination Sequence:
#
# PCOD8233556 Si02
#       8
#     8   8   8   8   8   8   8   8
#     4   9  19  35  61  94 127 161 208 258 314 381
#     4  11  25  43  66  97 131 165 213 274 326 384
#     4  12  26  45  69  94 129 176 219 263 328 402
#     4  10  20  40  66  92 122 161 208 260 318 378
#     4  10  20  38  63  94 127 166 210 261 315 375
#     4  10  20  40  65  91 122 161 211 264 315 376
#     4  11  27  43  63  90 128 168 217 262 317 383
#     4  11  24  41  61  90 131 168 214 265 310 377
#
# _framework density 20.678265
#
# number of rings (size 3 to 8) (size 9 to 14) (size 15 to 20)
#    0.000    1.500    2.500    1.875    7.000    2.000 
#    0.000    0.625    0.000    0.000    0.000    0.000 
#    0.000    0.000    0.000    0.000    0.000    0.000 
#
# Total GULP energy -793722.576419 kJ/mol
# GULP energy per Si atom -12401.915257 kJ/mol
# Density = 2.063120 g / cm^3
# Si number density = 20.678265 Si / 1000 Ang^3
#
#
#
# Elastic Constant Matrix: (Units=GPa)
#
#
# Indices 1 2 3 4 5 6 
#
# 1 66.8519 10.9587 15.3197 0.0000 0.0000 0.0000
# 2 10.9587 113.7281 36.1703 0.0000 0.0000 0.0000
# 3 15.3197 36.1703 60.8378 0.0000 0.0000 0.0000
# 4 0.0000 0.0000 0.0000 32.0924 0.0000 0.0000
# 5 0.0000 0.0000 0.0000 0.0000 26.3381 0.0000
# 6 0.0000 0.0000 0.0000 0.0000 0.0000 37.2639
#
#
#
# Elastic Compliance Matrix: (Units=1/GPa)
#
#
# Indices 1 2 3 4 5 6 
#
# 1 0.015884 -0.000319 -0.003810 0.000000 0.000000 0.000000
# 2 -0.000319 0.010850 -0.006370 0.000000 0.000000 0.000000
# 3 -0.003810 -0.006370 0.021184 0.000000 0.000000 0.000000
# 4 0.000000 0.000000 0.000000 0.031160 0.000000 0.000000
# 5 0.000000 0.000000 0.000000 0.000000 0.037968 0.000000
# 6 0.000000 0.000000 0.000000 0.000000 0.000000 0.026836
#
#
# Mechanical properties :
#
#
# Convention : Reuss Voigt Hill
#
# Bulk Modulus (GPa) = 37.14852 40.70169 38.92510
# Shear Modulus (GPa) = 28.76006 31.07016 29.91511
#
# Velocity S-wave (km/s) = 3.73344 3.88048 3.80767
# Velocity P-wave (km/s) = 6.04886 6.30901 6.18030
#
# Compressibility (1/GPa) = 0.02691898
#
# Stress axis : x y z
#
# Youngs Moduli (GPa) = 62.95710 92.16918 47.20559
#
# Poissons Ratio (x) = 0.02938 0.17987
# Poissons Ratio (y) = 0.02007 0.30071
# Poissons Ratio (z) = 0.23988 0.58714
#
# Static dielectric constant tensor:
#      x y z
#    x 3.794710 0.000000 0.000000 
#    y 0.000000 4.033690 0.000000 
#    z 0.000000 0.000000 3.621570 
# 
# 
# High freq. dielectric constant tensor:
#      x y z
#    x 1.813100 0.000000 0.000000 
#    y 0.000000 1.824750 0.000000 
#    z 0.000000 0.000000 1.788800 
# 
# From -- ./inp_files/25591.got.cif
#   From: 2010.03.12/outbox.cif.g09.slc.cpg/sg57_13_cif.got.tgz:25591.got - 2010.04.16 15:48:40.
