data_PCOD8233215
_publ_section_title
;
Structure prediction by ZEFSAII (Michael W. Deem and Ramdas Pophale) SiO2 
 PCOD8233215
Probable space group: P B C M
;
_chemical_formula_sum "Si O2"
_cell_formula_units_Z 48
_cell_length_a 18.788155
_cell_length_b 14.770771
_cell_length_c 8.756356
_cell_angle_alpha 90.000000
_cell_angle_beta 90.000000
_cell_angle_gamma 90.000000
_cell_volume 2430.024820
_symmetry_space_group_name_H-M "P B C M"
_symmetry_group_IT_number 57
_symmetry_cell_setting 'orthorhombic'
loop_
_space_group_symop_operation_xyz
x,y,z
-x,-y,1/2+z
x,1/2-y,-z
-x,1/2+y,1/2-z
-x,-y,-z
x,y,1/2-z
-x,1/2+y,z
x,1/2-y,1/2+z
loop_
_atom_site_type_symbol
_atom_site_label
_atom_site_fract_x
_atom_site_fract_y
_atom_site_fract_z
Si Si1 0.496234 0.901642 0.069538
Si Si2 0.647593 0.161856 0.074834
Si Si3 0.265111 0.484335 0.075747
Si Si4 0.361118 0.161122 0.071037
Si Si5 0.009601 0.850568 0.070065
Si Si6 0.896973 0.499273 0.570861
O O1 0.501308 0.908986 0.250000
O O2 0.423159 0.855955 0.021502
O O3 0.562302 0.844878 0.008195
O O4 0.500000 0.000000 0.000000
O O5 0.625702 0.177088 0.250000
O O6 0.706609 0.085402 0.059001
O O7 0.683690 0.250000 0.000000
O O8 0.273392 0.449781 0.250000
O O9 0.183757 0.481627 0.021911
O O10 0.311141 0.423481 0.963285
O O11 0.371832 0.170166 0.250000
O O12 0.323615 0.250000 0.000000
O O13 0.014734 0.838378 0.250000
O O14 0.005080 0.750000 0.000000
O O15 0.077750 0.907431 0.012596
O O16 0.941087 0.911130 0.022003
O O17 0.904254 0.480855 0.750000
#
# Coordination Sequence:
#
# PCOD8233215 Si02
#       6
#     8   8   8   8   8   8
#     4  12  23  39  62  87 116 151 198 250 304 357
#     4  11  23  39  60  85 117 155 198 247 300 355
#     4  10  22  41  62  86 121 158 196 245 297 354
#     4  12  25  41  62  87 118 157 201 248 300 356
#     4  10  20  36  61  90 121 156 197 241 290 346
#     4   9  20  39  61  88 121 157 196 242 293 346
#
# _framework density 19.752884999999999
#
# number of rings (size 3 to 8) (size 9 to 14) (size 15 to 20)
#    0.000    1.333    1.667    4.500    0.000    3.333 
#    0.000    3.333    0.000    0.000    0.000    0.000 
#    0.000    0.000    0.000    0.000    0.000    0.000 
#
# Total GULP energy -595338.692540 kJ/mol
# GULP energy per Si atom -12402.889428 kJ/mol
# Density = 1.970793 g / cm^3
# Si number density = 19.752885 Si / 1000 Ang^3
#
#
#
# Elastic Constant Matrix: (Units=GPa)
#
#
# Indices 1 2 3 4 5 6 
#
# 1 91.5567 15.2272 32.5116 0.0000 0.0000 0.0000
# 2 15.2272 118.1756 50.6443 0.0000 0.0000 0.0000
# 3 32.5116 50.6443 136.3900 0.0000 0.0000 0.0000
# 4 0.0000 0.0000 0.0000 31.8505 0.0000 0.0000
# 5 0.0000 0.0000 0.0000 0.0000 13.2791 0.0000
# 6 0.0000 0.0000 0.0000 0.0000 0.0000 18.6432
#
#
#
# Elastic Compliance Matrix: (Units=1/GPa)
#
#
# Indices 1 2 3 4 5 6 
#
# 1 0.011946 -0.000379 -0.002707 0.000000 0.000000 0.000000
# 2 -0.000379 0.010075 -0.003651 0.000000 0.000000 0.000000
# 3 -0.002707 -0.003651 0.009333 0.000000 0.000000 0.000000
# 4 0.000000 0.000000 0.000000 0.031397 0.000000 0.000000
# 5 0.000000 0.000000 0.000000 0.000000 0.075307 0.000000
# 6 0.000000 0.000000 0.000000 0.000000 0.000000 0.053639
#
#
# Mechanical properties :
#
#
# Convention : Reuss Voigt Hill
#
# Bulk Modulus (GPa) = 55.92606 60.32095 58.12350
# Shear Modulus (GPa) = 23.68197 29.27048 26.47623
#
# Velocity S-wave (km/s) = 3.46629 3.85363 3.66508
# Velocity P-wave (km/s) = 6.66292 7.09963 6.88474
#
# Compressibility (1/GPa) = 0.01788075
#
# Stress axis : x y z
#
# Youngs Moduli (GPa) = 83.70665 99.25155 107.14933
#
# Poissons Ratio (x) = 0.03765 0.29004
# Poissons Ratio (y) = 0.03175 0.39118
# Poissons Ratio (z) = 0.22658 0.36235
#
# Static dielectric constant tensor:
#      x y z
#    x 3.761470 0.000000 0.000000 
#    y 0.000000 3.699380 0.000000 
#    z 0.000000 0.000000 3.668190 
# 
# 
# High freq. dielectric constant tensor:
#      x y z
#    x 1.762540 0.000000 0.000000 
#    y 0.000000 1.785170 0.000000 
#    z 0.000000 0.000000 1.779190 
# 
# From -- ./inp_files/6549.got.cif
#   From: 2010.03.12/outbox.cif.g09.slc.cpg/sg57_4_cif.got.tgz:6549.got - 2010.04.16 15:48:40.
