data_PCOD8233723
_publ_section_title
;
Structure prediction by ZEFSAII (Michael W. Deem and Ramdas Pophale) SiO2 
 PCOD8233723
Probable space group: P B C M
;
_chemical_formula_sum "Si O2"
_cell_formula_units_Z 48
_cell_length_a 14.896054
_cell_length_b 18.681552
_cell_length_c 8.607363
_cell_angle_alpha 90.000000
_cell_angle_beta 90.000000
_cell_angle_gamma 90.000000
_cell_volume 2395.269090
_symmetry_space_group_name_H-M "P B C M"
_symmetry_group_IT_number 57
_symmetry_cell_setting 'orthorhombic'
loop_
_space_group_symop_operation_xyz
x,y,z
-x,-y,1/2+z
x,1/2-y,-z
-x,1/2+y,1/2-z
-x,-y,-z
x,y,1/2-z
-x,1/2+y,z
x,1/2-y,1/2+z
loop_
_atom_site_type_symbol
_atom_site_label
_atom_site_fract_x
_atom_site_fract_y
_atom_site_fract_z
Si Si1 0.526783 0.828388 0.565887
Si Si2 0.674104 0.919665 0.065370
Si Si3 0.938999 0.091062 0.568558
Si Si4 0.871244 0.553737 0.568245
Si Si5 0.773737 0.324256 0.429870
Si Si6 0.376779 0.931108 0.434353
O O1 0.505473 0.750000 0.500000
O O2 0.513965 0.828079 0.750000
O O3 0.627220 0.852285 0.518352
O O4 0.462451 0.886171 0.486307
O O5 0.669703 0.909349 0.250000
O O6 0.776532 0.920189 0.997593
O O7 0.623388 0.992787 0.019855
O O8 0.934583 0.071596 0.750000
O O9 0.878660 0.160603 0.530463
O O10 0.043020 0.103149 0.516902
O O11 0.893317 0.026587 0.478264
O O12 0.858311 0.556164 0.750000
O O13 0.742010 0.250000 0.500000
O O14 0.756705 0.316733 0.250000
O O15 0.711880 0.388627 0.491675
O O16 0.378991 0.943589 0.250000
#
# Coordination Sequence:
#
# PCOD8233723 Si02
#       6
#     8   8   8   8   8   8
#     4  12  26  44  63  85 115 154 194 242 296 354
#     4  11  22  38  61  91 120 153 195 245 292 346
#     4   9  17  33  53  79 113 149 188 234 285 338
#     4   9  18  32  56  84 112 146 188 236 283 334
#     4  10  21  34  53  80 116 155 191 236 290 347
#     4  11  22  39  61  88 117 153 195 243 294 349
#
# _framework density 20.039501999999999
#
# number of rings (size 3 to 8) (size 9 to 14) (size 15 to 20)
#    0.000    1.667    1.667    3.500    0.000    4.000 
#    0.000    0.833    0.000    2.000    0.000    0.000 
#    0.000    0.000    0.000    0.000    0.000    0.000 
#
# Total GULP energy -595049.060701 kJ/mol
# GULP energy per Si atom -12396.855431 kJ/mol
# Density = 1.999389 g / cm^3
# Si number density = 20.039502 Si / 1000 Ang^3
#
#
#
# Elastic Constant Matrix: (Units=GPa)
#
#
# Indices 1 2 3 4 5 6 
#
# 1 109.5315 12.3491 13.1556 0.0000 0.0000 0.0000
# 2 12.3491 54.9627 12.4001 0.0000 0.0000 0.0000
# 3 13.1556 12.4001 32.2305 0.0000 0.0000 0.0000
# 4 0.0000 0.0000 0.0000 32.1140 0.0000 0.0000
# 5 0.0000 0.0000 0.0000 0.0000 21.8931 0.0000
# 6 0.0000 0.0000 0.0000 0.0000 0.0000 28.5641
#
#
#
# Elastic Compliance Matrix: (Units=1/GPa)
#
#
# Indices 1 2 3 4 5 6 
#
# 1 0.009699 -0.001408 -0.003417 0.000000 0.000000 0.000000
# 2 -0.001408 0.020128 -0.007169 0.000000 0.000000 0.000000
# 3 -0.003417 -0.007169 0.035179 0.000000 0.000000 0.000000
# 4 0.000000 0.000000 0.000000 0.031139 0.000000 0.000000
# 5 0.000000 0.000000 0.000000 0.000000 0.045676 0.000000
# 6 0.000000 0.000000 0.000000 0.000000 0.000000 0.035009
#
#
# Mechanical properties :
#
#
# Convention : Reuss Voigt Hill
#
# Bulk Modulus (GPa) = 24.37976 30.28159 27.33068
# Shear Modulus (GPa) = 23.31088 27.10225 25.20656
#
# Velocity S-wave (km/s) = 3.41434 3.68154 3.55046
# Velocity P-wave (km/s) = 5.26649 5.76328 5.52048
#
# Compressibility (1/GPa) = 0.04101763
#
# Stress axis : x y z
#
# Youngs Moduli (GPa) = 103.10354 49.68215 28.42570
#
# Poissons Ratio (x) = 0.06997 0.09713
# Poissons Ratio (y) = 0.14520 0.20379
# Poissons Ratio (z) = 0.35231 0.35617
#
# Static dielectric constant tensor:
#      x y z
#    x 5.091460 0.000000 0.000000 
#    y 0.000000 3.427260 0.000000 
#    z 0.000000 0.000000 3.552180 
# 
# 
# High freq. dielectric constant tensor:
#      x y z
#    x 1.804050 0.000000 0.000000 
#    y 0.000000 1.758520 0.000000 
#    z 0.000000 0.000000 1.777850 
# 
# From -- ./inp_files/4588.got.cif
#   From: 2010.03.12/outbox.cif.g09.slc.cpg/sg57_3_cif.got.tgz:4588.got - 2010.04.16 15:48:40.
