data_PCOD8233844
_publ_section_title
;
Structure prediction by ZEFSAII (Michael W. Deem and Ramdas Pophale) SiO2 
 PCOD8233844
Probable space group: P B C M
;
_chemical_formula_sum "Si O2"
_cell_formula_units_Z 40
_cell_length_a 18.442630
_cell_length_b 5.240020
_cell_length_c 19.404788
_cell_angle_alpha 90.000000
_cell_angle_beta 90.000000
_cell_angle_gamma 90.000000
_cell_volume 1875.273862
_symmetry_space_group_name_H-M "P B C M"
_symmetry_group_IT_number 57
_symmetry_cell_setting 'orthorhombic'
loop_
_space_group_symop_operation_xyz
x,y,z
-x,-y,1/2+z
x,1/2-y,-z
-x,1/2+y,1/2-z
-x,-y,-z
x,y,1/2-z
-x,1/2+y,z
x,1/2-y,1/2+z
loop_
_atom_site_type_symbol
_atom_site_label
_atom_site_fract_x
_atom_site_fract_y
_atom_site_fract_z
Si Si1 0.546970 0.506991 0.671443
Si Si2 0.329812 0.349081 0.426555
Si Si3 0.238965 0.074221 0.172977
Si Si4 0.188516 0.564576 0.386058
Si Si5 0.968773 0.191036 0.423323
O O1 0.577624 0.498662 0.750000
O O2 0.504379 0.767681 0.657908
O O3 0.610830 0.488259 0.615154
O O4 0.359384 0.250000 0.500000
O O5 0.257598 0.526059 0.437745
O O6 0.307629 0.106872 0.378519
O O7 0.269654 0.090485 0.250000
O O8 0.200227 0.804833 0.163488
O O9 0.181846 0.306682 0.159802
O O10 0.115465 0.614379 0.428174
O O11 0.998932 0.250000 0.500000
O O12 0.985770 0.462443 0.385745
#
# Coordination Sequence:
#
# PCOD8233844 Si02
#       5
#     8   8   8   8   8
#     4  10  23  43  65  91 126 171 215 254 305 382
#     4  10  25  40  65  99 130 164 206 269 328 372
#     4  10  22  39  62  89 120 165 213 258 313 379
#     4  10  23  37  64  90 128 158 215 267 314 370
#     4  10  21  36  60  89 127 170 208 255 315 381
#
# _framework density 21.330216
#
# number of rings (size 3 to 8) (size 9 to 14) (size 15 to 20)
#    1.200    0.800    0.000    2.400    5.600    1.600 
#    0.000    0.000    0.000   12.000    0.000    0.000 
#    0.000    0.000    0.000    0.000    0.000    0.000 
#
# Total GULP energy -495569.865488 kJ/mol
# GULP energy per Si atom -12389.246637 kJ/mol
# Density = 2.128167 g / cm^3
# Si number density = 21.330216 Si / 1000 Ang^3
#
#
#
# Elastic Constant Matrix: (Units=GPa)
#
#
# Indices 1 2 3 4 5 6 
#
# 1 109.5844 30.4178 25.4793 0.0000 0.0000 0.0000
# 2 30.4178 151.8126 23.2708 0.0000 0.0000 0.0000
# 3 25.4793 23.2708 91.5219 0.0000 0.0000 0.0000
# 4 0.0000 0.0000 0.0000 15.0261 0.0000 0.0000
# 5 0.0000 0.0000 0.0000 0.0000 17.2870 0.0000
# 6 0.0000 0.0000 0.0000 0.0000 0.0000 19.2689
#
#
#
# Elastic Compliance Matrix: (Units=1/GPa)
#
#
# Indices 1 2 3 4 5 6 
#
# 1 0.010146 -0.001665 -0.002401 0.000000 0.000000 0.000000
# 2 -0.001665 0.007127 -0.001349 0.000000 0.000000 0.000000
# 3 -0.002401 -0.001349 0.011938 0.000000 0.000000 0.000000
# 4 0.000000 0.000000 0.000000 0.066551 0.000000 0.000000
# 5 0.000000 0.000000 0.000000 0.000000 0.057847 0.000000
# 6 0.000000 0.000000 0.000000 0.000000 0.000000 0.051897
#
#
# Mechanical properties :
#
#
# Convention : Reuss Voigt Hill
#
# Bulk Modulus (GPa) = 54.40294 56.80609 55.60451
# Shear Modulus (GPa) = 22.47565 28.56644 25.52105
#
# Velocity S-wave (km/s) = 3.24960 3.66354 3.46276
# Velocity P-wave (km/s) = 6.29605 6.67720 6.48942
#
# Compressibility (1/GPa) = 0.01838136
#
# Stress axis : x y z
#
# Youngs Moduli (GPa) = 98.56302 140.30403 83.76756
#
# Poissons Ratio (x) = 0.23357 0.20115
# Poissons Ratio (y) = 0.16409 0.11298
# Poissons Ratio (z) = 0.23667 0.18924
#
# Static dielectric constant tensor:
#      x y z
#    x 3.557460 0.000000 0.000000 
#    y 0.000000 4.197800 0.000000 
#    z 0.000000 0.000000 3.430010 
# 
# 
# High freq. dielectric constant tensor:
#      x y z
#    x 1.816830 0.000000 0.000000 
#    y 0.000000 1.858090 0.000000 
#    z 0.000000 0.000000 1.800330 
# 
# From -- ./inp_files/22983.got.cif
#   From: 2010.03.12/outbox.cif.g09.slc.cpg/sg57_12_cif.got.tgz:22983.got - 2010.04.16 15:48:40.
