data_PCOD8233256
_publ_section_title
;
Structure prediction by ZEFSAII (Michael W. Deem and Ramdas Pophale) SiO2 
 PCOD8233256
Probable space group: P B C M
;
_chemical_formula_sum "Si O2"
_cell_formula_units_Z 56
_cell_length_a 20.388733
_cell_length_b 9.745848
_cell_length_c 14.769754
_cell_angle_alpha 90.000000
_cell_angle_beta 90.000000
_cell_angle_gamma 90.000000
_cell_volume 2934.831246
_symmetry_space_group_name_H-M "P B C M"
_symmetry_group_IT_number 57
_symmetry_cell_setting 'orthorhombic'
loop_
_space_group_symop_operation_xyz
x,y,z
-x,-y,1/2+z
x,1/2-y,-z
-x,1/2+y,1/2-z
-x,-y,-z
x,y,1/2-z
-x,1/2+y,z
x,1/2-y,1/2+z
loop_
_atom_site_type_symbol
_atom_site_label
_atom_site_fract_x
_atom_site_fract_y
_atom_site_fract_z
Si Si1 0.161324 0.905516 0.013564
Si Si2 0.388707 0.168280 0.149096
Si Si3 0.045474 0.851802 0.353420
Si Si4 0.357207 0.019073 0.647089
Si Si5 0.072949 0.542941 0.353582
Si Si6 0.277817 0.092815 0.013928
Si Si7 0.522385 0.379586 0.563062
O O1 0.102840 0.911721 0.085209
O O2 0.218270 0.003169 0.053723
O O3 0.187108 0.750000 0.000000
O O4 0.136363 0.967000 0.917802
O O5 0.367076 0.125704 0.250000
O O6 0.386360 0.330110 0.134015
O O7 0.340881 0.088239 0.080181
O O8 0.464560 0.134902 0.135618
O O9 0.063522 0.886815 0.250000
O O10 0.037065 0.689223 0.368780
O O11 0.977434 0.923342 0.380781
O O12 0.334442 0.990132 0.750000
O O13 0.295017 0.014818 0.580139
O O14 0.411473 0.908448 0.618582
O O15 0.096923 0.526788 0.250000
O O16 0.254986 0.250000 0.000000
O O17 0.534921 0.250000 0.500000
O O18 0.500000 0.500000 0.500000
#
# Coordination Sequence:
#
# PCOD8233256 Si02
#       7
#     8   8   8   8   8   8   8
#     4  10  21  35  53  75 107 143 177 217 270 318
#     4  10  20  37  58  81 111 146 182 225 279 329
#     4   9  18  33  53  78 107 136 170 215 266 317
#     4  10  21  38  59  82 110 145 184 227 279 330
#     4   9  18  33  53  78 107 137 171 216 267 318
#     4  10  21  38  55  76 105 145 186 229 267 316
#     4  12  20  36  61  84 114 143 176 226 278 329
#
# _framework density 19.081164999999999
#
# number of rings (size 3 to 8) (size 9 to 14) (size 15 to 20)
#    0.000    2.000    2.857    1.286    0.000    2.857 
#    0.000    0.000    0.000    0.000    0.000    0.000 
#    0.000    0.000    0.000    0.000    0.000    0.000 
#
# Total GULP energy -694389.764004 kJ/mol
# GULP energy per Si atom -12399.817214 kJ/mol
# Density = 1.903774 g / cm^3
# Si number density = 19.081165 Si / 1000 Ang^3
#
#
#
# Elastic Constant Matrix: (Units=GPa)
#
#
# Indices 1 2 3 4 5 6 
#
# 1 71.5129 33.2798 27.3635 0.0000 0.0000 0.0000
# 2 33.2798 62.2165 26.2690 0.0000 0.0000 0.0000
# 3 27.3635 26.2690 92.9979 0.0000 0.0000 0.0000
# 4 0.0000 0.0000 0.0000 21.0355 0.0000 0.0000
# 5 0.0000 0.0000 0.0000 0.0000 19.6623 0.0000
# 6 0.0000 0.0000 0.0000 0.0000 0.0000 34.7154
#
#
#
# Elastic Compliance Matrix: (Units=1/GPa)
#
#
# Indices 1 2 3 4 5 6 
#
# 1 0.019399 -0.009046 -0.003153 0.000000 0.000000 0.000000
# 2 -0.009046 0.022467 -0.003685 0.000000 0.000000 0.000000
# 3 -0.003153 -0.003685 0.012721 0.000000 0.000000 0.000000
# 4 0.000000 0.000000 0.000000 0.047539 0.000000 0.000000
# 5 0.000000 0.000000 0.000000 0.000000 0.050859 0.000000
# 6 0.000000 0.000000 0.000000 0.000000 0.000000 0.028806
#
#
# Mechanical properties :
#
#
# Convention : Reuss Voigt Hill
#
# Bulk Modulus (GPa) = 43.81823 44.50579 44.16201
# Shear Modulus (GPa) = 22.60756 24.40364 23.50560
#
# Velocity S-wave (km/s) = 3.44584 3.58010 3.51361
# Velocity P-wave (km/s) = 6.23264 6.36118 6.29724
#
# Compressibility (1/GPa) = 0.02282155
#
# Stress axis : x y z
#
# Youngs Moduli (GPa) = 51.54780 44.50938 78.60733
#
# Poissons Ratio (x) = 0.40261 0.24785
# Poissons Ratio (y) = 0.46628 0.28965
# Poissons Ratio (z) = 0.16253 0.16400
#
# Static dielectric constant tensor:
#      x y z
#    x 2.890420 0.000000 0.000000 
#    y 0.000000 3.592040 0.000000 
#    z 0.000000 0.000000 3.770360 
# 
# 
# High freq. dielectric constant tensor:
#      x y z
#    x 1.724840 0.000000 0.000000 
#    y 0.000000 1.736110 0.000000 
#    z 0.000000 0.000000 1.752460 
# 
# From -- ./inp_files/19353.got.cif
#   From: 2010.03.12/outbox.cif.g09.slc.cpg/sg57_10_cif.got.tgz:19353.got - 2010.04.16 15:48:40.
