data_PCOD8233158
_publ_section_title
;
Structure prediction by ZEFSAII (Michael W. Deem and Ramdas Pophale) SiO2 
 PCOD8233158
Probable space group: P B C M
;
_chemical_formula_sum "Si O2"
_cell_formula_units_Z 48
_cell_length_a 30.881442
_cell_length_b 9.116667
_cell_length_c 8.526136
_cell_angle_alpha 90.000000
_cell_angle_beta 90.000000
_cell_angle_gamma 90.000000
_cell_volume 2400.412717
_symmetry_space_group_name_H-M "P B C M"
_symmetry_group_IT_number 57
_symmetry_cell_setting 'orthorhombic'
loop_
_space_group_symop_operation_xyz
x,y,z
-x,-y,1/2+z
x,1/2-y,-z
-x,1/2+y,1/2-z
-x,-y,-z
x,y,1/2-z
-x,1/2+y,z
x,1/2-y,1/2+z
loop_
_atom_site_type_symbol
_atom_site_label
_atom_site_fract_x
_atom_site_fract_y
_atom_site_fract_z
Si Si1 0.697269 0.913358 0.567403
Si Si2 0.040270 0.911990 0.434535
Si Si3 0.793032 0.909245 0.931054
Si Si4 0.380030 0.587840 0.434367
Si Si5 0.120182 0.085535 0.565896
Si Si6 0.540307 0.587951 0.065177
O O1 0.692704 0.750000 0.500000
O O2 0.684277 0.908411 0.750000
O O3 0.745763 0.982334 0.547197
O O4 0.667049 0.024066 0.473043
O O5 0.038954 0.750000 0.500000
O O6 0.036590 0.906256 0.250000
O O7 0.084637 0.987763 0.482846
O O8 0.000000 0.000000 0.500000
O O9 0.806742 0.900614 0.750000
O O10 0.786843 0.750000 0.000000
O O11 0.832612 0.985895 0.025254
O O12 0.384669 0.750000 0.500000
O O13 0.387887 0.590121 0.250000
O O14 0.415122 0.485398 0.515102
O O15 0.117901 0.250000 0.500000
O O16 0.111810 0.085625 0.750000
O O17 0.537193 0.592830 0.250000
O O18 0.538613 0.750000 0.000000
O O19 0.500000 0.500000 0.000000
#
# Coordination Sequence:
#
# PCOD8233158 Si02
#       6
#     8   8   8   8   8   8
#     4  10  20  36  59  88 120 156 199 246 295 348
#     4  12  25  43  63  87 117 151 192 238 290 346
#     4   9  17  31  54  84 117 153 195 242 291 345
#     4  12  25  42  62  87 120 159 201 247 299 353
#     4  11  21  36  59  88 120 156 196 240 291 346
#     4  12  25  44  67  94 125 159 199 243 294 350
#
# _framework density 19.996562000000001
#
# number of rings (size 3 to 8) (size 9 to 14) (size 15 to 20)
#    0.000    1.000    0.000    9.500    0.000    2.000 
#    0.000    0.833    0.000    4.000    0.000    0.000 
#    0.000    0.000    0.000    0.000    0.000    0.000 
#
# Total GULP energy -595226.902697 kJ/mol
# GULP energy per Si atom -12400.560473 kJ/mol
# Density = 1.995105 g / cm^3
# Si number density = 19.996562 Si / 1000 Ang^3
#
#
#
# Elastic Constant Matrix: (Units=GPa)
#
#
# Indices 1 2 3 4 5 6 
#
# 1 149.7324 68.4488 53.9511 0.0000 0.0000 0.0000
# 2 68.4488 128.2443 56.5788 0.0000 0.0000 0.0000
# 3 53.9511 56.5788 176.4510 0.0000 0.0000 0.0000
# 4 0.0000 0.0000 0.0000 35.6625 0.0000 0.0000
# 5 0.0000 0.0000 0.0000 0.0000 40.2313 0.0000
# 6 0.0000 0.0000 0.0000 0.0000 0.0000 35.6492
#
#
#
# Elastic Compliance Matrix: (Units=1/GPa)
#
#
# Indices 1 2 3 4 5 6 
#
# 1 0.009135 -0.004244 -0.001432 0.000000 0.000000 0.000000
# 2 -0.004244 0.011054 -0.002247 0.000000 0.000000 0.000000
# 3 -0.001432 -0.002247 0.006826 0.000000 0.000000 0.000000
# 4 0.000000 0.000000 0.000000 0.028041 0.000000 0.000000
# 5 0.000000 0.000000 0.000000 0.000000 0.024856 0.000000
# 6 0.000000 0.000000 0.000000 0.000000 0.000000 0.028051
#
#
# Mechanical properties :
#
#
# Convention : Reuss Voigt Hill
#
# Bulk Modulus (GPa) = 89.53649 90.26503 89.90076
# Shear Modulus (GPa) = 39.20631 40.67187 39.93909
#
# Velocity S-wave (km/s) = 4.43273 4.51482 4.47396
# Velocity P-wave (km/s) = 8.43042 8.50978 8.47019
#
# Compressibility (1/GPa) = 0.01116863
#
# Stress axis : x y z
#
# Youngs Moduli (GPa) = 109.47443 90.46614 146.50543
#
# Poissons Ratio (x) = 0.38390 0.20983
# Poissons Ratio (y) = 0.46456 0.32918
# Poissons Ratio (z) = 0.15680 0.20327
#
# Static dielectric constant tensor:
#      x y z
#    x 4.249550 0.000000 0.000000 
#    y 0.000000 3.517130 0.000000 
#    z 0.000000 0.000000 3.935900 
# 
# 
# High freq. dielectric constant tensor:
#      x y z
#    x 1.808210 0.000000 0.000000 
#    y 0.000000 1.760000 0.000000 
#    z 0.000000 0.000000 1.805700 
# 
# From -- ./inp_files/10029.got.cif
#   From: 2010.03.12/outbox.cif.g09.slc.cpg/sg57_6_cif.got.tgz:10029.got - 2010.04.16 15:48:40.
