data_PCOD8233394
_publ_section_title
;
Structure prediction by ZEFSAII (Michael W. Deem and Ramdas Pophale) SiO2 
 PCOD8233394
Probable space group: P B C M
;
_chemical_formula_sum "Si O2"
_cell_formula_units_Z 64
_cell_length_a 11.900888
_cell_length_b 31.226912
_cell_length_c 9.057288
_cell_angle_alpha 90.000000
_cell_angle_beta 90.000000
_cell_angle_gamma 90.000000
_cell_volume 3365.941665
_symmetry_space_group_name_H-M "P B C M"
_symmetry_group_IT_number 57
_symmetry_cell_setting 'orthorhombic'
loop_
_space_group_symop_operation_xyz
x,y,z
-x,-y,1/2+z
x,1/2-y,-z
-x,1/2+y,1/2-z
-x,-y,-z
x,y,1/2-z
-x,1/2+y,z
x,1/2-y,1/2+z
loop_
_atom_site_type_symbol
_atom_site_label
_atom_site_fract_x
_atom_site_fract_y
_atom_site_fract_z
Si Si1 0.009222 0.454692 0.580434
Si Si2 0.623035 0.114026 0.083278
Si Si3 0.736718 0.553664 0.420482
Si Si4 0.000468 0.706248 0.924200
Si Si5 0.876569 0.128125 0.423733
Si Si6 0.257877 0.292289 0.078078
Si Si7 0.387906 0.513709 0.081078
Si Si8 0.401217 0.372721 0.075711
O O1 0.983363 0.464822 0.750000
O O2 0.133169 0.434302 0.559716
O O3 0.000000 0.500000 0.500000
O O4 0.923544 0.418226 0.521448
O O5 0.590103 0.126949 0.250000
O O6 0.744747 0.132401 0.041416
O O7 0.631121 0.063536 0.067489
O O8 0.530434 0.133128 0.972722
O O9 0.701651 0.550438 0.250000
O O10 0.717657 0.508162 0.499824
O O11 0.653568 0.587034 0.496084
O O12 0.019935 0.710045 0.750000
O O13 0.870624 0.698567 0.965474
O O14 0.043977 0.750000 0.000000
O O15 0.066613 0.665930 0.986124
O O16 0.902475 0.133235 0.250000
O O17 0.271530 0.284821 0.250000
O O18 0.333048 0.331402 0.022420
O O19 0.304146 0.250000 0.000000
O O20 0.393470 0.498379 0.250000
O O21 0.500000 0.500000 0.000000
O O22 0.394118 0.379551 0.250000
#
# Coordination Sequence:
#
# PCOD8233394 Si02
#       8
#     8   8   8   8   8   8   8   8
#     4  10  22  38  57  82 114 152 193 240 290 346
#     4  10  22  38  56  78 110 150 191 234 281 333
#     4  11  22  35  54  82 112 144 186 231 283 337
#     4  10  20  37  62  90 117 145 183 232 285 346
#     4  10  21  39  59  82 114 154 195 238 291 343
#     4   9  20  37  58  86 114 141 174 219 278 336
#     4  11  21  35  55  79 109 148 192 236 280 329
#     4  11  22  36  56  82 111 143 184 229 275 328
#
# _framework density 19.013995999999999
#
# number of rings (size 3 to 8) (size 9 to 14) (size 15 to 20)
#    0.000    1.750    1.250    3.000    0.000    5.000 
#    0.000    0.625    0.000    1.500    0.000    0.000 
#    0.000    0.000    0.000    0.000    0.000    0.000 
#
# Total GULP energy -793758.846436 kJ/mol
# GULP energy per Si atom -12402.481976 kJ/mol
# Density = 1.897072 g / cm^3
# Si number density = 19.013996 Si / 1000 Ang^3
#
#
#
# Elastic Constant Matrix: (Units=GPa)
#
#
# Indices 1 2 3 4 5 6 
#
# 1 91.5029 51.8282 46.4385 0.0000 0.0000 0.0000
# 2 51.8282 115.7872 54.8494 0.0000 0.0000 0.0000
# 3 46.4385 54.8494 92.6541 0.0000 0.0000 0.0000
# 4 0.0000 0.0000 0.0000 35.4019 0.0000 0.0000
# 5 0.0000 0.0000 0.0000 0.0000 29.0375 0.0000
# 6 0.0000 0.0000 0.0000 0.0000 0.0000 33.3517
#
#
#
# Elastic Compliance Matrix: (Units=1/GPa)
#
#
# Indices 1 2 3 4 5 6 
#
# 1 0.016362 -0.004779 -0.005371 0.000000 0.000000 0.000000
# 2 -0.004779 0.013398 -0.005536 0.000000 0.000000 0.000000
# 3 -0.005371 -0.005536 0.016762 0.000000 0.000000 0.000000
# 4 0.000000 0.000000 0.000000 0.028247 0.000000 0.000000
# 5 0.000000 0.000000 0.000000 0.000000 0.034438 0.000000
# 6 0.000000 0.000000 0.000000 0.000000 0.000000 0.029983
#
#
# Mechanical properties :
#
#
# Convention : Reuss Voigt Hill
#
# Bulk Modulus (GPa) = 66.01197 67.35294 66.68246
# Shear Modulus (GPa) = 28.47154 29.34676 28.90915
#
# Velocity S-wave (km/s) = 3.87382 3.93291 3.90348
# Velocity P-wave (km/s) = 7.40281 7.49156 7.44732
#
# Compressibility (1/GPa) = 0.01514877
#
# Stress axis : x y z
#
# Youngs Moduli (GPa) = 61.11861 74.63604 59.65812
#
# Poissons Ratio (x) = 0.35671 0.32044
# Poissons Ratio (y) = 0.29211 0.33028
# Poissons Ratio (z) = 0.32828 0.41320
#
# Static dielectric constant tensor:
#      x y z
#    x 3.524170 0.000000 0.000000 
#    y 0.000000 3.565790 0.000000 
#    z 0.000000 0.000000 3.388320 
# 
# 
# High freq. dielectric constant tensor:
#      x y z
#    x 1.744130 0.000000 0.000000 
#    y 0.000000 1.735010 0.000000 
#    z 0.000000 0.000000 1.742530 
# 
# From -- ./inp_files/3787.got.cif
#   From: 2010.03.12/outbox.cif.g09.slc.cpg/sg57_2_cif.got.tgz:3787.got - 2010.04.16 15:48:40.
