data_PCOD8233195
_publ_section_title
;
Structure prediction by ZEFSAII (Michael W. Deem and Ramdas Pophale) SiO2 
 PCOD8233195
Probable space group: P B C M
;
_chemical_formula_sum "Si O2"
_cell_formula_units_Z 56
_cell_length_a 9.677093
_cell_length_b 19.159009
_cell_length_c 13.988860
_cell_angle_alpha 90.000000
_cell_angle_beta 90.000000
_cell_angle_gamma 90.000000
_cell_volume 2593.583771
_symmetry_space_group_name_H-M "P B C M"
_symmetry_group_IT_number 57
_symmetry_cell_setting 'orthorhombic'
loop_
_space_group_symop_operation_xyz
x,y,z
-x,-y,1/2+z
x,1/2-y,-z
-x,1/2+y,1/2-z
-x,-y,-z
x,y,1/2-z
-x,1/2+y,z
x,1/2-y,1/2+z
loop_
_atom_site_type_symbol
_atom_site_label
_atom_site_fract_x
_atom_site_fract_y
_atom_site_fract_z
Si Si1 0.253762 0.315663 0.053788
Si Si2 0.806912 0.955461 0.973805
Si Si3 0.790884 0.303511 0.863335
Si Si4 0.088122 0.950063 0.865102
Si Si5 0.029682 0.820857 0.140318
Si Si6 0.264901 0.918890 0.361668
Si Si7 0.452398 0.709757 0.861676
O O1 0.395074 0.287513 0.097062
O O2 0.132887 0.334296 0.128825
O O3 0.188412 0.250000 0.000000
O O4 0.278057 0.383698 0.988061
O O5 0.933493 0.938139 0.902906
O O6 0.707296 0.010526 0.920755
O O7 0.849198 0.983670 0.079124
O O8 0.789508 0.301560 0.750000
O O9 0.821170 0.382388 0.895860
O O10 0.911709 0.251978 0.903279
O O11 0.642460 0.273875 0.901802
O O12 0.088444 0.963098 0.750000
O O13 0.070005 0.817939 0.250000
O O14 0.117544 0.887205 0.100934
O O15 0.262945 0.937546 0.250000
O O16 0.384819 0.864426 0.386715
O O17 0.466760 0.718935 0.750000
#
# Coordination Sequence:
#
# PCOD8233195 Si02
#       7
#     8   8   8   8   8   8   8
#     4  12  25  37  51  79 118 155 194 241 292 342
#     4  11  23  36  56  88 121 154 194 239 296 358
#     4   8  16  34  61  88 109 141 192 240 288 343
#     4  10  20  36  60  91 124 153 189 244 298 347
#     4   9  17  33  59  84 109 145 189 238 289 344
#     4   9  19  39  65  89 115 151 194 242 295 351
#     4   9  20  40  63  84 113 157 201 238 283 346
#
# _framework density 21.591745
#
# number of rings (size 3 to 8) (size 9 to 14) (size 15 to 20)
#    0.000    2.286    0.000    5.143    0.000    4.000 
#    0.000    5.000    0.000    3.429    0.000    0.000 
#    0.000    0.000    0.000    0.000    0.000    0.000 
#
# Total GULP energy -694012.220813 kJ/mol
# GULP energy per Si atom -12393.075372 kJ/mol
# Density = 2.154260 g / cm^3
# Si number density = 21.591745 Si / 1000 Ang^3
#
#
#
# Elastic Constant Matrix: (Units=GPa)
#
#
# Indices 1 2 3 4 5 6 
#
# 1 93.6052 17.5292 15.6963 0.0000 0.0000 0.0000
# 2 17.5292 129.0152 36.7415 0.0000 0.0000 0.0000
# 3 15.6963 36.7415 47.9890 0.0000 0.0000 0.0000
# 4 0.0000 0.0000 0.0000 30.4832 0.0000 0.0000
# 5 0.0000 0.0000 0.0000 0.0000 14.1933 0.0000
# 6 0.0000 0.0000 0.0000 0.0000 0.0000 234.0564
#
#
#
# Elastic Compliance Matrix: (Units=1/GPa)
#
#
# Indices 1 2 3 4 5 6 
#
# 1 0.011342 -0.000620 -0.003235 0.000000 0.000000 0.000000
# 2 -0.000620 0.009946 -0.007412 0.000000 0.000000 0.000000
# 3 -0.003235 -0.007412 0.027571 0.000000 0.000000 0.000000
# 4 0.000000 0.000000 0.000000 0.032805 0.000000 0.000000
# 5 0.000000 0.000000 0.000000 0.000000 0.070456 0.000000
# 6 0.000000 0.000000 0.000000 0.000000 0.000000 0.004272
#
#
# Mechanical properties :
#
#
# Convention : Reuss Voigt Hill
#
# Bulk Modulus (GPa) = 37.98703 45.61592 41.80147
# Shear Modulus (GPa) = 26.63803 69.12274 47.88039
#
# Velocity S-wave (km/s) = 3.51624 5.66419 4.71418
# Velocity P-wave (km/s) = 5.84095 7.99686 7.00237
#
# Compressibility (1/GPa) = 0.02632478
#
# Stress axis : x y z
#
# Youngs Moduli (GPa) = 88.17007 100.54170 36.26957
#
# Poissons Ratio (x) = 0.06230 0.11734
# Poissons Ratio (y) = 0.05463 0.26884
# Poissons Ratio (z) = 0.28525 0.74525
#
# Static dielectric constant tensor:
#      x y z
#    x 3.679940 0.000000 0.000000 
#    y 0.000000 4.194740 0.000000 
#    z 0.000000 0.000000 3.804450 
# 
# 
# High freq. dielectric constant tensor:
#      x y z
#    x 1.822290 0.000000 0.000000 
#    y 0.000000 1.855390 0.000000 
#    z 0.000000 0.000000 1.851490 
# 
# From -- ./inp_files/16761.got.cif
#   From: 2010.03.12/outbox.cif.g09.slc.cpg/sg57_9_cif.got.tgz:16761.got - 2010.04.16 15:48:40.
