data_PCOD8233832
_publ_section_title
;
Structure prediction by ZEFSAII (Michael W. Deem and Ramdas Pophale) SiO2 
 PCOD8233832
Probable space group: P B C M
;
_chemical_formula_sum "Si O2"
_cell_formula_units_Z 64
_cell_length_a 8.896923
_cell_length_b 15.076005
_cell_length_c 24.389380
_cell_angle_alpha 90.000000
_cell_angle_beta 90.000000
_cell_angle_gamma 90.000000
_cell_volume 3271.348896
_symmetry_space_group_name_H-M "P B C M"
_symmetry_group_IT_number 57
_symmetry_cell_setting 'orthorhombic'
loop_
_space_group_symop_operation_xyz
x,y,z
-x,-y,1/2+z
x,1/2-y,-z
-x,1/2+y,1/2-z
-x,-y,-z
x,y,1/2-z
-x,1/2+y,z
x,1/2-y,1/2+z
loop_
_atom_site_type_symbol
_atom_site_label
_atom_site_fract_x
_atom_site_fract_y
_atom_site_fract_z
Si Si1 0.423431 0.599989 0.383912
Si Si2 0.069576 0.404292 0.110117
Si Si3 0.424826 0.101604 0.611440
Si Si4 0.932912 0.398154 0.616148
Si Si5 0.926427 0.747769 0.313446
Si Si6 0.566600 0.596364 0.492395
Si Si7 0.103905 0.351497 0.507853
Si Si8 0.426878 0.243353 0.186886
O O1 0.484685 0.498584 0.378490
O O2 0.245598 0.605733 0.384189
O O3 0.484315 0.642653 0.441051
O O4 0.490586 0.655170 0.333704
O O5 0.247050 0.403039 0.116000
O O6 0.008268 0.501557 0.125727
O O7 0.005748 0.330521 0.152014
O O8 0.020713 0.384694 0.047371
O O9 0.465536 0.142405 0.551339
O O10 0.491332 0.169290 0.656190
O O11 0.992708 0.341350 0.666890
O O12 0.990741 0.360696 0.558301
O O13 0.963134 0.764777 0.250000
O O14 0.750045 0.734190 0.323792
O O15 0.500000 0.500000 0.500000
O O16 0.745375 0.592153 0.480842
O O17 0.153425 0.250000 0.500000
O O18 0.466365 0.255826 0.250000
#
# Coordination Sequence:
#
# PCOD8233832 Si02
#       8
#     8   8   8   8   8   8   8   8
#     4  10  21  36  57  86 118 146 185 242 294 345
#     4   9  19  36  59  82 114 151 193 235 287 348
#     4   8  18  36  56  82 111 148 187 228 287 349
#     4  11  22  38  58  88 122 154 190 239 300 355
#     4  10  21  39  60  82 109 151 206 243 283 355
#     4   9  19  35  57  87 115 147 189 232 280 342
#     4  11  20  36  63  86 118 161 196 233 286 356
#     4  10  21  38  60  82 107 150 201 242 283 342
#
# _framework density 19.563796
#
# number of rings (size 3 to 8) (size 9 to 14) (size 15 to 20)
#    0.000    2.250    1.250    1.875    3.500    1.500 
#    2.250    6.250    0.000    0.000    0.000    0.000 
#    0.000    0.000    0.000    0.000    0.000    0.000 
#
# Total GULP energy -793395.562970 kJ/mol
# GULP energy per Si atom -12396.805671 kJ/mol
# Density = 1.951927 g / cm^3
# Si number density = 19.563796 Si / 1000 Ang^3
#
#
#
# Elastic Constant Matrix: (Units=GPa)
#
#
# Indices 1 2 3 4 5 6 
#
# 1 50.8221 25.1026 39.7530 0.0000 0.0000 0.0000
# 2 25.1026 105.7502 47.3672 0.0000 0.0000 0.0000
# 3 39.7530 47.3672 127.4806 0.0000 0.0000 0.0000
# 4 0.0000 0.0000 0.0000 30.1789 0.0000 0.0000
# 5 0.0000 0.0000 0.0000 0.0000 18.7148 0.0000
# 6 0.0000 0.0000 0.0000 0.0000 0.0000 27.2859
#
#
#
# Elastic Compliance Matrix: (Units=1/GPa)
#
#
# Indices 1 2 3 4 5 6 
#
# 1 0.026871 -0.003149 -0.007209 0.000000 0.000000 0.000000
# 2 -0.003149 0.011713 -0.003370 0.000000 0.000000 0.000000
# 3 -0.007209 -0.003370 0.011345 0.000000 0.000000 0.000000
# 4 0.000000 0.000000 0.000000 0.033136 0.000000 0.000000
# 5 0.000000 0.000000 0.000000 0.000000 0.053434 0.000000
# 6 0.000000 0.000000 0.000000 0.000000 0.000000 0.036649
#
#
# Mechanical properties :
#
#
# Convention : Reuss Voigt Hill
#
# Bulk Modulus (GPa) = 44.50066 56.49985 50.50025
# Shear Modulus (GPa) = 24.02744 26.69127 25.35935
#
# Velocity S-wave (km/s) = 3.50831 3.69768 3.60424
# Velocity P-wave (km/s) = 6.26153 6.86825 6.57190
#
# Compressibility (1/GPa) = 0.02247158
#
# Stress axis : x y z
#
# Youngs Moduli (GPa) = 37.21470 85.37224 88.14744
#
# Poissons Ratio (x) = 0.26888 0.63547
# Poissons Ratio (y) = 0.11721 0.29707
# Poissons Ratio (z) = 0.26829 0.28772
#
# Static dielectric constant tensor:
#      x y z
#    x 3.297610 0.000000 0.000000 
#    y 0.000000 3.814590 0.000000 
#    z 0.000000 0.000000 3.854710 
# 
# 
# High freq. dielectric constant tensor:
#      x y z
#    x 1.731860 0.000000 0.000000 
#    y 0.000000 1.767640 0.000000 
#    z 0.000000 0.000000 1.767300 
# 
# From -- ./inp_files/26867.got.cif
#   From: 2010.03.12/outbox.cif.g09.slc.cpg/sg57_14_cif.got.tgz:26867.got - 2010.04.16 15:48:40.
