data_PCOD8233725
_publ_section_title
;
Structure prediction by ZEFSAII (Michael W. Deem and Ramdas Pophale) SiO2 
 PCOD8233725
Probable space group: P B C M
;
_chemical_formula_sum "Si O2"
_cell_formula_units_Z 40
_cell_length_a 12.935912
_cell_length_b 11.507970
_cell_length_c 13.888281
_cell_angle_alpha 90.000000
_cell_angle_beta 90.000000
_cell_angle_gamma 90.000000
_cell_volume 2067.494051
_symmetry_space_group_name_H-M "P B C M"
_symmetry_group_IT_number 57
_symmetry_cell_setting 'orthorhombic'
loop_
_space_group_symop_operation_xyz
x,y,z
-x,-y,1/2+z
x,1/2-y,-z
-x,1/2+y,1/2-z
-x,-y,-z
x,y,1/2-z
-x,1/2+y,z
x,1/2-y,1/2+z
loop_
_atom_site_type_symbol
_atom_site_label
_atom_site_fract_x
_atom_site_fract_y
_atom_site_fract_z
Si Si1 0.385438 0.793690 0.139515
Si Si2 0.614965 0.649450 0.859162
Si Si3 0.313689 0.568683 0.034170
Si Si4 0.829332 0.761387 0.860878
Si Si5 0.890320 0.558639 0.511202
O O1 0.356258 0.819876 0.250000
O O2 0.508755 0.781083 0.125074
O O3 0.332564 0.675147 0.106171
O O4 0.344919 0.900523 0.075137
O O5 0.623498 0.601455 0.750000
O O6 0.619170 0.541056 0.931510
O O7 0.707767 0.738949 0.879864
O O8 0.192159 0.540157 0.039064
O O9 0.858441 0.771896 0.750000
O O10 0.857437 0.882374 0.910808
O O11 0.895517 0.655485 0.905112
O O12 0.000000 0.500000 0.500000
#
# Coordination Sequence:
#
# PCOD8233725 Si02
#       5
#     8   8   8   8   8
#     4  10  21  34  53  84 115 141 175 220 269 323
#     4   9  18  35  57  80 109 145 179 212 259 323
#     4  10  21  36  54  76 109 147 180 219 270 320
#     4   9  20  38  59  81 105 140 185 222 259 320
#     4  10  22  39  57  79 108 141 181 229 273 312
#
# _framework density 19.347093999999998
#
# number of rings (size 3 to 8) (size 9 to 14) (size 15 to 20)
#    0.000    2.400    0.000    1.200    0.000   13.600 
#    0.000    6.000    0.000    0.000    0.000    0.000 
#    0.000    0.000    0.000    0.000    0.000    0.000 
#
# Total GULP energy -496103.263092 kJ/mol
# GULP energy per Si atom -12402.581577 kJ/mol
# Density = 1.930306 g / cm^3
# Si number density = 19.347094 Si / 1000 Ang^3
#
#
#
# Elastic Constant Matrix: (Units=GPa)
#
#
# Indices 1 2 3 4 5 6 
#
# 1 122.9674 69.6491 41.7541 0.0000 0.0000 0.0000
# 2 69.6491 108.5231 62.6047 0.0000 0.0000 0.0000
# 3 41.7541 62.6047 146.7875 0.0000 0.0000 0.0000
# 4 0.0000 0.0000 0.0000 30.1834 0.0000 0.0000
# 5 0.0000 0.0000 0.0000 0.0000 23.5022 0.0000
# 6 0.0000 0.0000 0.0000 0.0000 0.0000 28.7698
#
#
#
# Elastic Compliance Matrix: (Units=1/GPa)
#
#
# Indices 1 2 3 4 5 6 
#
# 1 0.012780 -0.008097 -0.000182 0.000000 0.000000 0.000000
# 2 -0.008097 0.017352 -0.005097 0.000000 0.000000 0.000000
# 3 -0.000182 -0.005097 0.009038 0.000000 0.000000 0.000000
# 4 0.000000 0.000000 0.000000 0.033131 0.000000 0.000000
# 5 0.000000 0.000000 0.000000 0.000000 0.042549 0.000000
# 6 0.000000 0.000000 0.000000 0.000000 0.000000 0.034759
#
#
# Mechanical properties :
#
#
# Convention : Reuss Voigt Hill
#
# Bulk Modulus (GPa) = 80.53131 80.69934 80.61532
# Shear Modulus (GPa) = 27.70057 30.10908 28.90483
#
# Velocity S-wave (km/s) = 3.78798 3.94922 3.86944
# Velocity P-wave (km/s) = 7.80042 7.91183 7.85632
#
# Compressibility (1/GPa) = 0.01241753
#
# Stress axis : x y z
#
# Youngs Moduli (GPa) = 78.24488 57.63032 110.64042
#
# Poissons Ratio (x) = 0.46666 0.02012
# Poissons Ratio (y) = 0.63358 0.56396
# Poissons Ratio (z) = 0.01423 0.29376
#
# Static dielectric constant tensor:
#      x y z
#    x 3.410510 0.000000 0.000000 
#    y 0.000000 3.400160 0.000000 
#    z 0.000000 0.000000 3.731130 
# 
# 
# High freq. dielectric constant tensor:
#      x y z
#    x 1.742160 0.000000 0.000000 
#    y 0.000000 1.746270 0.000000 
#    z 0.000000 0.000000 1.766460 
# 
# From -- ./inp_files/17379.got.cif
#   From: 2010.03.12/outbox.cif.g09.slc.cpg/sg57_9_cif.got.tgz:17379.got - 2010.04.16 15:48:40.
