data_PCOD8233834
_publ_section_title
;
Structure prediction by ZEFSAII (Michael W. Deem and Ramdas Pophale) SiO2 
 PCOD8233834
Probable space group: P B C M
;
_chemical_formula_sum "Si O2"
_cell_formula_units_Z 64
_cell_length_a 9.683064
_cell_length_b 19.043581
_cell_length_c 18.570060
_cell_angle_alpha 90.000000
_cell_angle_beta 90.000000
_cell_angle_gamma 90.000000
_cell_volume 3424.323031
_symmetry_space_group_name_H-M "P B C M"
_symmetry_group_IT_number 57
_symmetry_cell_setting 'orthorhombic'
loop_
_space_group_symop_operation_xyz
x,y,z
-x,-y,1/2+z
x,1/2-y,-z
-x,1/2+y,1/2-z
-x,-y,-z
x,y,1/2-z
-x,1/2+y,z
x,1/2-y,1/2+z
loop_
_atom_site_type_symbol
_atom_site_label
_atom_site_fract_x
_atom_site_fract_y
_atom_site_fract_z
Si Si1 0.575485 0.927391 0.889329
Si Si2 0.876698 0.779118 0.076106
Si Si3 0.975875 0.467151 0.832977
Si Si4 0.921462 0.377373 0.335203
Si Si5 0.281976 0.542371 0.074677
Si Si6 0.638878 0.888543 0.451265
Si Si7 0.658097 0.081279 0.585550
Si Si8 0.194724 0.148428 0.329196
O O1 0.410686 0.918364 0.887454
O O2 0.645965 0.877891 0.829725
O O3 0.616814 0.008221 0.877111
O O4 0.637340 0.900037 0.964075
O O5 0.738803 0.824998 0.068112
O O6 0.830717 0.711737 0.118875
O O7 0.995566 0.819635 0.119344
O O8 0.934226 0.750000 0.000000
O O9 0.930747 0.460265 0.750000
O O10 0.855329 0.436823 0.883227
O O11 0.012366 0.547104 0.851842
O O12 0.106377 0.419477 0.852131
O O13 0.924828 0.359785 0.250000
O O14 0.763489 0.376732 0.363227
O O15 0.303123 0.459313 0.084293
O O16 0.271230 0.566460 0.991875
O O17 0.482718 0.873283 0.423171
O O18 0.155820 0.174559 0.250000
#
# Coordination Sequence:
#
# PCOD8233834 Si02
#       8
#     8   8   8   8   8   8   8   8
#     4   9  17  34  57  88 118 146 188 249 299 345
#     4  12  24  39  62  86 117 162 205 241 297 358
#     4  10  21  36  57  86 121 157 195 245 299 348
#     4  11  23  40  59  89 124 156 199 250 296 356
#     4   9  18  33  60  89 118 142 194 254 294 338
#     4   9  18  37  56  89 114 147 197 247 289 348
#     4   9  19  34  63  88 115 149 192 249 302 338
#     4  11  23  38  56  84 123 160 192 238 302 363
#
# _framework density 18.689827000000001
#
# number of rings (size 3 to 8) (size 9 to 14) (size 15 to 20)
#    0.000    2.000    3.750    1.875    1.750    1.000 
#    0.000    5.000    0.000    0.000    0.000    0.000 
#    0.000    0.000    0.000    0.000    0.000    0.000 
#
# Total GULP energy -793423.185401 kJ/mol
# GULP energy per Si atom -12397.237272 kJ/mol
# Density = 1.864729 g / cm^3
# Si number density = 18.689827 Si / 1000 Ang^3
#
#
#
# Elastic Constant Matrix: (Units=GPa)
#
#
# Indices 1 2 3 4 5 6 
#
# 1 92.1497 25.2310 53.8898 0.0000 0.0000 0.0000
# 2 25.2310 73.1996 44.9105 0.0000 0.0000 0.0000
# 3 53.8898 44.9105 77.9419 0.0000 0.0000 0.0000
# 4 0.0000 0.0000 0.0000 24.9952 0.0000 0.0000
# 5 0.0000 0.0000 0.0000 0.0000 19.9633 0.0000
# 6 0.0000 0.0000 0.0000 0.0000 0.0000 27.6755
#
#
#
# Elastic Compliance Matrix: (Units=1/GPa)
#
#
# Indices 1 2 3 4 5 6 
#
# 1 0.018459 0.002270 -0.014071 0.000000 0.000000 0.000000
# 2 0.002270 0.021411 -0.013907 0.000000 0.000000 0.000000
# 3 -0.014071 -0.013907 0.030572 0.000000 0.000000 0.000000
# 4 0.000000 0.000000 0.000000 0.040008 0.000000 0.000000
# 5 0.000000 0.000000 0.000000 0.000000 0.050092 0.000000
# 6 0.000000 0.000000 0.000000 0.000000 0.000000 0.036133
#
#
# Mechanical properties :
#
#
# Convention : Reuss Voigt Hill
#
# Bulk Modulus (GPa) = 52.55625 54.59486 53.57555
# Shear Modulus (GPa) = 19.65156 22.47744 21.06450
#
# Velocity S-wave (km/s) = 3.24614 3.47170 3.36081
# Velocity P-wave (km/s) = 6.49855 6.73384 6.61724
#
# Compressibility (1/GPa) = 0.01902723
#
# Stress axis : x y z
#
# Youngs Moduli (GPa) = 54.17388 46.70470 32.70947
#
# Poissons Ratio (x) = -0.10604 0.46026
# Poissons Ratio (y) = -0.12300 0.45489
# Poissons Ratio (z) = 0.76228 0.64952
#
# Static dielectric constant tensor:
#      x y z
#    x 3.498280 0.000000 0.000000 
#    y 0.000000 3.443120 0.000000 
#    z 0.000000 0.000000 2.969390 
# 
# 
# High freq. dielectric constant tensor:
#      x y z
#    x 1.730550 0.000000 0.000000 
#    y 0.000000 1.706490 0.000000 
#    z 0.000000 0.000000 1.721740 
# 
# From -- ./inp_files/24614.got.cif
#   From: 2010.03.12/outbox.cif.g09.slc.cpg/sg57_13_cif.got.tgz:24614.got - 2010.04.16 15:48:40.
