data_PCOD8233274
_publ_section_title
;
Structure prediction by ZEFSAII (Michael W. Deem and Ramdas Pophale) SiO2 
 PCOD8233274
Probable space group: P B C M
;
_chemical_formula_sum "Si O2"
_cell_formula_units_Z 48
_cell_length_a 30.912166
_cell_length_b 9.044146
_cell_length_c 8.532509
_cell_angle_alpha 90.000000
_cell_angle_beta 90.000000
_cell_angle_gamma 90.000000
_cell_volume 2385.468887
_symmetry_space_group_name_H-M "P B C M"
_symmetry_group_IT_number 57
_symmetry_cell_setting 'orthorhombic'
loop_
_space_group_symop_operation_xyz
x,y,z
-x,-y,1/2+z
x,1/2-y,-z
-x,1/2+y,1/2-z
-x,-y,-z
x,y,1/2-z
-x,1/2+y,z
x,1/2-y,1/2+z
loop_
_atom_site_type_symbol
_atom_site_label
_atom_site_fract_x
_atom_site_fract_y
_atom_site_fract_z
Si Si1 0.286811 0.411747 0.566006
Si Si2 0.369950 0.913736 0.063740
Si Si3 0.459617 0.586950 0.435390
Si Si4 0.798118 0.085601 0.935656
Si Si5 0.959342 0.086702 0.564807
Si Si6 0.878415 0.586129 0.935333
O O1 0.278455 0.250000 0.500000
O O2 0.288819 0.396577 0.750000
O O3 0.331588 0.480608 0.502538
O O4 0.248527 0.521975 0.515827
O O5 0.372258 0.906346 0.250000
O O6 0.361585 0.750000 0.000000
O O7 0.414557 0.982478 0.996856
O O8 0.463412 0.750000 0.500000
O O9 0.500000 0.500000 0.500000
O O10 0.460064 0.586079 0.250000
O O11 0.805609 0.084649 0.750000
O O12 0.802836 0.250000 0.000000
O O13 0.832455 0.980231 0.018282
O O14 0.961074 0.250000 0.500000
O O15 0.961517 0.089720 0.750000
O O16 0.915208 0.012889 0.511198
O O17 0.000000 0.000000 0.500000
O O18 0.883968 0.587587 0.750000
O O19 0.882623 0.750000 0.000000
#
# Coordination Sequence:
#
# PCOD8233274 Si02
#       6
#     8   8   8   8   8   8
#     4  10  23  39  59  86 119 154 195 242 295 352
#     4  10  20  37  58  84 114 150 193 240 290 350
#     4  11  22  38  59  85 115 152 193 240 292 350
#     4  11  23  41  63  91 122 160 203 248 299 357
#     4  12  25  44  67  95 128 166 208 255 306 363
#     4  12  25  43  65  93 126 164 205 253 305 360
#
# _framework density 20.121831
#
# number of rings (size 3 to 8) (size 9 to 14) (size 15 to 20)
#    0.000    1.000    0.000    8.500    0.000    4.667 
#    0.000    1.667    0.000    0.000    0.000    0.000 
#    0.000    0.000    0.000    0.000    0.000    0.000 
#
# Total GULP energy -595416.083424 kJ/mol
# GULP energy per Si atom -12404.501738 kJ/mol
# Density = 2.007603 g / cm^3
# Si number density = 20.121831 Si / 1000 Ang^3
#
#
#
# Elastic Constant Matrix: (Units=GPa)
#
#
# Indices 1 2 3 4 5 6 
#
# 1 143.2941 55.7311 59.9676 0.0000 0.0000 0.0000
# 2 55.7311 121.6600 55.7007 0.0000 0.0000 0.0000
# 3 59.9676 55.7007 151.5797 0.0000 0.0000 0.0000
# 4 0.0000 0.0000 0.0000 40.2604 0.0000 0.0000
# 5 0.0000 0.0000 0.0000 0.0000 36.1069 0.0000
# 6 0.0000 0.0000 0.0000 0.0000 0.0000 49.3287
#
#
#
# Elastic Compliance Matrix: (Units=1/GPa)
#
#
# Indices 1 2 3 4 5 6 
#
# 1 0.009229 -0.003073 -0.002522 0.000000 0.000000 0.000000
# 2 -0.003073 0.010906 -0.002792 0.000000 0.000000 0.000000
# 3 -0.002522 -0.002792 0.008621 0.000000 0.000000 0.000000
# 4 0.000000 0.000000 0.000000 0.024838 0.000000 0.000000
# 5 0.000000 0.000000 0.000000 0.000000 0.027696 0.000000
# 6 0.000000 0.000000 0.000000 0.000000 0.000000 0.020272
#
#
# Mechanical properties :
#
#
# Convention : Reuss Voigt Hill
#
# Bulk Modulus (GPa) = 83.45835 84.37030 83.91432
# Shear Modulus (GPa) = 40.87325 41.48146 41.17736
#
# Velocity S-wave (km/s) = 4.51187 4.54532 4.52863
# Velocity P-wave (km/s) = 8.28910 8.34070 8.31494
#
# Compressibility (1/GPa) = 0.01198203
#
# Stress axis : x y z
#
# Youngs Moduli (GPa) = 108.35004 91.69645 115.99889
#
# Poissons Ratio (x) = 0.28180 0.29255
# Poissons Ratio (y) = 0.33298 0.32383
# Poissons Ratio (z) = 0.27326 0.25598
#
# Static dielectric constant tensor:
#      x y z
#    x 4.124430 0.000000 0.000000 
#    y 0.000000 3.883270 0.000000 
#    z 0.000000 0.000000 3.854940 
# 
# 
# High freq. dielectric constant tensor:
#      x y z
#    x 1.809670 0.000000 0.000000 
#    y 0.000000 1.793700 0.000000 
#    z 0.000000 0.000000 1.802660 
# 
# From -- ./inp_files/10012.got.cif
#   From: 2010.03.12/outbox.cif.g09.slc.cpg/sg57_6_cif.got.tgz:10012.got - 2010.04.16 15:48:40.
