data_PCOD8233251
_publ_section_title
;
Structure prediction by ZEFSAII (Michael W. Deem and Ramdas Pophale) SiO2 
 PCOD8233251
Probable space group: P B C M
;
_chemical_formula_sum "Si O2"
_cell_formula_units_Z 60
_cell_length_a 12.382670
_cell_length_b 15.536915
_cell_length_c 15.983050
_cell_angle_alpha 90.000000
_cell_angle_beta 90.000000
_cell_angle_gamma 90.000000
_cell_volume 3074.954875
_symmetry_space_group_name_H-M "P B C M"
_symmetry_group_IT_number 57
_symmetry_cell_setting 'orthorhombic'
loop_
_space_group_symop_operation_xyz
x,y,z
-x,-y,1/2+z
x,1/2-y,-z
-x,1/2+y,1/2-z
-x,-y,-z
x,y,1/2-z
-x,1/2+y,z
x,1/2-y,1/2+z
loop_
_atom_site_type_symbol
_atom_site_label
_atom_site_fract_x
_atom_site_fract_y
_atom_site_fract_z
Si Si1 0.927705 0.152286 0.512193
Si Si2 0.731639 0.432466 0.555937
Si Si3 0.710074 0.750000 0.500000
Si Si4 0.466135 0.923949 0.844973
Si Si5 0.155748 0.414700 0.973181
Si Si6 0.444832 0.264675 0.152745
Si Si7 0.599673 0.417834 0.106189
Si Si8 0.171204 0.554584 0.658312
O O1 0.961675 0.250000 0.500000
O O2 0.835886 0.130142 0.443007
O O3 0.880142 0.131741 0.603865
O O4 0.033245 0.094214 0.503178
O O5 0.664028 0.428828 0.641462
O O6 0.775981 0.528078 0.538422
O O7 0.644999 0.400867 0.486576
O O8 0.785495 0.675544 0.463652
O O9 0.644230 0.716905 0.581244
O O10 0.489300 0.947624 0.750000
O O11 0.508210 0.829300 0.867458
O O12 0.526358 0.996323 0.899345
O O13 0.151152 0.461846 0.883703
O O14 0.402187 0.269369 0.250000
O O15 0.536389 0.335844 0.140892
O O16 0.700596 0.432187 0.167641
O O17 0.117915 0.555383 0.750000
#
# Coordination Sequence:
#
# PCOD8233251 Si02
#       8
#     8   8   4   8   8   8   8   8
#     4  10  21  40  62  85 117 153 197 253 303 354
#     4  10  21  35  60  82 111 154 199 235 290 369
#     4  12  22  36  62  84 118 164 206 248 302 366
#     4  11  22  35  54  85 121 153 191 244 297 351
#     4  10  21  40  60  85 115 156 201 249 307 357
#     4  11  23  36  55  85 121 156 200 249 300 364
#     4  10  20  37  57  80 118 157 191 238 293 353
#     4  10  21  38  64  89 118 158 202 245 301 366
#
# _framework density 19.512481000000001
#
# number of rings (size 3 to 8) (size 9 to 14) (size 15 to 20)
#    0.000    1.867    0.667    6.400    3.733    1.600 
#    0.000    4.000    0.000    0.000    0.000    0.000 
#    0.000    0.000    0.000    0.000    0.000    0.000 
#
# Total GULP energy -743744.809540 kJ/mol
# GULP energy per Si atom -12395.746826 kJ/mol
# Density = 1.946807 g / cm^3
# Si number density = 19.512481 Si / 1000 Ang^3
#
#
#
# Elastic Constant Matrix: (Units=GPa)
#
#
# Indices 1 2 3 4 5 6 
#
# 1 99.1374 22.4820 40.7751 0.0000 0.0000 0.0000
# 2 22.4820 105.4418 37.5096 0.0000 0.0000 0.0000
# 3 40.7751 37.5096 75.1127 0.0000 0.0000 0.0000
# 4 0.0000 0.0000 0.0000 10.7951 0.0000 0.0000
# 5 0.0000 0.0000 0.0000 0.0000 11.7886 0.0000
# 6 0.0000 0.0000 0.0000 0.0000 0.0000 36.8783
#
#
#
# Elastic Compliance Matrix: (Units=1/GPa)
#
#
# Indices 1 2 3 4 5 6 
#
# 1 0.012995 -0.000318 -0.006896 0.000000 0.000000 0.000000
# 2 -0.000318 0.011540 -0.005591 0.000000 0.000000 0.000000
# 3 -0.006896 -0.005591 0.019849 0.000000 0.000000 0.000000
# 4 0.000000 0.000000 0.000000 0.092635 0.000000 0.000000
# 5 0.000000 0.000000 0.000000 0.000000 0.084828 0.000000
# 6 0.000000 0.000000 0.000000 0.000000 0.000000 0.027116
#
#
# Mechanical properties :
#
#
# Convention : Reuss Voigt Hill
#
# Bulk Modulus (GPa) = 53.25944 53.46949 53.36446
# Shear Modulus (GPa) = 17.80436 23.82074 20.81255
#
# Velocity S-wave (km/s) = 3.02397 3.49778 3.26947
# Velocity P-wave (km/s) = 6.28863 6.61625 6.45452
#
# Compressibility (1/GPa) = 0.01877602
#
# Stress axis : x y z
#
# Youngs Moduli (GPa) = 76.95073 86.65197 50.38138
#
# Poissons Ratio (x) = 0.02753 0.34743
# Poissons Ratio (y) = 0.02445 0.28166
# Poissons Ratio (z) = 0.53064 0.48443
#
# Static dielectric constant tensor:
#      x y z
#    x 3.659190 0.000000 0.000000 
#    y 0.000000 3.534230 0.000000 
#    z 0.000000 0.000000 3.449410 
# 
# 
# High freq. dielectric constant tensor:
#      x y z
#    x 1.764130 0.000000 0.000000 
#    y 0.000000 1.768090 0.000000 
#    z 0.000000 0.000000 1.742150 
# 
# From -- ./inp_files/21964.got.cif
#   From: 2010.03.12/outbox.cif.g09.slc.cpg/sg57_11_cif.got.tgz:21964.got - 2010.04.16 15:48:40.
