data_PCOD8233442
_publ_section_title
;
Structure prediction by ZEFSAII (Michael W. Deem and Ramdas Pophale) SiO2 
 PCOD8233442
Probable space group: P B C M
;
_chemical_formula_sum "Si O2"
_cell_formula_units_Z 40
_cell_length_a 4.930459
_cell_length_b 20.594887
_cell_length_c 18.563965
_cell_angle_alpha 90.000000
_cell_angle_beta 90.000000
_cell_angle_gamma 90.000000
_cell_volume 1885.026700
_symmetry_space_group_name_H-M "P B C M"
_symmetry_group_IT_number 57
_symmetry_cell_setting 'orthorhombic'
loop_
_space_group_symop_operation_xyz
x,y,z
-x,-y,1/2+z
x,1/2-y,-z
-x,1/2+y,1/2-z
-x,-y,-z
x,y,1/2-z
-x,1/2+y,z
x,1/2-y,1/2+z
loop_
_atom_site_type_symbol
_atom_site_label
_atom_site_fract_x
_atom_site_fract_y
_atom_site_fract_z
Si Si1 0.171595 0.494376 0.376494
Si Si2 0.063474 0.376873 0.876848
Si Si3 0.351395 0.589633 0.628253
Si Si4 0.695609 0.306621 0.250000
Si Si5 0.191890 0.219618 0.250000
Si Si6 0.402061 0.903580 0.533621
O O1 0.434588 0.462275 0.338019
O O2 0.280640 0.522538 0.454237
O O3 0.048496 0.557700 0.335129
O O4 0.947263 0.438898 0.382111
O O5 0.137293 0.321683 0.821035
O O6 0.320812 0.396437 0.923578
O O7 0.822258 0.353941 0.931477
O O8 0.348746 0.651826 0.678609
O O9 0.456194 0.611951 0.549687
O O10 0.500798 0.243966 0.250000
O O11 0.003517 0.282575 0.250000
#
# Coordination Sequence:
#
# PCOD8233442 Si02
#       6
#     8   8   8   4   4   8
#     4  10  20  37  66  98 124 157 187 259 320 366
#     4  10  22  38  68  93 116 163 210 250 320 343
#     4  12  22  40  63  94 141 149 207 238 322 403
#     4  12  30  44  61  85 122 190 196 256 316 350
#     4  12  26  52  59  79 132 166 224 266 292 352
#     4  10  20  38  63 106 117 164 188 258 323 365
#
# _framework density 21.219859
#
# number of rings (size 3 to 8) (size 9 to 14) (size 15 to 20)
#    1.200    0.000    2.000    4.800    0.000    1.600 
#    0.000    6.000    0.000    0.000    0.000    0.000 
#    0.000    0.000    0.000    0.000    0.000    0.000 
#
# Total GULP energy -495553.898017 kJ/mol
# GULP energy per Si atom -12388.847450 kJ/mol
# Density = 2.117156 g / cm^3
# Si number density = 21.219859 Si / 1000 Ang^3
#
#
#
# Elastic Constant Matrix: (Units=GPa)
#
#
# Indices 1 2 3 4 5 6 
#
# 1 125.3865 20.4598 22.7638 0.0000 0.0000 0.0000
# 2 20.4598 78.2578 46.7535 0.0000 0.0000 0.0000
# 3 22.7638 46.7535 85.8902 0.0000 0.0000 0.0000
# 4 0.0000 0.0000 0.0000 27.8347 0.0000 0.0000
# 5 0.0000 0.0000 0.0000 0.0000 24.0294 0.0000
# 6 0.0000 0.0000 0.0000 0.0000 0.0000 36.9297
#
#
#
# Elastic Compliance Matrix: (Units=1/GPa)
#
#
# Indices 1 2 3 4 5 6 
#
# 1 0.008466 -0.001294 -0.001540 0.000000 0.000000 0.000000
# 2 -0.001294 0.019134 -0.010073 0.000000 0.000000 0.000000
# 3 -0.001540 -0.010073 0.017534 0.000000 0.000000 0.000000
# 4 0.000000 0.000000 0.000000 0.035926 0.000000 0.000000
# 5 0.000000 0.000000 0.000000 0.000000 0.041616 0.000000
# 6 0.000000 0.000000 0.000000 0.000000 0.000000 0.027078
#
#
# Mechanical properties :
#
#
# Convention : Reuss Voigt Hill
#
# Bulk Modulus (GPa) = 51.75387 52.16541 51.95964
# Shear Modulus (GPa) = 27.47147 31.06257 29.26702
#
# Velocity S-wave (km/s) = 3.60197 3.83017 3.71782
# Velocity P-wave (km/s) = 6.46075 6.64808 6.55508
#
# Compressibility (1/GPa) = 0.01932223
#
# Stress axis : x y z
#
# Youngs Moduli (GPa) = 118.12049 52.26247 57.03267
#
# Poissons Ratio (x) = 0.06760 0.08781
# Poissons Ratio (y) = 0.15279 0.57447
# Poissons Ratio (z) = 0.18186 0.52642
#
# Static dielectric constant tensor:
#      x y z
#    x 4.159570 0.000000 0.000000 
#    y 0.000000 3.578980 0.000000 
#    z 0.000000 0.000000 3.637270 
# 
# 
# High freq. dielectric constant tensor:
#      x y z
#    x 1.864550 0.000000 0.000000 
#    y 0.000000 1.803630 0.000000 
#    z 0.000000 0.000000 1.808470 
# 
# From -- ./inp_files/20138.got.cif
#   From: 2010.03.12/outbox.cif.g09.slc.cpg/sg57_11_cif.got.tgz:20138.got - 2010.04.16 15:48:40.
