data_PCOD8233544
_publ_section_title
;
Structure prediction by ZEFSAII (Michael W. Deem and Ramdas Pophale) SiO2 
 PCOD8233544
Probable space group: P B C M
;
_chemical_formula_sum "Si O2"
_cell_formula_units_Z 40
_cell_length_a 10.007226
_cell_length_b 8.499724
_cell_length_c 20.946635
_cell_angle_alpha 90.000000
_cell_angle_beta 90.000000
_cell_angle_gamma 90.000000
_cell_volume 1781.692684
_symmetry_space_group_name_H-M "P B C M"
_symmetry_group_IT_number 57
_symmetry_cell_setting 'orthorhombic'
loop_
_space_group_symop_operation_xyz
x,y,z
-x,-y,1/2+z
x,1/2-y,-z
-x,1/2+y,1/2-z
-x,-y,-z
x,y,1/2-z
-x,1/2+y,z
x,1/2-y,1/2+z
loop_
_atom_site_type_symbol
_atom_site_label
_atom_site_fract_x
_atom_site_fract_y
_atom_site_fract_z
Si Si1 0.545708 0.662099 0.250000
Si Si2 0.604756 0.659764 0.386388
Si Si3 0.078889 0.710774 0.072339
Si Si4 0.359054 0.829546 0.431964
Si Si5 0.160426 0.383583 0.378802
Si Si6 0.298155 0.471067 0.250000
O O1 0.620355 0.594892 0.313645
O O2 0.384085 0.633162 0.250000
O O3 0.577996 0.848593 0.250000
O O4 0.460208 0.741773 0.384999
O O5 0.611092 0.515471 0.435632
O O6 0.712870 0.790279 0.407369
O O7 0.208792 0.809531 0.093051
O O8 0.115074 0.526147 0.075689
O O9 0.961971 0.758624 0.121894
O O10 0.034594 0.750000 0.000000
O O11 0.377589 0.750000 0.500000
O O12 0.198798 0.452544 0.309809
#
# Coordination Sequence:
#
# PCOD8233544 Si02
#       6
#     4   8   8   8   8   4
#     4  10  20  38  62  94 130 164 202 256 324 380
#     4  11  22  40  66  96 128 167 218 273 325 392
#     4  11  24  43  63  90 129 175 219 268 327 386
#     4  11  23  39  61  93 127 167 216 270 326 384
#     4  11  24  42  65  95 129 171 219 267 325 390
#     4  10  22  40  68 100 132 170 214 264 322 388
#
# _framework density 22.450559999999999
#
# number of rings (size 3 to 8) (size 9 to 14) (size 15 to 20)
#    0.000    1.200    0.000    7.200    0.000    4.800 
#    0.000    4.000    0.000    0.000    0.000    0.000 
#    0.000    0.000    0.000    0.000    0.000    0.000 
#
# Total GULP energy -495911.141372 kJ/mol
# GULP energy per Si atom -12397.778534 kJ/mol
# Density = 2.239946 g / cm^3
# Si number density = 22.450560 Si / 1000 Ang^3
#
#
#
# Elastic Constant Matrix: (Units=GPa)
#
#
# Indices 1 2 3 4 5 6 
#
# 1 142.5225 31.9041 44.5409 0.0000 0.0000 0.0000
# 2 31.9041 102.2449 54.5189 0.0000 0.0000 0.0000
# 3 44.5409 54.5189 100.4721 0.0000 0.0000 0.0000
# 4 0.0000 0.0000 0.0000 30.2057 0.0000 0.0000
# 5 0.0000 0.0000 0.0000 0.0000 29.5459 0.0000
# 6 0.0000 0.0000 0.0000 0.0000 0.0000 51.0672
#
#
#
# Elastic Compliance Matrix: (Units=1/GPa)
#
#
# Indices 1 2 3 4 5 6 
#
# 1 0.008200 -0.000873 -0.003161 0.000000 0.000000 0.000000
# 2 -0.000873 0.013855 -0.007131 0.000000 0.000000 0.000000
# 3 -0.003161 -0.007131 0.015224 0.000000 0.000000 0.000000
# 4 0.000000 0.000000 0.000000 0.033106 0.000000 0.000000
# 5 0.000000 0.000000 0.000000 0.000000 0.033846 0.000000
# 6 0.000000 0.000000 0.000000 0.000000 0.000000 0.019582
#
#
# Mechanical properties :
#
#
# Convention : Reuss Voigt Hill
#
# Bulk Modulus (GPa) = 66.89848 67.46305 67.18077
# Shear Modulus (GPa) = 33.08462 36.44878 34.76670
#
# Velocity S-wave (km/s) = 3.84300 4.03366 3.93948
# Velocity P-wave (km/s) = 7.03949 7.19782 7.11910
#
# Compressibility (1/GPa) = 0.01494802
#
# Stress axis : x y z
#
# Youngs Moduli (GPa) = 121.95337 72.17412 65.68488
#
# Poissons Ratio (x) = 0.06300 0.20766
# Poissons Ratio (y) = 0.10645 0.46842
# Poissons Ratio (z) = 0.38555 0.51470
#
# Static dielectric constant tensor:
#      x y z
#    x 4.248070 0.000000 0.000000 
#    y 0.000000 4.061000 0.000000 
#    z 0.000000 0.000000 3.907440 
# 
# 
# High freq. dielectric constant tensor:
#      x y z
#    x 1.887630 0.000000 0.000000 
#    y 0.000000 1.889100 0.000000 
#    z 0.000000 0.000000 1.873960 
# 
# From -- ./inp_files/26545.got.cif
#   From: 2010.03.12/outbox.cif.g09.slc.cpg/sg57_14_cif.got.tgz:26545.got - 2010.04.16 15:48:40.
