data_PCOD8233324
_publ_section_title
;
Structure prediction by ZEFSAII (Michael W. Deem and Ramdas Pophale) SiO2 
 PCOD8233324
Probable space group: P B C M
;
_chemical_formula_sum "Si O2"
_cell_formula_units_Z 64
_cell_length_a 18.233972
_cell_length_b 20.591701
_cell_length_c 8.765814
_cell_angle_alpha 90.000000
_cell_angle_beta 90.000000
_cell_angle_gamma 90.000000
_cell_volume 3291.287029
_symmetry_space_group_name_H-M "P B C M"
_symmetry_group_IT_number 57
_symmetry_cell_setting 'orthorhombic'
loop_
_space_group_symop_operation_xyz
x,y,z
-x,-y,1/2+z
x,1/2-y,-z
-x,1/2+y,1/2-z
-x,-y,-z
x,y,1/2-z
-x,1/2+y,z
x,1/2-y,1/2+z
loop_
_atom_site_type_symbol
_atom_site_label
_atom_site_fract_x
_atom_site_fract_y
_atom_site_fract_z
Si Si1 0.048053 0.183647 0.930483
Si Si2 0.040289 0.560761 0.929256
Si Si3 0.701417 0.556151 0.570102
Si Si4 0.698979 0.182890 0.928611
Si Si5 0.531398 0.318324 0.069264
Si Si6 0.454785 0.058537 0.069646
Si Si7 0.214070 0.316027 0.070693
Si Si8 0.790223 0.058265 0.570009
O O1 0.044004 0.188393 0.750000
O O2 0.131235 0.171802 0.987955
O O3 0.998107 0.125493 0.993618
O O4 0.016466 0.250000 0.000000
O O5 0.030093 0.556271 0.750000
O O6 0.125061 0.563381 0.975382
O O7 0.000000 0.500000 0.000000
O O8 0.684293 0.554453 0.750000
O O9 0.628989 0.545495 0.472240
O O10 0.735843 0.624435 0.518215
O O11 0.758327 0.500225 0.528188
O O12 0.703773 0.192072 0.750000
O O13 0.615462 0.167770 0.978960
O O14 0.750289 0.124232 0.983610
O O15 0.727581 0.250000 0.000000
O O16 0.521201 0.317036 0.250000
O O17 0.505088 0.250000 0.000000
O O18 0.480399 0.373577 0.999967
O O19 0.465191 0.059295 0.250000
O O20 0.500000 0.000000 0.000000
O O21 0.214797 0.308309 0.250000
O O22 0.246682 0.250000 0.000000
O O23 0.778514 0.045933 0.750000
#
# Coordination Sequence:
#
# PCOD8233324 Si02
#       8
#     8   8   8   8   8   8   8   8
#     4   9  18  34  54  79 110 145 184 229 277 329
#     4  10  21  36  55  79 111 147 187 234 284 336
#     4  11  23  39  59  84 113 147 187 233 282 338
#     4   9  19  35  56  81 111 144 181 224 273 328
#     4  10  20  37  60  86 116 152 192 236 285 340
#     4  12  25  41  61  86 116 151 191 238 288 343
#     4   9  19  35  56  80 109 144 184 228 277 331
#     4  10  21  37  56  81 112 148 187 232 284 337
#
# _framework density 19.445278999999999
#
# number of rings (size 3 to 8) (size 9 to 14) (size 15 to 20)
#    0.000    2.000    0.000    3.375    0.000    6.000 
#    0.000    3.750    0.000    0.000    0.000    0.000 
#    0.000    0.000    0.000    0.000    0.000    0.000 
#
# Total GULP energy -793847.657966 kJ/mol
# GULP energy per Si atom -12403.869656 kJ/mol
# Density = 1.940102 g / cm^3
# Si number density = 19.445279 Si / 1000 Ang^3
#
#
#
# Elastic Constant Matrix: (Units=GPa)
#
#
# Indices 1 2 3 4 5 6 
#
# 1 97.0029 60.5305 30.0586 0.0000 0.0000 0.0000
# 2 60.5305 152.6009 41.8115 0.0000 0.0000 0.0000
# 3 30.0586 41.8115 56.5903 0.0000 0.0000 0.0000
# 4 0.0000 0.0000 0.0000 38.8692 0.0000 0.0000
# 5 0.0000 0.0000 0.0000 0.0000 21.7022 0.0000
# 6 0.0000 0.0000 0.0000 0.0000 0.0000 41.7060
#
#
#
# Elastic Compliance Matrix: (Units=1/GPa)
#
#
# Indices 1 2 3 4 5 6 
#
# 1 0.014499 -0.004565 -0.004328 0.000000 0.000000 0.000000
# 2 -0.004565 0.009654 -0.004708 0.000000 0.000000 0.000000
# 3 -0.004328 -0.004708 0.023448 0.000000 0.000000 0.000000
# 4 0.000000 0.000000 0.000000 0.025727 0.000000 0.000000
# 5 0.000000 0.000000 0.000000 0.000000 0.046078 0.000000
# 6 0.000000 0.000000 0.000000 0.000000 0.000000 0.023977
#
#
# Mechanical properties :
#
#
# Convention : Reuss Voigt Hill
#
# Bulk Modulus (GPa) = 49.02358 63.44393 56.23376
# Shear Modulus (GPa) = 28.18712 32.04169 30.11441
#
# Velocity S-wave (km/s) = 3.81144 4.06370 3.93959
# Velocity P-wave (km/s) = 6.68096 7.39702 7.04809
#
# Compressibility (1/GPa) = 0.02039835
#
# Stress axis : x y z
#
# Youngs Moduli (GPa) = 68.97065 103.58642 42.64716
#
# Poissons Ratio (x) = 0.47289 0.18459
# Poissons Ratio (y) = 0.31487 0.20077
# Poissons Ratio (z) = 0.29852 0.48766
#
# Static dielectric constant tensor:
#      x y z
#    x 4.026440 0.000000 0.000000 
#    y 0.000000 3.769210 0.000000 
#    z 0.000000 0.000000 3.456970 
# 
# 
# High freq. dielectric constant tensor:
#      x y z
#    x 1.758720 0.000000 0.000000 
#    y 0.000000 1.773520 0.000000 
#    z 0.000000 0.000000 1.752330 
# 
# From -- ./inp_files/7249.got.cif
#   From: 2010.03.12/outbox.cif.g09.slc.cpg/sg57_4_cif.got.tgz:7249.got - 2010.04.16 15:48:40.
