data_PCOD8233217
_publ_section_title
;
Structure prediction by ZEFSAII (Michael W. Deem and Ramdas Pophale) SiO2 
 PCOD8233217
Probable space group: P B C M
;
_chemical_formula_sum "Si O2"
_cell_formula_units_Z 64
_cell_length_a 11.748853
_cell_length_b 29.957484
_cell_length_c 8.662998
_cell_angle_alpha 90.000000
_cell_angle_beta 90.000000
_cell_angle_gamma 90.000000
_cell_volume 3049.081410
_symmetry_space_group_name_H-M "P B C M"
_symmetry_group_IT_number 57
_symmetry_cell_setting 'orthorhombic'
loop_
_space_group_symop_operation_xyz
x,y,z
-x,-y,1/2+z
x,1/2-y,-z
-x,1/2+y,1/2-z
-x,-y,-z
x,y,1/2-z
-x,1/2+y,z
x,1/2-y,1/2+z
loop_
_atom_site_type_symbol
_atom_site_label
_atom_site_fract_x
_atom_site_fract_y
_atom_site_fract_z
Si Si1 0.050346 0.060606 0.929944
Si Si2 0.576034 0.460217 0.068008
Si Si3 0.104291 0.352065 0.570741
Si Si4 0.496892 0.868563 0.926609
Si Si5 0.682358 0.293125 0.572845
Si Si6 0.172808 0.970297 0.931370
Si Si7 0.679178 0.701729 0.431053
Si Si8 0.077210 0.795530 0.069525
O O1 0.024972 0.059723 0.750000
O O2 0.127026 0.018812 0.981069
O O3 0.127845 0.102513 0.978132
O O4 0.927104 0.063343 0.014298
O O5 0.576763 0.465537 0.250000
O O6 0.500000 0.500000 0.000000
O O7 0.517178 0.413277 0.025190
O O8 0.706000 0.461023 0.009596
O O9 0.110266 0.363328 0.750000
O O10 0.194114 0.313730 0.525068
O O11 0.980340 0.336009 0.520589
O O12 0.522363 0.882478 0.750000
O O13 0.384057 0.839043 0.937236
O O14 0.597017 0.837367 0.995372
O O15 0.615153 0.250000 0.500000
O O16 0.717093 0.282835 0.750000
O O17 0.790064 0.299112 0.462964
O O18 0.191392 0.965190 0.750000
O O19 0.652432 0.750000 0.500000
O O20 0.657558 0.705999 0.250000
O O21 0.050373 0.798580 0.250000
O O22 0.026067 0.750000 0.000000
#
# Coordination Sequence:
#
# PCOD8233217 Si02
#       8
#     8   8   8   8   8   8   8   8
#     4  10  22  40  65  97 128 165 211 260 316 380
#     4  12  27  45  68  96 130 170 215 267 324 383
#     4  11  23  38  60  90 125 165 210 258 317 376
#     4  10  23  43  65  93 126 164 211 262 319 381
#     4  10  20  36  61  90 125 163 204 255 312 375
#     4  10  22  43  68  95 130 167 209 260 321 383
#     4  10  23  42  65  93 126 168 213 265 321 380
#     4  11  22  37  57  83 120 159 202 251 307 370
#
# _framework density 20.989927999999999
#
# number of rings (size 3 to 8) (size 9 to 14) (size 15 to 20)
#    0.000    1.500    0.000    5.250    3.500    5.000 
#    0.000    0.000    0.000    0.000    0.000    0.000 
#    0.000    0.000    0.000    0.000    0.000    0.000 
#
# Total GULP energy -793579.346828 kJ/mol
# GULP energy per Si atom -12399.677294 kJ/mol
# Density = 2.094215 g / cm^3
# Si number density = 20.989928 Si / 1000 Ang^3
#
#
#
# Elastic Constant Matrix: (Units=GPa)
#
#
# Indices 1 2 3 4 5 6 
#
# 1 85.4257 45.9066 37.4760 0.0000 0.0000 0.0000
# 2 45.9066 132.1214 47.1567 0.0000 0.0000 0.0000
# 3 37.4760 47.1567 88.0645 0.0000 0.0000 0.0000
# 4 0.0000 0.0000 0.0000 40.5840 0.0000 0.0000
# 5 0.0000 0.0000 0.0000 0.0000 26.3655 0.0000
# 6 0.0000 0.0000 0.0000 0.0000 0.0000 21.6915
#
#
#
# Elastic Compliance Matrix: (Units=1/GPa)
#
#
# Indices 1 2 3 4 5 6 
#
# 1 0.015815 -0.003824 -0.004683 0.000000 0.000000 0.000000
# 2 -0.003824 0.010282 -0.003878 0.000000 0.000000 0.000000
# 3 -0.004683 -0.003878 0.015425 0.000000 0.000000 0.000000
# 4 0.000000 0.000000 0.000000 0.024640 0.000000 0.000000
# 5 0.000000 0.000000 0.000000 0.000000 0.037928 0.000000
# 6 0.000000 0.000000 0.000000 0.000000 0.000000 0.046101
#
#
# Mechanical properties :
#
#
# Convention : Reuss Voigt Hill
#
# Bulk Modulus (GPa) = 59.69419 62.96558 61.32988
# Shear Modulus (GPa) = 27.69395 29.39970 28.54682
#
# Velocity S-wave (km/s) = 3.63628 3.74660 3.69185
# Velocity P-wave (km/s) = 6.79200 6.98420 6.88877
#
# Compressibility (1/GPa) = 0.01675205
#
# Stress axis : x y z
#
# Youngs Moduli (GPa) = 63.23039 97.26040 64.83058
#
# Poissons Ratio (x) = 0.37190 0.30358
# Poissons Ratio (y) = 0.24178 0.25144
# Poissons Ratio (z) = 0.29608 0.37721
#
# Static dielectric constant tensor:
#      x y z
#    x 3.805000 0.000000 0.000000 
#    y 0.000000 4.683300 0.000000 
#    z 0.000000 0.000000 3.776520 
# 
# 
# High freq. dielectric constant tensor:
#      x y z
#    x 1.822570 0.000000 0.000000 
#    y 0.000000 1.834090 0.000000 
#    z 0.000000 0.000000 1.824450 
# 
# From -- ./inp_files/3872.got.cif
#   From: 2010.03.12/outbox.cif.g09.slc.cpg/sg57_2_cif.got.tgz:3872.got - 2010.04.16 15:48:40.
