data_PCOD8233995
_publ_section_title
;
Structure prediction by ZEFSAII (Michael W. Deem and Ramdas Pophale) SiO2 
 PCOD8233995
Probable space group: P B C M
;
_chemical_formula_sum "Si O2"
_cell_formula_units_Z 40
_cell_length_a 11.007010
_cell_length_b 9.848591
_cell_length_c 18.210034
_cell_angle_alpha 90.000000
_cell_angle_beta 90.000000
_cell_angle_gamma 90.000000
_cell_volume 1974.032142
_symmetry_space_group_name_H-M "P B C M"
_symmetry_group_IT_number 57
_symmetry_cell_setting 'orthorhombic'
loop_
_space_group_symop_operation_xyz
x,y,z
-x,-y,1/2+z
x,1/2-y,-z
-x,1/2+y,1/2-z
-x,-y,-z
x,y,1/2-z
-x,1/2+y,z
x,1/2-y,1/2+z
loop_
_atom_site_type_symbol
_atom_site_label
_atom_site_fract_x
_atom_site_fract_y
_atom_site_fract_z
Si Si1 0.521452 0.131778 0.549800
Si Si2 0.746901 0.706965 0.919086
Si Si3 0.882466 0.926818 0.833053
Si Si4 0.154230 0.551041 0.336785
Si Si5 0.719535 0.171095 0.833378
O O1 0.578711 0.250000 0.500000
O O2 0.396943 0.185022 0.584961
O O3 0.615796 0.106567 0.615288
O O4 0.500000 0.000000 0.500000
O O5 0.782100 0.834226 0.870431
O O6 0.810177 0.572288 0.889094
O O7 0.790725 0.750000 0.000000
O O8 0.882754 0.878629 0.750000
O O9 0.018936 0.908276 0.863079
O O10 0.842084 0.083243 0.842225
O O11 0.156274 0.511123 0.250000
O O12 0.246418 0.674203 0.353171
O O13 0.670726 0.162554 0.750000
#
# Coordination Sequence:
#
# PCOD8233995 Si02
#       5
#     8   8   8   8   8
#     4  11  23  41  60  81 118 159 192 237 297 349
#     4  11  23  38  58  86 116 154 199 239 288 349
#     4  10  21  39  61  86 118 152 189 239 298 354
#     4  10  21  39  62  87 118 154 191 240 300 353
#     4  10  21  37  61  90 115 149 200 247 289 351
#
# _framework density 20.263093999999999
#
# number of rings (size 3 to 8) (size 9 to 14) (size 15 to 20)
#    0.000    1.600    0.000    5.400    0.000    5.600 
#    0.000    9.000    0.000    0.000    0.000    0.000 
#    0.000    0.000    0.000    0.000    0.000    0.000 
#
# Total GULP energy -495971.730496 kJ/mol
# GULP energy per Si atom -12399.293262 kJ/mol
# Density = 2.021697 g / cm^3
# Si number density = 20.263094 Si / 1000 Ang^3
#
#
#
# Elastic Constant Matrix: (Units=GPa)
#
#
# Indices 1 2 3 4 5 6 
#
# 1 106.0929 30.3258 65.6740 0.0000 0.0000 0.0000
# 2 30.3258 115.7618 57.2312 0.0000 0.0000 0.0000
# 3 65.6740 57.2312 96.5235 0.0000 0.0000 0.0000
# 4 0.0000 0.0000 0.0000 45.6268 0.0000 0.0000
# 5 0.0000 0.0000 0.0000 0.0000 31.4326 0.0000
# 6 0.0000 0.0000 0.0000 0.0000 0.0000 33.5070
#
#
#
# Elastic Compliance Matrix: (Units=1/GPa)
#
#
# Indices 1 2 3 4 5 6 
#
# 1 0.016528 0.001740 -0.012277 0.000000 0.000000 0.000000
# 2 0.001740 0.012404 -0.008538 0.000000 0.000000 0.000000
# 3 -0.012277 -0.008538 0.023776 0.000000 0.000000 0.000000
# 4 0.000000 0.000000 0.000000 0.021917 0.000000 0.000000
# 5 0.000000 0.000000 0.000000 0.000000 0.031814 0.000000
# 6 0.000000 0.000000 0.000000 0.000000 0.000000 0.029845
#
#
# Mechanical properties :
#
#
# Convention : Reuss Voigt Hill
#
# Bulk Modulus (GPa) = 68.69684 69.42668 69.06176
# Shear Modulus (GPa) = 27.88804 33.12308 30.50556
#
# Velocity S-wave (km/s) = 3.71387 4.04747 3.88425
# Velocity P-wave (km/s) = 7.23647 7.49531 7.36703
#
# Compressibility (1/GPa) = 0.01455671
#
# Stress axis : x y z
#
# Youngs Moduli (GPa) = 60.50198 80.61978 42.05868
#
# Poissons Ratio (x) = -0.14027 0.51637
# Poissons Ratio (y) = -0.10527 0.35911
# Poissons Ratio (z) = 0.74281 0.68836
#
# Static dielectric constant tensor:
#      x y z
#    x 3.625790 0.000000 0.000000 
#    y 0.000000 3.780820 0.000000 
#    z 0.000000 0.000000 2.625540 
# 
# 
# High freq. dielectric constant tensor:
#      x y z
#    x 1.791410 0.000000 0.000000 
#    y 0.000000 1.806050 0.000000 
#    z 0.000000 0.000000 1.789470 
# 
# From -- ./inp_files/21576.got.cif
#   From: 2010.03.12/outbox.cif.g09.slc.cpg/sg57_11_cif.got.tgz:21576.got - 2010.04.16 15:48:40.
