data_PCOD8233744
_publ_section_title
;
Structure prediction by ZEFSAII (Michael W. Deem and Ramdas Pophale) SiO2 
 PCOD8233744
Probable space group: P B C M
;
_chemical_formula_sum "Si O2"
_cell_formula_units_Z 64
_cell_length_a 12.068593
_cell_length_b 11.352878
_cell_length_c 25.185032
_cell_angle_alpha 90.000000
_cell_angle_beta 90.000000
_cell_angle_gamma 90.000000
_cell_volume 3450.683437
_symmetry_space_group_name_H-M "P B C M"
_symmetry_group_IT_number 57
_symmetry_cell_setting 'orthorhombic'
loop_
_space_group_symop_operation_xyz
x,y,z
-x,-y,1/2+z
x,1/2-y,-z
-x,1/2+y,1/2-z
-x,-y,-z
x,y,1/2-z
-x,1/2+y,z
x,1/2-y,1/2+z
loop_
_atom_site_type_symbol
_atom_site_label
_atom_site_fract_x
_atom_site_fract_y
_atom_site_fract_z
Si Si1 0.293050 0.407332 0.145188
Si Si2 0.902834 0.461997 0.688097
Si Si3 0.362676 0.370650 0.472681
Si Si4 0.850235 0.509739 0.187096
Si Si5 0.427005 0.868789 0.634243
Si Si6 0.757185 0.236931 0.811539
Si Si7 0.395048 0.875278 0.989492
Si Si8 0.346258 0.330063 0.810349
O O1 0.165017 0.442451 0.153852
O O2 0.312977 0.362075 0.085812
O O3 0.370274 0.517086 0.159858
O O4 0.325067 0.308418 0.187334
O O5 0.899038 0.498276 0.750000
O O6 0.851250 0.333911 0.678983
O O7 0.027516 0.461094 0.665010
O O8 0.317739 0.250000 0.500000
O O9 0.496929 0.370662 0.472370
O O10 0.328303 0.499991 0.499021
O O11 0.856161 0.513337 0.250000
O O12 0.810503 0.382830 0.166961
O O13 0.762439 0.605442 0.166351
O O14 0.354307 0.758021 0.654293
O O15 0.432723 0.876883 0.571308
O O16 0.551739 0.864847 0.653323
O O17 0.722016 0.229068 0.750000
O O18 0.328900 0.750000 0.000000
O O19 0.370800 0.368225 0.750000
#
# Coordination Sequence:
#
# PCOD8233744 Si02
#       8
#     8   8   8   8   8   8   8   8
#     4  10  21  35  53  77 105 141 178 218 268 326
#     4   9  18  34  56  75 100 139 183 224 262 307
#     4   9  17  32  50  75 105 130 169 219 271 317
#     4   9  20  34  50  75 104 139 183 226 256 293
#     4  10  21  35  51  77 111 144 175 213 268 326
#     4   9  18  34  52  73 106 144 175 213 265 312
#     4   9  17  32  53  74 102 138 175 218 261 321
#     4  11  22  32  48  76 111 144 179 214 257 316
#
# _framework density 18.547051
#
# number of rings (size 3 to 8) (size 9 to 14) (size 15 to 20)
#    0.000    2.500    0.000    2.250    3.500    1.500 
#    2.250    0.000    0.000    0.000    0.000    4.375 
#    0.000    0.000    0.000    0.000    0.000    0.000 
#
# Total GULP energy -793184.914927 kJ/mol
# GULP energy per Si atom -12393.514296 kJ/mol
# Density = 1.850484 g / cm^3
# Si number density = 18.547051 Si / 1000 Ang^3
#
#
#
# Elastic Constant Matrix: (Units=GPa)
#
#
# Indices 1 2 3 4 5 6 
#
# 1 124.8601 39.3214 33.0246 0.0000 0.0000 0.0000
# 2 39.3214 128.5640 25.1715 0.0000 0.0000 0.0000
# 3 33.0246 25.1715 49.5548 0.0000 0.0000 0.0000
# 4 0.0000 0.0000 0.0000 22.8388 0.0000 0.0000
# 5 0.0000 0.0000 0.0000 0.0000 12.3404 0.0000
# 6 0.0000 0.0000 0.0000 0.0000 0.0000 18.6811
#
#
#
# Elastic Compliance Matrix: (Units=1/GPa)
#
#
# Indices 1 2 3 4 5 6 
#
# 1 0.010156 -0.001978 -0.005764 0.000000 0.000000 0.000000
# 2 -0.001978 0.009022 -0.003265 0.000000 0.000000 0.000000
# 3 -0.005764 -0.003265 0.025679 0.000000 0.000000 0.000000
# 4 0.000000 0.000000 0.000000 0.043785 0.000000 0.000000
# 5 0.000000 0.000000 0.000000 0.000000 0.081035 0.000000
# 6 0.000000 0.000000 0.000000 0.000000 0.000000 0.053530
#
#
# Mechanical properties :
#
#
# Convention : Reuss Voigt Hill
#
# Bulk Modulus (GPa) = 43.77336 55.33488 49.55412
# Shear Modulus (GPa) = 19.77568 24.46949 22.12259
#
# Velocity S-wave (km/s) = 3.26888 3.63618 3.45741
# Velocity P-wave (km/s) = 6.15629 6.89411 6.53562
#
# Compressibility (1/GPa) = 0.02284494
#
# Stress axis : x y z
#
# Youngs Moduli (GPa) = 98.46099 110.83560 38.94201
#
# Poissons Ratio (x) = 0.21921 0.22445
# Poissons Ratio (y) = 0.19474 0.12714
# Poissons Ratio (z) = 0.56751 0.36186
#
# Static dielectric constant tensor:
#      x y z
#    x 3.319560 0.000000 0.000000 
#    y 0.000000 3.940830 0.000000 
#    z 0.000000 0.000000 3.148480 
# 
# 
# High freq. dielectric constant tensor:
#      x y z
#    x 1.689700 0.000000 0.000000 
#    y 0.000000 1.743090 0.000000 
#    z 0.000000 0.000000 1.692300 
# 
# From -- ./inp_files/27283.got.cif
#   From: 2010.03.12/outbox.cif.g09.slc.cpg/sg57_14_cif.got.tgz:27283.got - 2010.04.16 15:48:40.
