data_PCOD8233825
_publ_section_title
;
Structure prediction by ZEFSAII (Michael W. Deem and Ramdas Pophale) SiO2 
 PCOD8233825
Probable space group: P B C M
;
_chemical_formula_sum "Si O2"
_cell_formula_units_Z 48
_cell_length_a 7.519654
_cell_length_b 9.601036
_cell_length_c 32.022484
_cell_angle_alpha 90.000000
_cell_angle_beta 90.000000
_cell_angle_gamma 90.000000
_cell_volume 2311.910266
_symmetry_space_group_name_H-M "P B C M"
_symmetry_group_IT_number 57
_symmetry_cell_setting 'orthorhombic'
loop_
_space_group_symop_operation_xyz
x,y,z
-x,-y,1/2+z
x,1/2-y,-z
-x,1/2+y,1/2-z
-x,-y,-z
x,y,1/2-z
-x,1/2+y,z
x,1/2-y,1/2+z
loop_
_atom_site_type_symbol
_atom_site_label
_atom_site_fract_x
_atom_site_fract_y
_atom_site_fract_z
Si Si1 0.706057 0.540171 0.835125
Si Si2 0.391961 0.734194 0.836028
Si Si3 0.108576 0.999912 0.750000
Si Si4 0.445423 0.126093 0.971161
Si Si5 0.121638 0.009469 0.580795
Si Si6 0.795137 0.197172 0.919854
Si Si7 0.785701 0.189187 0.750000
O O1 0.584003 0.671550 0.846244
O O2 0.586056 0.400778 0.836345
O O3 0.792558 0.560863 0.790159
O O4 0.861262 0.530153 0.869403
O O5 0.247949 0.687743 0.870597
O O6 0.335163 0.678888 0.790829
O O7 0.908736 0.054087 0.750000
O O8 0.101197 0.832255 0.750000
O O9 0.288626 0.084176 0.940280
O O10 0.615150 0.177915 0.945361
O O11 0.373509 0.250000 0.000000
O O12 0.500000 0.000000 0.000000
O O13 0.935612 0.078266 0.566893
O O14 0.119027 0.846736 0.568773
#
# Coordination Sequence:
#
# PCOD8233825 Si02
#       7
#     8   8   4   8   8   8   4
#     4  10  21  38  61  90 125 166 209 257 308 368
#     4  10  21  38  61  90 126 165 211 255 309 369
#     4  10  21  36  56  88 126 162 211 255 303 363
#     4  12  26  46  68  94 129 165 210 264 326 389
#     4  11  25  43  67  97 130 169 212 262 319 380
#     4  11  25  43  67  98 129 169 214 260 320 381
#     4  10  21  36  56  88 126 164 209 257 301 365
#
# _framework density 20.762051
#
# number of rings (size 3 to 8) (size 9 to 14) (size 15 to 20)
#    0.000    1.333    3.333    1.500    2.333    4.000 
#    0.000    0.000    0.000    0.000    0.000    0.000 
#    0.000    0.000    0.000    0.000    0.000    0.000 
#
# Total GULP energy -595423.204981 kJ/mol
# GULP energy per Si atom -12404.650104 kJ/mol
# Density = 2.071480 g / cm^3
# Si number density = 20.762051 Si / 1000 Ang^3
#
#
#
# Elastic Constant Matrix: (Units=GPa)
#
#
# Indices 1 2 3 4 5 6 
#
# 1 55.9428 9.0008 14.3472 0.0000 0.0000 0.0000
# 2 9.0008 65.1195 23.4492 0.0000 0.0000 0.0000
# 3 14.3472 23.4492 94.5405 0.0000 0.0000 0.0000
# 4 0.0000 0.0000 0.0000 32.5422 0.0000 0.0000
# 5 0.0000 0.0000 0.0000 0.0000 14.9478 0.0000
# 6 0.0000 0.0000 0.0000 0.0000 0.0000 45.0444
#
#
#
# Elastic Compliance Matrix: (Units=1/GPa)
#
#
# Indices 1 2 3 4 5 6 
#
# 1 0.018774 -0.001723 -0.002422 0.000000 0.000000 0.000000
# 2 -0.001723 0.017021 -0.003960 0.000000 0.000000 0.000000
# 3 -0.002422 -0.003960 0.011927 0.000000 0.000000 0.000000
# 4 0.000000 0.000000 0.000000 0.030729 0.000000 0.000000
# 5 0.000000 0.000000 0.000000 0.000000 0.066900 0.000000
# 6 0.000000 0.000000 0.000000 0.000000 0.000000 0.022200
#
#
# Mechanical properties :
#
#
# Convention : Reuss Voigt Hill
#
# Bulk Modulus (GPa) = 31.73400 34.35524 33.04462
# Shear Modulus (GPa) = 25.73815 29.76059 27.74937
#
# Velocity S-wave (km/s) = 3.52472 3.79015 3.65984
# Velocity P-wave (km/s) = 5.64647 5.97802 5.81461
#
# Compressibility (1/GPa) = 0.03151194
#
# Stress axis : x y z
#
# Youngs Moduli (GPa) = 53.26610 58.75245 83.84158
#
# Poissons Ratio (x) = 0.10122 0.20304
# Poissons Ratio (y) = 0.09177 0.33203
# Poissons Ratio (z) = 0.12899 0.23267
#
# Static dielectric constant tensor:
#      x y z
#    x 3.473750 0.000000 0.000000 
#    y 0.000000 3.842060 0.000000 
#    z 0.000000 0.000000 4.015170 
# 
# 
# High freq. dielectric constant tensor:
#      x y z
#    x 1.798600 0.000000 0.000000 
#    y 0.000000 1.819160 0.000000 
#    z 0.000000 0.000000 1.830300 
# 
# From -- ./inp_files/29524.got.cif
#   From: 2010.03.12/outbox.cif.g09.slc.cpg/sg57_15_cif.got.tgz:29524.got - 2010.04.16 15:48:40.
