data_PCOD8233947
_publ_section_title
;
Structure prediction by ZEFSAII (Michael W. Deem and Ramdas Pophale) SiO2 
 PCOD8233947
Probable space group: P B C M
;
_chemical_formula_sum "Si O2"
_cell_formula_units_Z 44
_cell_length_a 8.117107
_cell_length_b 19.482029
_cell_length_c 14.276483
_cell_angle_alpha 90.000000
_cell_angle_beta 90.000000
_cell_angle_gamma 90.000000
_cell_volume 2257.650385
_symmetry_space_group_name_H-M "P B C M"
_symmetry_group_IT_number 57
_symmetry_cell_setting 'orthorhombic'
loop_
_space_group_symop_operation_xyz
x,y,z
-x,-y,1/2+z
x,1/2-y,-z
-x,1/2+y,1/2-z
-x,-y,-z
x,y,1/2-z
-x,1/2+y,z
x,1/2-y,1/2+z
loop_
_atom_site_type_symbol
_atom_site_label
_atom_site_fract_x
_atom_site_fract_y
_atom_site_fract_z
Si Si1 0.343152 0.246703 0.250000
Si Si2 0.831041 0.382046 0.390600
Si Si3 0.688936 0.483552 0.250000
Si Si4 0.113995 0.379709 0.750000
Si Si5 0.313879 0.510333 0.250000
Si Si6 0.625335 0.251876 0.606846
Si Si7 0.881790 0.875186 0.250000
Si Si8 0.830673 0.114613 0.110639
O O1 0.268679 0.170721 0.250000
O O2 0.454819 0.258432 0.340392
O O3 0.194558 0.300001 0.250000
O O4 0.712162 0.438539 0.343945
O O5 0.755004 0.307664 0.369943
O O6 0.851385 0.397246 0.500272
O O7 0.009620 0.384937 0.343092
O O8 0.825098 0.542451 0.250000
O O9 0.509547 0.516353 0.250000
O O10 0.007024 0.367738 0.843897
O O11 0.263088 0.430948 0.250000
O O12 0.243017 0.546203 0.343075
O O13 0.573536 0.250000 0.500000
O O14 0.707535 0.323555 0.634908
#
# Coordination Sequence:
#
# PCOD8233947 Si02
#       8
#     4   8   4   4   4   8   4   8
#     4  12  22  38  60  82 118 150 178 236 284 316
#     4  10  21  39  60  82 113 149 186 231 277 327
#     4  11  23  38  56  85 115 144 189 231 278 340
#     4  11  23  36  58  85 110 148 190 227 274 336
#     4  11  23  38  56  85 115 144 189 231 278 340
#     4  10  21  37  59  85 111 146 188 226 276 334
#     4  11  23  36  58  85 110 148 190 227 274 336
#     4  10  21  39  60  82 113 149 186 231 277 327
#
# _framework density 19.489288999999999
#
# number of rings (size 3 to 8) (size 9 to 14) (size 15 to 20)
#    0.000    1.455    0.000    7.636    0.000    5.091 
#    0.000    0.000    0.000    0.000    0.000    0.000 
#    0.000    0.000    0.000    0.000    0.000    0.000 
#
# Total GULP energy -545824.393256 kJ/mol
# GULP energy per Si atom -12405.099847 kJ/mol
# Density = 1.944493 g / cm^3
# Si number density = 19.489289 Si / 1000 Ang^3
#
#
#
# Elastic Constant Matrix: (Units=GPa)
#
#
# Indices 1 2 3 4 5 6 
#
# 1 96.3380 14.8923 49.9335 0.0000 0.0000 0.0000
# 2 14.8923 86.6569 38.7021 0.0000 0.0000 0.0000
# 3 49.9335 38.7021 148.1745 0.0000 0.0000 0.0000
# 4 0.0000 0.0000 0.0000 15.5522 0.0000 0.0000
# 5 0.0000 0.0000 0.0000 0.0000 30.7017 0.0000
# 6 0.0000 0.0000 0.0000 0.0000 0.0000 41.1637
#
#
#
# Elastic Compliance Matrix: (Units=1/GPa)
#
#
# Indices 1 2 3 4 5 6 
#
# 1 0.012584 -0.000304 -0.004161 0.000000 0.000000 0.000000
# 2 -0.000304 0.013071 -0.003312 0.000000 0.000000 0.000000
# 3 -0.004161 -0.003312 0.009016 0.000000 0.000000 0.000000
# 4 0.000000 0.000000 0.000000 0.064300 0.000000 0.000000
# 5 0.000000 0.000000 0.000000 0.000000 0.032572 0.000000
# 6 0.000000 0.000000 0.000000 0.000000 0.000000 0.024293
#
#
# Mechanical properties :
#
#
# Convention : Reuss Voigt Hill
#
# Bulk Modulus (GPa) = 52.30906 59.80281 56.05594
# Shear Modulus (GPa) = 28.12752 32.65960 30.39356
#
# Velocity S-wave (km/s) = 3.80311 4.09806 3.95334
# Velocity P-wave (km/s) = 6.79581 7.28997 7.04722
#
# Compressibility (1/GPa) = 0.01911715
#
# Stress axis : x y z
#
# Youngs Moduli (GPa) = 79.46619 76.50518 110.91318
#
# Poissons Ratio (x) = 0.02327 0.46154
# Poissons Ratio (y) = 0.02417 0.36730
# Poissons Ratio (z) = 0.33068 0.25335
#
# Static dielectric constant tensor:
#      x y z
#    x 3.439750 0.000000 0.000000 
#    y 0.000000 3.656370 0.000000 
#    z 0.000000 0.000000 3.611150 
# 
# 
# High freq. dielectric constant tensor:
#      x y z
#    x 1.761660 0.000000 0.000000 
#    y 0.000000 1.773640 0.000000 
#    z 0.000000 0.000000 1.765020 
# 
# From -- ./inp_files/16276.got.cif
#   From: 2010.03.12/outbox.cif.g09.slc.cpg/sg57_9_cif.got.tgz:16276.got - 2010.04.16 15:48:40.
