data_PCOD8233901
_publ_section_title
;
Structure prediction by ZEFSAII (Michael W. Deem and Ramdas Pophale) SiO2 
 PCOD8233901
Probable space group: P B C M
;
_chemical_formula_sum "Si O2"
_cell_formula_units_Z 48
_cell_length_a 9.286631
_cell_length_b 19.388940
_cell_length_c 14.580744
_cell_angle_alpha 90.000000
_cell_angle_beta 90.000000
_cell_angle_gamma 90.000000
_cell_volume 2625.378601
_symmetry_space_group_name_H-M "P B C M"
_symmetry_group_IT_number 57
_symmetry_cell_setting 'orthorhombic'
loop_
_space_group_symop_operation_xyz
x,y,z
-x,-y,1/2+z
x,1/2-y,-z
-x,1/2+y,1/2-z
-x,-y,-z
x,y,1/2-z
-x,1/2+y,z
x,1/2-y,1/2+z
loop_
_atom_site_type_symbol
_atom_site_label
_atom_site_fract_x
_atom_site_fract_y
_atom_site_fract_z
Si Si1 0.854828 0.683206 0.950957
Si Si2 0.359335 0.087388 0.441037
Si Si3 0.181716 0.696787 0.569760
Si Si4 0.379712 0.932584 0.068346
Si Si5 0.758874 0.697604 0.750000
Si Si6 0.577351 0.663698 0.250000
Si Si7 0.502123 0.390498 0.250000
Si Si8 0.696338 0.255558 0.250000
O O1 0.851723 0.691112 0.841501
O O2 0.024402 0.678215 0.970040
O O3 0.787449 0.750000 0.000000
O O4 0.762698 0.621597 0.994876
O O5 0.517113 0.090681 0.485854
O O6 0.377468 0.120084 0.340009
O O7 0.309082 0.007761 0.440981
O O8 0.258455 0.750000 0.500000
O O9 0.255688 0.623191 0.576166
O O10 0.194512 0.739251 0.664558
O O11 0.470790 0.936656 0.161443
O O12 0.671902 0.768124 0.750000
O O13 0.662931 0.629570 0.750000
O O14 0.407155 0.686846 0.250000
O O15 0.593039 0.320879 0.250000
#
# Coordination Sequence:
#
# PCOD8233901 Si02
#       8
#     8   8   8   8   4   4   4   4
#     4  11  22  36  57  84 114 148 193 237 291 343
#     4  11  22  36  57  85 115 153 189 243 289 343
#     4  10  21  37  58  83 113 151 190 237 285 351
#     4  10  21  37  57  84 117 149 195 235 291 347
#     4  11  19  34  57  83 109 142 185 242 279 334
#     4  11  21  34  59  86 115 149 191 242 289 341
#     4   9  17  32  56  80 105 142 184 233 281 337
#     4   9  19  34  56  83 107 145 186 235 287 328
#
# _framework density 18.283078
#
# number of rings (size 3 to 8) (size 9 to 14) (size 15 to 20)
#    0.000    1.667    3.333    2.000    0.000    1.333 
#    0.000    0.000    0.000    0.000    0.000    0.000 
#    0.000    0.000    0.000    0.000    0.000    0.000 
#
# Total GULP energy -594795.963078 kJ/mol
# GULP energy per Si atom -12391.582564 kJ/mol
# Density = 1.824146 g / cm^3
# Si number density = 18.283078 Si / 1000 Ang^3
#
#
#
# Elastic Constant Matrix: (Units=GPa)
#
#
# Indices 1 2 3 4 5 6 
#
# 1 55.4924 40.9768 20.8227 0.0000 0.0000 0.0000
# 2 40.9768 100.5507 49.5043 0.0000 0.0000 0.0000
# 3 20.8227 49.5043 140.2101 0.0000 0.0000 0.0000
# 4 0.0000 0.0000 0.0000 6.8024 0.0000 0.0000
# 5 0.0000 0.0000 0.0000 0.0000 28.4044 0.0000
# 6 0.0000 0.0000 0.0000 0.0000 0.0000 20.4749
#
#
#
# Elastic Compliance Matrix: (Units=1/GPa)
#
#
# Indices 1 2 3 4 5 6 
#
# 1 0.025780 -0.010435 -0.000144 0.000000 0.000000 0.000000
# 2 -0.010435 0.016261 -0.004192 0.000000 0.000000 0.000000
# 3 -0.000144 -0.004192 0.008634 0.000000 0.000000 0.000000
# 4 0.000000 0.000000 0.000000 0.147008 0.000000 0.000000
# 5 0.000000 0.000000 0.000000 0.000000 0.035206 0.000000
# 6 0.000000 0.000000 0.000000 0.000000 0.000000 0.048840
#
#
# Mechanical properties :
#
#
# Convention : Reuss Voigt Hill
#
# Bulk Modulus (GPa) = 47.31928 57.65118 52.48523
# Shear Modulus (GPa) = 15.70769 23.46630 19.58700
#
# Velocity S-wave (km/s) = 2.93429 3.58648 3.27665
# Velocity P-wave (km/s) = 6.11700 6.98222 6.56388
#
# Compressibility (1/GPa) = 0.02113303
#
# Stress axis : x y z
#
# Youngs Moduli (GPa) = 38.78975 61.49517 115.82668
#
# Poissons Ratio (x) = 0.64170 0.01672
# Poissons Ratio (y) = 0.40477 0.48552
# Poissons Ratio (z) = 0.00560 0.25777
#
# Static dielectric constant tensor:
#      x y z
#    x 3.134980 0.000000 0.000000 
#    y 0.000000 3.366900 0.000000 
#    z 0.000000 0.000000 3.698290 
# 
# 
# High freq. dielectric constant tensor:
#      x y z
#    x 1.692680 0.000000 0.000000 
#    y 0.000000 1.706180 0.000000 
#    z 0.000000 0.000000 1.729310 
# 
# From -- ./inp_files/16432.got.cif
#   From: 2010.03.12/outbox.cif.g09.slc.cpg/sg57_9_cif.got.tgz:16432.got - 2010.04.16 15:48:40.
