data_PCOD8233990
_publ_section_title
;
Structure prediction by ZEFSAII (Michael W. Deem and Ramdas Pophale) SiO2 
 PCOD8233990
Probable space group: P B C M
;
_chemical_formula_sum "Si O2"
_cell_formula_units_Z 56
_cell_length_a 11.928690
_cell_length_b 15.923875
_cell_length_c 12.264357
_cell_angle_alpha 90.000000
_cell_angle_beta 90.000000
_cell_angle_gamma 90.000000
_cell_volume 2329.626490
_symmetry_space_group_name_H-M "P B C M"
_symmetry_group_IT_number 57
_symmetry_cell_setting 'orthorhombic'
loop_
_space_group_symop_operation_xyz
x,y,z
-x,-y,1/2+z
x,1/2-y,-z
-x,1/2+y,1/2-z
-x,-y,-z
x,y,1/2-z
-x,1/2+y,z
x,1/2-y,1/2+z
loop_
_atom_site_type_symbol
_atom_site_label
_atom_site_fract_x
_atom_site_fract_y
_atom_site_fract_z
Si Si1 0.422412 0.655943 0.873938
Si Si2 0.713495 0.037249 0.982970
Si Si3 0.897846 0.800281 0.123208
Si Si4 0.665936 0.875835 0.122874
Si Si5 0.957673 0.040940 0.619234
Si Si6 0.976983 0.143027 0.377630
Si Si7 0.270682 0.692199 0.123364
O O1 0.433406 0.678709 0.750000
O O2 0.378858 0.559717 0.890135
O O3 0.549575 0.664628 0.919704
O O4 0.331196 0.722687 0.922905
O O5 0.833067 0.046403 0.926402
O O6 0.679774 0.108467 0.070806
O O7 0.698175 0.949933 0.041361
O O8 0.931813 0.798698 0.250000
O O9 0.764925 0.808870 0.109277
O O10 0.927302 0.706796 0.074383
O O11 0.971613 0.878228 0.073932
O O12 0.659228 0.906413 0.250000
O O13 0.954642 0.042073 0.750000
O O14 0.018894 0.953932 0.576891
O O15 0.997358 0.131067 0.250000
O O16 0.861916 0.192079 0.402090
O O17 0.293928 0.684399 0.250000
#
# Coordination Sequence:
#
# PCOD8233990 Si02
#       7
#     8   8   8   8   8   8   8
#     4  10  22  41  61  82 113 155 203 250 298 351
#     4  12  22  37  61  90 120 153 194 245 302 363
#     4   9  18  36  60  84 118 161 200 244 300 358
#     4  10  22  40  60  82 113 154 198 247 300 355
#     4  10  21  37  60  93 129 161 197 246 305 369
#     4   9  18  35  59  87 120 158 199 242 295 361
#     4  10  21  38  62  89 117 153 198 246 294 352
#
# _framework density 24.038187000000001
#
# number of rings (size 3 to 8) (size 9 to 14) (size 15 to 20)
#    0.000    2.000    0.000    3.429    0.000    6.857 
#    0.000    6.429    0.000    6.857    0.000    0.000 
#    0.000    0.000    0.000    0.000    0.000    0.000 
#
# Total GULP energy -694090.550451 kJ/mol
# GULP energy per Si atom -12394.474115 kJ/mol
# Density = 2.398348 g / cm^3
# Si number density = 24.038187 Si / 1000 Ang^3
#
#
#
# Elastic Constant Matrix: (Units=GPa)
#
#
# Indices 1 2 3 4 5 6 
#
# 1 191.3834 83.2041 25.4098 0.0000 0.0000 0.0000
# 2 83.2041 170.3601 53.0980 0.0000 0.0000 0.0000
# 3 25.4098 53.0980 51.6337 0.0000 0.0000 0.0000
# 4 0.0000 0.0000 0.0000 40.3840 0.0000 0.0000
# 5 0.0000 0.0000 0.0000 0.0000 28.8658 0.0000
# 6 0.0000 0.0000 0.0000 0.0000 0.0000 28.4530
#
#
#
# Elastic Compliance Matrix: (Units=1/GPa)
#
#
# Indices 1 2 3 4 5 6 
#
# 1 0.006634 -0.003271 0.000099 0.000000 0.000000 0.000000
# 2 -0.003271 0.010252 -0.008933 0.000000 0.000000 0.000000
# 3 0.000099 -0.008933 0.028504 0.000000 0.000000 0.000000
# 4 0.000000 0.000000 0.000000 0.024762 0.000000 0.000000
# 5 0.000000 0.000000 0.000000 0.000000 0.034643 0.000000
# 6 0.000000 0.000000 0.000000 0.000000 0.000000 0.035146
#
#
# Mechanical properties :
#
#
# Convention : Reuss Voigt Hill
#
# Bulk Modulus (GPa) = 47.21242 81.86677 64.53960
# Shear Modulus (GPa) = 29.20382 36.31823 32.76103
#
# Velocity S-wave (km/s) = 3.48931 3.89119 3.69572
# Velocity P-wave (km/s) = 5.99308 7.37017 6.71701
#
# Compressibility (1/GPa) = 0.02118087
#
# Stress axis : x y z
#
# Youngs Moduli (GPa) = 150.73852 97.54605 35.08227
#
# Poissons Ratio (x) = 0.31906 -0.00347
# Poissons Ratio (y) = 0.49305 0.31338
# Poissons Ratio (z) = -0.01492 0.87134
#
# Static dielectric constant tensor:
#      x y z
#    x 4.477330 0.000000 0.000000 
#    y 0.000000 4.684940 0.000000 
#    z 0.000000 0.000000 4.896530 
# 
# 
# High freq. dielectric constant tensor:
#      x y z
#    x 1.942120 0.000000 0.000000 
#    y 0.000000 1.952290 0.000000 
#    z 0.000000 0.000000 2.007160 
# 
# From -- ./inp_files/17718.got.cif
#   From: 2010.03.12/outbox.cif.g09.slc.cpg/sg57_9_cif.got.tgz:17718.got - 2010.04.16 15:48:40.
