data_PCOD8233226
_publ_section_title
;
Structure prediction by ZEFSAII (Michael W. Deem and Ramdas Pophale) SiO2 
 PCOD8233226
Probable space group: P B C M
;
_chemical_formula_sum "Si O2"
_cell_formula_units_Z 64
_cell_length_a 23.637311
_cell_length_b 15.159927
_cell_length_c 8.538681
_cell_angle_alpha 90.000000
_cell_angle_beta 90.000000
_cell_angle_gamma 90.000000
_cell_volume 3059.750175
_symmetry_space_group_name_H-M "P B C M"
_symmetry_group_IT_number 57
_symmetry_cell_setting 'orthorhombic'
loop_
_space_group_symop_operation_xyz
x,y,z
-x,-y,1/2+z
x,1/2-y,-z
-x,1/2+y,1/2-z
-x,-y,-z
x,y,1/2-z
-x,1/2+y,z
x,1/2-y,1/2+z
loop_
_atom_site_type_symbol
_atom_site_label
_atom_site_fract_x
_atom_site_fract_y
_atom_site_fract_z
Si Si1 0.503775 0.343152 0.933120
Si Si2 0.079782 0.514590 0.933939
Si Si3 0.614804 0.887901 0.069615
Si Si4 0.392036 0.569886 0.932333
Si Si5 0.210319 0.514968 0.932774
Si Si6 0.710434 0.339827 0.932748
Si Si7 0.994703 0.850191 0.565651
Si Si8 0.729155 0.836133 0.566652
O O1 0.516240 0.348336 0.750000
O O2 0.523081 0.250000 0.000000
O O3 0.438106 0.359598 0.964061
O O4 0.542814 0.413546 0.022524
O O5 0.069876 0.524160 0.750000
O O6 0.145103 0.517321 0.980656
O O7 0.054468 0.419412 0.990132
O O8 0.052492 0.601110 0.014268
O O9 0.598942 0.872553 0.250000
O O10 0.669385 0.832718 0.023387
O O11 0.630542 0.988480 0.033797
O O12 0.388283 0.546918 0.750000
O O13 0.349342 0.648024 0.976897
O O14 0.219835 0.535678 0.750000
O O15 0.233035 0.419089 0.978294
O O16 0.244210 0.584616 0.035068
O O17 0.698119 0.333110 0.750000
O O18 0.737054 0.250000 0.000000
O O19 0.987843 0.750000 0.500000
O O20 0.993964 0.838825 0.750000
O O21 0.761905 0.750000 0.500000
O O22 0.718030 0.831239 0.750000
#
# Coordination Sequence:
#
# PCOD8233226 Si02
#       8
#     8   8   8   8   8   8   8   8
#     4  12  25  42  61  87 119 154 198 252 310 374
#     4   9  20  39  62  90 125 167 213 260 310 363
#     4  12  24  41  63  89 119 156 202 252 311 377
#     4  12  24  42  64  89 120 156 199 251 312 377
#     4  10  22  42  65  90 125 165 210 262 312 365
#     4  12  25  42  65  92 123 163 209 257 313 376
#     4  10  20  36  61  93 129 169 211 257 309 365
#     4  11  23  40  63  90 123 163 207 257 314 374
#
# _framework density 20.916741999999999
#
# number of rings (size 3 to 8) (size 9 to 14) (size 15 to 20)
#    0.000    1.000    1.250    6.375    0.000    2.500 
#    0.000    0.000    0.000    0.000    0.000    0.000 
#    0.000    0.000    0.000    0.000    0.000    0.000 
#
# Total GULP energy -793724.651917 kJ/mol
# GULP energy per Si atom -12401.947686 kJ/mol
# Density = 2.086913 g / cm^3
# Si number density = 20.916742 Si / 1000 Ang^3
#
#
#
# Elastic Constant Matrix: (Units=GPa)
#
#
# Indices 1 2 3 4 5 6 
#
# 1 103.1163 20.5345 27.2469 0.0000 0.0000 0.0000
# 2 20.5345 119.7795 35.9567 0.0000 0.0000 0.0000
# 3 27.2469 35.9567 85.0509 0.0000 0.0000 0.0000
# 4 0.0000 0.0000 0.0000 35.7104 0.0000 0.0000
# 5 0.0000 0.0000 0.0000 0.0000 25.0794 0.0000
# 6 0.0000 0.0000 0.0000 0.0000 0.0000 -42.1815
#
#
#
# Elastic Compliance Matrix: (Units=1/GPa)
#
#
# Indices 1 2 3 4 5 6 
#
# 1 0.010683 -0.000921 -0.003033 0.000000 0.000000 0.000000
# 2 -0.000921 0.009642 -0.003781 0.000000 0.000000 0.000000
# 3 -0.003033 -0.003781 0.014328 0.000000 0.000000 0.000000
# 4 0.000000 0.000000 0.000000 0.028003 0.000000 0.000000
# 5 0.000000 0.000000 0.000000 0.000000 0.039873 0.000000
# 6 0.000000 0.000000 0.000000 0.000000 0.000000 -0.023707
#
#
# Mechanical properties :
#
#
# Convention : Reuss Voigt Hill
#
# Bulk Modulus (GPa) = 52.13204 52.82477 52.47841
# Shear Modulus (GPa) = 49.65966 18.66891 34.16429
#
# Velocity S-wave (km/s) = 4.87782 2.99077 4.04585
# Velocity P-wave (km/s) = 7.53006 6.10212 6.85338
#
# Compressibility (1/GPa) = 0.01918206
#
# Stress axis : x y z
#
# Youngs Moduli (GPa) = 93.61028 103.71713 69.79416
#
# Poissons Ratio (x) = 0.09551 0.21168
# Poissons Ratio (y) = 0.08621 0.26390
# Poissons Ratio (z) = 0.28392 0.39217
#
# Static dielectric constant tensor:
#      x y z
#    x 3.698880 0.000000 0.000000 
#    y 0.000000 4.032110 0.000000 
#    z 0.000000 0.000000 3.682590 
# 
# 
# High freq. dielectric constant tensor:
#      x y z
#    x 1.810790 0.000000 0.000000 
#    y 0.000000 1.836180 0.000000 
#    z 0.000000 0.000000 1.824200 
# 
# From -- ./inp_files/9363.got.cif
#   From: 2010.03.12/outbox.cif.g09.slc.cpg/sg57_5_cif.got.tgz:9363.got - 2010.04.16 15:48:40.
