data_PCOD8233521
_publ_section_title
;
Structure prediction by ZEFSAII (Michael W. Deem and Ramdas Pophale) SiO2 
 PCOD8233521
Probable space group: P B C M
;
_chemical_formula_sum "Si O2"
_cell_formula_units_Z 64
_cell_length_a 20.133814
_cell_length_b 8.814835
_cell_length_c 18.488466
_cell_angle_alpha 90.000000
_cell_angle_beta 90.000000
_cell_angle_gamma 90.000000
_cell_volume 3281.263583
_symmetry_space_group_name_H-M "P B C M"
_symmetry_group_IT_number 57
_symmetry_cell_setting 'orthorhombic'
loop_
_space_group_symop_operation_xyz
x,y,z
-x,-y,1/2+z
x,1/2-y,-z
-x,1/2+y,1/2-z
-x,-y,-z
x,y,1/2-z
-x,1/2+y,z
x,1/2-y,1/2+z
loop_
_atom_site_type_symbol
_atom_site_label
_atom_site_fract_x
_atom_site_fract_y
_atom_site_fract_z
Si Si1 0.923518 0.605553 0.667958
Si Si2 0.218124 0.329456 0.336069
Si Si3 0.449727 0.127889 0.594055
Si Si4 0.950172 0.954402 0.668006
Si Si5 0.804735 0.488699 0.336323
Si Si6 0.420209 0.032103 0.434909
Si Si7 0.698249 0.183270 0.920809
Si Si8 0.338633 0.533537 0.166774
O O1 0.915747 0.547616 0.750000
O O2 0.850063 0.595335 0.631553
O O3 0.981933 0.509846 0.627624
O O4 0.948345 0.776018 0.664480
O O5 0.213477 0.333654 0.250000
O O6 0.281103 0.422977 0.365309
O O7 0.223848 0.153738 0.359223
O O8 0.423513 0.053093 0.520503
O O9 0.435794 0.306768 0.602153
O O10 0.528160 0.092521 0.596799
O O11 0.409914 0.047527 0.658694
O O12 0.955139 0.013449 0.750000
O O13 0.881419 0.023909 0.637382
O O14 0.797402 0.463134 0.250000
O O15 0.766323 0.359135 0.380427
O O16 0.347245 0.967549 0.419672
O O17 0.659973 0.310210 0.875782
O O18 0.713191 0.250000 0.000000
O O19 0.325156 0.568651 0.250000
#
# Coordination Sequence:
#
# PCOD8233521 Si02
#       8
#     8   8   8   8   8   8   8   8
#     4   8  13  23  41  70 103 136 173 215 264 325
#     4   8  16  31  51  75 109 145 178 221 275 328
#     4  10  20  38  62  86 107 142 177 223 267 319
#     4   8  14  24  42  68 100 134 173 219 270 323
#     4   9  18  34  52  74 107 145 179 225 282 328
#     4  10  21  37  62  83 109 139 183 220 265 313
#     4  12  23  37  54  82 111 146 185 230 269 328
#     4  11  22  37  56  84 117 147 181 227 279 326
#
# _framework density 19.504681000000001
#
# number of rings (size 3 to 8) (size 9 to 14) (size 15 to 20)
#    0.000    2.500    1.250    3.375    1.750    1.000 
#    0.000    7.500    0.000    0.000    0.000    7.875 
#    0.000    0.000    0.000    0.000    0.000    0.000 
#
# Total GULP energy -793095.788730 kJ/mol
# GULP energy per Si atom -12392.121699 kJ/mol
# Density = 1.946029 g / cm^3
# Si number density = 19.504681 Si / 1000 Ang^3
#
#
#
# Elastic Constant Matrix: (Units=GPa)
#
#
# Indices 1 2 3 4 5 6 
#
# 1 80.0433 19.6487 15.7132 0.0000 0.0000 0.0000
# 2 19.6487 62.7524 19.0513 0.0000 0.0000 0.0000
# 3 15.7132 19.0513 41.6834 0.0000 0.0000 0.0000
# 4 0.0000 0.0000 0.0000 18.8688 0.0000 0.0000
# 5 0.0000 0.0000 0.0000 0.0000 14.1075 0.0000
# 6 0.0000 0.0000 0.0000 0.0000 0.0000 41.4226
#
#
#
# Elastic Compliance Matrix: (Units=1/GPa)
#
#
# Indices 1 2 3 4 5 6 
#
# 1 0.014036 -0.003238 -0.003811 0.000000 0.000000 0.000000
# 2 -0.003238 0.019250 -0.007578 0.000000 0.000000 0.000000
# 3 -0.003811 -0.007578 0.028890 0.000000 0.000000 0.000000
# 4 0.000000 0.000000 0.000000 0.052997 0.000000 0.000000
# 5 0.000000 0.000000 0.000000 0.000000 0.070884 0.000000
# 6 0.000000 0.000000 0.000000 0.000000 0.000000 0.024141
#
#
# Mechanical properties :
#
#
# Convention : Reuss Voigt Hill
#
# Bulk Modulus (GPa) = 30.37382 32.58951 31.48166
# Shear Modulus (GPa) = 19.96586 23.55086 21.75836
#
# Velocity S-wave (km/s) = 3.20292 3.47860 3.34360
# Velocity P-wave (km/s) = 5.41153 5.73403 5.57511
#
# Compressibility (1/GPa) = 0.03292309
#
# Stress axis : x y z
#
# Youngs Moduli (GPa) = 71.24410 51.94812 34.61360
#
# Poissons Ratio (x) = 0.16820 0.13192
# Poissons Ratio (y) = 0.23068 0.26229
# Poissons Ratio (z) = 0.27153 0.39364
#
# Static dielectric constant tensor:
#      x y z
#    x 3.844750 0.000000 0.000000 
#    y 0.000000 3.546150 0.000000 
#    z 0.000000 0.000000 3.021150 
# 
# 
# High freq. dielectric constant tensor:
#      x y z
#    x 1.776690 0.000000 0.000000 
#    y 0.000000 1.762310 0.000000 
#    z 0.000000 0.000000 1.696950 
# 
# From -- ./inp_files/25643.got.cif
#   From: 2010.03.12/outbox.cif.g09.slc.cpg/sg57_13_cif.got.tgz:25643.got - 2010.04.16 15:48:40.
