data_PCOD8233095
_publ_section_title
;
Structure prediction by ZEFSAII (Michael W. Deem and Ramdas Pophale) SiO2 
 PCOD8233095
Probable space group: P B C M
;
_chemical_formula_sum "Si O2"
_cell_formula_units_Z 64
_cell_length_a 26.036668
_cell_length_b 14.749901
_cell_length_c 8.620279
_cell_angle_alpha 90.000000
_cell_angle_beta 90.000000
_cell_angle_gamma 90.000000
_cell_volume 3310.517080
_symmetry_space_group_name_H-M "P B C M"
_symmetry_group_IT_number 57
_symmetry_cell_setting 'orthorhombic'
loop_
_space_group_symop_operation_xyz
x,y,z
-x,-y,1/2+z
x,1/2-y,-z
-x,1/2+y,1/2-z
-x,-y,-z
x,y,1/2-z
-x,1/2+y,z
x,1/2-y,1/2+z
loop_
_atom_site_type_symbol
_atom_site_label
_atom_site_fract_x
_atom_site_fract_y
_atom_site_fract_z
Si Si1 0.632655 0.851709 0.933678
Si Si2 0.111014 0.156535 0.933617
Si Si3 0.820038 0.996680 0.931947
Si Si4 0.999125 0.401690 0.067873
Si Si5 0.634770 0.350996 0.931339
Si Si6 0.890548 0.341139 0.432865
Si Si7 0.291115 0.491998 0.432052
Si Si8 0.556472 0.995983 0.433619
O O1 0.629291 0.845228 0.750000
O O2 0.633430 0.750000 0.000000
O O3 0.684016 0.905930 0.981538
O O4 0.583901 0.907409 0.996802
O O5 0.119839 0.145883 0.750000
O O6 0.051027 0.149524 0.980132
O O7 0.131826 0.250000 0.000000
O O8 0.144276 0.087089 0.030207
O O9 0.807094 0.000178 0.750000
O O10 0.852388 0.081941 0.991624
O O11 0.768500 0.993711 0.030321
O O12 0.994199 0.410339 0.250000
O O13 0.948446 0.352775 0.999552
O O14 0.000000 0.500000 0.000000
O O15 0.635864 0.335970 0.750000
O O16 0.683760 0.411795 0.985011
O O17 0.584876 0.409977 0.981202
O O18 0.634970 0.250000 0.000000
O O19 0.866689 0.250000 0.500000
O O20 0.892082 0.338754 0.250000
O O21 0.300714 0.477763 0.250000
O O22 0.555867 0.984720 0.250000
O O23 0.500000 0.000000 0.500000
#
# Coordination Sequence:
#
# PCOD8233095 Si02
#       8
#     8   8   8   8   8   8   8   8
#     4  11  22  39  63  90 119 157 201 246 298 353
#     4  11  23  38  59  85 113 148 187 230 284 342
#     4  11  23  40  60  84 115 148 188 237 288 344
#     4  10  20  36  58  83 111 147 185 227 280 338
#     4   9  20  37  59  85 116 153 195 241 288 341
#     4  10  22  38  57  83 114 147 186 230 280 340
#     4  10  22  41  61  85 116 149 192 244 294 348
#     4  10  21  38  58  88 127 166 206 250 296 344
#
# _framework density 19.332328
#
# number of rings (size 3 to 8) (size 9 to 14) (size 15 to 20)
#    0.000    1.750    1.250    3.750    0.000    6.500 
#    0.000    6.250    0.000    0.000    0.000    0.000 
#    0.000    0.000    0.000    0.000    0.000    0.000 
#
# Total GULP energy -793493.139327 kJ/mol
# GULP energy per Si atom -12398.330302 kJ/mol
# Density = 1.928833 g / cm^3
# Si number density = 19.332328 Si / 1000 Ang^3
#
#
#
# Elastic Constant Matrix: (Units=GPa)
#
#
# Indices 1 2 3 4 5 6 
#
# 1 129.5987 58.3812 37.4969 0.0000 0.0000 0.0000
# 2 58.3812 177.3062 42.8599 0.0000 0.0000 0.0000
# 3 37.4969 42.8599 60.2649 0.0000 0.0000 0.0000
# 4 0.0000 0.0000 0.0000 36.5019 0.0000 0.0000
# 5 0.0000 0.0000 0.0000 0.0000 36.7693 0.0000
# 6 0.0000 0.0000 0.0000 0.0000 0.0000 33.7273
#
#
#
# Elastic Compliance Matrix: (Units=1/GPa)
#
#
# Indices 1 2 3 4 5 6 
#
# 1 0.010059 -0.002173 -0.004713 0.000000 0.000000 0.000000
# 2 -0.002173 0.007280 -0.003826 0.000000 0.000000 0.000000
# 3 -0.004713 -0.003826 0.022247 0.000000 0.000000 0.000000
# 4 0.000000 0.000000 0.000000 0.027396 0.000000 0.000000
# 5 0.000000 0.000000 0.000000 0.000000 0.027197 0.000000
# 6 0.000000 0.000000 0.000000 0.000000 0.000000 0.029650
#
#
# Mechanical properties :
#
#
# Convention : Reuss Voigt Hill
#
# Bulk Modulus (GPa) = 55.05941 71.62731 63.34336
# Shear Modulus (GPa) = 33.04586 36.62850 34.83718
#
# Velocity S-wave (km/s) = 4.13892 4.35751 4.24962
# Velocity P-wave (km/s) = 7.16821 7.90241 7.54425
#
# Compressibility (1/GPa) = 0.01816220
#
# Stress axis : x y z
#
# Youngs Moduli (GPa) = 99.41794 137.36027 44.95015
#
# Poissons Ratio (x) = 0.29843 0.21186
# Poissons Ratio (y) = 0.21600 0.17197
# Poissons Ratio (z) = 0.46859 0.52551
#
# Static dielectric constant tensor:
#      x y z
#    x 3.730130 0.000000 0.000000 
#    y 0.000000 3.429790 0.000000 
#    z 0.000000 0.000000 3.518280 
# 
# 
# High freq. dielectric constant tensor:
#      x y z
#    x 1.755220 0.000000 0.000000 
#    y 0.000000 1.763710 0.000000 
#    z 0.000000 0.000000 1.755670 
# 
# From -- ./inp_files/9318.got.cif
#   From: 2010.03.12/outbox.cif.g09.slc.cpg/sg57_5_cif.got.tgz:9318.got - 2010.04.16 15:48:40.
