data_PCOD8233530
_publ_section_title
;
Structure prediction by ZEFSAII (Michael W. Deem and Ramdas Pophale) SiO2 
 PCOD8233530
Probable space group: P B C M
;
_chemical_formula_sum "Si O2"
_cell_formula_units_Z 40
_cell_length_a 12.471913
_cell_length_b 9.320936
_cell_length_c 17.346307
_cell_angle_alpha 90.000000
_cell_angle_beta 90.000000
_cell_angle_gamma 90.000000
_cell_volume 2016.506504
_symmetry_space_group_name_H-M "P B C M"
_symmetry_group_IT_number 57
_symmetry_cell_setting 'orthorhombic'
loop_
_space_group_symop_operation_xyz
x,y,z
-x,-y,1/2+z
x,1/2-y,-z
-x,1/2+y,1/2-z
-x,-y,-z
x,y,1/2-z
-x,1/2+y,z
x,1/2-y,1/2+z
loop_
_atom_site_type_symbol
_atom_site_label
_atom_site_fract_x
_atom_site_fract_y
_atom_site_fract_z
Si Si1 0.382374 0.035006 0.158222
Si Si2 0.214202 0.974501 0.659284
Si Si3 0.586576 0.288900 0.841403
Si Si4 0.973764 0.129946 0.444885
Si Si5 0.793485 0.777840 0.588150
O O1 0.370528 0.038076 0.250000
O O2 0.406065 0.874026 0.128484
O O3 0.477308 0.138515 0.128454
O O4 0.271914 0.086875 0.120280
O O5 0.200731 0.958540 0.750000
O O6 0.235804 0.139384 0.638689
O O7 0.313175 0.880699 0.627712
O O8 0.106540 0.915551 0.621517
O O9 0.586167 0.292353 0.750000
O O10 0.921284 0.250000 0.500000
O O11 0.080757 0.188408 0.403784
O O12 0.000000 0.000000 0.500000
O O13 0.761749 0.750000 0.500000
#
# Coordination Sequence:
#
# PCOD8233530 Si02
#       5
#     8   8   8   8   8
#     4  10  20  38  62  88 120 159 202 252 306 365
#     4  11  23  40  64  93 121 159 210 257 300 365
#     4   9  20  37  61  91 121 154 197 255 313 355
#     4  11  23  44  63  85 123 166 199 248 316 367
#     4  11  23  40  61  87 125 163 203 245 311 363
#
# _framework density 19.836286000000001
#
# number of rings (size 3 to 8) (size 9 to 14) (size 15 to 20)
#    0.000    1.600    4.000    1.800    2.800    4.800 
#    0.000    5.000    0.000    0.000    0.000    0.000 
#    0.000    0.000    0.000    0.000    0.000    0.000 
#
# Total GULP energy -496125.613312 kJ/mol
# GULP energy per Si atom -12403.140333 kJ/mol
# Density = 1.979114 g / cm^3
# Si number density = 19.836286 Si / 1000 Ang^3
#
#
#
# Elastic Constant Matrix: (Units=GPa)
#
#
# Indices 1 2 3 4 5 6 
#
# 1 96.7673 38.0131 28.3577 0.0000 0.0000 0.0000
# 2 38.0131 127.5343 16.0364 0.0000 0.0000 0.0000
# 3 28.3577 16.0364 57.5518 0.0000 0.0000 0.0000
# 4 0.0000 0.0000 0.0000 35.7010 0.0000 0.0000
# 5 0.0000 0.0000 0.0000 0.0000 12.5101 0.0000
# 6 0.0000 0.0000 0.0000 0.0000 0.0000 44.0332
#
#
#
# Elastic Compliance Matrix: (Units=1/GPa)
#
#
# Indices 1 2 3 4 5 6 
#
# 1 0.013258 -0.003244 -0.005629 0.000000 0.000000 0.000000
# 2 -0.003244 0.008919 -0.000887 0.000000 0.000000 0.000000
# 3 -0.005629 -0.000887 0.020396 0.000000 0.000000 0.000000
# 4 0.000000 0.000000 0.000000 0.028010 0.000000 0.000000
# 5 0.000000 0.000000 0.000000 0.000000 0.079935 0.000000
# 6 0.000000 0.000000 0.000000 0.000000 0.000000 0.022710
#
#
# Mechanical properties :
#
#
# Convention : Reuss Voigt Hill
#
# Bulk Modulus (GPa) = 43.37564 49.62976 46.50270
# Shear Modulus (GPa) = 24.94595 31.74529 28.34562
#
# Velocity S-wave (km/s) = 3.55010 4.00480 3.78428
# Velocity P-wave (km/s) = 6.22243 6.81605 6.52599
#
# Compressibility (1/GPa) = 0.02305442
#
# Stress axis : x y z
#
# Youngs Moduli (GPa) = 75.42695 112.11475 49.02865
#
# Poissons Ratio (x) = 0.36369 0.27597
# Poissons Ratio (y) = 0.24468 0.04349
# Poissons Ratio (z) = 0.42456 0.09944
#
# Static dielectric constant tensor:
#      x y z
#    x 4.112900 0.000000 0.000000 
#    y 0.000000 3.942770 0.000000 
#    z 0.000000 0.000000 3.128290 
# 
# 
# High freq. dielectric constant tensor:
#      x y z
#    x 1.779920 0.000000 0.000000 
#    y 0.000000 1.794830 0.000000 
#    z 0.000000 0.000000 1.752470 
# 
# From -- ./inp_files/18244.got.cif
#   From: 2010.03.12/outbox.cif.g09.slc.cpg/sg57_10_cif.got.tgz:18244.got - 2010.04.16 15:48:40.
