data_PCOD8233638
_publ_section_title
;
Structure prediction by ZEFSAII (Michael W. Deem and Ramdas Pophale) SiO2 
 PCOD8233638
Probable space group: P B C M
;
_chemical_formula_sum "Si O2"
_cell_formula_units_Z 40
_cell_length_a 16.246677
_cell_length_b 8.941347
_cell_length_c 13.367760
_cell_angle_alpha 90.000000
_cell_angle_beta 90.000000
_cell_angle_gamma 90.000000
_cell_volume 1941.896753
_symmetry_space_group_name_H-M "P B C M"
_symmetry_group_IT_number 57
_symmetry_cell_setting 'orthorhombic'
loop_
_space_group_symop_operation_xyz
x,y,z
-x,-y,1/2+z
x,1/2-y,-z
-x,1/2+y,1/2-z
-x,-y,-z
x,y,1/2-z
-x,1/2+y,z
x,1/2-y,1/2+z
loop_
_atom_site_type_symbol
_atom_site_label
_atom_site_fract_x
_atom_site_fract_y
_atom_site_fract_z
Si Si1 0.219885 0.891655 0.435713
Si Si2 0.399176 0.539215 0.933060
Si Si3 0.954801 0.500747 0.750000
Si Si4 0.458771 0.855489 0.865138
Si Si5 0.888032 0.323914 0.250000
Si Si6 0.082041 0.082137 0.535699
O O1 0.247918 0.750000 0.500000
O O2 0.303665 0.972843 0.400860
O O3 0.169725 0.823151 0.344973
O O4 0.164275 0.008480 0.494394
O O5 0.444151 0.680392 0.881848
O O6 0.445439 0.393151 0.889958
O O7 0.404442 0.549414 0.054781
O O8 0.945294 0.322327 0.750000
O O9 0.911797 0.576543 0.844962
O O10 0.052874 0.531558 0.750000
O O11 0.436460 0.897646 0.750000
O O12 0.075641 0.250000 0.500000
O O13 0.000000 0.000000 0.500000
#
# Coordination Sequence:
#
# PCOD8233638 Si02
#       6
#     8   8   4   8   4   8
#     4  12  24  44  64 101 131 179 218 279 325 395
#     4  10  23  41  64  94 133 164 219 263 324 390
#     4  12  24  42  68  98 124 185 225 267 337 392
#     4  10  20  39  66  90 122 169 209 261 323 387
#     4  12  26  38  74  92 136 171 235 267 335 396
#     4  12  25  45  68  94 136 174 224 276 333 396
#
# _framework density 20.598417999999999
#
# number of rings (size 3 to 8) (size 9 to 14) (size 15 to 20)
#    0.000    0.800    6.000    2.400    2.800    0.000 
#    9.000    0.000    0.000    0.000    0.000    0.000 
#    0.000    0.000    0.000    0.000    0.000    0.000 
#
# Total GULP energy -496048.073704 kJ/mol
# GULP energy per Si atom -12401.201843 kJ/mol
# Density = 2.055153 g / cm^3
# Si number density = 20.598418 Si / 1000 Ang^3
#
#
#
# Elastic Constant Matrix: (Units=GPa)
#
#
# Indices 1 2 3 4 5 6 
#
# 1 159.5030 68.8493 27.5252 0.0000 0.0000 0.0000
# 2 68.8493 90.6091 40.3905 0.0000 0.0000 0.0000
# 3 27.5252 40.3905 149.3528 0.0000 0.0000 0.0000
# 4 0.0000 0.0000 0.0000 28.1168 0.0000 0.0000
# 5 0.0000 0.0000 0.0000 0.0000 9.3096 0.0000
# 6 0.0000 0.0000 0.0000 0.0000 0.0000 35.6052
#
#
#
# Elastic Compliance Matrix: (Units=1/GPa)
#
#
# Indices 1 2 3 4 5 6 
#
# 1 0.009336 -0.007194 0.000225 0.000000 0.000000 0.000000
# 2 -0.007194 0.018093 -0.003567 0.000000 0.000000 0.000000
# 3 0.000225 -0.003567 0.007619 0.000000 0.000000 0.000000
# 4 0.000000 0.000000 0.000000 0.035566 0.000000 0.000000
# 5 0.000000 0.000000 0.000000 0.000000 0.107416 0.000000
# 6 0.000000 0.000000 0.000000 0.000000 0.000000 0.028086
#
#
# Mechanical properties :
#
#
# Convention : Reuss Voigt Hill
#
# Bulk Modulus (GPa) = 71.55613 74.77719 73.16666
# Shear Modulus (GPa) = 21.56594 32.11965 26.84279
#
# Velocity S-wave (km/s) = 3.23920 3.95311 3.61383
# Velocity P-wave (km/s) = 6.98598 7.56422 7.28084
#
# Compressibility (1/GPa) = 0.01397504
#
# Stress axis : x y z
#
# Youngs Moduli (GPa) = 107.11160 55.26964 131.25459
#
# Poissons Ratio (x) = 0.39763 -0.02953
# Poissons Ratio (y) = 0.77059 0.46821
# Poissons Ratio (z) = -0.02410 0.19716
#
# Static dielectric constant tensor:
#      x y z
#    x 3.742970 0.000000 0.000000 
#    y 0.000000 3.607820 0.000000 
#    z 0.000000 0.000000 4.057520 
# 
# 
# High freq. dielectric constant tensor:
#      x y z
#    x 1.801490 0.000000 0.000000 
#    y 0.000000 1.794270 0.000000 
#    z 0.000000 0.000000 1.821690 
# 
# From -- ./inp_files/18266.got.cif
#   From: 2010.03.12/outbox.cif.g09.slc.cpg/sg57_10_cif.got.tgz:18266.got - 2010.04.16 15:48:40.
