data_PCOD8233781
_publ_section_title
;
Structure prediction by ZEFSAII (Michael W. Deem and Ramdas Pophale) SiO2 
 PCOD8233781
Probable space group: P B C M
;
_chemical_formula_sum "Si O2"
_cell_formula_units_Z 48
_cell_length_a 10.084680
_cell_length_b 29.902294
_cell_length_c 9.456881
_cell_angle_alpha 90.000000
_cell_angle_beta 90.000000
_cell_angle_gamma 90.000000
_cell_volume 2851.770377
_symmetry_space_group_name_H-M "P B C M"
_symmetry_group_IT_number 57
_symmetry_cell_setting 'orthorhombic'
loop_
_space_group_symop_operation_xyz
x,y,z
-x,-y,1/2+z
x,1/2-y,-z
-x,1/2+y,1/2-z
-x,-y,-z
x,y,1/2-z
-x,1/2+y,z
x,1/2-y,1/2+z
loop_
_atom_site_type_symbol
_atom_site_label
_atom_site_fract_x
_atom_site_fract_y
_atom_site_fract_z
Si Si1 0.033225 0.610570 0.417805
Si Si2 0.891733 0.471611 0.415707
Si Si3 0.282647 0.209732 0.407714
Si Si4 0.267143 0.112859 0.417936
Si Si5 0.033660 0.710284 0.094116
Si Si6 0.383493 0.478358 0.587337
O O1 0.049074 0.600888 0.250000
O O2 0.882114 0.603446 0.469801
O O3 0.080010 0.661011 0.455789
O O4 0.121001 0.577047 0.511657
O O5 0.930648 0.468253 0.250000
O O6 0.750308 0.494365 0.434312
O O7 0.000000 0.500000 0.500000
O O8 0.343525 0.250000 0.500000
O O9 0.339839 0.215500 0.250000
O O10 0.322271 0.160992 0.472841
O O11 0.124534 0.211878 0.405660
O O12 0.259368 0.115926 0.250000
O O13 0.361645 0.072551 0.467942
O O14 0.088940 0.719199 0.250000
O O15 0.094590 0.750000 0.000000
O O16 0.500000 0.500000 0.500000
O O17 0.426807 0.477925 0.750000
#
# Coordination Sequence:
#
# PCOD8233781 Si02
#       6
#     8   8   8   8   8   8
#     4   9  16  29  47  68  95 127 161 198 241 288
#     4  11  21  33  51  73  97 126 162 204 245 287
#     4   8  13  22  38  59  86 119 150 182 226 275
#     4   8  14  28  46  63  91 128 155 185 235 286
#     4   8  14  23  38  60  91 126 154 187 233 284
#     4  10  21  36  51  69  96 129 164 201 243 289
#
# _framework density 16.831651000000001
#
# number of rings (size 3 to 8) (size 9 to 14) (size 15 to 20)
#    0.000    3.000    1.667    2.500    0.000    2.000 
#    0.000    3.333    0.000    0.000    0.000    1.167 
#    0.000    2.667    0.000    0.000    0.000    0.000 
#
# Total GULP energy -594808.015899 kJ/mol
# GULP energy per Si atom -12391.833665 kJ/mol
# Density = 1.679334 g / cm^3
# Si number density = 16.831651 Si / 1000 Ang^3
#
#
#
# Elastic Constant Matrix: (Units=GPa)
#
#
# Indices 1 2 3 4 5 6 
#
# 1 37.0658 36.5024 30.5998 0.0000 0.0000 0.0000
# 2 36.5024 180.3220 74.7986 0.0000 0.0000 0.0000
# 3 30.5998 74.7986 83.1481 0.0000 0.0000 0.0000
# 4 0.0000 0.0000 0.0000 34.5114 0.0000 0.0000
# 5 0.0000 0.0000 0.0000 0.0000 19.9464 0.0000
# 6 0.0000 0.0000 0.0000 0.0000 0.0000 15.5608
#
#
#
# Elastic Compliance Matrix: (Units=1/GPa)
#
#
# Indices 1 2 3 4 5 6 
#
# 1 0.039854 -0.003165 -0.011820 0.000000 0.000000 0.000000
# 2 -0.003165 0.009098 -0.007020 0.000000 0.000000 0.000000
# 3 -0.011820 -0.007020 0.022692 0.000000 0.000000 0.000000
# 4 0.000000 0.000000 0.000000 0.028976 0.000000 0.000000
# 5 0.000000 0.000000 0.000000 0.000000 0.050134 0.000000
# 6 0.000000 0.000000 0.000000 0.000000 0.000000 0.064264
#
#
# Mechanical properties :
#
#
# Convention : Reuss Voigt Hill
#
# Bulk Modulus (GPa) = 36.18667 64.92638 50.55652
# Shear Modulus (GPa) = 18.64018 24.57941 21.60980
#
# Velocity S-wave (km/s) = 3.33144 3.82554 3.58701
# Velocity P-wave (km/s) = 6.02859 7.62698 6.87440
#
# Compressibility (1/GPa) = 0.02763448
#
# Stress axis : x y z
#
# Youngs Moduli (GPa) = 25.09188 109.91276 44.06905
#
# Poissons Ratio (x) = 0.34782 0.52090
# Poissons Ratio (y) = 0.07940 0.30936
# Poissons Ratio (z) = 0.29659 0.77158
#
# Static dielectric constant tensor:
#      x y z
#    x 4.159180 0.000000 0.000000 
#    y 0.000000 3.944030 0.000000 
#    z 0.000000 0.000000 3.158470 
# 
# 
# High freq. dielectric constant tensor:
#      x y z
#    x 1.583470 0.000000 0.000000 
#    y 0.000000 1.674360 0.000000 
#    z 0.000000 0.000000 1.633570 
# 
# From -- ./inp_files/2033.got.cif
#   From: 2010.03.12/outbox.cif.g09.slc.cpg/sg57_2_cif.got.tgz:2033.got - 2010.04.16 15:48:40.
