data_PCOD8233753
_publ_section_title
;
Structure prediction by ZEFSAII (Michael W. Deem and Ramdas Pophale) SiO2 
 PCOD8233753
Probable space group: P B C M
;
_chemical_formula_sum "Si O2"
_cell_formula_units_Z 64
_cell_length_a 19.615533
_cell_length_b 18.564278
_cell_length_c 9.245799
_cell_angle_alpha 90.000000
_cell_angle_beta 90.000000
_cell_angle_gamma 90.000000
_cell_volume 3366.841135
_symmetry_space_group_name_H-M "P B C M"
_symmetry_group_IT_number 57
_symmetry_cell_setting 'orthorhombic'
loop_
_space_group_symop_operation_xyz
x,y,z
-x,-y,1/2+z
x,1/2-y,-z
-x,1/2+y,1/2-z
-x,-y,-z
x,y,1/2-z
-x,1/2+y,z
x,1/2-y,1/2+z
loop_
_atom_site_type_symbol
_atom_site_label
_atom_site_fract_x
_atom_site_fract_y
_atom_site_fract_z
Si Si1 0.460093 0.321693 0.081976
Si Si2 0.100248 0.084368 0.415417
Si Si3 0.966704 0.324606 0.580271
Si Si4 0.385390 0.822404 0.419436
Si Si5 0.795294 0.823108 0.083979
Si Si6 0.867447 0.075980 0.917540
Si Si7 0.712807 0.051831 0.579613
Si Si8 0.665402 0.913213 0.085246
O O1 0.452422 0.304033 0.250000
O O2 0.537075 0.344872 0.042104
O O3 0.409495 0.386218 0.037424
O O4 0.438099 0.250000 0.000000
O O5 0.122887 0.098582 0.250000
O O6 0.158156 0.113826 0.520473
O O7 0.029074 0.122000 0.450929
O O8 0.092929 0.999073 0.443370
O O9 0.981941 0.250000 0.500000
O O10 0.956022 0.310315 0.750000
O O11 0.899498 0.361381 0.514965
O O12 0.363860 0.750000 0.500000
O O13 0.376076 0.808944 0.250000
O O14 0.336017 0.884790 0.476918
O O15 0.815726 0.810671 0.250000
O O16 0.716940 0.846260 0.067351
O O17 0.809833 0.750000 0.000000
O O18 0.871585 0.099422 0.750000
O O19 0.789596 0.067965 0.969624
O O20 0.708451 0.043549 0.750000
O O21 0.686941 0.977529 0.516220
O O22 0.665463 0.940939 0.250000
#
# Coordination Sequence:
#
# PCOD8233753 Si02
#       8
#     8   8   8   8   8   8   8   8
#     4   9  18  34  54  78 111 147 188 233 277 329
#     4  10  21  39  61  85 113 148 185 227 278 333
#     4  11  24  40  60  86 114 146 187 232 280 334
#     4   9  19  36  57  81 108 144 187 232 282 330
#     4  11  22  34  53  81 113 149 189 228 273 326
#     4  10  21  39  61  84 114 149 186 231 282 335
#     4  10  21  37  58  83 113 147 184 228 278 334
#     4  10  21  35  52  79 113 148 186 230 275 327
#
# _framework density 19.008914999999998
#
# number of rings (size 3 to 8) (size 9 to 14) (size 15 to 20)
#    0.000    2.000    1.250    1.875    0.000    5.500 
#    0.000    1.250    0.000    0.000    0.000    0.000 
#    0.000    0.000    0.000    0.000    0.000    0.000 
#
# Total GULP energy -793851.913348 kJ/mol
# GULP energy per Si atom -12403.936146 kJ/mol
# Density = 1.896565 g / cm^3
# Si number density = 19.008915 Si / 1000 Ang^3
#
#
#
# Elastic Constant Matrix: (Units=GPa)
#
#
# Indices 1 2 3 4 5 6 
#
# 1 106.2838 46.4180 38.8597 0.0000 0.0000 0.0000
# 2 46.4180 66.3982 37.5071 0.0000 0.0000 0.0000
# 3 38.8597 37.5071 65.2468 0.0000 0.0000 0.0000
# 4 0.0000 0.0000 0.0000 37.0120 0.0000 0.0000
# 5 0.0000 0.0000 0.0000 0.0000 23.9101 0.0000
# 6 0.0000 0.0000 0.0000 0.0000 0.0000 35.1647
#
#
#
# Elastic Compliance Matrix: (Units=1/GPa)
#
#
# Indices 1 2 3 4 5 6 
#
# 1 0.014243 -0.007649 -0.004086 0.000000 0.000000 0.000000
# 2 -0.007649 0.026411 -0.010627 0.000000 0.000000 0.000000
# 3 -0.004086 -0.010627 0.023869 0.000000 0.000000 0.000000
# 4 0.000000 0.000000 0.000000 0.027018 0.000000 0.000000
# 5 0.000000 0.000000 0.000000 0.000000 0.041823 0.000000
# 6 0.000000 0.000000 0.000000 0.000000 0.000000 0.028438
#
#
# Mechanical properties :
#
#
# Convention : Reuss Voigt Hill
#
# Bulk Modulus (GPa) = 50.50654 53.72205 52.11429
# Shear Modulus (GPa) = 23.46039 26.89363 25.17701
#
# Velocity S-wave (km/s) = 3.51690 3.76545 3.64329
# Velocity P-wave (km/s) = 6.56651 6.87224 6.72111
#
# Compressibility (1/GPa) = 0.01979942
#
# Stress axis : x y z
#
# Youngs Moduli (GPa) = 70.20808 37.86319 41.89613
#
# Poissons Ratio (x) = 0.28963 0.17118
# Poissons Ratio (y) = 0.53704 0.44521
# Poissons Ratio (z) = 0.28686 0.40235
#
# Static dielectric constant tensor:
#      x y z
#    x 3.663140 0.000000 0.000000 
#    y 0.000000 3.415080 0.000000 
#    z 0.000000 0.000000 3.440850 
# 
# 
# High freq. dielectric constant tensor:
#      x y z
#    x 1.747250 0.000000 0.000000 
#    y 0.000000 1.737720 0.000000 
#    z 0.000000 0.000000 1.737160 
# 
# From -- ./inp_files/8420.got.cif
#   From: 2010.03.12/outbox.cif.g09.slc.cpg/sg57_5_cif.got.tgz:8420.got - 2010.04.16 15:48:40.
