data_PCOD8233003
_publ_section_title
;
Structure prediction by ZEFSAII (Michael W. Deem and Ramdas Pophale) SiO2 
 PCOD8233003
Probable space group: P B C M
;
_chemical_formula_sum "Si O2"
_cell_formula_units_Z 48
_cell_length_a 30.540857
_cell_length_b 9.482764
_cell_length_c 8.674457
_cell_angle_alpha 90.000000
_cell_angle_beta 90.000000
_cell_angle_gamma 90.000000
_cell_volume 2512.224579
_symmetry_space_group_name_H-M "P B C M"
_symmetry_group_IT_number 57
_symmetry_cell_setting 'orthorhombic'
loop_
_space_group_symop_operation_xyz
x,y,z
-x,-y,1/2+z
x,1/2-y,-z
-x,1/2+y,1/2-z
-x,-y,-z
x,y,1/2-z
-x,1/2+y,z
x,1/2-y,1/2+z
loop_
_atom_site_type_symbol
_atom_site_label
_atom_site_fract_x
_atom_site_fract_y
_atom_site_fract_z
Si Si1 0.285775 0.398196 0.567465
Si Si2 0.384130 0.102512 0.068764
Si Si3 0.461797 0.594656 0.567616
Si Si4 0.790484 0.096374 0.931594
Si Si5 0.037741 0.095924 0.566442
Si Si6 0.870886 0.597386 0.066849
O O1 0.269650 0.250000 0.500000
O O2 0.283484 0.386905 0.750000
O O3 0.335062 0.433129 0.509935
O O4 0.253332 0.519461 0.505952
O O5 0.384854 0.121634 0.250000
O O6 0.415797 0.975818 0.017155
O O7 0.401153 0.250000 0.000000
O O8 0.464087 0.750000 0.500000
O O9 0.500000 0.500000 0.500000
O O10 0.466887 0.602400 0.750000
O O11 0.788576 0.108977 0.750000
O O12 0.832751 0.008484 0.983851
O O13 0.793465 0.250000 0.000000
O O14 0.029845 0.250000 0.500000
O O15 0.036532 0.097853 0.750000
O O16 0.084475 0.038000 0.507727
O O17 0.000000 0.000000 0.500000
O O18 0.876312 0.608644 0.250000
O O19 0.859066 0.750000 0.000000
#
# Coordination Sequence:
#
# PCOD8233003 Si02
#       6
#     8   8   8   8   8   8
#     4   9  18  35  56  80 107 140 179 220 264 318
#     4   9  19  35  56  80 108 139 177 221 268 319
#     4  11  23  38  56  80 109 144 182 226 274 326
#     4  10  22  36  53  78 110 142 177 220 267 316
#     4  11  22  38  59  84 112 145 182 224 271 323
#     4  10  20  36  56  80 107 140 181 223 265 318
#
# _framework density 19.106570999999999
#
# number of rings (size 3 to 8) (size 9 to 14) (size 15 to 20)
#    0.000    2.000    0.000    4.500    0.000    6.000 
#    0.000    1.667    0.000    0.000    0.000    0.000 
#    0.000    0.000    0.000    0.000    0.000    0.000 
#
# Total GULP energy -595269.233560 kJ/mol
# GULP energy per Si atom -12401.442366 kJ/mol
# Density = 1.906308 g / cm^3
# Si number density = 19.106571 Si / 1000 Ang^3
#
#
#
# Elastic Constant Matrix: (Units=GPa)
#
#
# Indices 1 2 3 4 5 6 
#
# 1 161.1404 110.3737 53.9376 0.0000 0.0000 0.0000
# 2 110.3737 159.5802 47.8919 0.0000 0.0000 0.0000
# 3 53.9376 47.8919 75.0868 0.0000 0.0000 0.0000
# 4 0.0000 0.0000 0.0000 37.0920 0.0000 0.0000
# 5 0.0000 0.0000 0.0000 0.0000 27.7826 0.0000
# 6 0.0000 0.0000 0.0000 0.0000 0.0000 43.3512
#
#
#
# Elastic Compliance Matrix: (Units=1/GPa)
#
#
# Indices 1 2 3 4 5 6 
#
# 1 0.012876 -0.007581 -0.004414 0.000000 0.000000 0.000000
# 2 -0.007581 0.012213 -0.002344 0.000000 0.000000 0.000000
# 3 -0.004414 -0.002344 0.017984 0.000000 0.000000 0.000000
# 4 0.000000 0.000000 0.000000 0.026960 0.000000 0.000000
# 5 0.000000 0.000000 0.000000 0.000000 0.035994 0.000000
# 6 0.000000 0.000000 0.000000 0.000000 0.000000 0.023067
#
#
# Mechanical properties :
#
#
# Convention : Reuss Voigt Hill
#
# Bulk Modulus (GPa) = 69.46957 91.13485 80.30221
# Shear Modulus (GPa) = 30.75592 33.88544 32.32068
#
# Velocity S-wave (km/s) = 4.01646 4.21586 4.11737
# Velocity P-wave (km/s) = 7.61231 8.45575 8.04509
#
# Compressibility (1/GPa) = 0.01439479
#
# Stress axis : x y z
#
# Youngs Moduli (GPa) = 77.66545 81.87802 55.60551
#
# Poissons Ratio (x) = 0.62070 0.24544
# Poissons Ratio (y) = 0.58877 0.13036
# Poissons Ratio (z) = 0.34281 0.19195
#
# Static dielectric constant tensor:
#      x y z
#    x 3.994050 0.000000 0.000000 
#    y 0.000000 2.025290 0.000000 
#    z 0.000000 0.000000 3.508580 
# 
# 
# High freq. dielectric constant tensor:
#      x y z
#    x 1.760580 0.000000 0.000000 
#    y 0.000000 1.740900 0.000000 
#    z 0.000000 0.000000 1.745540 
# 
# From -- ./inp_files/10069.got.cif
#   From: 2010.03.12/outbox.cif.g09.slc.cpg/sg57_6_cif.got.tgz:10069.got - 2010.04.16 15:48:40.
