data_PCOD8233452
_publ_section_title
;
Structure prediction by ZEFSAII (Michael W. Deem and Ramdas Pophale) SiO2 
 PCOD8233452
Probable space group: P B C M
;
_chemical_formula_sum "Si O2"
_cell_formula_units_Z 48
_cell_length_a 29.009218
_cell_length_b 9.187513
_cell_length_c 9.150739
_cell_angle_alpha 90.000000
_cell_angle_beta 90.000000
_cell_angle_gamma 90.000000
_cell_volume 2438.878453
_symmetry_space_group_name_H-M "P B C M"
_symmetry_group_IT_number 57
_symmetry_cell_setting 'orthorhombic'
loop_
_space_group_symop_operation_xyz
x,y,z
-x,-y,1/2+z
x,1/2-y,-z
-x,1/2+y,1/2-z
-x,-y,-z
x,y,1/2-z
-x,1/2+y,z
x,1/2-y,1/2+z
loop_
_atom_site_type_symbol
_atom_site_label
_atom_site_fract_x
_atom_site_fract_y
_atom_site_fract_z
Si Si1 0.190322 0.106629 0.411268
Si Si2 0.459409 0.590337 0.427951
Si Si3 0.106576 0.587035 0.526250
Si Si4 0.058166 0.513871 0.250000
Si Si5 0.269573 0.597358 0.580457
Si Si6 0.371202 0.596915 0.578494
Si Si7 0.031815 0.840114 0.250000
O O1 0.178340 0.250000 0.500000
O O2 0.205217 0.156287 0.250000
O O3 0.145907 0.003493 0.394345
O O4 0.232590 0.017091 0.484314
O O5 0.461701 0.750000 0.500000
O O6 0.500000 0.500000 0.500000
O O7 0.461923 0.593004 0.250000
O O8 0.411711 0.514794 0.486877
O O9 0.126017 0.750000 0.500000
O O10 0.093527 0.499012 0.382329
O O11 0.058460 0.597092 0.611434
O O12 0.031088 0.666107 0.250000
O O13 0.021342 0.384957 0.250000
O O14 0.264301 0.750000 0.500000
O O15 0.259213 0.628552 0.750000
O O16 0.320627 0.524572 0.562050
O O17 0.365934 0.750000 0.500000
O O18 0.385003 0.612901 0.750000
#
# Coordination Sequence:
#
# PCOD8233452 Si02
#       7
#     8   8   8   4   8   8   4
#     4  11  24  40  57  82 114 146 184 229 279 331
#     4  11  21  35  55  82 116 153 196 242 290 342
#     4  10  21  39  60  82 112 147 187 228 270 323
#     4  10  22  34  60  84 114 142 186 214 281 320
#     4   9  19  36  59  85 111 143 184 232 280 336
#     4   9  16  30  53  80 110 144 186 234 283 333
#     4  10  20  38  56  86 112 148 176 232 263 328
#
# _framework density 19.681177999999999
#
# number of rings (size 3 to 8) (size 9 to 14) (size 15 to 20)
#    0.000    2.000    0.833    4.000    1.167    2.667 
#    0.000    0.833    0.000    2.000    0.000    0.000 
#    0.000    0.000    0.000    0.000    0.000    0.000 
#
# Total GULP energy -594787.577198 kJ/mol
# GULP energy per Si atom -12391.407858 kJ/mol
# Density = 1.963638 g / cm^3
# Si number density = 19.681178 Si / 1000 Ang^3
#
#
#
# Elastic Constant Matrix: (Units=GPa)
#
#
# Indices 1 2 3 4 5 6 
#
# 1 107.3576 36.5764 24.5352 0.0000 0.0000 0.0000
# 2 36.5764 62.8374 21.7814 0.0000 0.0000 0.0000
# 3 24.5352 21.7814 115.0118 0.0000 0.0000 0.0000
# 4 0.0000 0.0000 0.0000 24.0013 0.0000 0.0000
# 5 0.0000 0.0000 0.0000 0.0000 13.6125 0.0000
# 6 0.0000 0.0000 0.0000 0.0000 0.0000 31.5828
#
#
#
# Elastic Compliance Matrix: (Units=1/GPa)
#
#
# Indices 1 2 3 4 5 6 
#
# 1 0.011798 -0.006416 -0.001302 0.000000 0.000000 0.000000
# 2 -0.006416 0.020522 -0.002518 0.000000 0.000000 0.000000
# 3 -0.001302 -0.002518 0.009449 0.000000 0.000000 0.000000
# 4 0.000000 0.000000 0.000000 0.041664 0.000000 0.000000
# 5 0.000000 0.000000 0.000000 0.000000 0.073462 0.000000
# 6 0.000000 0.000000 0.000000 0.000000 0.000000 0.031663
#
#
# Mechanical properties :
#
#
# Convention : Reuss Voigt Hill
#
# Bulk Modulus (GPa) = 46.95359 50.11033 48.53196
# Shear Modulus (GPa) = 23.13436 27.32690 25.23063
#
# Velocity S-wave (km/s) = 3.43221 3.73027 3.58434
# Velocity P-wave (km/s) = 6.29410 6.63849 6.46859
#
# Compressibility (1/GPa) = 0.02129763
#
# Stress axis : x y z
#
# Youngs Moduli (GPa) = 84.75900 48.72920 105.82831
#
# Poissons Ratio (x) = 0.31266 0.13776
# Poissons Ratio (y) = 0.54384 0.26644
# Poissons Ratio (z) = 0.11033 0.12269
#
# Static dielectric constant tensor:
#      x y z
#    x 4.111750 0.000000 0.000000 
#    y 0.000000 3.268140 0.000000 
#    z 0.000000 0.000000 3.877630 
# 
# 
# High freq. dielectric constant tensor:
#      x y z
#    x 1.782930 0.000000 0.000000 
#    y 0.000000 1.729200 0.000000 
#    z 0.000000 0.000000 1.780030 
# 
# From -- ./inp_files/10158.got.cif
#   From: 2010.03.12/outbox.cif.g09.slc.cpg/sg57_6_cif.got.tgz:10158.got - 2010.04.16 15:48:40.
