data_PCOD8233656
_publ_section_title
;
Structure prediction by ZEFSAII (Michael W. Deem and Ramdas Pophale) SiO2 
 PCOD8233656
Probable space group: P B C M
;
_chemical_formula_sum "Si O2"
_cell_formula_units_Z 48
_cell_length_a 6.215989
_cell_length_b 14.313311
_cell_length_c 26.625350
_cell_angle_alpha 90.000000
_cell_angle_beta 90.000000
_cell_angle_gamma 90.000000
_cell_volume 2368.894232
_symmetry_space_group_name_H-M "P B C M"
_symmetry_group_IT_number 57
_symmetry_cell_setting 'orthorhombic'
loop_
_space_group_symop_operation_xyz
x,y,z
-x,-y,1/2+z
x,1/2-y,-z
-x,1/2+y,1/2-z
-x,-y,-z
x,y,1/2-z
-x,1/2+y,z
x,1/2-y,1/2+z
loop_
_atom_site_type_symbol
_atom_site_label
_atom_site_fract_x
_atom_site_fract_y
_atom_site_fract_z
Si Si1 0.346879 0.775021 0.445792
Si Si2 0.172588 0.599070 0.394114
Si Si3 0.313375 0.322687 0.140345
Si Si4 0.553164 0.497962 0.155586
Si Si5 0.842759 0.643372 0.194154
Si Si6 0.067260 0.575307 0.911007
O O1 0.447941 0.750000 0.500000
O O2 0.193926 0.691719 0.426585
O O3 0.537462 0.795058 0.406926
O O4 0.187907 0.864536 0.454077
O O5 0.408743 0.564340 0.379434
O O6 0.034926 0.618094 0.343710
O O7 0.061123 0.517705 0.428615
O O8 0.414670 0.407984 0.173556
O O9 0.281384 0.236335 0.177119
O O10 0.085413 0.354809 0.119422
O O11 0.661094 0.561853 0.198454
O O12 0.748451 0.457501 0.125206
O O13 0.939512 0.657494 0.250000
#
# Coordination Sequence:
#
# PCOD8233656 Si02
#       6
#     8   8   8   8   8   8
#     4  11  22  37  63  92 121 165 207 245 305 363
#     4  10  20  40  61  85 125 154 197 257 295 356
#     4  10  20  40  60  89 128 156 201 257 294 352
#     4   9  20  39  63  83 121 160 191 248 303 350
#     4  11  22  37  63  91 117 159 202 242 305 364
#     4   9  20  39  62  86 121 162 194 249 305 348
#
# _framework density 20.262618
#
# number of rings (size 3 to 8) (size 9 to 14) (size 15 to 20)
#    0.000    2.000    3.333    0.000    0.000    2.667 
#    0.000   14.167    0.000    0.000    0.000    0.000 
#    0.000    0.000    0.000    0.000    0.000    0.000 
#
# Total GULP energy -594668.134726 kJ/mol
# GULP energy per Si atom -12388.919473 kJ/mol
# Density = 2.021650 g / cm^3
# Si number density = 20.262618 Si / 1000 Ang^3
#
#
#
# Elastic Constant Matrix: (Units=GPa)
#
#
# Indices 1 2 3 4 5 6 
#
# 1 84.7552 35.3139 14.4844 0.0000 0.0000 0.0000
# 2 35.3139 117.3218 30.4627 0.0000 0.0000 0.0000
# 3 14.4844 30.4627 67.2597 0.0000 0.0000 0.0000
# 4 0.0000 0.0000 0.0000 3.9007 0.0000 0.0000
# 5 0.0000 0.0000 0.0000 0.0000 20.1750 0.0000
# 6 0.0000 0.0000 0.0000 0.0000 0.0000 42.3484
#
#
#
# Elastic Compliance Matrix: (Units=1/GPa)
#
#
# Indices 1 2 3 4 5 6 
#
# 1 0.013578 -0.003771 -0.001216 0.000000 0.000000 0.000000
# 2 -0.003771 0.010707 -0.004037 0.000000 0.000000 0.000000
# 3 -0.001216 -0.004037 0.016958 0.000000 0.000000 0.000000
# 4 0.000000 0.000000 0.000000 0.256363 0.000000 0.000000
# 5 0.000000 0.000000 0.000000 0.000000 0.049566 0.000000
# 6 0.000000 0.000000 0.000000 0.000000 0.000000 0.023614
#
#
# Mechanical properties :
#
#
# Convention : Reuss Voigt Hill
#
# Bulk Modulus (GPa) = 43.11430 47.76207 45.43818
# Shear Modulus (GPa) = 12.60825 25.88986 19.24906
#
# Velocity S-wave (km/s) = 2.49718 3.57839 3.08552
# Velocity P-wave (km/s) = 5.44413 6.37933 5.93019
#
# Compressibility (1/GPa) = 0.02319416
#
# Stress axis : x y z
#
# Youngs Moduli (GPa) = 73.64969 93.39728 58.96888
#
# Poissons Ratio (x) = 0.35222 0.07170
# Poissons Ratio (y) = 0.27775 0.23807
# Poissons Ratio (z) = 0.08956 0.37706
#
# Static dielectric constant tensor:
#      x y z
#    x 3.930810 0.000000 0.000000 
#    y 0.000000 4.541100 0.000000 
#    z 0.000000 0.000000 3.238220 
# 
# 
# High freq. dielectric constant tensor:
#      x y z
#    x 1.805600 0.000000 0.000000 
#    y 0.000000 1.823600 0.000000 
#    z 0.000000 0.000000 1.736700 
# 
# From -- ./inp_files/27941.got.cif
#   From: 2010.03.12/outbox.cif.g09.slc.cpg/sg57_14_cif.got.tgz:27941.got - 2010.04.16 15:48:40.
