data_PCOD8233943
_publ_section_title
;
Structure prediction by ZEFSAII (Michael W. Deem and Ramdas Pophale) SiO2 
 PCOD8233943
Probable space group: P B C M
;
_chemical_formula_sum "Si O2"
_cell_formula_units_Z 64
_cell_length_a 25.627718
_cell_length_b 14.622226
_cell_length_c 8.699374
_cell_angle_alpha 90.000000
_cell_angle_beta 90.000000
_cell_angle_gamma 90.000000
_cell_volume 3259.953691
_symmetry_space_group_name_H-M "P B C M"
_symmetry_group_IT_number 57
_symmetry_cell_setting 'orthorhombic'
loop_
_space_group_symop_operation_xyz
x,y,z
-x,-y,1/2+z
x,1/2-y,-z
-x,1/2+y,1/2-z
-x,-y,-z
x,y,1/2-z
-x,1/2+y,z
x,1/2-y,1/2+z
loop_
_atom_site_type_symbol
_atom_site_label
_atom_site_fract_x
_atom_site_fract_y
_atom_site_fract_z
Si Si1 0.631492 0.649893 0.570752
Si Si2 0.110453 0.343476 0.072029
Si Si3 0.714786 0.005238 0.429842
Si Si4 0.890307 0.160190 0.070928
Si Si5 0.994509 0.097524 0.574358
Si Si6 0.826458 0.002205 0.929080
Si Si7 0.361508 0.851828 0.432071
Si Si8 0.556770 0.506989 0.069357
O O1 0.640824 0.750000 0.500000
O O2 0.620785 0.661852 0.750000
O O3 0.681103 0.585511 0.538282
O O4 0.581986 0.599475 0.496895
O O5 0.127567 0.354481 0.250000
O O6 0.048226 0.348267 0.055724
O O7 0.130369 0.250000 0.000000
O O8 0.138463 0.415405 0.963884
O O9 0.725446 0.019415 0.250000
O O10 0.767436 0.986332 0.521122
O O11 0.688460 0.097874 0.494245
O O12 0.895933 0.169278 0.250000
O O13 0.864246 0.250000 0.000000
O O14 0.850861 0.080924 0.031259
O O15 0.948538 0.151594 0.006759
O O16 0.978736 0.083841 0.750000
O O17 0.000000 0.000000 0.500000
O O18 0.829472 0.026510 0.750000
O O19 0.368810 0.750000 0.500000
O O20 0.353574 0.844421 0.250000
O O21 0.411474 0.914751 0.474587
O O22 0.553354 0.518568 0.250000
O O23 0.500000 0.500000 0.000000
#
# Coordination Sequence:
#
# PCOD8233943 Si02
#       8
#     8   8   8   8   8   8   8   8
#     4  10  21  38  62  89 119 158 202 248 299 354
#     4  11  24  41  62  89 120 156 196 241 292 352
#     4  10  22  41  63  87 118 154 196 247 300 355
#     4  12  25  42  63  89 121 155 197 244 295 357
#     4  11  22  38  63  90 120 157 196 238 291 352
#     4  12  25  42  64  89 120 155 196 246 301 358
#     4  10  21  38  61  89 119 157 203 248 298 353
#     4  10  21  37  58  87 126 165 205 251 297 351
#
# _framework density 19.632180999999999
#
# number of rings (size 3 to 8) (size 9 to 14) (size 15 to 20)
#    0.000    1.250    1.250    4.875    0.000    7.000 
#    0.000    5.000    0.000    0.000    0.000    0.000 
#    0.000    0.000    0.000    0.000    0.000    0.000 
#
# Total GULP energy -793749.174572 kJ/mol
# GULP energy per Si atom -12402.330853 kJ/mol
# Density = 1.958750 g / cm^3
# Si number density = 19.632181 Si / 1000 Ang^3
#
#
#
# Elastic Constant Matrix: (Units=GPa)
#
#
# Indices 1 2 3 4 5 6 
#
# 1 89.4726 25.4211 47.2183 0.0000 0.0000 0.0000
# 2 25.4211 139.1446 46.7941 0.0000 0.0000 0.0000
# 3 47.2183 46.7941 130.8721 0.0000 0.0000 0.0000
# 4 0.0000 0.0000 0.0000 38.8638 0.0000 0.0000
# 5 0.0000 0.0000 0.0000 0.0000 39.8171 0.0000
# 6 0.0000 0.0000 0.0000 0.0000 0.0000 27.7894
#
#
#
# Elastic Compliance Matrix: (Units=1/GPa)
#
#
# Indices 1 2 3 4 5 6 
#
# 1 0.013920 -0.000971 -0.004675 0.000000 0.000000 0.000000
# 2 -0.000971 0.008237 -0.002595 0.000000 0.000000 0.000000
# 3 -0.004675 -0.002595 0.010256 0.000000 0.000000 0.000000
# 4 0.000000 0.000000 0.000000 0.025731 0.000000 0.000000
# 5 0.000000 0.000000 0.000000 0.000000 0.025115 0.000000
# 6 0.000000 0.000000 0.000000 0.000000 0.000000 0.035985
#
#
# Mechanical properties :
#
#
# Convention : Reuss Voigt Hill
#
# Bulk Modulus (GPa) = 62.77236 66.48403 64.62819
# Shear Modulus (GPa) = 35.45235 37.29776 36.37506
#
# Velocity S-wave (km/s) = 4.25411 4.36343 4.30912
# Velocity P-wave (km/s) = 7.49491 7.70223 7.59928
#
# Compressibility (1/GPa) = 0.01593058
#
# Stress axis : x y z
#
# Youngs Moduli (GPa) = 71.84089 121.40681 97.50789
#
# Poissons Ratio (x) = 0.11787 0.45585
# Poissons Ratio (y) = 0.06975 0.25302
# Poissons Ratio (z) = 0.33586 0.31503
#
# Static dielectric constant tensor:
#      x y z
#    x 3.565290 0.000000 0.000000 
#    y 0.000000 3.542100 0.000000 
#    z 0.000000 0.000000 3.944710 
# 
# 
# High freq. dielectric constant tensor:
#      x y z
#    x 1.762540 0.000000 0.000000 
#    y 0.000000 1.776470 0.000000 
#    z 0.000000 0.000000 1.785720 
# 
# From -- ./inp_files/9421.got.cif
#   From: 2010.03.12/outbox.cif.g09.slc.cpg/sg57_5_cif.got.tgz:9421.got - 2010.04.16 15:48:40.
