data_PCOD8233938
_publ_section_title
;
Structure prediction by ZEFSAII (Michael W. Deem and Ramdas Pophale) SiO2 
 PCOD8233938
Probable space group: P B C M
;
_chemical_formula_sum "Si O2"
_cell_formula_units_Z 40
_cell_length_a 7.661880
_cell_length_b 29.262384
_cell_length_c 8.679300
_cell_angle_alpha 90.000000
_cell_angle_beta 90.000000
_cell_angle_gamma 90.000000
_cell_volume 1945.941369
_symmetry_space_group_name_H-M "P B C M"
_symmetry_group_IT_number 57
_symmetry_cell_setting 'orthorhombic'
loop_
_space_group_symop_operation_xyz
x,y,z
-x,-y,1/2+z
x,1/2-y,-z
-x,1/2+y,1/2-z
-x,-y,-z
x,y,1/2-z
-x,1/2+y,z
x,1/2-y,1/2+z
loop_
_atom_site_type_symbol
_atom_site_label
_atom_site_fract_x
_atom_site_fract_y
_atom_site_fract_z
Si Si1 0.449614 0.952174 0.072500
Si Si2 0.753600 0.700667 0.930689
Si Si3 0.052007 0.856860 0.924200
Si Si4 0.906661 0.042731 0.426326
Si Si5 0.542359 0.140470 0.068480
O O1 0.500293 0.952558 0.250000
O O2 0.246677 0.946708 0.043739
O O3 0.536724 0.907490 0.995493
O O4 0.500000 0.000000 0.000000
O O5 0.725839 0.703983 0.750000
O O6 0.787996 0.750000 0.000000
O O7 0.576096 0.680860 0.002992
O O8 0.925456 0.670822 0.964339
O O9 0.032929 0.838038 0.750000
O O10 0.986033 0.909874 0.927121
O O11 0.254523 0.851620 0.977999
O O12 0.846921 0.031621 0.250000
O O13 0.000000 0.000000 0.500000
O O14 0.524082 0.138446 0.250000
#
# Coordination Sequence:
#
# PCOD8233938 Si02
#       5
#     8   8   8   8   8
#     4  11  22  37  58  87 123 164 209 255 309 372
#     4  12  26  43  67  96 126 165 212 263 319 380
#     4   9  21  42  65  90 125 166 207 259 316 373
#     4  10  21  37  58  87 123 164 208 254 310 372
#     4  10  22  43  67  92 127 165 209 263 319 379
#
# _framework density 20.555603999999999
#
# number of rings (size 3 to 8) (size 9 to 14) (size 15 to 20)
#    0.000    1.600    0.000    6.000    2.800    5.600 
#    0.000    0.000    0.000    0.000    0.000    0.000 
#    0.000    0.000    0.000    0.000    0.000    0.000 
#
# Total GULP energy -495773.319147 kJ/mol
# GULP energy per Si atom -12394.332979 kJ/mol
# Density = 2.050882 g / cm^3
# Si number density = 20.555604 Si / 1000 Ang^3
#
#
#
# Elastic Constant Matrix: (Units=GPa)
#
#
# Indices 1 2 3 4 5 6 
#
# 1 83.6721 47.9653 42.6899 0.0000 0.0000 0.0000
# 2 47.9653 127.7871 50.7495 0.0000 0.0000 0.0000
# 3 42.6899 50.7495 132.4788 0.0000 0.0000 0.0000
# 4 0.0000 0.0000 0.0000 39.9116 0.0000 0.0000
# 5 0.0000 0.0000 0.0000 0.0000 35.3443 0.0000
# 6 0.0000 0.0000 0.0000 0.0000 0.0000 36.3452
#
#
#
# Elastic Compliance Matrix: (Units=1/GPa)
#
#
# Indices 1 2 3 4 5 6 
#
# 1 0.016477 -0.004807 -0.003468 0.000000 0.000000 0.000000
# 2 -0.004807 0.010632 -0.002524 0.000000 0.000000 0.000000
# 3 -0.003468 -0.002524 0.009633 0.000000 0.000000 0.000000
# 4 0.000000 0.000000 0.000000 0.025055 0.000000 0.000000
# 5 0.000000 0.000000 0.000000 0.000000 0.028293 0.000000
# 6 0.000000 0.000000 0.000000 0.000000 0.000000 0.027514
#
#
# Mechanical properties :
#
#
# Convention : Reuss Voigt Hill
#
# Bulk Modulus (GPa) = 66.03498 69.63860 67.83679
# Shear Modulus (GPa) = 34.66211 35.82244 35.24227
#
# Velocity S-wave (km/s) = 4.11087 4.17911 4.14513
# Velocity P-wave (km/s) = 7.39778 7.56560 7.48216
#
# Compressibility (1/GPa) = 0.01514349
#
# Stress axis : x y z
#
# Youngs Moduli (GPa) = 60.69248 94.05311 103.81327
#
# Poissons Ratio (x) = 0.45214 0.36000
# Poissons Ratio (y) = 0.29177 0.26201
# Poissons Ratio (z) = 0.21047 0.23738
#
# Static dielectric constant tensor:
#      x y z
#    x 3.809180 0.000000 0.000000 
#    y 0.000000 133.779840 0.000000 
#    z 0.000000 0.000000 1.901360 
# 
# 
# High freq. dielectric constant tensor:
#      x y z
#    x 1.793930 0.000000 0.000000 
#    y 0.000000 1.814390 0.000000 
#    z 0.000000 0.000000 1.812030 
# 
# From -- ./inp_files/1506.got.cif
#   From: 2010.03.12/outbox.cif.g09.slc.cpg/sg57_1_cif.got.tgz:1506.got - 2010.04.16 15:48:40.
