data_PCOD8233591
_publ_section_title
;
Structure prediction by ZEFSAII (Michael W. Deem and Ramdas Pophale) SiO2 
 PCOD8233591
Probable space group: P B C M
;
_chemical_formula_sum "Si O2"
_cell_formula_units_Z 40
_cell_length_a 22.366167
_cell_length_b 8.656471
_cell_length_c 10.045239
_cell_angle_alpha 90.000000
_cell_angle_beta 90.000000
_cell_angle_gamma 90.000000
_cell_volume 1944.879577
_symmetry_space_group_name_H-M "P B C M"
_symmetry_group_IT_number 57
_symmetry_cell_setting 'orthorhombic'
loop_
_space_group_symop_operation_xyz
x,y,z
-x,-y,1/2+z
x,1/2-y,-z
-x,1/2+y,1/2-z
-x,-y,-z
x,y,1/2-z
-x,1/2+y,z
x,1/2-y,1/2+z
loop_
_atom_site_type_symbol
_atom_site_label
_atom_site_fract_x
_atom_site_fract_y
_atom_site_fract_z
Si Si1 0.921465 0.022413 0.250000
Si Si2 0.624654 0.567575 0.015781
Si Si3 0.754261 0.612527 0.099641
Si Si4 0.550811 0.422958 0.250000
Si Si5 0.866851 0.071554 0.520343
Si Si6 0.422602 0.938956 0.750000
Si Si7 0.952421 0.120230 0.750000
O O1 0.881596 0.987930 0.380480
O O2 0.944482 0.196745 0.250000
O O3 0.977277 0.908037 0.250000
O O4 0.691343 0.531578 0.066389
O O5 0.577285 0.500625 0.118855
O O6 0.613833 0.750000 0.000000
O O7 0.617359 0.479135 0.877287
O O8 0.751956 0.676991 0.250000
O O9 0.806774 0.489851 0.086363
O O10 0.767963 0.750000 0.000000
O O11 0.560893 0.240442 0.250000
O O12 0.480394 0.452173 0.250000
O O13 0.854571 0.250000 0.500000
O O14 0.922648 0.044804 0.619305
#
# Coordination Sequence:
#
# PCOD8233591 Si02
#       7
#     4   8   8   4   8   4   4
#     4  10  22  35  60  91 121 166 208 256 319 382
#     4  11  24  44  68  95 133 174 215 269 328 383
#     4  11  25  44  68  95 128 166 213 264 319 380
#     4  12  24  45  66 101 135 172 222 266 325 386
#     4  10  22  40  63  90 127 167 208 262 320 377
#     4  12  26  41  70  99 133 174 218 270 321 390
#     4  10  20  39  58  87 127 162 210 260 317 374
#
# _framework density 20.566825999999999
#
# number of rings (size 3 to 8) (size 9 to 14) (size 15 to 20)
#    0.000    1.200    2.000    3.600    5.600    3.200 
#    0.000    0.000    0.000    0.000    0.000    0.000 
#    0.000    0.000    0.000    0.000    0.000    0.000 
#
# Total GULP energy -496223.894665 kJ/mol
# GULP energy per Si atom -12405.597367 kJ/mol
# Density = 2.052001 g / cm^3
# Si number density = 20.566826 Si / 1000 Ang^3
#
#
#
# Elastic Constant Matrix: (Units=GPa)
#
#
# Indices 1 2 3 4 5 6 
#
# 1 97.4689 31.6777 38.6860 0.0000 0.0000 0.0000
# 2 31.6777 75.3133 35.9451 0.0000 0.0000 0.0000
# 3 38.6860 35.9451 169.4164 0.0000 0.0000 0.0000
# 4 0.0000 0.0000 0.0000 24.2713 0.0000 0.0000
# 5 0.0000 0.0000 0.0000 0.0000 9.5635 0.0000
# 6 0.0000 0.0000 0.0000 0.0000 0.0000 26.0730
#
#
#
# Elastic Compliance Matrix: (Units=1/GPa)
#
#
# Indices 1 2 3 4 5 6 
#
# 1 0.012423 -0.004307 -0.001923 0.000000 0.000000 0.000000
# 2 -0.004307 0.016267 -0.002468 0.000000 0.000000 0.000000
# 3 -0.001923 -0.002468 0.006865 0.000000 0.000000 0.000000
# 4 0.000000 0.000000 0.000000 0.041201 0.000000 0.000000
# 5 0.000000 0.000000 0.000000 0.000000 0.104564 0.000000
# 6 0.000000 0.000000 0.000000 0.000000 0.000000 0.038354
#
#
# Mechanical properties :
#
#
# Convention : Reuss Voigt Hill
#
# Bulk Modulus (GPa) = 55.06827 61.64624 58.35725
# Shear Modulus (GPa) = 20.56568 27.70757 24.13662
#
# Velocity S-wave (km/s) = 3.16562 3.67440 3.42946
# Velocity P-wave (km/s) = 6.33995 6.93111 6.64211
#
# Compressibility (1/GPa) = 0.01815928
#
# Stress axis : x y z
#
# Youngs Moduli (GPa) = 80.49715 61.47228 145.66024
#
# Poissons Ratio (x) = 0.26479 0.28008
# Poissons Ratio (y) = 0.34674 0.35947
# Poissons Ratio (z) = 0.15478 0.15171
#
# Static dielectric constant tensor:
#      x y z
#    x 3.760790 0.000000 0.000000 
#    y 0.000000 3.559810 0.000000 
#    z 0.000000 0.000000 4.106290 
# 
# 
# High freq. dielectric constant tensor:
#      x y z
#    x 1.812170 0.000000 0.000000 
#    y 0.000000 1.794440 0.000000 
#    z 0.000000 0.000000 1.829510 
# 
# From -- ./inp_files/6314.got.cif
#   From: 2010.03.12/outbox.cif.g09.slc.cpg/sg57_4_cif.got.tgz:6314.got - 2010.04.16 15:48:40.
