data_PCOD8233806
_publ_section_title
;
Structure prediction by ZEFSAII (Michael W. Deem and Ramdas Pophale) SiO2 
 PCOD8233806
Probable space group: P B C M
;
_chemical_formula_sum "Si O2"
_cell_formula_units_Z 48
_cell_length_a 14.852242
_cell_length_b 9.662827
_cell_length_c 17.338339
_cell_angle_alpha 90.000000
_cell_angle_beta 90.000000
_cell_angle_gamma 90.000000
_cell_volume 2488.305567
_symmetry_space_group_name_H-M "P B C M"
_symmetry_group_IT_number 57
_symmetry_cell_setting 'orthorhombic'
loop_
_space_group_symop_operation_xyz
x,y,z
-x,-y,1/2+z
x,1/2-y,-z
-x,1/2+y,1/2-z
-x,-y,-z
x,y,1/2-z
-x,1/2+y,z
x,1/2-y,1/2+z
loop_
_atom_site_type_symbol
_atom_site_label
_atom_site_fract_x
_atom_site_fract_y
_atom_site_fract_z
Si Si1 0.225010 0.345501 0.429228
Si Si2 0.443412 0.592615 0.338883
Si Si3 0.599402 0.783763 0.159846
Si Si4 0.052753 0.069435 0.840342
Si Si5 0.272266 0.845991 0.931420
Si Si6 0.925236 0.281445 0.589152
O O1 0.194053 0.250000 0.500000
O O2 0.308241 0.272060 0.386775
O O3 0.143287 0.355190 0.369088
O O4 0.251731 0.497800 0.460172
O O5 0.442543 0.629767 0.250000
O O6 0.449549 0.430083 0.355580
O O7 0.532052 0.666739 0.373787
O O8 0.350578 0.656034 0.369013
O O9 0.621855 0.765051 0.250000
O O10 0.062336 0.037158 0.750000
O O11 0.967245 0.166089 0.855656
O O12 0.034205 0.929459 0.887596
O O13 0.181861 0.780406 0.895235
O O14 0.307072 0.750000 0.000000
O O15 0.947943 0.250000 0.500000
#
# Coordination Sequence:
#
# PCOD8233806 Si02
#       6
#     8   8   8   8   8   8
#     4  10  21  36  55  77 106 143 178 218 269 323
#     4   9  18  33  54  76 103 137 174 217 266 316
#     4   9  18  34  53  76 103 136 176 218 264 316
#     4  11  22  37  58  84 111 143 183 228 272 323
#     4   9  20  36  54  76 104 138 176 216 261 318
#     4  10  21  38  58  81 111 147 182 223 273 326
#
# _framework density 19.290236
#
# number of rings (size 3 to 8) (size 9 to 14) (size 15 to 20)
#    0.000    2.333    0.000    2.000    0.000    9.333 
#    0.000    3.333    0.000    5.000    0.000    0.000 
#    0.000    0.000    0.000    0.000    0.000    0.000 
#
# Total GULP energy -595259.235776 kJ/mol
# GULP energy per Si atom -12401.234079 kJ/mol
# Density = 1.924633 g / cm^3
# Si number density = 19.290236 Si / 1000 Ang^3
#
#
#
# Elastic Constant Matrix: (Units=GPa)
#
#
# Indices 1 2 3 4 5 6 
#
# 1 68.7607 36.5074 35.2780 0.0000 0.0000 0.0000
# 2 36.5074 70.0831 43.1199 0.0000 0.0000 0.0000
# 3 35.2780 43.1199 82.7894 0.0000 0.0000 0.0000
# 4 0.0000 0.0000 0.0000 28.7420 0.0000 0.0000
# 5 0.0000 0.0000 0.0000 0.0000 23.9421 0.0000
# 6 0.0000 0.0000 0.0000 0.0000 0.0000 36.4970
#
#
#
# Elastic Compliance Matrix: (Units=1/GPa)
#
#
# Indices 1 2 3 4 5 6 
#
# 1 0.021357 -0.008132 -0.004865 0.000000 0.000000 0.000000
# 2 -0.008132 0.024094 -0.009084 0.000000 0.000000 0.000000
# 3 -0.004865 -0.009084 0.018883 0.000000 0.000000 0.000000
# 4 0.000000 0.000000 0.000000 0.034792 0.000000 0.000000
# 5 0.000000 0.000000 0.000000 0.000000 0.041768 0.000000
# 6 0.000000 0.000000 0.000000 0.000000 0.000000 0.027399
#
#
# Mechanical properties :
#
#
# Convention : Reuss Voigt Hill
#
# Bulk Modulus (GPa) = 49.57327 50.16043 49.86685
# Shear Modulus (GPa) = 22.81247 24.95141 23.88194
#
# Velocity S-wave (km/s) = 3.44261 3.60039 3.52239
# Velocity P-wave (km/s) = 6.44644 6.58356 6.51536
#
# Compressibility (1/GPa) = 0.02017216
#
# Stress axis : x y z
#
# Youngs Moduli (GPa) = 46.82379 41.50464 52.95707
#
# Poissons Ratio (x) = 0.33750 0.25765
# Poissons Ratio (y) = 0.38075 0.48106
# Poissons Ratio (z) = 0.22781 0.37702
#
# Static dielectric constant tensor:
#      x y z
#    x 3.599030 0.000000 0.000000 
#    y 0.000000 3.610510 0.000000 
#    z 0.000000 0.000000 3.402560 
# 
# 
# High freq. dielectric constant tensor:
#      x y z
#    x 1.757780 0.000000 0.000000 
#    y 0.000000 1.753670 0.000000 
#    z 0.000000 0.000000 1.738460 
# 
# From -- ./inp_files/22454.got.cif
#   From: 2010.03.12/outbox.cif.g09.slc.cpg/sg57_12_cif.got.tgz:22454.got - 2010.04.16 15:48:40.
