data_PCOD8233458
_publ_section_title
;
Structure prediction by ZEFSAII (Michael W. Deem and Ramdas Pophale) SiO2 
 PCOD8233458
Probable space group: P B C M
;
_chemical_formula_sum "Si O2"
_cell_formula_units_Z 64
_cell_length_a 23.664721
_cell_length_b 15.174661
_cell_length_c 9.010110
_cell_angle_alpha 90.000000
_cell_angle_beta 90.000000
_cell_angle_gamma 90.000000
_cell_volume 3235.567612
_symmetry_space_group_name_H-M "P B C M"
_symmetry_group_IT_number 57
_symmetry_cell_setting 'orthorhombic'
loop_
_space_group_symop_operation_xyz
x,y,z
-x,-y,1/2+z
x,1/2-y,-z
-x,1/2+y,1/2-z
-x,-y,-z
x,y,1/2-z
-x,1/2+y,z
x,1/2-y,1/2+z
loop_
_atom_site_type_symbol
_atom_site_label
_atom_site_fract_x
_atom_site_fract_y
_atom_site_fract_z
Si Si1 0.224200 0.837252 0.919768
Si Si2 0.121338 0.391240 0.924189
Si Si3 0.579488 0.491123 0.075556
Si Si4 0.497637 0.651146 0.073326
Si Si5 0.698048 0.003363 0.076462
Si Si6 0.001676 0.662761 0.421915
Si Si7 0.886095 0.065523 0.080148
Si Si8 0.770054 0.667799 0.577667
O O1 0.237326 0.821685 0.750000
O O2 0.263044 0.916533 0.977473
O O3 0.157558 0.854707 0.946721
O O4 0.244031 0.750000 0.000000
O O5 0.127269 0.376378 0.750000
O O6 0.058943 0.366809 0.985181
O O7 0.132267 0.492255 0.964007
O O8 0.167219 0.333911 0.009033
O O9 0.574645 0.472267 0.250000
O O10 0.550345 0.585700 0.036592
O O11 0.555059 0.404702 0.991214
O O12 0.643505 0.500383 0.025527
O O13 0.490323 0.664646 0.250000
O O14 0.503801 0.750000 0.000000
O O15 0.681459 0.008705 0.250000
O O16 0.734349 0.917619 0.041301
O O17 0.023156 0.750000 0.500000
O O18 0.996599 0.683110 0.250000
O O19 0.049354 0.590334 0.453889
O O20 0.879207 0.031159 0.250000
O O21 0.738326 0.750000 0.500000
O O22 0.776219 0.685297 0.750000
#
# Coordination Sequence:
#
# PCOD8233458 Si02
#       8
#     8   8   8   8   8   8   8   8
#     4  10  21  38  59  84 112 151 197 241 299 357
#     4  11  22  36  56  84 111 145 193 240 298 364
#     4  10  22  39  62  93 127 164 206 252 300 348
#     4  10  21  39  64  94 129 167 206 247 296 350
#     4  10  22  41  61  84 121 163 202 247 302 354
#     4  10  22  36  53  79 110 143 184 238 297 362
#     4  10  20  38  58  78 110 147 187 239 300 361
#     4  11  23  41  62  85 116 157 200 249 303 358
#
# _framework density 19.780145999999998
#
# number of rings (size 3 to 8) (size 9 to 14) (size 15 to 20)
#    0.000    1.750    1.250    2.625    0.000    7.000 
#    0.000    3.750    0.000    0.000    0.000    0.000 
#    0.000    0.000    0.000    0.000    0.000    0.000 
#
# Total GULP energy -793436.556175 kJ/mol
# GULP energy per Si atom -12397.446190 kJ/mol
# Density = 1.973513 g / cm^3
# Si number density = 19.780146 Si / 1000 Ang^3
#
#
#
# Elastic Constant Matrix: (Units=GPa)
#
#
# Indices 1 2 3 4 5 6 
#
# 1 113.5887 44.3406 50.3678 0.0000 0.0000 0.0000
# 2 44.3406 149.5808 61.1629 0.0000 0.0000 0.0000
# 3 50.3678 61.1629 73.1310 0.0000 0.0000 0.0000
# 4 0.0000 0.0000 0.0000 40.0882 0.0000 0.0000
# 5 0.0000 0.0000 0.0000 0.0000 43.1253 0.0000
# 6 0.0000 0.0000 0.0000 0.0000 0.0000 -40.9656
#
#
#
# Elastic Compliance Matrix: (Units=1/GPa)
#
#
# Indices 1 2 3 4 5 6 
#
# 1 0.012683 -0.000285 -0.008496 0.000000 0.000000 0.000000
# 2 -0.000285 0.010166 -0.008306 0.000000 0.000000 0.000000
# 3 -0.008496 -0.008306 0.026472 0.000000 0.000000 0.000000
# 4 0.000000 0.000000 0.000000 0.024945 0.000000 0.000000
# 5 0.000000 0.000000 0.000000 0.000000 0.023188 0.000000
# 6 0.000000 0.000000 0.000000 0.000000 0.000000 -0.024411
#
#
# Mechanical properties :
#
#
# Convention : Reuss Voigt Hill
#
# Bulk Modulus (GPa) = 66.02385 72.00478 69.01431
# Shear Modulus (GPa) = 44.53671 20.47820 32.50746
#
# Velocity S-wave (km/s) = 4.75024 3.22108 4.05833
# Velocity P-wave (km/s) = 7.97105 7.09334 7.54497
#
# Compressibility (1/GPa) = 0.01514604
#
# Stress axis : x y z
#
# Youngs Moduli (GPa) = 78.84878 98.36518 37.77548
#
# Poissons Ratio (x) = 0.02808 0.32094
# Poissons Ratio (y) = 0.02251 0.31376
# Poissons Ratio (z) = 0.66991 0.81701
#
# Static dielectric constant tensor:
#      x y z
#    x 3.648500 0.000000 0.000000 
#    y 0.000000 3.799010 0.000000 
#    z 0.000000 0.000000 3.529940 
# 
# 
# High freq. dielectric constant tensor:
#      x y z
#    x 1.769980 0.000000 0.000000 
#    y 0.000000 1.779860 0.000000 
#    z 0.000000 0.000000 1.770820 
# 
# From -- ./inp_files/9281.got.cif
#   From: 2010.03.12/outbox.cif.g09.slc.cpg/sg57_5_cif.got.tgz:9281.got - 2010.04.16 15:48:40.
