data_PCOD8233852
_publ_section_title
;
Structure prediction by ZEFSAII (Michael W. Deem and Ramdas Pophale) SiO2 
 PCOD8233852
Probable space group: P B C M
;
_chemical_formula_sum "Si O2"
_cell_formula_units_Z 48
_cell_length_a 8.504225
_cell_length_b 13.975927
_cell_length_c 18.563635
_cell_angle_alpha 90.000000
_cell_angle_beta 90.000000
_cell_angle_gamma 90.000000
_cell_volume 2206.370216
_symmetry_space_group_name_H-M "P B C M"
_symmetry_group_IT_number 57
_symmetry_cell_setting 'orthorhombic'
loop_
_space_group_symop_operation_xyz
x,y,z
-x,-y,1/2+z
x,1/2-y,-z
-x,1/2+y,1/2-z
-x,-y,-z
x,y,1/2-z
-x,1/2+y,z
x,1/2-y,1/2+z
loop_
_atom_site_type_symbol
_atom_site_label
_atom_site_fract_x
_atom_site_fract_y
_atom_site_fract_z
Si Si1 0.463713 0.750000 0.500000
Si Si2 0.294972 0.423198 0.621519
Si Si3 0.265580 0.292505 0.394084
Si Si4 0.835620 0.539985 0.525063
Si Si5 0.210947 0.401598 0.250000
Si Si6 0.095866 0.009320 0.250000
Si Si7 0.797359 0.384879 0.750000
Si Si8 0.348588 0.608969 0.110092
O O1 0.567843 0.702408 0.563427
O O2 0.352465 0.672453 0.461990
O O3 0.216065 0.317386 0.618451
O O4 0.280827 0.468385 0.542538
O O5 0.205482 0.488719 0.679456
O O6 0.479137 0.419528 0.638747
O O7 0.144165 0.350949 0.445577
O O8 0.276501 0.342965 0.317357
O O9 0.760374 0.482146 0.591811
O O10 0.000000 0.500000 0.500000
O O11 0.283217 0.508332 0.250000
O O12 0.017318 0.414763 0.250000
O O13 0.986744 0.105277 0.250000
O O14 0.735620 0.334470 0.676679
#
# Coordination Sequence:
#
# PCOD8233852 Si02
#       8
#     4   8   8   8   4   4   4   8
#     4  10  24  40  64 100 138 168 230 274 340 400
#     4  11  22  38  67  91 127 172 224 270 325 399
#     4  11  20  41  62  95 125 175 216 269 330 396
#     4  12  22  39  63  96 130 171 216 268 333 396
#     4  10  21  36  65  86 131 171 217 269 335 397
#     4  10  22  44  60  98 129 170 226 273 328 401
#     4  10  21  38  65  92 128 167 215 268 335 386
#     4  11  22  42  66  98 130 174 219 277 331 398
#
# _framework density 21.755188
#
# number of rings (size 3 to 8) (size 9 to 14) (size 15 to 20)
#    0.500    0.667    5.000    3.500    0.000    2.000 
#    6.000    0.000    0.000    0.000    0.000    0.000 
#    0.000    0.000    0.000    0.000    0.000    0.000 
#
# Total GULP energy -594885.043647 kJ/mol
# GULP energy per Si atom -12393.438409 kJ/mol
# Density = 2.170567 g / cm^3
# Si number density = 21.755188 Si / 1000 Ang^3
#
#
#
# Elastic Constant Matrix: (Units=GPa)
#
#
# Indices 1 2 3 4 5 6 
#
# 1 86.5394 14.6771 23.6996 0.0000 0.0000 0.0000
# 2 14.6771 61.5420 13.0286 0.0000 0.0000 0.0000
# 3 23.6996 13.0286 140.9747 0.0000 0.0000 0.0000
# 4 0.0000 0.0000 0.0000 32.6690 0.0000 0.0000
# 5 0.0000 0.0000 0.0000 0.0000 37.9264 0.0000
# 6 0.0000 0.0000 0.0000 0.0000 0.0000 19.4610
#
#
#
# Elastic Compliance Matrix: (Units=1/GPa)
#
#
# Indices 1 2 3 4 5 6 
#
# 1 0.012505 -0.002588 -0.001863 0.000000 0.000000 0.000000
# 2 -0.002588 0.017109 -0.001146 0.000000 0.000000 0.000000
# 3 -0.001863 -0.001146 0.007513 0.000000 0.000000 0.000000
# 4 0.000000 0.000000 0.000000 0.030610 0.000000 0.000000
# 5 0.000000 0.000000 0.000000 0.000000 0.026367 0.000000
# 6 0.000000 0.000000 0.000000 0.000000 0.000000 0.051385
#
#
# Mechanical properties :
#
#
# Convention : Reuss Voigt Hill
#
# Bulk Modulus (GPa) = 38.56219 43.54074 41.05146
# Shear Modulus (GPa) = 30.24334 33.85466 32.04900
#
# Velocity S-wave (km/s) = 3.73254 3.94911 3.84235
# Velocity P-wave (km/s) = 6.02825 6.39150 6.21253
#
# Compressibility (1/GPa) = 0.02593214
#
# Stress axis : x y z
#
# Youngs Moduli (GPa) = 79.97113 58.44922 133.10992
#
# Poissons Ratio (x) = 0.15125 0.24798
# Poissons Ratio (y) = 0.20695 0.15256
# Poissons Ratio (z) = 0.14899 0.06699
#
# Static dielectric constant tensor:
#      x y z
#    x 3.641490 0.000000 0.000000 
#    y 0.000000 3.946580 0.000000 
#    z 0.000000 0.000000 4.266850 
# 
# 
# High freq. dielectric constant tensor:
#      x y z
#    x 1.830780 0.000000 0.000000 
#    y 0.000000 1.826100 0.000000 
#    z 0.000000 0.000000 1.884250 
# 
# From -- ./inp_files/21017.got.cif
#   From: 2010.03.12/outbox.cif.g09.slc.cpg/sg57_11_cif.got.tgz:21017.got - 2010.04.16 15:48:40.
