data_PCOD8233136
_publ_section_title
;
Structure prediction by ZEFSAII (Michael W. Deem and Ramdas Pophale) SiO2 
 PCOD8233136
Probable space group: P B C M
;
_chemical_formula_sum "Si O2"
_cell_formula_units_Z 40
_cell_length_a 7.724766
_cell_length_b 18.903329
_cell_length_c 12.931341
_cell_angle_alpha 90.000000
_cell_angle_beta 90.000000
_cell_angle_gamma 90.000000
_cell_volume 1888.283463
_symmetry_space_group_name_H-M "P B C M"
_symmetry_group_IT_number 57
_symmetry_cell_setting 'orthorhombic'
loop_
_space_group_symop_operation_xyz
x,y,z
-x,-y,1/2+z
x,1/2-y,-z
-x,1/2+y,1/2-z
-x,-y,-z
x,y,1/2-z
-x,1/2+y,z
x,1/2-y,1/2+z
loop_
_atom_site_type_symbol
_atom_site_label
_atom_site_fract_x
_atom_site_fract_y
_atom_site_fract_z
Si Si1 0.847066 0.307881 0.868921
Si Si2 0.333456 0.920011 0.506081
Si Si3 0.464272 0.798190 0.129525
Si Si4 0.232294 0.199334 0.130168
Si Si5 0.343592 0.453090 0.627939
O O1 0.835269 0.332412 0.750000
O O2 0.704722 0.249089 0.894112
O O3 0.036539 0.275117 0.892592
O O4 0.820958 0.376758 0.940138
O O5 0.450609 0.870594 0.432469
O O6 0.453498 0.951542 0.597359
O O7 0.253673 0.982584 0.435310
O O8 0.479616 0.816657 0.250000
O O9 0.632130 0.756409 0.085107
O O10 0.277594 0.195274 0.250000
O O11 0.257466 0.119793 0.088525
O O12 0.321884 0.466157 0.750000
#
# Coordination Sequence:
#
# PCOD8233136 Si02
#       5
#     8   8   8   8   8
#     4  10  20  36  59  85 114 150 192 236 287 342
#     4  11  21  35  58  89 114 150 196 236 288 341
#     4  10  20  38  59  84 118 150 189 241 290 339
#     4   9  19  37  61  82 113 155 189 232 288 341
#     4  10  21  38  58  82 116 154 192 236 288 343
#
# _framework density 21.183259
#
# number of rings (size 3 to 8) (size 9 to 14) (size 15 to 20)
#    0.000    2.000    2.000    1.800    0.000    0.800 
#    7.200    0.000    0.000    0.000    0.000    0.000 
#    0.000    0.000    0.000    0.000    0.000    0.000 
#
# Total GULP energy -495927.422021 kJ/mol
# GULP energy per Si atom -12398.185551 kJ/mol
# Density = 2.113505 g / cm^3
# Si number density = 21.183259 Si / 1000 Ang^3
#
#
#
# Elastic Constant Matrix: (Units=GPa)
#
#
# Indices 1 2 3 4 5 6 
#
# 1 117.1957 21.4445 5.1890 0.0000 0.0000 0.0000
# 2 21.4445 100.0435 26.2330 0.0000 0.0000 0.0000
# 3 5.1890 26.2330 83.1531 0.0000 0.0000 0.0000
# 4 0.0000 0.0000 0.0000 36.7457 0.0000 0.0000
# 5 0.0000 0.0000 0.0000 0.0000 -12.5966 0.0000
# 6 0.0000 0.0000 0.0000 0.0000 0.0000 -159.2335
#
#
#
# Elastic Compliance Matrix: (Units=1/GPa)
#
#
# Indices 1 2 3 4 5 6 
#
# 1 0.008881 -0.001917 0.000051 0.000000 0.000000 0.000000
# 2 -0.001917 0.011311 -0.003449 0.000000 0.000000 0.000000
# 3 0.000051 -0.003449 0.013111 0.000000 0.000000 0.000000
# 4 0.000000 0.000000 0.000000 0.027214 0.000000 0.000000
# 5 0.000000 0.000000 0.000000 0.000000 -0.079386 0.000000
# 6 0.000000 0.000000 0.000000 0.000000 0.000000 -0.006280
#
#
# Mechanical properties :
#
#
# Convention : Reuss Voigt Hill
#
# Bulk Modulus (GPa) = 44.10588 45.12503 44.61546
# Shear Modulus (GPa) = -718.24310 -10.51517 -364.37913
#
# Velocity S-wave (km/s) = -18.43360 -2.23040 -13.12959
# Velocity P-wave (km/s) = 20.78936 3.83609 14.44787
#
# Compressibility (1/GPa) = 0.02267272
#
# Stress axis : x y z
#
# Youngs Moduli (GPa) = 112.59658 88.41052 76.27272
#
# Poissons Ratio (x) = 0.16948 -0.00386
# Poissons Ratio (y) = 0.21584 0.26304
# Poissons Ratio (z) = -0.00569 0.30490
#
# Static dielectric constant tensor:
#      x y z
#    x 3.606680 0.000000 0.000000 
#    y 0.000000 3.844630 0.000000 
#    z 0.000000 0.000000 3.985340 
# 
# 
# High freq. dielectric constant tensor:
#      x y z
#    x 1.806600 0.000000 0.000000 
#    y 0.000000 1.820750 0.000000 
#    z 0.000000 0.000000 1.853350 
# 
# From -- ./inp_files/16113.got.cif
#   From: 2010.03.12/outbox.cif.g09.slc.cpg/sg57_9_cif.got.tgz:16113.got - 2010.04.16 15:48:40.
