data_PCOD8233229
_publ_section_title
;
Structure prediction by ZEFSAII (Michael W. Deem and Ramdas Pophale) SiO2 
 PCOD8233229
Probable space group: P B C M
;
_chemical_formula_sum "Si O2"
_cell_formula_units_Z 60
_cell_length_a 12.809763
_cell_length_b 16.997604
_cell_length_c 13.650242
_cell_angle_alpha 90.000000
_cell_angle_beta 90.000000
_cell_angle_gamma 90.000000
_cell_volume 2972.139248
_symmetry_space_group_name_H-M "P B C M"
_symmetry_group_IT_number 57
_symmetry_cell_setting 'orthorhombic'
loop_
_space_group_symop_operation_xyz
x,y,z
-x,-y,1/2+z
x,1/2-y,-z
-x,1/2+y,1/2-z
-x,-y,-z
x,y,1/2-z
-x,1/2+y,z
x,1/2-y,1/2+z
loop_
_atom_site_type_symbol
_atom_site_label
_atom_site_fract_x
_atom_site_fract_y
_atom_site_fract_z
Si Si1 0.879317 0.674611 0.139033
Si Si2 0.050981 0.703951 0.638525
Si Si3 0.390933 0.039681 0.638411
Si Si4 0.618452 0.517445 0.362168
Si Si5 0.778828 0.250000 0.000000
Si Si6 0.668832 0.838903 0.519464
Si Si7 0.956055 0.419174 0.528911
Si Si8 0.724175 0.079976 0.480455
O O1 0.838655 0.659423 0.250000
O O2 0.786081 0.668887 0.061152
O O3 0.935337 0.759061 0.131395
O O4 0.971426 0.614066 0.114618
O O5 0.079941 0.683022 0.750000
O O6 0.143629 0.759255 0.594368
O O7 0.047627 0.627787 0.572418
O O8 0.358770 0.051283 0.750000
O O9 0.337077 0.112942 0.582477
O O10 0.515566 0.036046 0.624262
O O11 0.353475 0.954274 0.600977
O O12 0.652189 0.524007 0.250000
O O13 0.603137 0.607012 0.403749
O O14 0.709989 0.472047 0.420524
O O15 0.704794 0.172783 0.996313
O O16 0.624397 0.750000 0.500000
O O17 0.838370 0.430398 0.565690
O O18 0.000000 0.500000 0.500000
#
# Coordination Sequence:
#
# PCOD8233229 Si02
#       8
#     8   8   8   8   4   8   8   8
#     4  11  22  38  59  83 120 165 201 245 295 349
#     4  10  20  37  57  78 120 166 198 244 299 345
#     4  10  23  44  63  85 125 163 195 249 320 375
#     4  10  22  44  64  87 124 162 198 250 319 376
#     4  10  20  38  60  90 122 154 212 256 298 356
#     4  11  22  38  65  92 119 154 208 256 300 361
#     4  11  21  35  55  86 122 155 204 248 291 355
#     4  10  20  36  62  89 120 161 203 252 303 358
#
# _framework density 20.187477999999999
#
# number of rings (size 3 to 8) (size 9 to 14) (size 15 to 20)
#    0.000    1.600    2.667    4.400    0.000    4.800 
#    4.800    3.333    0.000    0.000    0.000    0.000 
#    0.000    0.000    0.000    0.000    0.000    0.000 
#
# Total GULP energy -743497.867196 kJ/mol
# GULP energy per Si atom -12391.631120 kJ/mol
# Density = 2.014153 g / cm^3
# Si number density = 20.187478 Si / 1000 Ang^3
#
#
#
# Elastic Constant Matrix: (Units=GPa)
#
#
# Indices 1 2 3 4 5 6 
#
# 1 59.4666 27.3040 27.0359 0.0000 0.0000 0.0000
# 2 27.3040 119.8014 34.5306 0.0000 0.0000 0.0000
# 3 27.0359 34.5306 137.6061 0.0000 0.0000 0.0000
# 4 0.0000 0.0000 0.0000 20.4719 0.0000 0.0000
# 5 0.0000 0.0000 0.0000 0.0000 29.8721 0.0000
# 6 0.0000 0.0000 0.0000 0.0000 0.0000 28.5725
#
#
#
# Elastic Compliance Matrix: (Units=1/GPa)
#
#
# Indices 1 2 3 4 5 6 
#
# 1 0.019855 -0.003666 -0.002981 0.000000 0.000000 0.000000
# 2 -0.003666 0.009675 -0.001708 0.000000 0.000000 0.000000
# 3 -0.002981 -0.001708 0.008281 0.000000 0.000000 0.000000
# 4 0.000000 0.000000 0.000000 0.048847 0.000000 0.000000
# 5 0.000000 0.000000 0.000000 0.000000 0.033476 0.000000
# 6 0.000000 0.000000 0.000000 0.000000 0.000000 0.034999
#
#
# Mechanical properties :
#
#
# Convention : Reuss Voigt Hill
#
# Bulk Modulus (GPa) = 47.38900 54.95723 51.17312
# Shear Modulus (GPa) = 27.95238 30.98354 29.46796
#
# Velocity S-wave (km/s) = 3.72511 3.92189 3.82477
# Velocity P-wave (km/s) = 6.48285 6.91309 6.70142
#
# Compressibility (1/GPa) = 0.02110194
#
# Stress axis : x y z
#
# Youngs Moduli (GPa) = 50.36613 103.36130 120.75415
#
# Poissons Ratio (x) = 0.37891 0.35997
# Poissons Ratio (y) = 0.18463 0.20619
# Poissons Ratio (z) = 0.15014 0.17649
#
# Static dielectric constant tensor:
#      x y z
#    x 3.636960 0.000000 0.000000 
#    y 0.000000 3.828580 0.000000 
#    z 0.000000 0.000000 3.626680 
# 
# 
# High freq. dielectric constant tensor:
#      x y z
#    x 1.777380 0.000000 0.000000 
#    y 0.000000 1.791650 0.000000 
#    z 0.000000 0.000000 1.788450 
# 
# From -- ./inp_files/17921.got.cif
#   From: 2010.03.12/outbox.cif.g09.slc.cpg/sg57_9_cif.got.tgz:17921.got - 2010.04.16 15:48:40.
