data_PCOD8233560
_publ_section_title
;
Structure prediction by ZEFSAII (Michael W. Deem and Ramdas Pophale) SiO2 
 PCOD8233560
Probable space group: P B C M
;
_chemical_formula_sum "Si O2"
_cell_formula_units_Z 36
_cell_length_a 21.223999
_cell_length_b 5.016860
_cell_length_c 17.771728
_cell_angle_alpha 90.000000
_cell_angle_beta 90.000000
_cell_angle_gamma 90.000000
_cell_volume 1892.295062
_symmetry_space_group_name_H-M "P B C M"
_symmetry_group_IT_number 57
_symmetry_cell_setting 'orthorhombic'
loop_
_space_group_symop_operation_xyz
x,y,z
-x,-y,1/2+z
x,1/2-y,-z
-x,1/2+y,1/2-z
-x,-y,-z
x,y,1/2-z
-x,1/2+y,z
x,1/2-y,1/2+z
loop_
_atom_site_type_symbol
_atom_site_label
_atom_site_fract_x
_atom_site_fract_y
_atom_site_fract_z
Si Si1 0.788686 0.325376 0.084277
Si Si2 0.162352 0.179489 0.666844
Si Si3 0.957170 0.856320 0.250000
Si Si4 0.458970 0.490126 0.663652
Si Si5 0.348588 0.507419 0.550092
O O1 0.830450 0.573697 0.110629
O O2 0.715399 0.400548 0.090234
O O3 0.799972 0.074443 0.137432
O O4 0.808902 0.250000 0.000000
O O5 0.189728 0.253613 0.750000
O O6 0.087511 0.114019 0.675835
O O7 0.986798 0.564161 0.250000
O O8 0.437300 0.463599 0.750000
O O9 0.514013 0.280667 0.645237
O O10 0.398763 0.429088 0.613027
O O11 0.375449 0.750000 0.500000
O O12 0.333673 0.250000 0.500000
#
# Coordination Sequence:
#
# PCOD8233560 Si02
#       5
#     8   8   4   8   8
#     4  11  21  39  58  86 126 155 191 245 306 349
#     4  10  22  36  62  91 112 158 201 236 284 354
#     4  10  20  38  64  90 120 154 198 246 280 336
#     4  10  22  39  57  81 113 150 192 244 301 344
#     4  11  23  38  58  84 113 154 195 239 295 355
#
# _framework density 19.024515999999998
#
# number of rings (size 3 to 8) (size 9 to 14) (size 15 to 20)
#    0.667    0.889    0.000    6.667    0.000    4.444 
#    0.000    2.222    0.000   13.333    0.000    0.000 
#    0.000    0.000    0.000    0.000    0.000    0.000 
#
# Total GULP energy -446434.998795 kJ/mol
# GULP energy per Si atom -12400.972189 kJ/mol
# Density = 1.898122 g / cm^3
# Si number density = 19.024516 Si / 1000 Ang^3
#
#
#
# Elastic Constant Matrix: (Units=GPa)
#
#
# Indices 1 2 3 4 5 6 
#
# 1 94.4442 34.6240 70.9032 0.0000 0.0000 0.0000
# 2 34.6240 116.3480 37.9975 0.0000 0.0000 0.0000
# 3 70.9032 37.9975 83.2365 0.0000 0.0000 0.0000
# 4 0.0000 0.0000 0.0000 46.2551 0.0000 0.0000
# 5 0.0000 0.0000 0.0000 0.0000 33.4278 0.0000
# 6 0.0000 0.0000 0.0000 0.0000 0.0000 24.9952
#
#
#
# Elastic Compliance Matrix: (Units=1/GPa)
#
#
# Indices 1 2 3 4 5 6 
#
# 1 0.029416 -0.000670 -0.024751 0.000000 0.000000 0.000000
# 2 -0.000670 0.010116 -0.004047 0.000000 0.000000 0.000000
# 3 -0.024751 -0.004047 0.034945 0.000000 0.000000 0.000000
# 4 0.000000 0.000000 0.000000 0.021619 0.000000 0.000000
# 5 0.000000 0.000000 0.000000 0.000000 0.029915 0.000000
# 6 0.000000 0.000000 0.000000 0.000000 0.000000 0.040008
#
#
# Mechanical properties :
#
#
# Convention : Reuss Voigt Hill
#
# Bulk Modulus (GPa) = 64.35011 64.56424 64.45718
# Shear Modulus (GPa) = 21.72628 30.96921 26.34774
#
# Velocity S-wave (km/s) = 3.38304 4.03905 3.72551
# Velocity P-wave (km/s) = 7.01129 7.46746 7.24297
#
# Compressibility (1/GPa) = 0.01553999
#
# Stress axis : x y z
#
# Youngs Moduli (GPa) = 33.99533 98.85258 28.61634
#
# Poissons Ratio (x) = 0.06628 0.70829
# Poissons Ratio (y) = 0.02279 0.11581
# Poissons Ratio (z) = 0.84142 0.40004
#
# Static dielectric constant tensor:
#      x y z
#    x 3.275990 0.000000 0.000000 
#    y 0.000000 3.792030 0.000000 
#    z 0.000000 0.000000 3.486980 
# 
# 
# High freq. dielectric constant tensor:
#      x y z
#    x 1.728480 0.000000 0.000000 
#    y 0.000000 1.760890 0.000000 
#    z 0.000000 0.000000 1.735660 
# 
# From -- ./inp_files/22963.got.cif
#   From: 2010.03.12/outbox.cif.g09.slc.cpg/sg57_12_cif.got.tgz:22963.got - 2010.04.16 15:48:40.
