data_PCOD8233921
_publ_section_title
;
Structure prediction by ZEFSAII (Michael W. Deem and Ramdas Pophale) SiO2 
 PCOD8233921
Probable space group: P B C M
;
_chemical_formula_sum "Si O2"
_cell_formula_units_Z 64
_cell_length_a 19.549662
_cell_length_b 19.967724
_cell_length_c 8.641554
_cell_angle_alpha 90.000000
_cell_angle_beta 90.000000
_cell_angle_gamma 90.000000
_cell_volume 3373.336507
_symmetry_space_group_name_H-M "P B C M"
_symmetry_group_IT_number 57
_symmetry_cell_setting 'orthorhombic'
loop_
_space_group_symop_operation_xyz
x,y,z
-x,-y,1/2+z
x,1/2-y,-z
-x,1/2+y,1/2-z
-x,-y,-z
x,y,1/2-z
-x,1/2+y,z
x,1/2-y,1/2+z
loop_
_atom_site_type_symbol
_atom_site_label
_atom_site_fract_x
_atom_site_fract_y
_atom_site_fract_z
Si Si1 0.320779 0.573286 0.430278
Si Si2 0.420773 0.320491 0.071440
Si Si3 0.073754 0.179732 0.569490
Si Si4 0.825989 0.577167 0.426907
Si Si5 0.071709 0.820693 0.568711
Si Si6 0.581285 0.320544 0.071339
Si Si7 0.175749 0.922403 0.070796
Si Si8 0.670478 0.566792 0.429395
O O1 0.304264 0.579228 0.250000
O O2 0.381998 0.621974 0.475346
O O3 0.253573 0.593557 0.525877
O O4 0.345157 0.498492 0.469316
O O5 0.398398 0.322989 0.250000
O O6 0.500967 0.332311 0.051124
O O7 0.398231 0.250000 0.000000
O O8 0.383169 0.377112 0.974677
O O9 0.099758 0.250000 0.500000
O O10 0.063549 0.189362 0.750000
O O11 0.128980 0.122410 0.538920
O O12 0.001561 0.157752 0.497962
O O13 0.844581 0.594077 0.250000
O O14 0.841427 0.499698 0.463604
O O15 0.746898 0.593391 0.461670
O O16 0.096732 0.750000 0.500000
O O17 0.064615 0.812248 0.750000
O O18 0.125881 0.877848 0.531257
O O19 0.603301 0.322855 0.250000
O O20 0.603909 0.250000 0.000000
O O21 0.165408 0.904808 0.250000
O O22 0.662450 0.547120 0.250000
#
# Coordination Sequence:
#
# PCOD8233921 Si02
#       8
#     8   8   8   8   8   8   8   8
#     4  11  22  37  58  84 113 146 185 228 277 330
#     4  10  21  37  58  83 112 146 185 230 278 331
#     4  11  22  37  58  82 111 146 184 227 274 325
#     4   9  20  38  58  81 110 144 182 226 273 323
#     4  11  22  38  59  83 113 146 184 228 274 326
#     4  10  21  38  58  82 112 146 185 229 278 329
#     4  10  21  39  60  83 113 146 183 227 275 327
#     4  10  21  38  59  82 112 148 186 230 277 327
#
# _framework density 18.972314999999998
#
# number of rings (size 3 to 8) (size 9 to 14) (size 15 to 20)
#    0.000    1.750    0.000    6.375    0.000    6.500 
#    0.000    2.500    0.000    0.000    0.000    0.000 
#    0.000    0.000    0.000    0.000    0.000    0.000 
#
# Total GULP energy -793958.188376 kJ/mol
# GULP energy per Si atom -12405.596693 kJ/mol
# Density = 1.892913 g / cm^3
# Si number density = 18.972315 Si / 1000 Ang^3
#
#
#
# Elastic Constant Matrix: (Units=GPa)
#
#
# Indices 1 2 3 4 5 6 
#
# 1 65.2798 56.4693 32.0537 0.0000 0.0000 0.0000
# 2 56.4693 96.3420 40.7078 0.0000 0.0000 0.0000
# 3 32.0537 40.7078 116.2992 0.0000 0.0000 0.0000
# 4 0.0000 0.0000 0.0000 36.5184 0.0000 0.0000
# 5 0.0000 0.0000 0.0000 0.0000 32.4587 0.0000
# 6 0.0000 0.0000 0.0000 0.0000 0.0000 31.7379
#
#
#
# Elastic Compliance Matrix: (Units=1/GPa)
#
#
# Indices 1 2 3 4 5 6 
#
# 1 0.031742 -0.017496 -0.002624 0.000000 0.000000 0.000000
# 2 -0.017496 0.021825 -0.002817 0.000000 0.000000 0.000000
# 3 -0.002624 -0.002817 0.010308 0.000000 0.000000 0.000000
# 4 0.000000 0.000000 0.000000 0.027383 0.000000 0.000000
# 5 0.000000 0.000000 0.000000 0.000000 0.030808 0.000000
# 6 0.000000 0.000000 0.000000 0.000000 0.000000 0.031508
#
#
# Mechanical properties :
#
#
# Convention : Reuss Voigt Hill
#
# Bulk Modulus (GPa) = 55.55689 59.59804 57.57746
# Shear Modulus (GPa) = 24.33671 30.05568 27.19620
#
# Velocity S-wave (km/s) = 3.58543 3.98450 3.79022
# Velocity P-wave (km/s) = 6.81815 7.25601 7.04048
#
# Compressibility (1/GPa) = 0.01799957
#
# Stress axis : x y z
#
# Youngs Moduli (GPa) = 31.50379 45.81857 97.01267
#
# Poissons Ratio (x) = 0.80165 0.25460
# Poissons Ratio (y) = 0.55120 0.27330
# Poissons Ratio (z) = 0.08268 0.12908
#
# Static dielectric constant tensor:
#      x y z
#    x 3.390200 0.000000 0.000000 
#    y 0.000000 3.482630 0.000000 
#    z 0.000000 0.000000 3.610930 
# 
# 
# High freq. dielectric constant tensor:
#      x y z
#    x 1.735450 0.000000 0.000000 
#    y 0.000000 1.741410 0.000000 
#    z 0.000000 0.000000 1.754260 
# 
# From -- ./inp_files/7161.got.cif
#   From: 2010.03.12/outbox.cif.g09.slc.cpg/sg57_4_cif.got.tgz:7161.got - 2010.04.16 15:48:40.
