data_PCOD8233098
_publ_section_title
;
Structure prediction by ZEFSAII (Michael W. Deem and Ramdas Pophale) SiO2 
 PCOD8233098
Probable space group: P B C M
;
_chemical_formula_sum "Si O2"
_cell_formula_units_Z 48
_cell_length_a 9.626648
_cell_length_b 30.599403
_cell_length_c 8.683363
_cell_angle_alpha 90.000000
_cell_angle_beta 90.000000
_cell_angle_gamma 90.000000
_cell_volume 2557.855475
_symmetry_space_group_name_H-M "P B C M"
_symmetry_group_IT_number 57
_symmetry_cell_setting 'orthorhombic'
loop_
_space_group_symop_operation_xyz
x,y,z
-x,-y,1/2+z
x,1/2-y,-z
-x,1/2+y,1/2-z
-x,-y,-z
x,y,1/2-z
-x,1/2+y,z
x,1/2-y,1/2+z
loop_
_atom_site_type_symbol
_atom_site_label
_atom_site_fract_x
_atom_site_fract_y
_atom_site_fract_z
Si Si1 0.082570 0.134212 0.569779
Si Si2 0.695603 0.702823 0.571370
Si Si3 0.196064 0.888567 0.570143
Si Si4 0.709612 0.932347 0.568460
Si Si5 0.512228 0.128551 0.932397
Si Si6 0.148642 0.511193 0.068824
O O1 0.098562 0.123244 0.750000
O O2 0.157322 0.180123 0.530278
O O3 0.153592 0.095315 0.474276
O O4 0.923003 0.137869 0.520477
O O5 0.684536 0.750000 0.500000
O O6 0.679589 0.709612 0.750000
O O7 0.571790 0.671487 0.512937
O O8 0.176112 0.880306 0.750000
O O9 0.340972 0.868879 0.515634
O O10 0.188680 0.939440 0.527939
O O11 0.686140 0.931762 0.750000
O O12 0.572461 0.914080 0.485919
O O13 0.733336 0.981586 0.510196
O O14 0.531643 0.126522 0.750000
O O15 0.145487 0.502516 0.250000
O O16 0.000000 0.500000 0.000000
#
# Coordination Sequence:
#
# PCOD8233098 Si02
#       6
#     8   8   8   8   8   8
#     4  10  20  36  58  83 114 148 185 229 281 334
#     4   9  20  38  62  89 111 141 183 227 279 343
#     4  11  23  37  56  85 115 149 193 237 284 335
#     4  11  21  35  56  82 111 150 197 238 279 330
#     4  10  22  40  59  82 115 153 189 231 289 344
#     4  11  22  35  54  81 114 151 197 242 286 333
#
# _framework density 18.765720999999999
#
# number of rings (size 3 to 8) (size 9 to 14) (size 15 to 20)
#    0.000    1.667    1.667    4.500    0.000    6.667 
#    0.000    0.833    0.000    0.000    0.000    0.000 
#    0.000    0.000    0.000    0.000    0.000    0.000 
#
# Total GULP energy -595377.814720 kJ/mol
# GULP energy per Si atom -12403.704473 kJ/mol
# Density = 1.872301 g / cm^3
# Si number density = 18.765721 Si / 1000 Ang^3
#
#
#
# Elastic Constant Matrix: (Units=GPa)
#
#
# Indices 1 2 3 4 5 6 
#
# 1 118.9464 49.9034 16.0778 0.0000 0.0000 0.0000
# 2 49.9034 107.6769 43.9560 0.0000 0.0000 0.0000
# 3 16.0778 43.9560 58.8002 0.0000 0.0000 0.0000
# 4 0.0000 0.0000 0.0000 31.9451 0.0000 0.0000
# 5 0.0000 0.0000 0.0000 0.0000 35.9024 0.0000
# 6 0.0000 0.0000 0.0000 0.0000 0.0000 23.8328
#
#
#
# Elastic Compliance Matrix: (Units=1/GPa)
#
#
# Indices 1 2 3 4 5 6 
#
# 1 0.010486 -0.005310 0.001102 0.000000 0.000000 0.000000
# 2 -0.005310 0.016054 -0.010550 0.000000 0.000000 0.000000
# 3 0.001102 -0.010550 0.024592 0.000000 0.000000 0.000000
# 4 0.000000 0.000000 0.000000 0.031304 0.000000 0.000000
# 5 0.000000 0.000000 0.000000 0.000000 0.027853 0.000000
# 6 0.000000 0.000000 0.000000 0.000000 0.000000 0.041959
#
#
# Mechanical properties :
#
#
# Convention : Reuss Voigt Hill
#
# Bulk Modulus (GPa) = 46.25864 56.14424 51.20144
# Shear Modulus (GPa) = 26.45949 30.03515 28.24732
#
# Velocity S-wave (km/s) = 3.75906 4.00501 3.88398
# Velocity P-wave (km/s) = 6.59885 7.16730 6.88894
#
# Compressibility (1/GPa) = 0.02161758
#
# Stress axis : x y z
#
# Youngs Moduli (GPa) = 95.36721 62.28837 40.66402
#
# Poissons Ratio (x) = 0.33072 -0.04481
# Poissons Ratio (y) = 0.50636 0.42899
# Poissons Ratio (z) = -0.10510 0.65712
#
# Static dielectric constant tensor:
#      x y z
#    x 3.463070 0.000000 0.000000 
#    y 0.000000 2.129370 0.000000 
#    z 0.000000 0.000000 3.500010 
# 
# 
# High freq. dielectric constant tensor:
#      x y z
#    x 1.730580 0.000000 0.000000 
#    y 0.000000 1.715030 0.000000 
#    z 0.000000 0.000000 1.741290 
# 
# From -- ./inp_files/1984.got.cif
#   From: 2010.03.12/outbox.cif.g09.slc.cpg/sg57_1_cif.got.tgz:1984.got - 2010.04.16 15:48:40.
