data_PCOD8233755
_publ_section_title
;
Structure prediction by ZEFSAII (Michael W. Deem and Ramdas Pophale) SiO2 
 PCOD8233755
Probable space group: P B C M
;
_chemical_formula_sum "Si O2"
_cell_formula_units_Z 64
_cell_length_a 10.107886
_cell_length_b 38.605480
_cell_length_c 9.252680
_cell_angle_alpha 90.000000
_cell_angle_beta 90.000000
_cell_angle_gamma 90.000000
_cell_volume 3610.578854
_symmetry_space_group_name_H-M "P B C M"
_symmetry_group_IT_number 57
_symmetry_cell_setting 'orthorhombic'
loop_
_space_group_symop_operation_xyz
x,y,z
-x,-y,1/2+z
x,1/2-y,-z
-x,1/2+y,1/2-z
-x,-y,-z
x,y,1/2-z
-x,1/2+y,z
x,1/2-y,1/2+z
loop_
_atom_site_type_symbol
_atom_site_label
_atom_site_fract_x
_atom_site_fract_y
_atom_site_fract_z
Si Si1 0.668402 0.284592 0.418806
Si Si2 0.255748 0.639784 0.922435
Si Si3 0.486885 0.398307 0.078290
Si Si4 0.992776 0.603813 0.578108
Si Si5 0.093685 0.027535 0.578264
Si Si6 0.250005 0.146407 0.922082
Si Si7 0.597007 0.973926 0.079255
Si Si8 0.361560 0.216969 0.582522
O O1 0.720897 0.250000 0.500000
O O2 0.693225 0.278375 0.250000
O O3 0.742131 0.319772 0.473182
O O4 0.514264 0.290895 0.453351
O O5 0.258748 0.639906 0.750000
O O6 0.378378 0.617782 0.984955
O O7 0.130116 0.618717 0.983294
O O8 0.488401 0.395878 0.250000
O O9 0.368703 0.375909 0.012199
O O10 0.461713 0.437315 0.028617
O O11 0.993475 0.603821 0.750000
O O12 0.958042 0.565136 0.525020
O O13 0.885306 0.630797 0.517018
O O14 0.078033 0.023579 0.750000
O O15 0.248098 0.022434 0.533394
O O16 0.000000 0.000000 0.500000
O O17 0.254322 0.143946 0.750000
O O18 0.269324 0.185767 0.972392
O O19 0.584741 0.979186 0.250000
O O20 0.500000 0.000000 0.000000
O O21 0.307124 0.250000 0.500000
O O22 0.342910 0.223997 0.750000
#
# Coordination Sequence:
#
# PCOD8233755 Si02
#       8
#     8   8   8   8   8   8   8   8
#     4   9  16  27  44  67  94 122 153 192 236 283
#     4   9  16  26  44  71  94 119 163 207 239 279
#     4   9  15  27  47  69  94 124 161 205 243 278
#     4   9  17  29  47  71  96 123 161 205 243 283
#     4  10  21  36  53  76 105 136 169 207 254 309
#     4   9  14  26  46  66  90 121 157 199 241 276
#     4  10  21  35  53  78 106 134 167 210 257 304
#     4   9  16  26  44  68  93 121 152 190 236 283
#
# _framework density 17.72569
#
# number of rings (size 3 to 8) (size 9 to 14) (size 15 to 20)
#    0.000    2.750    2.500    0.000    1.750    0.500 
#    0.000    0.625    0.000    3.000    0.000    0.000 
#    0.000    0.000    0.000    0.000    0.000    0.000 
#
# Total GULP energy -793116.857052 kJ/mol
# GULP energy per Si atom -12392.450891 kJ/mol
# Density = 1.768535 g / cm^3
# Si number density = 17.725690 Si / 1000 Ang^3
#
#
#
# Elastic Constant Matrix: (Units=GPa)
#
#
# Indices 1 2 3 4 5 6 
#
# 1 141.6255 93.4017 21.8698 0.0000 0.0000 0.0000
# 2 93.4017 178.6915 33.6969 0.0000 0.0000 0.0000
# 3 21.8698 33.6969 17.9845 0.0000 0.0000 0.0000
# 4 0.0000 0.0000 0.0000 27.2185 0.0000 0.0000
# 5 0.0000 0.0000 0.0000 0.0000 13.5020 0.0000
# 6 0.0000 0.0000 0.0000 0.0000 0.0000 33.7101
#
#
#
# Elastic Compliance Matrix: (Units=1/GPa)
#
#
# Indices 1 2 3 4 5 6 
#
# 1 0.010959 -0.004972 -0.004011 0.000000 0.000000 0.000000
# 2 -0.004972 0.010910 -0.014395 0.000000 0.000000 0.000000
# 3 -0.004011 -0.014395 0.087452 0.000000 0.000000 0.000000
# 4 0.000000 0.000000 0.000000 0.036740 0.000000 0.000000
# 5 0.000000 0.000000 0.000000 0.000000 0.074063 0.000000
# 6 0.000000 0.000000 0.000000 0.000000 0.000000 0.029665
#
#
# Mechanical properties :
#
#
# Convention : Reuss Voigt Hill
#
# Bulk Modulus (GPa) = 15.98333 70.69313 43.33823
# Shear Modulus (GPa) = 15.75305 27.50832 21.63069
#
# Velocity S-wave (km/s) = 2.98436 3.94368 3.49707
# Velocity P-wave (km/s) = 4.57295 7.79135 6.38815
#
# Compressibility (1/GPa) = 0.06256518
#
# Stress axis : x y z
#
# Youngs Moduli (GPa) = 91.24672 91.66234 11.43487
#
# Poissons Ratio (x) = 0.45575 0.04587
# Poissons Ratio (y) = 0.45368 0.16460
# Poissons Ratio (z) = 0.36599 1.31946
#
# Static dielectric constant tensor:
#      x y z
#    x 3.468760 0.000000 0.000000 
#    y 0.000000 3.578280 0.000000 
#    z 0.000000 0.000000 2.726870 
# 
# 
# High freq. dielectric constant tensor:
#      x y z
#    x 1.684170 0.000000 0.000000 
#    y 0.000000 1.704410 0.000000 
#    z 0.000000 0.000000 1.622150 
# 
# From -- ./inp_files/12315.got.cif
#   From: 2010.03.12/outbox.cif.g09.slc.cpg/sg57_7_cif.got.tgz:12315.got - 2010.04.16 15:48:40.
