data_PCOD8233109
_publ_section_title
;
Structure prediction by ZEFSAII (Michael W. Deem and Ramdas Pophale) SiO2 
 PCOD8233109
Probable space group: P B C M
;
_chemical_formula_sum "Si O2"
_cell_formula_units_Z 40
_cell_length_a 24.066027
_cell_length_b 8.832102
_cell_length_c 9.681387
_cell_angle_alpha 90.000000
_cell_angle_beta 90.000000
_cell_angle_gamma 90.000000
_cell_volume 2057.813710
_symmetry_space_group_name_H-M "P B C M"
_symmetry_group_IT_number 57
_symmetry_cell_setting 'orthorhombic'
loop_
_space_group_symop_operation_xyz
x,y,z
-x,-y,1/2+z
x,1/2-y,-z
-x,1/2+y,1/2-z
-x,-y,-z
x,y,1/2-z
-x,1/2+y,z
x,1/2-y,1/2+z
loop_
_atom_site_type_symbol
_atom_site_label
_atom_site_fract_x
_atom_site_fract_y
_atom_site_fract_z
Si Si1 0.835016 0.605136 0.593321
Si Si2 0.572524 0.565707 0.250000
Si Si3 0.383397 0.930766 0.981668
Si Si4 0.958129 0.598854 0.587907
Si Si5 0.736704 0.105546 0.406843
Si Si6 0.545221 0.922632 0.250000
O O1 0.832940 0.750000 0.500000
O O2 0.822085 0.654622 0.750000
O O3 0.896078 0.526849 0.585255
O O4 0.787225 0.495371 0.537666
O O5 0.611326 0.523600 0.377916
O O6 0.555868 0.742413 0.250000
O O7 0.520256 0.452639 0.250000
O O8 0.323192 0.974972 0.919471
O O9 0.430830 0.995154 0.883617
O O10 0.390954 0.750000 0.000000
O O11 0.955847 0.750000 0.500000
O O12 0.976791 0.621488 0.750000
O O13 0.000000 0.500000 0.500000
O O14 0.735191 0.250000 0.500000
O O15 0.747950 0.153956 0.250000
#
# Coordination Sequence:
#
# PCOD8233109 Si02
#       6
#     8   4   8   8   8   4
#     4   9  20  38  58  86 119 156 197 247 296 353
#     4  12  26  40  66  90 122 158 199 244 301 358
#     4  11  23  42  64  88 122 159 198 246 301 356
#     4  10  20  36  58  84 120 159 203 250 305 359
#     4  10  22  40  62  87 118 153 196 241 292 350
#     4  12  24  44  62  94 122 156 199 246 295 362
#
# _framework density 19.438106000000001
#
# number of rings (size 3 to 8) (size 9 to 14) (size 15 to 20)
#    0.000    1.600    1.000    3.600    4.200    4.000 
#    0.000    2.000    0.000    0.000    0.000    0.000 
#    0.000    0.000    0.000    0.000    0.000    0.000 
#
# Total GULP energy -495828.871491 kJ/mol
# GULP energy per Si atom -12395.721787 kJ/mol
# Density = 1.939386 g / cm^3
# Si number density = 19.438106 Si / 1000 Ang^3
#
#
#
# Elastic Constant Matrix: (Units=GPa)
#
#
# Indices 1 2 3 4 5 6 
#
# 1 103.6721 31.8357 25.8866 0.0000 0.0000 0.0000
# 2 31.8357 79.0250 19.9670 0.0000 0.0000 0.0000
# 3 25.8866 19.9670 104.1507 0.0000 0.0000 0.0000
# 4 0.0000 0.0000 0.0000 36.0795 0.0000 0.0000
# 5 0.0000 0.0000 0.0000 0.0000 36.7959 0.0000
# 6 0.0000 0.0000 0.0000 0.0000 0.0000 32.1269
#
#
#
# Elastic Compliance Matrix: (Units=1/GPa)
#
#
# Indices 1 2 3 4 5 6 
#
# 1 0.011411 -0.004078 -0.002054 0.000000 0.000000 0.000000
# 2 -0.004078 0.014756 -0.001815 0.000000 0.000000 0.000000
# 3 -0.002054 -0.001815 0.010460 0.000000 0.000000 0.000000
# 4 0.000000 0.000000 0.000000 0.027717 0.000000 0.000000
# 5 0.000000 0.000000 0.000000 0.000000 0.027177 0.000000
# 6 0.000000 0.000000 0.000000 0.000000 0.000000 0.031127
#
#
# Mechanical properties :
#
#
# Convention : Reuss Voigt Hill
#
# Bulk Modulus (GPa) = 48.23556 49.13627 48.68591
# Shear Modulus (GPa) = 34.37543 34.94436 34.65989
#
# Velocity S-wave (km/s) = 4.20986 4.24456 4.22725
# Velocity P-wave (km/s) = 6.96415 7.02530 6.99479
#
# Compressibility (1/GPa) = 0.02073159
#
# Stress axis : x y z
#
# Youngs Moduli (GPa) = 87.63452 67.77040 95.60129
#
# Poissons Ratio (x) = 0.27636 0.19641
# Poissons Ratio (y) = 0.35737 0.17354
# Poissons Ratio (z) = 0.18004 0.12302
#
# Static dielectric constant tensor:
#      x y z
#    x 4.301000 0.000000 0.000000 
#    y 0.000000 3.305340 0.000000 
#    z 0.000000 0.000000 3.515310 
# 
# 
# High freq. dielectric constant tensor:
#      x y z
#    x 1.773070 0.000000 0.000000 
#    y 0.000000 1.740310 0.000000 
#    z 0.000000 0.000000 1.776280 
# 
# From -- ./inp_files/8986.got.cif
#   From: 2010.03.12/outbox.cif.g09.slc.cpg/sg57_5_cif.got.tgz:8986.got - 2010.04.16 15:48:40.
