data_PCOD8233889
_publ_section_title
;
Structure prediction by ZEFSAII (Michael W. Deem and Ramdas Pophale) SiO2 
 PCOD8233889
Probable space group: P B C M
;
_chemical_formula_sum "Si O2"
_cell_formula_units_Z 64
_cell_length_a 23.434250
_cell_length_b 15.505875
_cell_length_c 9.020125
_cell_angle_alpha 90.000000
_cell_angle_beta 90.000000
_cell_angle_gamma 90.000000
_cell_volume 3277.629753
_symmetry_space_group_name_H-M "P B C M"
_symmetry_group_IT_number 57
_symmetry_cell_setting 'orthorhombic'
loop_
_space_group_symop_operation_xyz
x,y,z
-x,-y,1/2+z
x,1/2-y,-z
-x,1/2+y,1/2-z
-x,-y,-z
x,y,1/2-z
-x,1/2+y,z
x,1/2-y,1/2+z
loop_
_atom_site_type_symbol
_atom_site_label
_atom_site_fract_x
_atom_site_fract_y
_atom_site_fract_z
Si Si1 0.364657 0.987009 0.573522
Si Si2 0.578831 0.834812 0.081121
Si Si3 0.942068 0.088378 0.081304
Si Si4 0.243647 0.512788 0.925657
Si Si5 0.532774 0.076427 0.921940
Si Si6 0.182862 0.335781 0.923642
Si Si7 0.932670 0.588604 0.423324
Si Si8 0.824571 0.336707 0.921772
O O1 0.362118 0.977540 0.750000
O O2 0.388488 0.080309 0.521476
O O3 0.303817 0.971074 0.502286
O O4 0.406897 0.912819 0.507205
O O5 0.595939 0.822804 0.250000
O O6 0.509846 0.841979 0.062172
O O7 0.601596 0.750000 0.000000
O O8 0.945516 0.055029 0.250000
O O9 0.893518 0.160691 0.063526
O O10 0.004541 0.126451 0.035398
O O11 0.925824 0.007631 0.982073
O O12 0.247881 0.527014 0.750000
O O13 0.222412 0.416907 0.965430
O O14 0.200140 0.580989 0.994382
O O15 0.543909 0.054771 0.750000
O O16 0.500000 0.000000 0.000000
O O17 0.183202 0.319165 0.750000
O O18 0.118452 0.352196 0.986524
O O19 0.207728 0.250000 0.000000
O O20 0.922406 0.581450 0.250000
O O21 0.805441 0.336981 0.750000
O O22 0.802177 0.250000 0.000000
#
# Coordination Sequence:
#
# PCOD8233889 Si02
#       8
#     8   8   8   8   8   8   8   8
#     4  10  21  37  57  82 110 147 191 235 281 336
#     4   9  19  33  53  83 118 149 182 223 271 323
#     4   9  18  32  55  83 110 143 183 230 289 349
#     4  11  23  41  61  83 112 153 198 246 296 344
#     4   9  17  32  53  80 110 143 181 221 265 320
#     4  10  22  37  56  81 113 152 193 237 288 347
#     4   9  17  33  54  80 113 146 184 231 284 348
#     4  11  23  39  60  86 113 146 189 240 296 355
#
# _framework density 19.526306000000002
#
# number of rings (size 3 to 8) (size 9 to 14) (size 15 to 20)
#    0.000    2.250    1.250    2.250    0.000    6.000 
#    0.000    3.125    0.000    1.500    0.000    0.000 
#    0.000    0.000    0.000    0.000    0.000    0.000 
#
# Total GULP energy -793276.005354 kJ/mol
# GULP energy per Si atom -12394.937584 kJ/mol
# Density = 1.948186 g / cm^3
# Si number density = 19.526306 Si / 1000 Ang^3
#
#
#
# Elastic Constant Matrix: (Units=GPa)
#
#
# Indices 1 2 3 4 5 6 
#
# 1 90.7640 2.8573 28.0348 0.0000 0.0000 0.0000
# 2 2.8573 50.3506 23.1366 0.0000 0.0000 0.0000
# 3 28.0348 23.1366 73.9207 0.0000 0.0000 0.0000
# 4 0.0000 0.0000 0.0000 31.3128 0.0000 0.0000
# 5 0.0000 0.0000 0.0000 0.0000 27.2014 0.0000
# 6 0.0000 0.0000 0.0000 0.0000 0.0000 14.4689
#
#
#
# Elastic Compliance Matrix: (Units=1/GPa)
#
#
# Indices 1 2 3 4 5 6 
#
# 1 0.012607 0.001731 -0.005323 0.000000 0.000000 0.000000
# 2 0.001731 0.023435 -0.007991 0.000000 0.000000 0.000000
# 3 -0.005323 -0.007991 0.018048 0.000000 0.000000 0.000000
# 4 0.000000 0.000000 0.000000 0.031936 0.000000 0.000000
# 5 0.000000 0.000000 0.000000 0.000000 0.036763 0.000000
# 6 0.000000 0.000000 0.000000 0.000000 0.000000 0.069114
#
#
# Mechanical properties :
#
#
# Convention : Reuss Voigt Hill
#
# Bulk Modulus (GPa) = 32.33891 35.89919 34.11905
# Shear Modulus (GPa) = 22.18506 25.33039 23.75773
#
# Velocity S-wave (km/s) = 3.37436 3.60564 3.49191
# Velocity P-wave (km/s) = 5.63732 5.97989 5.81113
#
# Compressibility (1/GPa) = 0.03092250
#
# Stress axis : x y z
#
# Youngs Moduli (GPa) = 79.31947 42.67210 55.40797
#
# Poissons Ratio (x) = -0.07385 0.29494
# Poissons Ratio (y) = -0.13726 0.44277
# Poissons Ratio (z) = 0.42222 0.34100
#
# Static dielectric constant tensor:
#      x y z
#    x 3.820600 0.000000 0.000000 
#    y 0.000000 3.353420 0.000000 
#    z 0.000000 0.000000 3.909330 
# 
# 
# High freq. dielectric constant tensor:
#      x y z
#    x 1.766080 0.000000 0.000000 
#    y 0.000000 1.734040 0.000000 
#    z 0.000000 0.000000 1.764370 
# 
# From -- ./inp_files/9375.got.cif
#   From: 2010.03.12/outbox.cif.g09.slc.cpg/sg57_5_cif.got.tgz:9375.got - 2010.04.16 15:48:40.
