data_PCOD8233302
_publ_section_title
;
Structure prediction by ZEFSAII (Michael W. Deem and Ramdas Pophale) SiO2 
 PCOD8233302
Probable space group: P B C M
;
_chemical_formula_sum "Si O2"
_cell_formula_units_Z 48
_cell_length_a 30.604924
_cell_length_b 9.137273
_cell_length_c 8.662633
_cell_angle_alpha 90.000000
_cell_angle_beta 90.000000
_cell_angle_gamma 90.000000
_cell_volume 2422.466733
_symmetry_space_group_name_H-M "P B C M"
_symmetry_group_IT_number 57
_symmetry_cell_setting 'orthorhombic'
loop_
_space_group_symop_operation_xyz
x,y,z
-x,-y,1/2+z
x,1/2-y,-z
-x,1/2+y,1/2-z
-x,-y,-z
x,y,1/2-z
-x,1/2+y,z
x,1/2-y,1/2+z
loop_
_atom_site_type_symbol
_atom_site_label
_atom_site_fract_x
_atom_site_fract_y
_atom_site_fract_z
Si Si1 0.540105 0.589000 0.566836
Si Si2 0.623704 0.091088 0.068442
Si Si3 0.124854 0.907486 0.568471
Si Si4 0.960580 0.590216 0.569573
Si Si5 0.201089 0.407382 0.932913
Si Si6 0.705925 0.905986 0.433310
O O1 0.539276 0.750000 0.500000
O O2 0.500000 0.500000 0.500000
O O3 0.536595 0.595214 0.750000
O O4 0.584603 0.512038 0.510235
O O5 0.622139 0.105341 0.250000
O O6 0.669725 0.022980 0.014632
O O7 0.617535 0.250000 0.000000
O O8 0.113704 0.750000 0.500000
O O9 0.133383 0.896279 0.750000
O O10 0.084554 0.011684 0.528200
O O11 0.167540 0.969572 0.485766
O O12 0.959227 0.750000 0.500000
O O13 0.968206 0.602747 0.750000
O O14 0.000000 0.500000 0.500000
O O15 0.202072 0.395691 0.750000
O O16 0.187167 0.250000 0.000000
O O17 0.248287 0.456515 0.994634
O O18 0.691440 0.750000 0.500000
O O19 0.710560 0.893759 0.250000
#
# Coordination Sequence:
#
# PCOD8233302 Si02
#       6
#     8   8   8   8   8   8
#     4  11  23  40  61  88 118 153 194 239 290 346
#     4  10  23  39  58  84 116 152 193 238 288 345
#     4  11  24  41  61  88 120 157 198 243 292 348
#     4  11  24  41  64  91 122 157 197 242 292 347
#     4  11  22  38  61  88 118 155 196 243 294 349
#     4  10  20  37  59  85 115 150 193 241 290 347
#
# _framework density 19.814513999999999
#
# number of rings (size 3 to 8) (size 9 to 14) (size 15 to 20)
#    0.000    1.333    0.000    6.500    0.000   10.000 
#    0.000    1.667    0.000    0.000    0.000    0.000 
#    0.000    0.000    0.000    0.000    0.000    0.000 
#
# Total GULP energy -595466.369898 kJ/mol
# GULP energy per Si atom -12405.549373 kJ/mol
# Density = 1.976942 g / cm^3
# Si number density = 19.814514 Si / 1000 Ang^3
#
#
#
# Elastic Constant Matrix: (Units=GPa)
#
#
# Indices 1 2 3 4 5 6 
#
# 1 143.7810 94.3571 71.8536 0.0000 0.0000 0.0000
# 2 94.3571 176.8674 67.4974 0.0000 0.0000 0.0000
# 3 71.8536 67.4974 107.2926 0.0000 0.0000 0.0000
# 4 0.0000 0.0000 0.0000 40.8530 0.0000 0.0000
# 5 0.0000 0.0000 0.0000 0.0000 31.4816 0.0000
# 6 0.0000 0.0000 0.0000 0.0000 0.0000 52.7513
#
#
#
# Elastic Compliance Matrix: (Units=1/GPa)
#
#
# Indices 1 2 3 4 5 6 
#
# 1 0.012873 -0.004708 -0.005659 0.000000 0.000000 0.000000
# 2 -0.004708 0.009162 -0.002611 0.000000 0.000000 0.000000
# 3 -0.005659 -0.002611 0.014753 0.000000 0.000000 0.000000
# 4 0.000000 0.000000 0.000000 0.024478 0.000000 0.000000
# 5 0.000000 0.000000 0.000000 0.000000 0.031765 0.000000
# 6 0.000000 0.000000 0.000000 0.000000 0.000000 0.018957
#
#
# Mechanical properties :
#
#
# Convention : Reuss Voigt Hill
#
# Bulk Modulus (GPa) = 92.32239 99.48414 95.90326
# Shear Modulus (GPa) = 35.32247 37.96603 36.64425
#
# Velocity S-wave (km/s) = 4.22673 4.38204 4.30509
# Velocity P-wave (km/s) = 8.39731 8.71320 8.55671
#
# Compressibility (1/GPa) = 0.01083161
#
# Stress axis : x y z
#
# Youngs Moduli (GPa) = 77.68427 109.14759 67.78399
#
# Poissons Ratio (x) = 0.51384 0.38360
# Poissons Ratio (y) = 0.36572 0.17698
# Poissons Ratio (z) = 0.43963 0.28498
#
# Static dielectric constant tensor:
#      x y z
#    x 4.400220 0.000000 0.000000 
#    y 0.000000 3.604060 0.000000 
#    z 0.000000 0.000000 3.741500 
# 
# 
# High freq. dielectric constant tensor:
#      x y z
#    x 1.791030 0.000000 0.000000 
#    y 0.000000 1.782260 0.000000 
#    z 0.000000 0.000000 1.786310 
# 
# From -- ./inp_files/9979.got.cif
#   From: 2010.03.12/outbox.cif.g09.slc.cpg/sg57_5_cif.got.tgz:9979.got - 2010.04.16 15:48:40.
