data_PCOD8233648
_publ_section_title
;
Structure prediction by ZEFSAII (Michael W. Deem and Ramdas Pophale) SiO2 
 PCOD8233648
Probable space group: P B C M
;
_chemical_formula_sum "Si O2"
_cell_formula_units_Z 48
_cell_length_a 27.950836
_cell_length_b 9.184834
_cell_length_c 9.261589
_cell_angle_alpha 90.000000
_cell_angle_beta 90.000000
_cell_angle_gamma 90.000000
_cell_volume 2377.670219
_symmetry_space_group_name_H-M "P B C M"
_symmetry_group_IT_number 57
_symmetry_cell_setting 'orthorhombic'
loop_
_space_group_symop_operation_xyz
x,y,z
-x,-y,1/2+z
x,1/2-y,-z
-x,1/2+y,1/2-z
-x,-y,-z
x,y,1/2-z
-x,1/2+y,z
x,1/2-y,1/2+z
loop_
_atom_site_type_symbol
_atom_site_label
_atom_site_fract_x
_atom_site_fract_y
_atom_site_fract_z
Si Si1 0.233374 0.601551 0.421538
Si Si2 0.390154 0.586783 0.526375
Si Si3 0.532858 0.342234 0.250000
Si Si4 0.961352 0.597655 0.579663
Si Si5 0.560552 0.015850 0.250000
Si Si6 0.876098 0.110643 0.085962
Si Si7 0.303160 0.105900 0.086713
O O1 0.249325 0.750000 0.500000
O O2 0.243915 0.612086 0.250000
O O3 0.177949 0.568648 0.455856
O O4 0.262040 0.470106 0.492992
O O5 0.370271 0.750000 0.500000
O O6 0.439802 0.594887 0.612309
O O7 0.403208 0.500929 0.382111
O O8 0.349125 0.497539 0.605650
O O9 0.532440 0.168148 0.250000
O O10 0.477681 0.386835 0.250000
O O11 0.960766 0.750000 0.500000
O O12 0.973500 0.614344 0.750000
O O13 0.909221 0.527852 0.555991
O O14 0.000000 0.500000 0.500000
O O15 0.878866 0.161034 0.250000
O O16 0.895347 0.250000 0.000000
O O17 0.285155 0.140893 0.250000
O O18 0.317791 0.250000 0.000000
#
# Coordination Sequence:
#
# PCOD8233648 Si02
#       7
#     8   8   4   8   4   8   8
#     4  10  21  40  66  93 123 161 203 246 300 361
#     4  10  22  40  62  86 117 155 198 238 291 355
#     4  10  20  40  56  90 116 156 190 240 285 352
#     4  11  23  39  59  87 123 164 210 257 311 365
#     4  10  22  34  64  86 120 150 194 234 291 346
#     4   9  20  38  61  90 122 158 202 251 301 361
#     4  12  26  42  61  88 122 156 200 253 308 361
#
# _framework density 20.187830000000002
#
# number of rings (size 3 to 8) (size 9 to 14) (size 15 to 20)
#    0.000    1.667    0.833    3.000    2.333    5.333 
#    0.000    1.667    0.000    0.000    0.000    0.000 
#    0.000    0.000    0.000    0.000    0.000    0.000 
#
# Total GULP energy -595268.387582 kJ/mol
# GULP energy per Si atom -12401.424741 kJ/mol
# Density = 2.014188 g / cm^3
# Si number density = 20.187830 Si / 1000 Ang^3
#
#
#
# Elastic Constant Matrix: (Units=GPa)
#
#
# Indices 1 2 3 4 5 6 
#
# 1 76.8972 42.5187 33.5071 0.0000 0.0000 0.0000
# 2 42.5187 108.6256 47.3898 0.0000 0.0000 0.0000
# 3 33.5071 47.3898 135.4841 0.0000 0.0000 0.0000
# 4 0.0000 0.0000 0.0000 39.1543 0.0000 0.0000
# 5 0.0000 0.0000 0.0000 0.0000 41.4204 0.0000
# 6 0.0000 0.0000 0.0000 0.0000 0.0000 32.7715
#
#
#
# Elastic Compliance Matrix: (Units=1/GPa)
#
#
# Indices 1 2 3 4 5 6 
#
# 1 0.017151 -0.005739 -0.002234 0.000000 0.000000 0.000000
# 2 -0.005739 0.012784 -0.003052 0.000000 0.000000 0.000000
# 3 -0.002234 -0.003052 0.009001 0.000000 0.000000 0.000000
# 4 0.000000 0.000000 0.000000 0.025540 0.000000 0.000000
# 5 0.000000 0.000000 0.000000 0.000000 0.024143 0.000000
# 6 0.000000 0.000000 0.000000 0.000000 0.000000 0.030514
#
#
# Mechanical properties :
#
#
# Convention : Reuss Voigt Hill
#
# Bulk Modulus (GPa) = 59.22273 63.09313 61.15793
# Shear Modulus (GPa) = 34.05715 35.84197 34.94956
#
# Velocity S-wave (km/s) = 4.11178 4.21815 4.16531
# Velocity P-wave (km/s) = 7.20707 7.41921 7.31391
#
# Compressibility (1/GPa) = 0.01688541
#
# Stress axis : x y z
#
# Youngs Moduli (GPa) = 58.30556 78.22437 111.09643
#
# Poissons Ratio (x) = 0.44889 0.24824
# Poissons Ratio (y) = 0.33459 0.33910
# Poissons Ratio (z) = 0.13028 0.23876
#
# Static dielectric constant tensor:
#      x y z
#    x 3.682560 0.000000 0.000000 
#    y 0.000000 3.513430 0.000000 
#    z 0.000000 0.000000 3.944240 
# 
# 
# High freq. dielectric constant tensor:
#      x y z
#    x 1.788860 0.000000 0.000000 
#    y 0.000000 1.782850 0.000000 
#    z 0.000000 0.000000 1.807430 
# 
# From -- ./inp_files/10129.got.cif
#   From: 2010.03.12/outbox.cif.g09.slc.cpg/sg57_6_cif.got.tgz:10129.got - 2010.04.16 15:48:40.
