data_PCOD8233355
_publ_section_title
;
Structure prediction by ZEFSAII (Michael W. Deem and Ramdas Pophale) SiO2 
 PCOD8233355
Probable space group: P B C M
;
_chemical_formula_sum "Si O2"
_cell_formula_units_Z 64
_cell_length_a 15.326307
_cell_length_b 12.033231
_cell_length_c 16.644762
_cell_angle_alpha 90.000000
_cell_angle_beta 90.000000
_cell_angle_gamma 90.000000
_cell_volume 3069.710107
_symmetry_space_group_name_H-M "P B C M"
_symmetry_group_IT_number 57
_symmetry_cell_setting 'orthorhombic'
loop_
_space_group_symop_operation_xyz
x,y,z
-x,-y,1/2+z
x,1/2-y,-z
-x,1/2+y,1/2-z
-x,-y,-z
x,y,1/2-z
-x,1/2+y,z
x,1/2-y,1/2+z
loop_
_atom_site_type_symbol
_atom_site_label
_atom_site_fract_x
_atom_site_fract_y
_atom_site_fract_z
Si Si1 0.737349 0.073519 0.083135
Si Si2 0.326945 0.960911 0.092175
Si Si3 0.885634 0.278521 0.654318
Si Si4 0.411231 0.739214 0.095099
Si Si5 0.083973 0.313515 0.654644
Si Si6 0.756200 0.832916 0.343351
Si Si7 0.602569 0.803305 0.587014
Si Si8 0.153666 0.537627 0.659968
O O1 0.828823 0.129064 0.108691
O O2 0.656457 0.142701 0.122147
O O3 0.736011 0.946725 0.111193
O O4 0.726565 0.075580 0.987388
O O5 0.381488 0.858493 0.128772
O O6 0.255749 0.993853 0.158741
O O7 0.389552 0.064328 0.075878
O O8 0.871744 0.293203 0.750000
O O9 0.858725 0.158052 0.619704
O O10 0.986422 0.285745 0.629150
O O11 0.508132 0.715054 0.128135
O O12 0.416288 0.750000 0.000000
O O13 0.096503 0.319711 0.750000
O O14 0.153801 0.222176 0.622587
O O15 0.102991 0.435911 0.617103
O O16 0.765728 0.860594 0.250000
O O17 0.676905 0.747325 0.356273
O O18 0.610637 0.750000 0.500000
O O19 0.118038 0.548764 0.750000
#
# Coordination Sequence:
#
# PCOD8233355 Si02
#       8
#     8   8   8   8   8   8   8   8
#     4  11  22  38  61  86 121 155 193 249 295 349
#     4  11  21  39  64  87 119 153 201 246 293 350
#     4  10  21  37  60  86 116 158 199 240 295 352
#     4   9  22  37  61  89 113 156 203 238 287 356
#     4   9  20  37  59  85 114 156 205 241 284 356
#     4  11  23  39  60  89 122 155 194 245 297 345
#     4  11  22  39  64  87 116 158 202 240 291 356
#     4  10  20  37  61  84 115 155 201 247 290 347
#
# _framework density 20.848873999999999
#
# number of rings (size 3 to 8) (size 9 to 14) (size 15 to 20)
#    0.000    1.750    3.750    0.375    3.500    1.500 
#    0.000    2.500    5.500    0.000    0.000    0.000 
#    0.000    0.000    0.000    0.000    0.000    0.000 
#
# Total GULP energy -793389.053400 kJ/mol
# GULP energy per Si atom -12396.703959 kJ/mol
# Density = 2.080142 g / cm^3
# Si number density = 20.848874 Si / 1000 Ang^3
#
#
#
# Elastic Constant Matrix: (Units=GPa)
#
#
# Indices 1 2 3 4 5 6 
#
# 1 164.8171 62.2864 14.8967 0.0000 0.0000 0.0000
# 2 62.2864 156.3032 13.0756 0.0000 0.0000 0.0000
# 3 14.8967 13.0756 23.8290 0.0000 0.0000 0.0000
# 4 0.0000 0.0000 0.0000 19.1695 0.0000 0.0000
# 5 0.0000 0.0000 0.0000 0.0000 25.3000 0.0000
# 6 0.0000 0.0000 0.0000 0.0000 0.0000 34.8409
#
#
#
# Elastic Compliance Matrix: (Units=1/GPa)
#
#
# Indices 1 2 3 4 5 6 
#
# 1 0.007360 -0.002671 -0.003136 0.000000 0.000000 0.000000
# 2 -0.002671 0.007675 -0.002542 0.000000 0.000000 0.000000
# 3 -0.003136 -0.002542 0.045321 0.000000 0.000000 0.000000
# 4 0.000000 0.000000 0.000000 0.052166 0.000000 0.000000
# 5 0.000000 0.000000 0.000000 0.000000 0.039526 0.000000
# 6 0.000000 0.000000 0.000000 0.000000 0.000000 0.028702
#
#
# Mechanical properties :
#
#
# Convention : Reuss Voigt Hill
#
# Bulk Modulus (GPa) = 22.90461 58.38519 40.64490
# Shear Modulus (GPa) = 23.58507 32.84144 28.21325
#
# Velocity S-wave (km/s) = 3.36704 3.97320 3.68261
# Velocity P-wave (km/s) = 5.11134 7.00808 6.13348
#
# Compressibility (1/GPa) = 0.04365932
#
# Stress axis : x y z
#
# Youngs Moduli (GPa) = 135.86939 130.29834 22.06494
#
# Poissons Ratio (x) = 0.34798 0.06919
# Poissons Ratio (y) = 0.36286 0.05608
# Poissons Ratio (z) = 0.42604 0.33119
#
# Static dielectric constant tensor:
#      x y z
#    x 3.930500 0.000000 0.000000 
#    y 0.000000 4.041420 0.000000 
#    z 0.000000 0.000000 3.320940 
# 
# 
# High freq. dielectric constant tensor:
#      x y z
#    x 1.823090 0.000000 0.000000 
#    y 0.000000 1.837490 0.000000 
#    z 0.000000 0.000000 1.773300 
# 
# From -- ./inp_files/22636.got.cif
#   From: 2010.03.12/outbox.cif.g09.slc.cpg/sg57_12_cif.got.tgz:22636.got - 2010.04.16 15:48:40.
