data_PCOD8233188
_publ_section_title
;
Structure prediction by ZEFSAII (Michael W. Deem and Ramdas Pophale) SiO2 
 PCOD8233188
Probable space group: P B C M
;
_chemical_formula_sum "Si O2"
_cell_formula_units_Z 64
_cell_length_a 23.578653
_cell_length_b 15.409947
_cell_length_c 8.869031
_cell_angle_alpha 90.000000
_cell_angle_beta 90.000000
_cell_angle_gamma 90.000000
_cell_volume 3222.525102
_symmetry_space_group_name_H-M "P B C M"
_symmetry_group_IT_number 57
_symmetry_cell_setting 'orthorhombic'
loop_
_space_group_symop_operation_xyz
x,y,z
-x,-y,1/2+z
x,1/2-y,-z
-x,1/2+y,1/2-z
-x,-y,-z
x,y,1/2-z
-x,1/2+y,z
x,1/2-y,1/2+z
loop_
_atom_site_type_symbol
_atom_site_label
_atom_site_fract_x
_atom_site_fract_y
_atom_site_fract_z
Si Si1 0.626515 0.159616 0.928719
Si Si2 0.311882 0.999949 0.572011
Si Si3 0.889956 0.836280 0.573001
Si Si4 0.505425 0.092830 0.927088
Si Si5 0.806861 0.994386 0.926088
Si Si6 0.998989 0.094224 0.929092
Si Si7 0.386116 0.337813 0.426763
Si Si8 0.122743 0.838883 0.073104
O O1 0.630857 0.165599 0.750000
O O2 0.562481 0.139511 0.983766
O O3 0.646257 0.250000 0.000000
O O4 0.668820 0.086236 0.986671
O O5 0.317876 0.985758 0.750000
O O6 0.247845 0.021374 0.527836
O O7 0.350388 0.079946 0.515261
O O8 0.862235 0.750000 0.500000
O O9 0.899232 0.823901 0.750000
O O10 0.849848 0.917005 0.537705
O O11 0.950304 0.848852 0.493808
O O12 0.506616 0.078041 0.750000
O O13 0.451612 0.150416 0.975779
O O14 0.500000 0.000000 0.000000
O O15 0.790420 0.995909 0.750000
O O16 0.835856 0.083804 0.978059
O O17 0.003319 0.085628 0.750000
O O18 0.940957 0.140389 0.979780
O O19 0.000000 0.000000 0.000000
O O20 0.362125 0.250000 0.500000
O O21 0.379108 0.328166 0.250000
O O22 0.125313 0.827631 0.250000
O O23 0.144601 0.750000 0.000000
#
# Coordination Sequence:
#
# PCOD8233188 Si02
#       8
#     8   8   8   8   8   8   8   8
#     4  11  23  39  63  92 122 161 201 244 303 362
#     4  11  24  42  63  88 120 157 205 257 303 356
#     4  11  23  41  63  91 125 162 203 251 304 363
#     4  10  20  36  60  90 123 158 195 241 300 360
#     4  10  23  44  63  83 120 161 204 253 303 358
#     4  11  21  37  62  92 126 161 198 245 305 366
#     4  10  22  39  60  89 123 156 196 245 297 357
#     4  10  22  40  61  89 121 156 195 242 298 356
#
# _framework density 19.860204
#
# number of rings (size 3 to 8) (size 9 to 14) (size 15 to 20)
#    0.000    1.500    2.500    2.250    0.000    6.500 
#    0.000    3.750    0.000    0.000    0.000    0.000 
#    0.000    0.000    0.000    0.000    0.000    0.000 
#
# Total GULP energy -793919.975506 kJ/mol
# GULP energy per Si atom -12404.999617 kJ/mol
# Density = 1.981500 g / cm^3
# Si number density = 19.860204 Si / 1000 Ang^3
#
#
#
# Elastic Constant Matrix: (Units=GPa)
#
#
# Indices 1 2 3 4 5 6 
#
# 1 81.2546 17.9294 23.8684 0.0000 0.0000 0.0000
# 2 17.9294 137.1072 33.0596 0.0000 0.0000 0.0000
# 3 23.8684 33.0596 53.4182 0.0000 0.0000 0.0000
# 4 0.0000 0.0000 0.0000 41.0859 0.0000 0.0000
# 5 0.0000 0.0000 0.0000 0.0000 32.1431 0.0000
# 6 0.0000 0.0000 0.0000 0.0000 0.0000 9.8401
#
#
#
# Elastic Compliance Matrix: (Units=1/GPa)
#
#
# Indices 1 2 3 4 5 6 
#
# 1 0.014184 -0.000384 -0.006100 0.000000 0.000000 0.000000
# 2 -0.000384 0.008583 -0.005140 0.000000 0.000000 0.000000
# 3 -0.006100 -0.005140 0.024627 0.000000 0.000000 0.000000
# 4 0.000000 0.000000 0.000000 0.024339 0.000000 0.000000
# 5 0.000000 0.000000 0.000000 0.000000 0.031111 0.000000
# 6 0.000000 0.000000 0.000000 0.000000 0.000000 0.101625
#
#
# Mechanical properties :
#
#
# Convention : Reuss Voigt Hill
#
# Bulk Modulus (GPa) = 41.41595 46.83277 44.12436
# Shear Modulus (GPa) = 21.20742 29.74198 25.47470
#
# Velocity S-wave (km/s) = 3.27132 3.87404 3.58537
# Velocity P-wave (km/s) = 5.93024 6.60631 6.27738
#
# Compressibility (1/GPa) = 0.02414529
#
# Stress axis : x y z
#
# Youngs Moduli (GPa) = 70.50423 116.50592 40.60563
#
# Poissons Ratio (x) = 0.04473 0.24769
# Poissons Ratio (y) = 0.02707 0.20873
# Poissons Ratio (z) = 0.43007 0.59890
#
# Static dielectric constant tensor:
#      x y z
#    x 3.755700 0.000000 0.000000 
#    y 0.000000 3.739070 0.000000 
#    z 0.000000 0.000000 3.276380 
# 
# 
# High freq. dielectric constant tensor:
#      x y z
#    x 1.773620 0.000000 0.000000 
#    y 0.000000 1.790450 0.000000 
#    z 0.000000 0.000000 1.773200 
# 
# From -- ./inp_files/9360.got.cif
#   From: 2010.03.12/outbox.cif.g09.slc.cpg/sg57_5_cif.got.tgz:9360.got - 2010.04.16 15:48:40.
