data_PCOD8233178
_publ_section_title
;
Structure prediction by ZEFSAII (Michael W. Deem and Ramdas Pophale) SiO2 
 PCOD8233178
Probable space group: P B C M
;
_chemical_formula_sum "Si O2"
_cell_formula_units_Z 64
_cell_length_a 11.817031
_cell_length_b 31.264068
_cell_length_c 9.132023
_cell_angle_alpha 90.000000
_cell_angle_beta 90.000000
_cell_angle_gamma 90.000000
_cell_volume 3373.811841
_symmetry_space_group_name_H-M "P B C M"
_symmetry_group_IT_number 57
_symmetry_cell_setting 'orthorhombic'
loop_
_space_group_symop_operation_xyz
x,y,z
-x,-y,1/2+z
x,1/2-y,-z
-x,1/2+y,1/2-z
-x,-y,-z
x,y,1/2-z
-x,1/2+y,z
x,1/2-y,1/2+z
loop_
_atom_site_type_symbol
_atom_site_label
_atom_site_fract_x
_atom_site_fract_y
_atom_site_fract_z
Si Si1 0.847292 0.394080 0.579984
Si Si2 0.521930 0.545111 0.921922
Si Si3 0.519492 0.707192 0.921394
Si Si4 0.095432 0.135599 0.083332
Si Si5 0.257563 0.059148 0.413787
Si Si6 0.895017 0.019810 0.916951
Si Si7 0.628762 0.373831 0.078095
Si Si8 0.778168 0.707795 0.921175
O O1 0.826627 0.404042 0.750000
O O2 0.853212 0.437797 0.493028
O O3 0.743382 0.367369 0.513574
O O4 0.961670 0.367393 0.557092
O O5 0.526144 0.536521 0.750000
O O6 0.427347 0.580418 0.961284
O O7 0.500000 0.500000 0.000000
O O8 0.641113 0.565245 0.972151
O O9 0.508136 0.715333 0.750000
O O10 0.451046 0.665337 0.970992
O O11 0.649035 0.698374 0.967517
O O12 0.473089 0.750000 0.000000
O O13 0.121593 0.149636 0.250000
O O14 0.153241 0.090187 0.047722
O O15 0.143509 0.169178 0.969783
O O16 0.303355 0.068468 0.250000
O O17 0.212464 0.011122 0.423258
O O18 0.931391 0.028912 0.750000
O O19 0.000000 0.000000 0.000000
O O20 0.655503 0.371464 0.250000
O O21 0.790700 0.714553 0.750000
O O22 0.823729 0.750000 0.000000
#
# Coordination Sequence:
#
# PCOD8233178 Si02
#       8
#     8   8   8   8   8   8   8   8
#     4  11  23  39  57  82 114 151 196 239 281 335
#     4  11  23  38  56  81 114 151 193 239 287 343
#     4   9  19  37  61  88 117 144 183 234 287 346
#     4  10  21  38  56  80 114 146 182 231 279 329
#     4  10  21  37  56  80 112 146 184 234 285 331
#     4  11  21  36  56  80 112 151 192 236 284 334
#     4  10  22  40  58  81 116 155 192 238 291 345
#     4  10  20  36  60  89 116 146 181 224 281 342
#
# _framework density 18.969640999999999
#
# number of rings (size 3 to 8) (size 9 to 14) (size 15 to 20)
#    0.000    1.750    1.250    3.000    0.000    8.500 
#    0.000    0.625    0.000    1.500    0.000    0.000 
#    0.000    0.000    0.000    0.000    0.000    0.000 
#
# Total GULP energy -793825.495209 kJ/mol
# GULP energy per Si atom -12403.523363 kJ/mol
# Density = 1.892647 g / cm^3
# Si number density = 18.969641 Si / 1000 Ang^3
#
#
#
# Elastic Constant Matrix: (Units=GPa)
#
#
# Indices 1 2 3 4 5 6 
#
# 1 101.8365 40.9835 55.8302 0.0000 0.0000 0.0000
# 2 40.9835 115.6193 56.1765 0.0000 0.0000 0.0000
# 3 55.8302 56.1765 98.6518 0.0000 0.0000 0.0000
# 4 0.0000 0.0000 0.0000 36.3096 0.0000 0.0000
# 5 0.0000 0.0000 0.0000 0.0000 37.1465 0.0000
# 6 0.0000 0.0000 0.0000 0.0000 0.0000 26.7921
#
#
#
# Elastic Compliance Matrix: (Units=1/GPa)
#
#
# Indices 1 2 3 4 5 6 
#
# 1 0.014445 -0.001588 -0.007271 0.000000 0.000000 0.000000
# 2 -0.001588 0.012132 -0.006010 0.000000 0.000000 0.000000
# 3 -0.007271 -0.006010 0.017674 0.000000 0.000000 0.000000
# 4 0.000000 0.000000 0.000000 0.027541 0.000000 0.000000
# 5 0.000000 0.000000 0.000000 0.000000 0.026920 0.000000
# 6 0.000000 0.000000 0.000000 0.000000 0.000000 0.037324
#
#
# Mechanical properties :
#
#
# Convention : Reuss Voigt Hill
#
# Bulk Modulus (GPa) = 68.89971 69.12091 69.01031
# Shear Modulus (GPa) = 29.30656 30.92412 30.11534
#
# Velocity S-wave (km/s) = 3.93481 4.04194 3.98874
# Velocity P-wave (km/s) = 7.55272 7.63543 7.59419
#
# Compressibility (1/GPa) = 0.01451385
#
# Stress axis : x y z
#
# Youngs Moduli (GPa) = 69.23019 82.42727 56.58131
#
# Poissons Ratio (x) = 0.13086 0.41138
# Poissons Ratio (y) = 0.10991 0.34005
# Poissons Ratio (z) = 0.50335 0.49539
#
# Static dielectric constant tensor:
#      x y z
#    x 3.494680 0.000000 0.000000 
#    y 0.000000 3.416400 0.000000 
#    z 0.000000 0.000000 3.533210 
# 
# 
# High freq. dielectric constant tensor:
#      x y z
#    x 1.736900 0.000000 0.000000 
#    y 0.000000 1.734310 0.000000 
#    z 0.000000 0.000000 1.743420 
# 
# From -- ./inp_files/3761.got.cif
#   From: 2010.03.12/outbox.cif.g09.slc.cpg/sg57_2_cif.got.tgz:3761.got - 2010.04.16 15:48:40.
