data_PCOD8233475
_publ_section_title
;
Structure prediction by ZEFSAII (Michael W. Deem and Ramdas Pophale) SiO2 
 PCOD8233475
Probable space group: P B C M
;
_chemical_formula_sum "Si O2"
_cell_formula_units_Z 64
_cell_length_a 19.416372
_cell_length_b 19.014224
_cell_length_c 8.997576
_cell_angle_alpha 90.000000
_cell_angle_beta 90.000000
_cell_angle_gamma 90.000000
_cell_volume 3321.790308
_symmetry_space_group_name_H-M "P B C M"
_symmetry_group_IT_number 57
_symmetry_cell_setting 'orthorhombic'
loop_
_space_group_symop_operation_xyz
x,y,z
-x,-y,1/2+z
x,1/2-y,-z
-x,1/2+y,1/2-z
-x,-y,-z
x,y,1/2-z
-x,1/2+y,z
x,1/2-y,1/2+z
loop_
_atom_site_type_symbol
_atom_site_label
_atom_site_fract_x
_atom_site_fract_y
_atom_site_fract_z
Si Si1 0.467327 0.320277 0.077951
Si Si2 0.087762 0.095925 0.419060
Si Si3 0.968205 0.324822 0.426087
Si Si4 0.377679 0.821502 0.424932
Si Si5 0.774866 0.820012 0.919839
Si Si6 0.867762 0.053602 0.926078
Si Si7 0.712435 0.047433 0.573361
Si Si8 0.661632 0.908283 0.076013
O O1 0.468010 0.302022 0.250000
O O2 0.544390 0.339740 0.023292
O O3 0.417209 0.385721 0.044299
O O4 0.439621 0.250000 0.000000
O O5 0.059679 0.100721 0.250000
O O6 0.165801 0.122091 0.426592
O O7 0.041057 0.143241 0.524961
O O8 0.089848 0.015495 0.478549
O O9 0.954537 0.250000 0.500000
O O10 0.969061 0.315377 0.250000
O O11 0.907766 0.377076 0.480985
O O12 0.351483 0.750000 0.500000
O O13 0.372839 0.811415 0.250000
O O14 0.327801 0.883364 0.478816
O O15 0.754572 0.803516 0.750000
O O16 0.801936 0.750000 0.000000
O O17 0.709117 0.848191 0.006762
O O18 0.863659 0.052125 0.750000
O O19 0.790221 0.053587 0.989609
O O20 0.711388 0.037468 0.750000
O O21 0.673545 0.982134 0.502048
O O22 0.677568 0.914678 0.250000
#
# Coordination Sequence:
#
# PCOD8233475 Si02
#       8
#     8   8   8   8   8   8   8   8
#     4   9  19  35  53  79 112 147 187 231 278 329
#     4  10  20  38  61  83 110 144 184 228 274 329
#     4  11  23  38  58  84 115 146 183 228 277 329
#     4   9  19  36  59  82 109 146 188 232 280 334
#     4  11  22  36  56  81 113 149 187 228 274 328
#     4   9  19  38  60  82 110 147 185 227 275 330
#     4  10  20  38  60  82 111 149 187 227 282 336
#     4  11  22  35  53  80 115 148 187 234 277 330
#
# _framework density 19.266719999999999
#
# number of rings (size 3 to 8) (size 9 to 14) (size 15 to 20)
#    0.000    2.000    1.250    2.250    0.000    5.500 
#    0.000    1.875    0.000    0.000    0.000    0.000 
#    0.000    0.000    0.000    0.000    0.000    0.000 
#
# Total GULP energy -793743.872441 kJ/mol
# GULP energy per Si atom -12402.248007 kJ/mol
# Density = 1.922287 g / cm^3
# Si number density = 19.266720 Si / 1000 Ang^3
#
#
#
# Elastic Constant Matrix: (Units=GPa)
#
#
# Indices 1 2 3 4 5 6 
#
# 1 73.8979 52.3845 27.0937 0.0000 0.0000 0.0000
# 2 52.3845 150.9214 43.4429 0.0000 0.0000 0.0000
# 3 27.0937 43.4429 57.4009 0.0000 0.0000 0.0000
# 4 0.0000 0.0000 0.0000 29.3891 0.0000 0.0000
# 5 0.0000 0.0000 0.0000 0.0000 19.8321 0.0000
# 6 0.0000 0.0000 0.0000 0.0000 0.0000 33.2472
#
#
#
# Elastic Compliance Matrix: (Units=1/GPa)
#
#
# Indices 1 2 3 4 5 6 
#
# 1 0.019048 -0.005144 -0.005097 0.000000 0.000000 0.000000
# 2 -0.005144 0.009861 -0.005035 0.000000 0.000000 0.000000
# 3 -0.005097 -0.005035 0.023638 0.000000 0.000000 0.000000
# 4 0.000000 0.000000 0.000000 0.034026 0.000000 0.000000
# 5 0.000000 0.000000 0.000000 0.000000 0.050423 0.000000
# 6 0.000000 0.000000 0.000000 0.000000 0.000000 0.030078
#
#
# Mechanical properties :
#
#
# Convention : Reuss Voigt Hill
#
# Bulk Modulus (GPa) = 45.46796 58.67359 52.07078
# Shear Modulus (GPa) = 24.39529 27.11361 25.75445
#
# Velocity S-wave (km/s) = 3.56221 3.75544 3.66010
# Velocity P-wave (km/s) = 6.36943 7.02310 6.70423
#
# Compressibility (1/GPa) = 0.02199351
#
# Stress axis : x y z
#
# Youngs Moduli (GPa) = 52.50003 101.41185 42.30485
#
# Poissons Ratio (x) = 0.52167 0.21564
# Poissons Ratio (y) = 0.27006 0.21300
# Poissons Ratio (z) = 0.26761 0.51060
#
# Static dielectric constant tensor:
#      x y z
#    x 3.667890 0.000000 0.000000 
#    y 0.000000 3.647840 0.000000 
#    z 0.000000 0.000000 3.426530 
# 
# 
# High freq. dielectric constant tensor:
#      x y z
#    x 1.753170 0.000000 0.000000 
#    y 0.000000 1.757810 0.000000 
#    z 0.000000 0.000000 1.737240 
# 
# From -- ./inp_files/8419.got.cif
#   From: 2010.03.12/outbox.cif.g09.slc.cpg/sg57_5_cif.got.tgz:8419.got - 2010.04.16 15:48:40.
