data_PCOD8233299
_publ_section_title
;
Structure prediction by ZEFSAII (Michael W. Deem and Ramdas Pophale) SiO2 
 PCOD8233299
Probable space group: P B C M
;
_chemical_formula_sum "Si O2"
_cell_formula_units_Z 32
_cell_length_a 9.307471
_cell_length_b 20.421058
_cell_length_c 8.596940
_cell_angle_alpha 90.000000
_cell_angle_beta 90.000000
_cell_angle_gamma 90.000000
_cell_volume 1634.006675
_symmetry_space_group_name_H-M "P B C M"
_symmetry_group_IT_number 57
_symmetry_cell_setting 'orthorhombic'
loop_
_space_group_symop_operation_xyz
x,y,z
-x,-y,1/2+z
x,1/2-y,-z
-x,1/2+y,1/2-z
-x,-y,-z
x,y,1/2-z
-x,1/2+y,z
x,1/2-y,1/2+z
loop_
_atom_site_type_symbol
_atom_site_label
_atom_site_fract_x
_atom_site_fract_y
_atom_site_fract_z
Si Si1 0.915553 0.561570 0.434872
Si Si2 0.410912 0.059317 0.432876
Si Si3 0.400491 0.680429 0.065851
Si Si4 0.091890 0.679449 0.934537
O O1 0.927355 0.563081 0.250000
O O2 0.751825 0.556286 0.493530
O O3 0.000000 0.500000 0.500000
O O4 0.977133 0.628041 0.504312
O O5 0.415356 0.052926 0.250000
O O6 0.481067 0.127778 0.485780
O O7 0.500000 0.000000 0.500000
O O8 0.381411 0.685280 0.250000
O O9 0.452129 0.750000 0.000000
O O10 0.249216 0.658739 0.992904
O O11 0.091446 0.681242 0.750000
O O12 0.047322 0.750000 0.000000
#
# Coordination Sequence:
#
# PCOD8233299 Si02
#       4
#     8   8   8   8
#     4  11  23  40  59  85 117 152 192 237 285 339
#     4  10  23  39  58  83 114 148 188 234 283 336
#     4  10  20  37  59  85 114 148 186 231 281 337
#     4  11  22  38  60  87 116 152 191 234 283 338
#
# _framework density 19.583763000000001
#
# number of rings (size 3 to 8) (size 9 to 14) (size 15 to 20)
#    0.000    1.500    0.000    6.750    0.000    9.000 
#    0.000    2.500    0.000    0.000    0.000    0.000 
#    0.000    0.000    0.000    0.000    0.000    0.000 
#
# Total GULP energy -396941.637841 kJ/mol
# GULP energy per Si atom -12404.426183 kJ/mol
# Density = 1.953919 g / cm^3
# Si number density = 19.583763 Si / 1000 Ang^3
#
#
#
# Elastic Constant Matrix: (Units=GPa)
#
#
# Indices 1 2 3 4 5 6 
#
# 1 181.2516 122.9396 60.0350 0.0000 0.0000 0.0000
# 2 122.9396 160.2480 60.1107 0.0000 0.0000 0.0000
# 3 60.0350 60.1107 106.8459 0.0000 0.0000 0.0000
# 4 0.0000 0.0000 0.0000 40.1094 0.0000 0.0000
# 5 0.0000 0.0000 0.0000 0.0000 30.6470 0.0000
# 6 0.0000 0.0000 0.0000 0.0000 0.0000 45.1195
#
#
#
# Elastic Compliance Matrix: (Units=1/GPa)
#
#
# Indices 1 2 3 4 5 6 
#
# 1 0.011815 -0.008333 -0.001951 0.000000 0.000000 0.000000
# 2 -0.008333 0.013786 -0.003074 0.000000 0.000000 0.000000
# 3 -0.001951 -0.003074 0.012185 0.000000 0.000000 0.000000
# 4 0.000000 0.000000 0.000000 0.024932 0.000000 0.000000
# 5 0.000000 0.000000 0.000000 0.000000 0.032630 0.000000
# 6 0.000000 0.000000 0.000000 0.000000 0.000000 0.022163
#
#
# Mechanical properties :
#
#
# Convention : Reuss Voigt Hill
#
# Bulk Modulus (GPa) = 90.32505 103.83512 97.08008
# Shear Modulus (GPa) = 33.80284 36.85918 35.33101
#
# Velocity S-wave (km/s) = 4.15910 4.34306 4.25207
# Velocity P-wave (km/s) = 8.32386 8.84792 8.58989
#
# Compressibility (1/GPa) = 0.01107113
#
# Stress axis : x y z
#
# Youngs Moduli (GPa) = 84.63609 72.53688 82.06912
#
# Poissons Ratio (x) = 0.60443 0.16011
# Poissons Ratio (y) = 0.70525 0.25228
# Poissons Ratio (z) = 0.16512 0.22297
#
# Static dielectric constant tensor:
#      x y z
#    x 3.798650 0.000000 0.000000 
#    y 0.000000 3.542620 0.000000 
#    z 0.000000 0.000000 3.677780 
# 
# 
# High freq. dielectric constant tensor:
#      x y z
#    x 1.768160 0.000000 0.000000 
#    y 0.000000 1.779890 0.000000 
#    z 0.000000 0.000000 1.774510 
# 
# From -- ./inp_files/1220.got.cif
#   From: 2010.03.12/outbox.cif.g09.slc.cpg/sg57_1_cif.got.tgz:1220.got - 2010.04.16 15:48:40.
