data_PCOD8233647
_publ_section_title
;
Structure prediction by ZEFSAII (Michael W. Deem and Ramdas Pophale) SiO2 
 PCOD8233647
Probable space group: P B C M
;
_chemical_formula_sum "Si O2"
_cell_formula_units_Z 28
_cell_length_a 9.549550
_cell_length_b 16.888712
_cell_length_c 10.110689
_cell_angle_alpha 90.000000
_cell_angle_beta 90.000000
_cell_angle_gamma 90.000000
_cell_volume 1630.647874
_symmetry_space_group_name_H-M "P B C M"
_symmetry_group_IT_number 57
_symmetry_cell_setting 'orthorhombic'
loop_
_space_group_symop_operation_xyz
x,y,z
-x,-y,1/2+z
x,1/2-y,-z
-x,1/2+y,1/2-z
-x,-y,-z
x,y,1/2-z
-x,1/2+y,z
x,1/2-y,1/2+z
loop_
_atom_site_type_symbol
_atom_site_label
_atom_site_fract_x
_atom_site_fract_y
_atom_site_fract_z
Si Si1 0.678823 0.842348 0.486264
Si Si2 0.188339 0.911107 0.250000
Si Si3 0.652448 0.938592 0.750000
Si Si4 0.981574 0.684100 0.603542
Si Si5 0.498418 0.907539 0.250000
O O1 0.646173 0.750000 0.500000
O O2 0.647860 0.882958 0.624289
O O3 0.839614 0.856874 0.446128
O O4 0.578401 0.880917 0.379681
O O5 0.341843 0.869714 0.250000
O O6 0.102500 0.882875 0.381128
O O7 0.206673 0.006442 0.250000
O O8 0.516542 0.996516 0.750000
O O9 0.033173 0.750000 0.500000
O O10 0.955085 0.722969 0.750000
#
# Coordination Sequence:
#
# PCOD8233647 Si02
#       5
#     8   4   4   8   4
#     4  11  21  37  64  84 107 152 196 238 266 340
#     4   8  21  36  55  84 116 154 172 238 284 341
#     4  10  23  36  59  84 117 147 189 231 297 324
#     4   9  19  37  59  83 114 149 192 232 271 324
#     4  10  20  40  56  82 123 143 189 231 289 335
#
# _framework density 17.171088999999998
#
# number of rings (size 3 to 8) (size 9 to 14) (size 15 to 20)
#    1.714    0.571    1.429    1.714    6.000    2.286 
#    0.000    0.000    3.143    0.000    0.000    0.000 
#    0.000    0.000    0.000    0.000    0.000    0.000 
#
# Total GULP energy -346927.732716 kJ/mol
# GULP energy per Si atom -12390.276168 kJ/mol
# Density = 1.713201 g / cm^3
# Si number density = 17.171089 Si / 1000 Ang^3
#
#
#
# Elastic Constant Matrix: (Units=GPa)
#
#
# Indices 1 2 3 4 5 6 
#
# 1 101.3133 64.1753 58.1629 0.0000 0.0000 0.0000
# 2 64.1753 129.4055 77.0831 0.0000 0.0000 0.0000
# 3 58.1629 77.0831 159.9018 0.0000 0.0000 0.0000
# 4 0.0000 0.0000 0.0000 34.3597 0.0000 0.0000
# 5 0.0000 0.0000 0.0000 0.0000 43.3851 0.0000
# 6 0.0000 0.0000 0.0000 0.0000 0.0000 39.4444
#
#
#
# Elastic Compliance Matrix: (Units=1/GPa)
#
#
# Indices 1 2 3 4 5 6 
#
# 1 0.015151 -0.005935 -0.002650 0.000000 0.000000 0.000000
# 2 -0.005935 0.013166 -0.004188 0.000000 0.000000 0.000000
# 3 -0.002650 -0.004188 0.009236 0.000000 0.000000 0.000000
# 4 0.000000 0.000000 0.000000 0.029104 0.000000 0.000000
# 5 0.000000 0.000000 0.000000 0.000000 0.023049 0.000000
# 6 0.000000 0.000000 0.000000 0.000000 0.000000 0.025352
#
#
# Mechanical properties :
#
#
# Convention : Reuss Voigt Hill
#
# Bulk Modulus (GPa) = 83.28246 87.71814 85.50030
# Shear Modulus (GPa) = 34.57633 36.18448 35.38040
#
# Velocity S-wave (km/s) = 4.49222 4.59550 4.54416
# Velocity P-wave (km/s) = 8.68986 8.90808 8.79965
#
# Compressibility (1/GPa) = 0.01200733
#
# Stress axis : x y z
#
# Youngs Moduli (GPa) = 66.00061 75.95495 108.26627
#
# Poissons Ratio (x) = 0.45083 0.28690
# Poissons Ratio (y) = 0.39174 0.45339
# Poissons Ratio (z) = 0.17490 0.31808
#
# Static dielectric constant tensor:
#      x y z
#    x 3.166440 0.000000 0.000000 
#    y 0.000000 3.050260 0.000000 
#    z 0.000000 0.000000 3.112690 
# 
# 
# High freq. dielectric constant tensor:
#      x y z
#    x 1.659610 0.000000 0.000000 
#    y 0.000000 1.649540 0.000000 
#    z 0.000000 0.000000 1.671780 
# 
# From -- ./inp_files/2569.got.cif
#   From: 2010.03.12/outbox.cif.g09.slc.cpg/sg57_2_cif.got.tgz:2569.got - 2010.04.16 15:48:40.
