data_PCOD8233107
_publ_section_title
;
Structure prediction by ZEFSAII (Michael W. Deem and Ramdas Pophale) SiO2 
 PCOD8233107
Probable space group: P B C M
;
_chemical_formula_sum "Si O2"
_cell_formula_units_Z 64
_cell_length_a 14.950358
_cell_length_b 23.703726
_cell_length_c 8.801660
_cell_angle_alpha 90.000000
_cell_angle_beta 90.000000
_cell_angle_gamma 90.000000
_cell_volume 3119.125138
_symmetry_space_group_name_H-M "P B C M"
_symmetry_group_IT_number 57
_symmetry_cell_setting 'orthorhombic'
loop_
_space_group_symop_operation_xyz
x,y,z
-x,-y,1/2+z
x,1/2-y,-z
-x,1/2+y,1/2-z
-x,-y,-z
x,y,1/2-z
-x,1/2+y,z
x,1/2-y,1/2+z
loop_
_atom_site_type_symbol
_atom_site_label
_atom_site_fract_x
_atom_site_fract_y
_atom_site_fract_z
Si Si1 0.411389 0.523429 0.576248
Si Si2 0.777874 0.499813 0.569845
Si Si3 0.288072 0.806276 0.572645
Si Si4 0.354854 0.310957 0.071171
Si Si5 0.182740 0.375165 0.069895
Si Si6 0.007325 0.311691 0.069831
Si Si7 0.156981 0.889826 0.070261
Si Si8 0.451797 0.847147 0.078127
O O1 0.500000 0.500000 0.500000
O O2 0.406492 0.502706 0.750000
O O3 0.323579 0.502465 0.489239
O O4 0.415871 0.590173 0.566354
O O5 0.775290 0.492486 0.750000
O O6 0.820771 0.559558 0.519648
O O7 0.843316 0.452667 0.498652
O O8 0.245266 0.750000 0.500000
O O9 0.268858 0.806783 0.750000
O O10 0.245148 0.860153 0.492958
O O11 0.393707 0.808357 0.535185
O O12 0.344871 0.304646 0.250000
O O13 0.272492 0.346743 0.003518
O O14 0.445258 0.343861 0.026408
O O15 0.354883 0.250000 0.000000
O O16 0.182898 0.372058 0.250000
O O17 0.098112 0.340135 0.006731
O O18 0.008357 0.305043 0.250000
O O19 0.928669 0.353881 0.017390
O O20 0.993191 0.250000 0.000000
O O21 0.163224 0.894826 0.250000
O O22 0.440651 0.823912 0.250000
#
# Coordination Sequence:
#
# PCOD8233107 Si02
#       8
#     8   8   8   8   8   8   8   8
#     4  11  22  37  59  85 121 164 210 258 306 362
#     4  11  22  39  63  90 121 161 208 252 306 373
#     4  12  24  38  59  85 117 158 200 246 301 363
#     4  10  20  36  58  84 117 157 199 247 303 360
#     4   9  20  40  63  88 121 160 200 249 311 371
#     4  10  22  41  66  93 123 160 203 252 309 370
#     4  11  23  40  61  89 125 160 200 252 307 365
#     4  10  21  37  56  82 118 159 200 248 302 360
#
# _framework density 20.518574000000001
#
# number of rings (size 3 to 8) (size 9 to 14) (size 15 to 20)
#    0.000    1.500    1.250    4.125    0.000    6.500 
#    0.000    3.750    0.000    0.000    0.000    0.000 
#    0.000    0.000    0.000    0.000    0.000    0.000 
#
# Total GULP energy -793732.419552 kJ/mol
# GULP energy per Si atom -12402.069055 kJ/mol
# Density = 2.047187 g / cm^3
# Si number density = 20.518574 Si / 1000 Ang^3
#
#
#
# Elastic Constant Matrix: (Units=GPa)
#
#
# Indices 1 2 3 4 5 6 
#
# 1 126.1079 41.7398 35.6162 0.0000 0.0000 0.0000
# 2 41.7398 78.1270 46.2836 0.0000 0.0000 0.0000
# 3 35.6162 46.2836 76.4441 0.0000 0.0000 0.0000
# 4 0.0000 0.0000 0.0000 34.2685 0.0000 0.0000
# 5 0.0000 0.0000 0.0000 0.0000 21.4177 0.0000
# 6 0.0000 0.0000 0.0000 0.0000 0.0000 41.8815
#
#
#
# Elastic Compliance Matrix: (Units=1/GPa)
#
#
# Indices 1 2 3 4 5 6 
#
# 1 0.009863 -0.003972 -0.002191 0.000000 0.000000 0.000000
# 2 -0.003972 0.021558 -0.011202 0.000000 0.000000 0.000000
# 3 -0.002191 -0.011202 0.020884 0.000000 0.000000 0.000000
# 4 0.000000 0.000000 0.000000 0.029181 0.000000 0.000000
# 5 0.000000 0.000000 0.000000 0.000000 0.046690 0.000000
# 6 0.000000 0.000000 0.000000 0.000000 0.000000 0.023877
#
#
# Mechanical properties :
#
#
# Convention : Reuss Voigt Hill
#
# Bulk Modulus (GPa) = 56.89309 58.66204 57.77757
# Shear Modulus (GPa) = 25.95507 29.98282 27.96894
#
# Velocity S-wave (km/s) = 3.56048 3.82678 3.69603
# Velocity P-wave (km/s) = 6.68509 6.94100 6.81425
#
# Compressibility (1/GPa) = 0.01757683
#
# Stress axis : x y z
#
# Youngs Moduli (GPa) = 101.38955 46.38727 47.88279
#
# Poissons Ratio (x) = 0.18423 0.10489
# Poissons Ratio (y) = 0.40268 0.53637
# Poissons Ratio (z) = 0.22211 0.51962
#
# Static dielectric constant tensor:
#      x y z
#    x 4.074970 0.000000 0.000000 
#    y 0.000000 4.495650 0.000000 
#    z 0.000000 0.000000 3.610210 
# 
# 
# High freq. dielectric constant tensor:
#      x y z
#    x 1.809040 0.000000 0.000000 
#    y 0.000000 1.815610 0.000000 
#    z 0.000000 0.000000 1.787530 
# 
# From -- ./inp_files/5738.got.cif
#   From: 2010.03.12/outbox.cif.g09.slc.cpg/sg57_3_cif.got.tgz:5738.got - 2010.04.16 15:48:40.
