data_PCOD8233911
_publ_section_title
;
Structure prediction by ZEFSAII (Michael W. Deem and Ramdas Pophale) SiO2 
 PCOD8233911
Probable space group: P B C M
;
_chemical_formula_sum "Si O2"
_cell_formula_units_Z 56
_cell_length_a 20.152857
_cell_length_b 8.848065
_cell_length_c 14.819919
_cell_angle_alpha 90.000000
_cell_angle_beta 90.000000
_cell_angle_gamma 90.000000
_cell_volume 2642.595905
_symmetry_space_group_name_H-M "P B C M"
_symmetry_group_IT_number 57
_symmetry_cell_setting 'orthorhombic'
loop_
_space_group_symop_operation_xyz
x,y,z
-x,-y,1/2+z
x,1/2-y,-z
-x,1/2+y,1/2-z
-x,-y,-z
x,y,1/2-z
-x,1/2+y,z
x,1/2-y,1/2+z
loop_
_atom_site_type_symbol
_atom_site_label
_atom_site_fract_x
_atom_site_fract_y
_atom_site_fract_z
Si Si1 0.449685 0.640396 0.148087
Si Si2 0.795378 0.926493 0.479776
Si Si3 0.889936 0.386937 0.851593
Si Si4 0.335327 0.924254 0.515743
Si Si5 0.028420 0.381499 0.566352
Si Si6 0.151302 0.950971 0.350836
Si Si7 0.416693 0.985275 0.352023
O O1 0.434641 0.586342 0.250000
O O2 0.396591 0.560003 0.083951
O O3 0.524330 0.597761 0.120388
O O4 0.446199 0.818719 0.137759
O O5 0.802131 0.750000 0.500000
O O6 0.793073 0.004468 0.577959
O O7 0.857320 0.988909 0.419328
O O8 0.725060 0.980104 0.438678
O O9 0.884038 0.452783 0.750000
O O10 0.966369 0.340726 0.869963
O O11 0.853393 0.228471 0.860716
O O12 0.314486 0.750000 0.500000
O O13 0.355691 0.003694 0.421152
O O14 0.055432 0.250000 0.500000
O O15 0.000000 0.500000 0.500000
O O16 0.085735 0.451809 0.627312
O O17 0.173506 0.994248 0.250000
O O18 0.391118 0.015664 0.250000
#
# Coordination Sequence:
#
# PCOD8233911 Si02
#       7
#     8   8   8   8   8   8   8
#     4   9  18  33  55  84 115 147 186 235 290 349
#     4  12  26  43  60  86 121 160 203 259 307 356
#     4  11  24  43  66  90 121 162 204 245 304 369
#     4  10  21  37  58  80 112 155 200 239 291 355
#     4  12  21  39  66  94 127 158 194 245 301 355
#     4  11  24  42  65  92 121 161 205 248 303 364
#     4   9  18  33  55  84 115 147 186 236 292 348
#
# _framework density 21.191284
#
# number of rings (size 3 to 8) (size 9 to 14) (size 15 to 20)
#    0.000    1.429    2.857    2.571    0.000    2.857 
#    0.000    2.857    0.000    0.000    0.000    0.000 
#    0.000    0.000    0.000    0.000    0.000    0.000 
#
# Total GULP energy -694108.379160 kJ/mol
# GULP energy per Si atom -12394.792485 kJ/mol
# Density = 2.114305 g / cm^3
# Si number density = 21.191284 Si / 1000 Ang^3
#
#
#
# Elastic Constant Matrix: (Units=GPa)
#
#
# Indices 1 2 3 4 5 6 
#
# 1 69.7126 9.3080 11.3404 0.0000 0.0000 0.0000
# 2 9.3080 71.1748 28.8578 0.0000 0.0000 0.0000
# 3 11.3404 28.8578 97.9080 0.0000 0.0000 0.0000
# 4 0.0000 0.0000 0.0000 24.1445 0.0000 0.0000
# 5 0.0000 0.0000 0.0000 0.0000 23.3205 0.0000
# 6 0.0000 0.0000 0.0000 0.0000 0.0000 31.7712
#
#
#
# Elastic Compliance Matrix: (Units=1/GPa)
#
#
# Indices 1 2 3 4 5 6 
#
# 1 0.014742 -0.001403 -0.001294 0.000000 0.000000 0.000000
# 2 -0.001403 0.016090 -0.004580 0.000000 0.000000 0.000000
# 3 -0.001294 -0.004580 0.011713 0.000000 0.000000 0.000000
# 4 0.000000 0.000000 0.000000 0.041417 0.000000 0.000000
# 5 0.000000 0.000000 0.000000 0.000000 0.042881 0.000000
# 6 0.000000 0.000000 0.000000 0.000000 0.000000 0.031475
#
#
# Mechanical properties :
#
#
# Convention : Reuss Voigt Hill
#
# Bulk Modulus (GPa) = 35.72480 37.53420 36.62950
# Shear Modulus (GPa) = 27.44169 28.46653 27.95411
#
# Velocity S-wave (km/s) = 3.60245 3.66910 3.63593
# Velocity P-wave (km/s) = 5.84794 5.97497 5.91179
#
# Compressibility (1/GPa) = 0.02799176
#
# Stress axis : x y z
#
# Youngs Moduli (GPa) = 67.83125 62.14886 85.37175
#
# Poissons Ratio (x) = 0.08722 0.11047
# Poissons Ratio (y) = 0.09519 0.39100
# Poissons Ratio (z) = 0.08777 0.28464
#
# Static dielectric constant tensor:
#      x y z
#    x 4.278990 0.000000 0.000000 
#    y 0.000000 3.704420 0.000000 
#    z 0.000000 0.000000 4.108240 
# 
# 
# High freq. dielectric constant tensor:
#      x y z
#    x 1.824420 0.000000 0.000000 
#    y 0.000000 1.825540 0.000000 
#    z 0.000000 0.000000 1.836670 
# 
# From -- ./inp_files/19358.got.cif
#   From: 2010.03.12/outbox.cif.g09.slc.cpg/sg57_10_cif.got.tgz:19358.got - 2010.04.16 15:48:40.
