data_PCOD8233750
_publ_section_title
;
Structure prediction by ZEFSAII (Michael W. Deem and Ramdas Pophale) SiO2 
 PCOD8233750
Probable space group: P B C M
;
_chemical_formula_sum "Si O2"
_cell_formula_units_Z 64
_cell_length_a 23.463196
_cell_length_b 8.898219
_cell_length_c 15.009018
_cell_angle_alpha 90.000000
_cell_angle_beta 90.000000
_cell_angle_gamma 90.000000
_cell_volume 3133.592631
_symmetry_space_group_name_H-M "P B C M"
_symmetry_group_IT_number 57
_symmetry_cell_setting 'orthorhombic'
loop_
_space_group_symop_operation_xyz
x,y,z
-x,-y,1/2+z
x,1/2-y,-z
-x,1/2+y,1/2-z
-x,-y,-z
x,y,1/2-z
-x,1/2+y,z
x,1/2-y,1/2+z
loop_
_atom_site_type_symbol
_atom_site_label
_atom_site_fract_x
_atom_site_fract_y
_atom_site_fract_z
Si Si1 0.328488 0.015454 0.850698
Si Si2 0.647337 0.642852 0.147199
Si Si3 0.567890 0.180955 0.094766
Si Si4 0.256498 0.422734 0.513423
Si Si5 0.531506 0.005735 0.649636
Si Si6 0.140873 0.575205 0.512276
Si Si7 0.046721 0.876122 0.149148
Si Si8 0.930635 0.029041 0.350856
O O1 0.303792 0.006766 0.750000
O O2 0.374974 0.884435 0.861307
O O3 0.356373 0.178638 0.868766
O O4 0.277689 0.997050 0.922016
O O5 0.658700 0.602437 0.250000
O O6 0.696206 0.561666 0.090129
O O7 0.588218 0.574290 0.112767
O O8 0.521426 0.046791 0.088252
O O9 0.540053 0.315044 0.151813
O O10 0.583814 0.250000 0.000000
O O11 0.241366 0.250000 0.500000
O O12 0.199360 0.503075 0.546020
O O13 0.517975 0.952844 0.750000
O O14 0.152053 0.750000 0.500000
O O15 0.092683 0.543541 0.586123
O O16 0.121329 0.499297 0.418792
O O17 0.060374 0.926812 0.250000
O O18 0.048191 0.698479 0.137518
O O19 0.983207 0.923883 0.122134
O O20 0.909540 0.996932 0.250000
#
# Coordination Sequence:
#
# PCOD8233750 Si02
#       8
#     8   8   8   8   8   8   8   8
#     4  10  21  40  61  80 109 149 187 230 283 336
#     4   9  20  39  61  82 110 147 186 232 284 333
#     4  12  24  37  57  86 115 144 181 227 279 336
#     4  10  22  38  56  80 108 141 188 235 273 322
#     4  11  22  37  57  83 112 143 179 221 275 339
#     4  10  21  35  52  76 109 145 179 222 273 323
#     4   9  18  33  53  79 108 140 176 218 268 323
#     4   9  18  33  53  78 109 141 177 219 267 322
#
# _framework density 20.423842
#
# number of rings (size 3 to 8) (size 9 to 14) (size 15 to 20)
#    0.000    2.000    0.000    3.375    0.000    6.000 
#    0.000    0.000    0.000    0.000    0.000    0.000 
#    0.000    0.000    0.000    0.000    0.000    0.000 
#
# Total GULP energy -793724.284307 kJ/mol
# GULP energy per Si atom -12401.941942 kJ/mol
# Density = 2.037736 g / cm^3
# Si number density = 20.423842 Si / 1000 Ang^3
#
#
#
# Elastic Constant Matrix: (Units=GPa)
#
#
# Indices 1 2 3 4 5 6 
#
# 1 72.3843 20.2437 24.5631 0.0000 0.0000 0.0000
# 2 20.2437 49.1418 12.2662 0.0000 0.0000 0.0000
# 3 24.5631 12.2662 81.3651 0.0000 0.0000 0.0000
# 4 0.0000 0.0000 0.0000 23.1781 0.0000 0.0000
# 5 0.0000 0.0000 0.0000 0.0000 23.8268 0.0000
# 6 0.0000 0.0000 0.0000 0.0000 0.0000 36.9008
#
#
#
# Elastic Compliance Matrix: (Units=1/GPa)
#
#
# Indices 1 2 3 4 5 6 
#
# 1 0.016896 -0.005910 -0.004210 0.000000 0.000000 0.000000
# 2 -0.005910 0.023212 -0.001715 0.000000 0.000000 0.000000
# 3 -0.004210 -0.001715 0.013820 0.000000 0.000000 0.000000
# 4 0.000000 0.000000 0.000000 0.043144 0.000000 0.000000
# 5 0.000000 0.000000 0.000000 0.000000 0.041970 0.000000
# 6 0.000000 0.000000 0.000000 0.000000 0.000000 0.027100
#
#
# Mechanical properties :
#
#
# Convention : Reuss Voigt Hill
#
# Bulk Modulus (GPa) = 33.04852 35.22635 34.13744
# Shear Modulus (GPa) = 25.01285 26.50235 25.75760
#
# Velocity S-wave (km/s) = 3.50335 3.60615 3.55512
# Velocity P-wave (km/s) = 5.70799 5.88424 5.79678
#
# Compressibility (1/GPa) = 0.03025854
#
# Stress axis : x y z
#
# Youngs Moduli (GPa) = 59.18393 43.08148 72.35993
#
# Poissons Ratio (x) = 0.25459 0.30463
# Poissons Ratio (y) = 0.34975 0.12412
# Poissons Ratio (z) = 0.24916 0.07390
#
# Static dielectric constant tensor:
#      x y z
#    x 3.517040 0.000000 0.000000 
#    y 0.000000 3.650560 0.000000 
#    z 0.000000 0.000000 3.869050 
# 
# 
# High freq. dielectric constant tensor:
#      x y z
#    x 1.782720 0.000000 0.000000 
#    y 0.000000 1.793580 0.000000 
#    z 0.000000 0.000000 1.808770 
# 
# From -- ./inp_files/19484.got.cif
#   From: 2010.03.12/outbox.cif.g09.slc.cpg/sg57_10_cif.got.tgz:19484.got - 2010.04.16 15:48:40.
