data_PCOD8233172
_publ_section_title
;
Structure prediction by ZEFSAII (Michael W. Deem and Ramdas Pophale) SiO2 
 PCOD8233172
Probable space group: P B C M
;
_chemical_formula_sum "Si O2"
_cell_formula_units_Z 64
_cell_length_a 11.984943
_cell_length_b 31.128459
_cell_length_c 8.992729
_cell_angle_alpha 90.000000
_cell_angle_beta 90.000000
_cell_angle_gamma 90.000000
_cell_volume 3354.942649
_symmetry_space_group_name_H-M "P B C M"
_symmetry_group_IT_number 57
_symmetry_cell_setting 'orthorhombic'
loop_
_space_group_symop_operation_xyz
x,y,z
-x,-y,1/2+z
x,1/2-y,-z
-x,1/2+y,1/2-z
-x,-y,-z
x,y,1/2-z
-x,1/2+y,z
x,1/2-y,1/2+z
loop_
_atom_site_type_symbol
_atom_site_label
_atom_site_fract_x
_atom_site_fract_y
_atom_site_fract_z
Si Si1 0.886258 0.488372 0.920500
Si Si2 0.504068 0.706218 0.925696
Si Si3 0.634639 0.124957 0.574735
Si Si4 0.758864 0.792912 0.423878
Si Si5 0.741161 0.946085 0.922345
Si Si6 0.894343 0.865188 0.578923
Si Si7 0.517099 0.546513 0.927128
Si Si8 0.140714 0.887753 0.918008
O O1 0.890846 0.504315 0.750000
O O2 0.865959 0.438389 0.930425
O O3 0.783519 0.509623 0.007005
O O4 0.000000 0.500000 0.000000
O O5 0.492139 0.711296 0.750000
O O6 0.435170 0.665517 0.987610
O O7 0.631970 0.698077 0.973669
O O8 0.458630 0.750000 0.000000
O O9 0.634135 0.127185 0.750000
O O10 0.580534 0.079559 0.523817
O O11 0.760723 0.130004 0.519696
O O12 0.805066 0.750000 0.500000
O O13 0.768509 0.786549 0.250000
O O14 0.835341 0.832030 0.471812
O O15 0.711736 0.953706 0.750000
O O16 0.837914 0.911349 0.943639
O O17 0.630535 0.932221 0.010927
O O18 0.882615 0.850636 0.750000
O O19 0.023167 0.867849 0.529600
O O20 0.523832 0.541577 0.750000
O O21 0.500000 0.500000 0.000000
O O22 0.166340 0.873690 0.750000
#
# Coordination Sequence:
#
# PCOD8233172 Si02
#       8
#     8   8   8   8   8   8   8   8
#     4  11  21  36  56  80 112 151 194 240 288 338
#     4   9  19  37  60  87 116 142 180 231 284 342
#     4  10  22  39  58  82 115 152 192 239 288 345
#     4  10  20  36  60  88 115 145 179 225 283 344
#     4  11  22  37  57  83 114 148 190 239 288 339
#     4  10  21  38  56  80 114 147 184 232 280 331
#     4  11  23  39  57  82 116 154 195 242 293 348
#     4  10  22  39  56  79 113 151 192 237 281 333
#
# _framework density 19.076333000000002
#
# number of rings (size 3 to 8) (size 9 to 14) (size 15 to 20)
#    0.000    1.750    1.250    3.000    0.000    7.500 
#    0.000    0.625    0.000    1.500    0.000    0.000 
#    0.000    0.000    0.000    0.000    0.000    0.000 
#
# Total GULP energy -793782.956086 kJ/mol
# GULP energy per Si atom -12402.858689 kJ/mol
# Density = 1.903291 g / cm^3
# Si number density = 19.076333 Si / 1000 Ang^3
#
#
#
# Elastic Constant Matrix: (Units=GPa)
#
#
# Indices 1 2 3 4 5 6 
#
# 1 114.8258 45.8235 37.4278 0.0000 0.0000 0.0000
# 2 45.8235 103.2445 40.7670 0.0000 0.0000 0.0000
# 3 37.4278 40.7670 68.1676 0.0000 0.0000 0.0000
# 4 0.0000 0.0000 0.0000 33.5543 0.0000 0.0000
# 5 0.0000 0.0000 0.0000 0.0000 37.1864 0.0000
# 6 0.0000 0.0000 0.0000 0.0000 0.0000 31.3130
#
#
#
# Elastic Compliance Matrix: (Units=1/GPa)
#
#
# Indices 1 2 3 4 5 6 
#
# 1 0.011454 -0.003404 -0.004253 0.000000 0.000000 0.000000
# 2 -0.003404 0.013692 -0.006319 0.000000 0.000000 0.000000
# 3 -0.004253 -0.006319 0.020784 0.000000 0.000000 0.000000
# 4 0.000000 0.000000 0.000000 0.029802 0.000000 0.000000
# 5 0.000000 0.000000 0.000000 0.000000 0.026892 0.000000
# 6 0.000000 0.000000 0.000000 0.000000 0.000000 0.031936
#
#
# Mechanical properties :
#
#
# Convention : Reuss Voigt Hill
#
# Bulk Modulus (GPa) = 55.62689 59.36382 57.49535
# Shear Modulus (GPa) = 29.67295 31.22537 30.44916
#
# Velocity S-wave (km/s) = 3.94824 4.05021 3.99955
# Velocity P-wave (km/s) = 7.07165 7.28415 7.17869
#
# Compressibility (1/GPa) = 0.01797692
#
# Stress axis : x y z
#
# Youngs Moduli (GPa) = 87.30892 73.03618 48.11427
#
# Poissons Ratio (x) = 0.24863 0.20462
# Poissons Ratio (y) = 0.29722 0.30404
# Poissons Ratio (z) = 0.37131 0.46153
#
# Static dielectric constant tensor:
#      x y z
#    x 3.358260 0.000000 0.000000 
#    y 0.000000 3.594250 0.000000 
#    z 0.000000 0.000000 3.538380 
# 
# 
# High freq. dielectric constant tensor:
#      x y z
#    x 1.745990 0.000000 0.000000 
#    y 0.000000 1.737850 0.000000 
#    z 0.000000 0.000000 1.743760 
# 
# From -- ./inp_files/3763.got.cif
#   From: 2010.03.12/outbox.cif.g09.slc.cpg/sg57_2_cif.got.tgz:3763.got - 2010.04.16 15:48:40.
