data_PCOD8233060
_publ_section_title
;
Structure prediction by ZEFSAII (Michael W. Deem and Ramdas Pophale) SiO2 
 PCOD8233060
Probable space group: P B C M
;
_chemical_formula_sum "Si O2"
_cell_formula_units_Z 48
_cell_length_a 16.725365
_cell_length_b 15.783868
_cell_length_c 9.058383
_cell_angle_alpha 90.000000
_cell_angle_beta 90.000000
_cell_angle_gamma 90.000000
_cell_volume 2391.331165
_symmetry_space_group_name_H-M "P B C M"
_symmetry_group_IT_number 57
_symmetry_cell_setting 'orthorhombic'
loop_
_space_group_symop_operation_xyz
x,y,z
-x,-y,1/2+z
x,1/2-y,-z
-x,1/2+y,1/2-z
-x,-y,-z
x,y,1/2-z
-x,1/2+y,z
x,1/2-y,1/2+z
loop_
_atom_site_type_symbol
_atom_site_label
_atom_site_fract_x
_atom_site_fract_y
_atom_site_fract_z
Si Si1 0.823892 0.161779 0.077232
Si Si2 0.085870 0.505871 0.572819
Si Si3 0.504437 0.337120 0.924475
Si Si4 0.828680 0.833287 0.919584
Si Si5 0.337236 0.404880 0.920463
Si Si6 0.336103 0.927182 0.918372
O O1 0.848272 0.164508 0.250000
O O2 0.728706 0.147145 0.058815
O O3 0.847029 0.250000 0.000000
O O4 0.870195 0.086678 0.995672
O O5 0.081721 0.515095 0.750000
O O6 0.131142 0.419888 0.523978
O O7 0.000000 0.500000 0.500000
O O8 0.500393 0.323254 0.750000
O O9 0.420528 0.371810 0.989399
O O10 0.575961 0.399298 0.970930
O O11 0.525294 0.250000 0.000000
O O12 0.849644 0.820615 0.750000
O O13 0.733188 0.837446 0.947503
O O14 0.863138 0.750000 0.000000
O O15 0.350660 0.423154 0.750000
O O16 0.308729 0.492514 0.989219
O O17 0.338927 0.956306 0.750000
#
# Coordination Sequence:
#
# PCOD8233060 Si02
#       6
#     8   8   8   8   8   8
#     4  11  23  40  64  93 125 164 208 254 307 366
#     4  11  24  44  67  93 126 160 201 252 310 372
#     4  10  21  35  52  80 117 156 202 251 298 353
#     4  10  22  39  62  91 122 159 201 246 300 362
#     4  10  20  36  57  83 117 157 201 249 302 356
#     4  10  21  36  56  85 118 157 205 251 300 357
#
# _framework density 20.072500999999999
#
# number of rings (size 3 to 8) (size 9 to 14) (size 15 to 20)
#    0.000    1.667    1.667    2.500    0.000    4.667 
#    0.000    1.667    0.000    0.000    0.000    0.000 
#    0.000    0.000    0.000    0.000    0.000    0.000 
#
# Total GULP energy -595233.779106 kJ/mol
# GULP energy per Si atom -12400.703731 kJ/mol
# Density = 2.002682 g / cm^3
# Si number density = 20.072501 Si / 1000 Ang^3
#
#
#
# Elastic Constant Matrix: (Units=GPa)
#
#
# Indices 1 2 3 4 5 6 
#
# 1 107.3880 36.2678 40.1927 0.0000 0.0000 0.0000
# 2 36.2678 144.2627 59.6850 0.0000 0.0000 0.0000
# 3 40.1927 59.6850 71.0233 0.0000 0.0000 0.0000
# 4 0.0000 0.0000 0.0000 38.2227 0.0000 0.0000
# 5 0.0000 0.0000 0.0000 0.0000 28.2785 0.0000
# 6 0.0000 0.0000 0.0000 0.0000 0.0000 18.9490
#
#
#
# Elastic Compliance Matrix: (Units=1/GPa)
#
#
# Indices 1 2 3 4 5 6 
#
# 1 0.011824 -0.000313 -0.006428 0.000000 0.000000 0.000000
# 2 -0.000313 0.010635 -0.008760 0.000000 0.000000 0.000000
# 3 -0.006428 -0.008760 0.025079 0.000000 0.000000 0.000000
# 4 0.000000 0.000000 0.000000 0.026162 0.000000 0.000000
# 5 0.000000 0.000000 0.000000 0.000000 0.035363 0.000000
# 6 0.000000 0.000000 0.000000 0.000000 0.000000 0.052773
#
#
# Mechanical properties :
#
#
# Convention : Reuss Voigt Hill
#
# Bulk Modulus (GPa) = 60.47589 66.10723 63.29156
# Shear Modulus (GPa) = 25.20815 29.52529 27.36672
#
# Velocity S-wave (km/s) = 3.54765 3.83943 3.69642
# Velocity P-wave (km/s) = 6.85385 7.25677 7.05818
#
# Compressibility (1/GPa) = 0.01653552
#
# Stress axis : x y z
#
# Youngs Moduli (GPa) = 84.57670 94.03260 39.87421
#
# Poissons Ratio (x) = 0.02944 0.25631
# Poissons Ratio (y) = 0.02648 0.34929
# Poissons Ratio (z) = 0.54366 0.82370
#
# Static dielectric constant tensor:
#      x y z
#    x 3.879110 0.000000 0.000000 
#    y 0.000000 3.672490 0.000000 
#    z 0.000000 0.000000 3.585550 
# 
# 
# High freq. dielectric constant tensor:
#      x y z
#    x 1.791690 0.000000 0.000000 
#    y 0.000000 1.787450 0.000000 
#    z 0.000000 0.000000 1.778960 
# 
# From -- ./inp_files/6484.got.cif
#   From: 2010.03.12/outbox.cif.g09.slc.cpg/sg57_4_cif.got.tgz:6484.got - 2010.04.16 15:48:40.
