data_PCOD8233891
_publ_section_title
;
Structure prediction by ZEFSAII (Michael W. Deem and Ramdas Pophale) SiO2 
 PCOD8233891
Probable space group: P B C M
;
_chemical_formula_sum "Si O2"
_cell_formula_units_Z 48
_cell_length_a 15.025450
_cell_length_b 17.531101
_cell_length_c 9.171118
_cell_angle_alpha 90.000000
_cell_angle_beta 90.000000
_cell_angle_gamma 90.000000
_cell_volume 2415.788785
_symmetry_space_group_name_H-M "P B C M"
_symmetry_group_IT_number 57
_symmetry_cell_setting 'orthorhombic'
loop_
_space_group_symop_operation_xyz
x,y,z
-x,-y,1/2+z
x,1/2-y,-z
-x,1/2+y,1/2-z
-x,-y,-z
x,y,1/2-z
-x,1/2+y,z
x,1/2-y,1/2+z
loop_
_atom_site_type_symbol
_atom_site_label
_atom_site_fract_x
_atom_site_fract_y
_atom_site_fract_z
Si Si1 0.135585 0.920194 0.080052
Si Si2 0.007897 0.171949 0.418679
Si Si3 0.516631 0.078411 0.919612
Si Si4 0.341890 0.329512 0.420415
Si Si5 0.810861 0.589791 0.082844
Si Si6 0.687607 0.170221 0.579086
O O1 0.111830 0.912732 0.250000
O O2 0.219436 0.868280 0.037637
O O3 0.155278 0.006816 0.036699
O O4 0.051525 0.895019 0.985566
O O5 0.986024 0.250000 0.500000
O O6 0.983006 0.181896 0.250000
O O7 0.110847 0.150897 0.439228
O O8 0.520692 0.059049 0.750000
O O9 0.439367 0.138682 0.955178
O O10 0.608874 0.114694 0.974947
O O11 0.500000 0.000000 0.000000
O O12 0.328116 0.250000 0.500000
O O13 0.325989 0.316848 0.250000
O O14 0.270473 0.389816 0.478786
O O15 0.777592 0.589006 0.250000
O O16 0.678944 0.250000 0.500000
O O17 0.678573 0.185146 0.750000
#
# Coordination Sequence:
#
# PCOD8233891 Si02
#       6
#     8   8   8   8   8   8
#     4  10  21  38  60  85 114 149 188 233 286 339
#     4  11  23  38  58  84 114 150 191 235 285 340
#     4  10  22  39  59  85 115 149 189 232 281 336
#     4  11  23  38  59  87 117 152 194 238 285 338
#     4  10  22  40  61  85 115 152 190 234 289 341
#     4  10  21  37  57  82 113 148 186 228 276 332
#
# _framework density 19.869288000000001
#
# number of rings (size 3 to 8) (size 9 to 14) (size 15 to 20)
#    0.000    1.667    0.000    4.000    0.000    8.667 
#    0.000    0.000    0.000    0.000    0.000    0.000 
#    0.000    0.000    0.000    0.000    0.000    0.000 
#
# Total GULP energy -595529.852219 kJ/mol
# GULP energy per Si atom -12406.871921 kJ/mol
# Density = 1.982406 g / cm^3
# Si number density = 19.869288 Si / 1000 Ang^3
#
#
#
# Elastic Constant Matrix: (Units=GPa)
#
#
# Indices 1 2 3 4 5 6 
#
# 1 57.4915 -1.5197 30.4585 0.0000 0.0000 0.0000
# 2 -1.5197 94.0109 34.5562 0.0000 0.0000 0.0000
# 3 30.4585 34.5562 73.8996 0.0000 0.0000 0.0000
# 4 0.0000 0.0000 0.0000 39.0964 0.0000 0.0000
# 5 0.0000 0.0000 0.0000 0.0000 30.9678 0.0000
# 6 0.0000 0.0000 0.0000 0.0000 0.0000 32.8545
#
#
#
# Elastic Compliance Matrix: (Units=1/GPa)
#
#
# Indices 1 2 3 4 5 6 
#
# 1 0.023954 0.004850 -0.012141 0.000000 0.000000 0.000000
# 2 0.004850 0.013827 -0.008465 0.000000 0.000000 0.000000
# 3 -0.012141 -0.008465 0.022494 0.000000 0.000000 0.000000
# 4 0.000000 0.000000 0.000000 0.025578 0.000000 0.000000
# 5 0.000000 0.000000 0.000000 0.000000 0.032292 0.000000
# 6 0.000000 0.000000 0.000000 0.000000 0.000000 0.030437
#
#
# Mechanical properties :
#
#
# Convention : Reuss Voigt Hill
#
# Bulk Modulus (GPa) = 34.76560 39.15467 36.96014
# Shear Modulus (GPa) = 26.36012 31.37752 28.86882
#
# Velocity S-wave (km/s) = 3.64631 3.97822 3.81588
# Velocity P-wave (km/s) = 5.93823 6.39145 6.16900
#
# Compressibility (1/GPa) = 0.02876407
#
# Stress axis : x y z
#
# Youngs Moduli (GPa) = 41.74640 72.32319 44.45645
#
# Poissons Ratio (x) = -0.35076 0.53974
# Poissons Ratio (y) = -0.20247 0.37630
# Poissons Ratio (z) = 0.50684 0.61218
#
# Static dielectric constant tensor:
#      x y z
#    x 3.809300 0.000000 0.000000 
#    y 0.000000 3.918400 0.000000 
#    z 0.000000 0.000000 3.587470 
# 
# 
# High freq. dielectric constant tensor:
#      x y z
#    x 1.788340 0.000000 0.000000 
#    y 0.000000 1.789330 0.000000 
#    z 0.000000 0.000000 1.771820 
# 
# From -- ./inp_files/4616.got.cif
#   From: 2010.03.12/outbox.cif.g09.slc.cpg/sg57_3_cif.got.tgz:4616.got - 2010.04.16 15:48:40.
