data_PCOD8233528
_publ_section_title
;
Structure prediction by ZEFSAII (Michael W. Deem and Ramdas Pophale) SiO2 
 PCOD8233528
Probable space group: P B C M
;
_chemical_formula_sum "Si O2"
_cell_formula_units_Z 64
_cell_length_a 14.355695
_cell_length_b 9.327205
_cell_length_c 25.094249
_cell_angle_alpha 90.000000
_cell_angle_beta 90.000000
_cell_angle_gamma 90.000000
_cell_volume 3360.082555
_symmetry_space_group_name_H-M "P B C M"
_symmetry_group_IT_number 57
_symmetry_cell_setting 'orthorhombic'
loop_
_space_group_symop_operation_xyz
x,y,z
-x,-y,1/2+z
x,1/2-y,-z
-x,1/2+y,1/2-z
-x,-y,-z
x,y,1/2-z
-x,1/2+y,z
x,1/2-y,1/2+z
loop_
_atom_site_type_symbol
_atom_site_label
_atom_site_fract_x
_atom_site_fract_y
_atom_site_fract_z
Si Si1 0.098562 0.518063 0.811911
Si Si2 0.908416 0.978803 0.133085
Si Si3 0.200693 0.261378 0.309579
Si Si4 0.492331 0.494009 0.379883
Si Si5 0.414789 0.260935 0.811225
Si Si6 0.825173 0.223096 0.897598
Si Si7 0.614284 0.248908 0.564040
Si Si8 0.014010 0.629366 0.962799
O O1 0.117968 0.545953 0.750000
O O2 0.138540 0.367280 0.832347
O O3 0.156192 0.640973 0.842387
O O4 0.988143 0.508565 0.822009
O O5 0.816706 0.904414 0.156626
O O6 0.950387 0.874467 0.088917
O O7 0.876528 0.125393 0.107022
O O8 0.169134 0.296718 0.250000
O O9 0.305994 0.213082 0.312147
O O10 0.546121 0.598323 0.339772
O O11 0.433918 0.386439 0.342688
O O12 0.557940 0.392815 0.416700
O O13 0.429635 0.598914 0.416913
O O14 0.451995 0.250051 0.750000
O O15 0.716538 0.237358 0.910298
O O16 0.877016 0.143441 0.946399
O O17 0.618105 0.250000 0.500000
O O18 0.973905 0.750000 0.000000
O O19 0.000000 0.500000 0.000000
#
# Coordination Sequence:
#
# PCOD8233528 Si02
#       8
#     8   8   8   8   8   8   8   8
#     4  10  21  37  57  83 120 159 193 237 293 350
#     4  11  22  35  56  81 116 153 196 237 284 345
#     4  10  21  36  55  82 114 149 187 234 285 346
#     4  10  22  40  62  90 115 155 200 247 314 380
#     4  10  20  38  62  88 120 150 189 244 306 369
#     4  11  23  38  59  89 115 154 200 248 295 357
#     4  11  23  41  64  85 121 157 205 260 314 364
#     4  11  22  39  57  81 115 154 195 240 287 339
#
# _framework density 19.047153000000002
#
# number of rings (size 3 to 8) (size 9 to 14) (size 15 to 20)
#    0.000    1.500    1.250    4.500    1.750    2.000 
#    0.000    3.125    0.000    0.000    0.000    0.000 
#    0.000    0.000    0.000    0.000    0.000    0.000 
#
# Total GULP energy -793248.651832 kJ/mol
# GULP energy per Si atom -12394.510185 kJ/mol
# Density = 1.900380 g / cm^3
# Si number density = 19.047153 Si / 1000 Ang^3
#
#
#
# Elastic Constant Matrix: (Units=GPa)
#
#
# Indices 1 2 3 4 5 6 
#
# 1 102.3903 48.3444 49.1504 0.0000 0.0000 0.0000
# 2 48.3444 119.9074 57.6566 0.0000 0.0000 0.0000
# 3 49.1504 57.6566 103.0836 0.0000 0.0000 0.0000
# 4 0.0000 0.0000 0.0000 35.2625 0.0000 0.0000
# 5 0.0000 0.0000 0.0000 0.0000 15.7415 0.0000
# 6 0.0000 0.0000 0.0000 0.0000 0.0000 30.9023
#
#
#
# Elastic Compliance Matrix: (Units=1/GPa)
#
#
# Indices 1 2 3 4 5 6 
#
# 1 0.013515 -0.003215 -0.004646 0.000000 0.000000 0.000000
# 2 -0.003215 0.012173 -0.005275 0.000000 0.000000 0.000000
# 3 -0.004646 -0.005275 0.014867 0.000000 0.000000 0.000000
# 4 0.000000 0.000000 0.000000 0.028359 0.000000 0.000000
# 5 0.000000 0.000000 0.000000 0.000000 0.063526 0.000000
# 6 0.000000 0.000000 0.000000 0.000000 0.000000 0.032360
#
#
# Mechanical properties :
#
#
# Convention : Reuss Voigt Hill
#
# Bulk Modulus (GPa) = 70.01973 70.63154 70.32563
# Shear Modulus (GPa) = 25.53219 27.72995 26.63107
#
# Velocity S-wave (km/s) = 3.66522 3.81971 3.74326
# Velocity P-wave (km/s) = 7.39952 7.52440 7.46222
#
# Compressibility (1/GPa) = 0.01428169
#
# Stress axis : x y z
#
# Youngs Moduli (GPa) = 73.99436 82.15120 67.26523
#
# Poissons Ratio (x) = 0.26412 0.31248
# Poissons Ratio (y) = 0.23790 0.35486
# Poissons Ratio (z) = 0.34374 0.43339
#
# Static dielectric constant tensor:
#      x y z
#    x 3.422020 0.000000 0.000000 
#    y 0.000000 3.638850 0.000000 
#    z 0.000000 0.000000 3.527330 
# 
# 
# High freq. dielectric constant tensor:
#      x y z
#    x 1.737080 0.000000 0.000000 
#    y 0.000000 1.755740 0.000000 
#    z 0.000000 0.000000 1.753550 
# 
# From -- ./inp_files/27448.got.cif
#   From: 2010.03.12/outbox.cif.g09.slc.cpg/sg57_14_cif.got.tgz:27448.got - 2010.04.16 15:48:40.
