data_PCOD8233056
_publ_section_title
;
Structure prediction by ZEFSAII (Michael W. Deem and Ramdas Pophale) SiO2 
 PCOD8233056
Probable space group: P B C M
;
_chemical_formula_sum "Si O2"
_cell_formula_units_Z 48
_cell_length_a 30.310081
_cell_length_b 9.389067
_cell_length_c 8.747758
_cell_angle_alpha 90.000000
_cell_angle_beta 90.000000
_cell_angle_gamma 90.000000
_cell_volume 2489.466550
_symmetry_space_group_name_H-M "P B C M"
_symmetry_group_IT_number 57
_symmetry_cell_setting 'orthorhombic'
loop_
_space_group_symop_operation_xyz
x,y,z
-x,-y,1/2+z
x,1/2-y,-z
-x,1/2+y,1/2-z
-x,-y,-z
x,y,1/2-z
-x,1/2+y,z
x,1/2-y,1/2+z
loop_
_atom_site_type_symbol
_atom_site_label
_atom_site_fract_x
_atom_site_fract_y
_atom_site_fract_z
Si Si1 0.696550 0.896654 0.428159
Si Si2 0.204485 0.103099 0.570115
Si Si3 0.617164 0.407025 0.930953
Si Si4 0.460186 0.091195 0.433129
Si Si5 0.036186 0.597491 0.574731
Si Si6 0.134021 0.902447 0.073864
O O1 0.678346 0.750000 0.500000
O O2 0.696970 0.867665 0.250000
O O3 0.745854 0.932284 0.488213
O O4 0.665665 0.031012 0.467918
O O5 0.187729 0.250000 0.500000
O O6 0.203184 0.115260 0.750000
O O7 0.171115 0.984520 0.517029
O O8 0.607301 0.401864 0.750000
O O9 0.612885 0.250000 0.000000
O O10 0.584147 0.514086 0.014077
O O11 0.462061 0.250000 0.500000
O O12 0.462878 0.097688 0.250000
O O13 0.500000 0.000000 0.500000
O O14 0.034107 0.750000 0.500000
O O15 0.023943 0.616725 0.750000
O O16 0.085172 0.528721 0.555381
O O17 0.000000 0.500000 0.500000
O O18 0.147941 0.892749 0.250000
O O19 0.132057 0.750000 0.000000
#
# Coordination Sequence:
#
# PCOD8233056 Si02
#       6
#     8   8   8   8   8   8
#     4   9  20  37  58  83 113 148 189 233 282 334
#     4  10  20  36  57  83 113 148 188 232 278 331
#     4  11  23  40  60  87 120 155 194 238 285 337
#     4  12  25  43  65  91 121 156 195 238 287 340
#     4  10  21  37  57  80 108 141 181 225 275 330
#     4  10  21  37  56  80 109 144 182 226 277 332
#
# _framework density 19.281238999999999
#
# number of rings (size 3 to 8) (size 9 to 14) (size 15 to 20)
#    0.000    1.667    0.000    4.500    0.000    6.667 
#    0.000    1.667    0.000    0.000    0.000    0.000 
#    0.000    0.000    0.000    0.000    0.000    0.000 
#
# Total GULP energy -595187.300050 kJ/mol
# GULP energy per Si atom -12399.735418 kJ/mol
# Density = 1.923735 g / cm^3
# Si number density = 19.281239 Si / 1000 Ang^3
#
#
#
# Elastic Constant Matrix: (Units=GPa)
#
#
# Indices 1 2 3 4 5 6 
#
# 1 109.2364 62.3799 53.9768 0.0000 0.0000 0.0000
# 2 62.3799 119.8811 52.6444 0.0000 0.0000 0.0000
# 3 53.9768 52.6444 120.7235 0.0000 0.0000 0.0000
# 4 0.0000 0.0000 0.0000 40.3972 0.0000 0.0000
# 5 0.0000 0.0000 0.0000 0.0000 33.9866 0.0000
# 6 0.0000 0.0000 0.0000 0.0000 0.0000 42.2671
#
#
#
# Elastic Compliance Matrix: (Units=1/GPa)
#
#
# Indices 1 2 3 4 5 6 
#
# 1 0.014381 -0.005763 -0.003917 0.000000 0.000000 0.000000
# 2 -0.005763 0.012627 -0.002930 0.000000 0.000000 0.000000
# 3 -0.003917 -0.002930 0.011312 0.000000 0.000000 0.000000
# 4 0.000000 0.000000 0.000000 0.024754 0.000000 0.000000
# 5 0.000000 0.000000 0.000000 0.000000 0.029423 0.000000
# 6 0.000000 0.000000 0.000000 0.000000 0.000000 0.023659
#
#
# Mechanical properties :
#
#
# Convention : Reuss Voigt Hill
#
# Bulk Modulus (GPa) = 76.32888 76.42702 76.37795
# Shear Modulus (GPa) = 34.30718 35.38616 34.84667
#
# Velocity S-wave (km/s) = 4.22276 4.28865 4.25583
# Velocity P-wave (km/s) = 7.96546 8.01545 7.99049
#
# Compressibility (1/GPa) = 0.01310120
#
# Stress axis : x y z
#
# Youngs Moduli (GPa) = 69.53701 79.19622 88.40101
#
# Poissons Ratio (x) = 0.45641 0.34624
# Poissons Ratio (y) = 0.40075 0.25897
# Poissons Ratio (z) = 0.27236 0.23201
#
# Static dielectric constant tensor:
#      x y z
#    x 4.021450 0.000000 0.000000 
#    y 0.000000 3.517730 0.000000 
#    z 0.000000 0.000000 3.724100 
# 
# 
# High freq. dielectric constant tensor:
#      x y z
#    x 1.765550 0.000000 0.000000 
#    y 0.000000 1.748580 0.000000 
#    z 0.000000 0.000000 1.766820 
# 
# From -- ./inp_files/9906.got.cif
#   From: 2010.03.12/outbox.cif.g09.slc.cpg/sg57_5_cif.got.tgz:9906.got - 2010.04.16 15:48:40.
