data_PCOD8233875
_publ_section_title
;
Structure prediction by ZEFSAII (Michael W. Deem and Ramdas Pophale) SiO2 
 PCOD8233875
Probable space group: P B C M
;
_chemical_formula_sum "Si O2"
_cell_formula_units_Z 64
_cell_length_a 20.348157
_cell_length_b 19.619462
_cell_length_c 8.746685
_cell_angle_alpha 90.000000
_cell_angle_beta 90.000000
_cell_angle_gamma 90.000000
_cell_volume 3491.850650
_symmetry_space_group_name_H-M "P B C M"
_symmetry_group_IT_number 57
_symmetry_cell_setting 'orthorhombic'
loop_
_space_group_symop_operation_xyz
x,y,z
-x,-y,1/2+z
x,1/2-y,-z
-x,1/2+y,1/2-z
-x,-y,-z
x,y,1/2-z
-x,1/2+y,z
x,1/2-y,1/2+z
loop_
_atom_site_type_symbol
_atom_site_label
_atom_site_fract_x
_atom_site_fract_y
_atom_site_fract_z
Si Si1 0.942955 0.315433 0.918967
Si Si2 0.788860 0.314860 0.584249
Si Si3 0.942267 0.043262 0.929657
Si Si4 0.196073 0.537518 0.430887
Si Si5 0.623491 0.679931 0.069228
Si Si6 0.441110 0.542954 0.429405
Si Si7 0.480797 0.678532 0.567859
Si Si8 0.319025 0.051661 0.927037
O O1 0.973969 0.326432 0.750000
O O2 0.866033 0.302225 0.900257
O O3 0.976042 0.250000 0.000000
O O4 0.956736 0.379207 0.026541
O O5 0.756062 0.250000 0.500000
O O6 0.754846 0.316311 0.750000
O O7 0.778150 0.388909 0.504157
O O8 0.941774 0.034743 0.750000
O O9 0.872606 0.016731 0.993617
O O10 0.000000 0.000000 0.000000
O O11 0.184359 0.546220 0.250000
O O12 0.248428 0.479393 0.469606
O O13 0.613886 0.687282 0.250000
O O14 0.652584 0.750000 0.000000
O O15 0.554227 0.663568 0.990151
O O16 0.672758 0.618519 0.030732
O O17 0.500000 0.500000 0.500000
O O18 0.453713 0.552011 0.250000
O O19 0.435396 0.617041 0.508182
O O20 0.373540 0.504662 0.465138
O O21 0.454523 0.750000 0.500000
O O22 0.480231 0.681508 0.750000
O O23 0.322904 0.073015 0.750000
#
# Coordination Sequence:
#
# PCOD8233875 Si02
#       8
#     8   8   8   8   8   8   8   8
#     4   9  16  28  47  74 105 136 172 215 260 310
#     4   8  14  25  44  68  96 130 168 207 249 295
#     4  11  21  34  54  80 109 143 181 224 271 324
#     4   9  19  36  54  76 107 143 180 222 270 325
#     4  11  21  34  55  80 107 136 178 227 274 326
#     4  11  21  34  54  80 109 143 180 222 270 322
#     4  11  21  35  54  77 107 142 183 229 278 327
#     4  10  21  37  57  79 109 145 181 221 274 327
#
# _framework density 18.328388
#
# number of rings (size 3 to 8) (size 9 to 14) (size 15 to 20)
#    0.000    2.000    1.250    5.625    0.000    4.000 
#    0.000    0.625    0.000    2.250    0.000    1.750 
#    0.000    0.000    0.000    0.000    0.000    0.000 
#
# Total GULP energy -793484.784867 kJ/mol
# GULP energy per Si atom -12398.199764 kJ/mol
# Density = 1.828667 g / cm^3
# Si number density = 18.328388 Si / 1000 Ang^3
#
#
#
# Elastic Constant Matrix: (Units=GPa)
#
#
# Indices 1 2 3 4 5 6 
#
# 1 71.5840 51.5597 43.4173 0.0000 0.0000 0.0000
# 2 51.5597 136.4724 60.0793 0.0000 0.0000 0.0000
# 3 43.4173 60.0793 128.4010 0.0000 0.0000 0.0000
# 4 0.0000 0.0000 0.0000 35.5990 0.0000 0.0000
# 5 0.0000 0.0000 0.0000 0.0000 19.4995 0.0000
# 6 0.0000 0.0000 0.0000 0.0000 0.0000 19.8764
#
#
#
# Elastic Compliance Matrix: (Units=1/GPa)
#
#
# Indices 1 2 3 4 5 6 
#
# 1 0.020879 -0.006020 -0.004243 0.000000 0.000000 0.000000
# 2 -0.006020 0.010964 -0.003095 0.000000 0.000000 0.000000
# 3 -0.004243 -0.003095 0.010671 0.000000 0.000000 0.000000
# 4 0.000000 0.000000 0.000000 0.028091 0.000000 0.000000
# 5 0.000000 0.000000 0.000000 0.000000 0.051283 0.000000
# 6 0.000000 0.000000 0.000000 0.000000 0.000000 0.050311
#
#
# Mechanical properties :
#
#
# Convention : Reuss Voigt Hill
#
# Bulk Modulus (GPa) = 63.29736 71.84109 67.56922
# Shear Modulus (GPa) = 24.48801 27.08842 25.78821
#
# Velocity S-wave (km/s) = 3.65919 3.84858 3.75508
# Velocity P-wave (km/s) = 7.24314 7.68313 7.46638
#
# Compressibility (1/GPa) = 0.01579845
#
# Stress axis : x y z
#
# Youngs Moduli (GPa) = 47.89398 91.20517 93.71337
#
# Poissons Ratio (x) = 0.54909 0.39765
# Poissons Ratio (y) = 0.28834 0.29000
# Poissons Ratio (z) = 0.20322 0.28224
#
# Static dielectric constant tensor:
#      x y z
#    x 3.002220 0.000000 0.000000 
#    y 0.000000 3.457360 0.000000 
#    z 0.000000 0.000000 3.558450 
# 
# 
# High freq. dielectric constant tensor:
#      x y z
#    x 1.661840 0.000000 0.000000 
#    y 0.000000 1.724240 0.000000 
#    z 0.000000 0.000000 1.719570 
# 
# From -- ./inp_files/7271.got.cif
#   From: 2010.03.12/outbox.cif.g09.slc.cpg/sg57_4_cif.got.tgz:7271.got - 2010.04.16 15:48:40.
