data_PCOD8233981
_publ_section_title
;
Structure prediction by ZEFSAII (Michael W. Deem and Ramdas Pophale) SiO2 
 PCOD8233981
Probable space group: P B C M
;
_chemical_formula_sum "Si O2"
_cell_formula_units_Z 48
_cell_length_a 20.776531
_cell_length_b 5.513296
_cell_length_c 18.597509
_cell_angle_alpha 90.000000
_cell_angle_beta 90.000000
_cell_angle_gamma 90.000000
_cell_volume 2130.291937
_symmetry_space_group_name_H-M "P B C M"
_symmetry_group_IT_number 57
_symmetry_cell_setting 'orthorhombic'
loop_
_space_group_symop_operation_xyz
x,y,z
-x,-y,1/2+z
x,1/2-y,-z
-x,1/2+y,1/2-z
-x,-y,-z
x,y,1/2-z
-x,1/2+y,z
x,1/2-y,1/2+z
loop_
_atom_site_type_symbol
_atom_site_label
_atom_site_fract_x
_atom_site_fract_y
_atom_site_fract_z
Si Si1 0.139044 0.839206 0.573203
Si Si2 0.529301 0.107468 0.666263
Si Si3 0.962395 0.555384 0.667110
Si Si4 0.664477 0.299676 0.670915
Si Si5 0.206907 0.493079 0.670338
Si Si6 0.735481 0.607943 0.569810
O O1 0.103250 0.750000 0.500000
O O2 0.098932 0.050045 0.613520
O O3 0.147453 0.620459 0.630044
O O4 0.209702 0.920992 0.544918
O O5 0.511831 0.102338 0.750000
O O6 0.497262 0.354251 0.632316
O O7 0.605987 0.119203 0.651840
O O8 0.939821 0.552921 0.750000
O O9 0.998632 0.806851 0.649864
O O10 0.650907 0.419980 0.750000
O O11 0.731415 0.163518 0.674512
O O12 0.671658 0.495687 0.607017
O O13 0.182251 0.425663 0.750000
O O14 0.227345 0.253418 0.630560
O O15 0.710375 0.750000 0.500000
#
# Coordination Sequence:
#
# PCOD8233981 Si02
#       6
#     8   8   8   8   8   8
#     4  11  23  40  61  90 127 160 205 254 313 377
#     4   9  18  32  54  84 119 157 201 259 316 366
#     4  10  24  44  66  94 127 167 213 259 309 366
#     4   9  20  35  55  87 120 156 205 256 313 377
#     4  10  21  37  60  88 118 157 202 256 311 371
#     4  11  22  37  60  87 121 162 202 257 313 374
#
# _framework density 22.532122000000001
#
# number of rings (size 3 to 8) (size 9 to 14) (size 15 to 20)
#    0.000    2.000    1.667    1.000    4.667    2.667 
#    0.000    0.000    0.000    1.000    0.000    0.000 
#    0.000    0.000    0.000    0.000    0.000    0.000 
#
# Total GULP energy -594881.693915 kJ/mol
# GULP energy per Si atom -12393.368623 kJ/mol
# Density = 2.248084 g / cm^3
# Si number density = 22.532122 Si / 1000 Ang^3
#
#
#
# Elastic Constant Matrix: (Units=GPa)
#
#
# Indices 1 2 3 4 5 6 
#
# 1 44.7196 -4.4661 11.1048 0.0000 0.0000 0.0000
# 2 -4.4661 86.8821 12.8237 0.0000 0.0000 0.0000
# 3 11.1048 12.8237 106.6286 0.0000 0.0000 0.0000
# 4 0.0000 0.0000 0.0000 27.8260 0.0000 0.0000
# 5 0.0000 0.0000 0.0000 0.0000 8.7770 0.0000
# 6 0.0000 0.0000 0.0000 0.0000 0.0000 15.7311
#
#
#
# Elastic Compliance Matrix: (Units=1/GPa)
#
#
# Indices 1 2 3 4 5 6 
#
# 1 0.023165 0.001575 -0.002602 0.000000 0.000000 0.000000
# 2 0.001575 0.011825 -0.001586 0.000000 0.000000 0.000000
# 3 -0.002602 -0.001586 0.009840 0.000000 0.000000 0.000000
# 4 0.000000 0.000000 0.000000 0.035938 0.000000 0.000000
# 5 0.000000 0.000000 0.000000 0.000000 0.113935 0.000000
# 6 0.000000 0.000000 0.000000 0.000000 0.000000 0.063568
#
#
# Mechanical properties :
#
#
# Convention : Reuss Voigt Hill
#
# Bulk Modulus (GPa) = 25.25029 30.79499 28.02264
# Shear Modulus (GPa) = 18.07024 25.05134 21.56079
#
# Velocity S-wave (km/s) = 2.83499 3.33799 3.09672
# Velocity P-wave (km/s) = 4.68475 5.34351 5.02494
#
# Compressibility (1/GPa) = 0.03960350
#
# Stress axis : x y z
#
# Youngs Moduli (GPa) = 43.16871 84.56719 101.62520
#
# Poissons Ratio (x) = -0.13318 0.26442
# Poissons Ratio (y) = -0.06798 0.16119
# Poissons Ratio (z) = 0.11232 0.13413
#
# Static dielectric constant tensor:
#      x y z
#    x 3.900650 0.000000 0.000000 
#    y 0.000000 4.250120 0.000000 
#    z 0.000000 0.000000 4.097120 
# 
# 
# High freq. dielectric constant tensor:
#      x y z
#    x 1.871970 0.000000 0.000000 
#    y 0.000000 1.889480 0.000000 
#    z 0.000000 0.000000 1.872760 
# 
# From -- ./inp_files/25689.got.cif
#   From: 2010.03.12/outbox.cif.g09.slc.cpg/sg57_13_cif.got.tgz:25689.got - 2010.04.16 15:48:40.
