data_PCOD8233204
_publ_section_title
;
Structure prediction by ZEFSAII (Michael W. Deem and Ramdas Pophale) SiO2 
 PCOD8233204
Probable space group: P B C M
;
_chemical_formula_sum "Si O2"
_cell_formula_units_Z 56
_cell_length_a 14.495533
_cell_length_b 11.562198
_cell_length_c 17.261422
_cell_angle_alpha 90.000000
_cell_angle_beta 90.000000
_cell_angle_gamma 90.000000
_cell_volume 2893.018171
_symmetry_space_group_name_H-M "P B C M"
_symmetry_group_IT_number 57
_symmetry_cell_setting 'orthorhombic'
loop_
_space_group_symop_operation_xyz
x,y,z
-x,-y,1/2+z
x,1/2-y,-z
-x,1/2+y,1/2-z
-x,-y,-z
x,y,1/2-z
-x,1/2+y,z
x,1/2-y,1/2+z
loop_
_atom_site_type_symbol
_atom_site_label
_atom_site_fract_x
_atom_site_fract_y
_atom_site_fract_z
Si Si1 0.679155 0.788701 0.337110
Si Si2 0.437878 0.141684 0.051829
Si Si3 0.094091 0.502206 0.548161
Si Si4 0.383247 0.985634 0.915949
Si Si5 0.124069 0.298609 0.663335
Si Si6 0.793188 0.146007 0.058925
Si Si7 0.921834 0.289380 0.162327
O O1 0.653304 0.757453 0.250000
O O2 0.637427 0.686403 0.388254
O O3 0.635210 0.913567 0.354152
O O4 0.789937 0.788212 0.349929
O O5 0.521434 0.082587 0.099072
O O6 0.474317 0.250000 0.000000
O O7 0.387267 0.043614 0.000923
O O8 0.120059 0.384556 0.590809
O O9 0.171661 0.531896 0.485290
O O10 0.096701 0.595791 0.615510
O O11 0.000000 0.500000 0.500000
O O12 0.304586 0.889022 0.905491
O O13 0.131928 0.356605 0.750000
O O14 0.031055 0.226224 0.659771
O O15 0.866746 0.181425 0.125041
O O16 0.778340 0.250000 0.000000
O O17 0.886380 0.303853 0.250000
#
# Coordination Sequence:
#
# PCOD8233204 Si02
#       7
#     8   8   8   8   8   8   8
#     4  10  22  37  56  86 113 144 189 231 279 338
#     4   9  19  38  59  84 115 148 183 232 294 345
#     4  11  21  35  55  81 108 147 193 233 271 327
#     4  10  20  36  61  86 111 149 188 234 285 339
#     4  10  21  37  56  79 116 154 185 229 282 334
#     4  10  21  36  54  84 112 145 192 238 272 328
#     4  10  22  38  53  77 115 152 186 229 284 336
#
# _framework density 19.356947000000002
#
# number of rings (size 3 to 8) (size 9 to 14) (size 15 to 20)
#    0.000    2.000    1.429    1.714    2.000    1.143 
#    0.000    0.000    0.000    0.000    0.000    0.000 
#    0.000    0.000    0.000    0.000    0.000    0.000 
#
# Total GULP energy -694222.881021 kJ/mol
# GULP energy per Si atom -12396.837161 kJ/mol
# Density = 1.931289 g / cm^3
# Si number density = 19.356947 Si / 1000 Ang^3
#
#
#
# Elastic Constant Matrix: (Units=GPa)
#
#
# Indices 1 2 3 4 5 6 
#
# 1 110.5819 23.0773 27.3854 0.0000 0.0000 0.0000
# 2 23.0773 43.1460 13.6165 0.0000 0.0000 0.0000
# 3 27.3854 13.6165 83.1535 0.0000 0.0000 0.0000
# 4 0.0000 0.0000 0.0000 24.0240 0.0000 0.0000
# 5 0.0000 0.0000 0.0000 0.0000 22.5243 0.0000
# 6 0.0000 0.0000 0.0000 0.0000 0.0000 35.1395
#
#
#
# Elastic Compliance Matrix: (Units=1/GPa)
#
#
# Indices 1 2 3 4 5 6 
#
# 1 0.010740 -0.004880 -0.002738 0.000000 0.000000 0.000000
# 2 -0.004880 0.026658 -0.002758 0.000000 0.000000 0.000000
# 3 -0.002738 -0.002758 0.013379 0.000000 0.000000 0.000000
# 4 0.000000 0.000000 0.000000 0.041625 0.000000 0.000000
# 5 0.000000 0.000000 0.000000 0.000000 0.044397 0.000000
# 6 0.000000 0.000000 0.000000 0.000000 0.000000 0.028458
#
#
# Mechanical properties :
#
#
# Convention : Reuss Voigt Hill
#
# Bulk Modulus (GPa) = 33.30605 40.55996 36.93300
# Shear Modulus (GPa) = 25.50811 27.85772 26.68291
#
# Velocity S-wave (km/s) = 3.63406 3.79774 3.71680
# Velocity P-wave (km/s) = 5.90357 6.34268 6.12706
#
# Compressibility (1/GPa) = 0.03002458
#
# Stress axis : x y z
#
# Youngs Moduli (GPa) = 93.11403 37.51251 74.74275
#
# Poissons Ratio (x) = 0.18307 0.20463
# Poissons Ratio (y) = 0.45441 0.20614
# Poissons Ratio (z) = 0.25492 0.10346
#
# Static dielectric constant tensor:
#      x y z
#    x 3.560120 0.000000 0.000000 
#    y 0.000000 3.459090 0.000000 
#    z 0.000000 0.000000 3.689950 
# 
# 
# High freq. dielectric constant tensor:
#      x y z
#    x 1.756210 0.000000 0.000000 
#    y 0.000000 1.747950 0.000000 
#    z 0.000000 0.000000 1.752050 
# 
# From -- ./inp_files/18523.got.cif
#   From: 2010.03.12/outbox.cif.g09.slc.cpg/sg57_10_cif.got.tgz:18523.got - 2010.04.16 15:48:40.
