data_PCOD8233009
_publ_section_title
;
Structure prediction by ZEFSAII (Michael W. Deem and Ramdas Pophale) SiO2 
 PCOD8233009
Probable space group: P B C M
;
_chemical_formula_sum "Si O2"
_cell_formula_units_Z 40
_cell_length_a 24.631866
_cell_length_b 9.761454
_cell_length_c 8.876348
_cell_angle_alpha 90.000000
_cell_angle_beta 90.000000
_cell_angle_gamma 90.000000
_cell_volume 2134.254206
_symmetry_space_group_name_H-M "P B C M"
_symmetry_group_IT_number 57
_symmetry_cell_setting 'orthorhombic'
loop_
_space_group_symop_operation_xyz
x,y,z
-x,-y,1/2+z
x,1/2-y,-z
-x,1/2+y,1/2-z
-x,-y,-z
x,y,1/2-z
-x,1/2+y,z
x,1/2-y,1/2+z
loop_
_atom_site_type_symbol
_atom_site_label
_atom_site_fract_x
_atom_site_fract_y
_atom_site_fract_z
Si Si1 0.662972 0.891218 0.574368
Si Si2 0.245258 0.899665 0.071194
Si Si3 0.962071 0.890839 0.075792
Si Si4 0.539653 0.892308 0.927887
Si Si5 0.163759 0.394552 0.074228
O O1 0.683014 0.750000 0.500000
O O2 0.667489 0.864957 0.750000
O O3 0.601557 0.928456 0.526996
O O4 0.700685 0.017183 0.523735
O O5 0.239249 0.886330 0.250000
O O6 0.248827 0.750000 0.000000
O O7 0.193970 0.980446 0.005855
O O8 0.976136 0.881322 0.250000
O O9 0.899320 0.926493 0.048082
O O10 0.978002 0.750000 0.000000
O O11 0.000000 0.000000 0.000000
O O12 0.531524 0.886890 0.750000
O O13 0.522348 0.750000 0.000000
O O14 0.500000 0.000000 0.000000
O O15 0.178893 0.387853 0.250000
O O16 0.180621 0.250000 0.000000
#
# Coordination Sequence:
#
# PCOD8233009 Si02
#       5
#     8   8   8   8   8
#     4   9  20  37  57  80 107 141 182 223 268 323
#     4  11  23  38  56  81 111 144 181 225 274 323
#     4  10  21  37  58  83 112 145 183 224 270 321
#     4  10  20  36  56  81 111 144 182 224 270 322
#     4  10  21  38  59  83 110 144 183 224 269 323
#
# _framework density 18.741911000000002
#
# number of rings (size 3 to 8) (size 9 to 14) (size 15 to 20)
#    0.000    2.000    0.000    3.000    0.000    8.000 
#    0.000    2.000    0.000    0.000    0.000    0.000 
#    0.000    0.000    0.000    0.000    0.000    0.000 
#
# Total GULP energy -496113.216554 kJ/mol
# GULP energy per Si atom -12402.830414 kJ/mol
# Density = 1.869925 g / cm^3
# Si number density = 18.741911 Si / 1000 Ang^3
#
#
#
# Elastic Constant Matrix: (Units=GPa)
#
#
# Indices 1 2 3 4 5 6 
#
# 1 103.2730 100.5462 66.9795 0.0000 0.0000 0.0000
# 2 100.5462 189.1842 89.6371 0.0000 0.0000 0.0000
# 3 66.9795 89.6371 113.8950 0.0000 0.0000 0.0000
# 4 0.0000 0.0000 0.0000 42.3589 0.0000 0.0000
# 5 0.0000 0.0000 0.0000 0.0000 28.3694 0.0000
# 6 0.0000 0.0000 0.0000 0.0000 0.0000 38.4124
#
#
#
# Elastic Compliance Matrix: (Units=1/GPa)
#
#
# Indices 1 2 3 4 5 6 
#
# 1 0.022422 -0.009040 -0.006071 0.000000 0.000000 0.000000
# 2 -0.009040 0.012074 -0.004186 0.000000 0.000000 0.000000
# 3 -0.006071 -0.004186 0.015645 0.000000 0.000000 0.000000
# 4 0.000000 0.000000 0.000000 0.023608 0.000000 0.000000
# 5 0.000000 0.000000 0.000000 0.000000 0.035249 0.000000
# 6 0.000000 0.000000 0.000000 0.000000 0.000000 0.026033
#
#
# Mechanical properties :
#
#
# Convention : Reuss Voigt Hill
#
# Bulk Modulus (GPa) = 86.60992 102.29754 94.45373
# Shear Modulus (GPa) = 28.17306 31.77408 29.97357
#
# Velocity S-wave (km/s) = 3.88133 4.12193 4.00344
# Velocity P-wave (km/s) = 8.14853 8.79514 8.47800
#
# Compressibility (1/GPa) = 0.01154602
#
# Stress axis : x y z
#
# Youngs Moduli (GPa) = 44.59870 82.82430 63.91893
#
# Poissons Ratio (x) = 0.74874 0.38807
# Poissons Ratio (y) = 0.40318 0.26756
# Poissons Ratio (z) = 0.27077 0.34669
#
# Static dielectric constant tensor:
#      x y z
#    x 3.619240 0.000000 0.000000 
#    y 0.000000 3.515180 0.000000 
#    z 0.000000 0.000000 3.616070 
# 
# 
# High freq. dielectric constant tensor:
#      x y z
#    x 1.735910 0.000000 0.000000 
#    y 0.000000 1.730510 0.000000 
#    z 0.000000 0.000000 1.742860 
# 
# From -- ./inp_files/8852.got.cif
#   From: 2010.03.12/outbox.cif.g09.slc.cpg/sg57_5_cif.got.tgz:8852.got - 2010.04.16 15:48:40.
