data_PCOD8233513
_publ_section_title
;
Structure prediction by ZEFSAII (Michael W. Deem and Ramdas Pophale) SiO2 
 PCOD8233513
Probable space group: P B C M
;
_chemical_formula_sum "Si O2"
_cell_formula_units_Z 48
_cell_length_a 30.307849
_cell_length_b 9.154026
_cell_length_c 8.703408
_cell_angle_alpha 90.000000
_cell_angle_beta 90.000000
_cell_angle_gamma 90.000000
_cell_volume 2414.663400
_symmetry_space_group_name_H-M "P B C M"
_symmetry_group_IT_number 57
_symmetry_cell_setting 'orthorhombic'
loop_
_space_group_symop_operation_xyz
x,y,z
-x,-y,1/2+z
x,1/2-y,-z
-x,1/2+y,1/2-z
-x,-y,-z
x,y,1/2-z
-x,1/2+y,z
x,1/2-y,1/2+z
loop_
_atom_site_type_symbol
_atom_site_label
_atom_site_fract_x
_atom_site_fract_y
_atom_site_fract_z
Si Si1 0.384526 0.905125 0.932511
Si Si2 0.203871 0.091472 0.568923
Si Si3 0.873957 0.092141 0.930453
Si Si4 0.539921 0.591151 0.432819
Si Si5 0.715530 0.401570 0.570465
Si Si6 0.039679 0.409600 0.570027
O O1 0.391296 0.905517 0.750000
O O2 0.334170 0.938956 0.982101
O O3 0.399753 0.750000 0.000000
O O4 0.413462 0.029185 0.010936
O O5 0.195698 0.250000 0.500000
O O6 0.198399 0.102587 0.750000
O O7 0.169132 0.976404 0.505521
O O8 0.252389 0.033522 0.520397
O O9 0.866432 0.106951 0.750000
O O10 0.915015 0.989732 0.971160
O O11 0.883506 0.250000 0.000000
O O12 0.534492 0.750000 0.500000
O O13 0.500000 0.500000 0.500000
O O14 0.537865 0.592911 0.250000
O O15 0.732426 0.250000 0.500000
O O16 0.717260 0.377300 0.750000
O O17 0.041335 0.250000 0.500000
O O18 0.032037 0.396278 0.750000
O O19 0.000000 0.500000 0.500000
#
# Coordination Sequence:
#
# PCOD8233513 Si02
#       6
#     8   8   8   8   8   8
#     4  10  20  38  61  88 120 155 194 239 289 344
#     4  11  23  39  59  86 119 157 198 244 294 348
#     4  11  24  41  62  89 119 155 196 243 294 350
#     4  12  25  42  62  87 117 153 194 239 290 346
#     4   9  20  37  59  86 117 153 195 239 288 344
#     4  11  24  41  63  90 122 157 197 242 293 348
#
# _framework density 19.878547000000001
#
# number of rings (size 3 to 8) (size 9 to 14) (size 15 to 20)
#    0.000    1.333    0.000    5.500    0.000    9.333 
#    0.000    1.667    0.000    0.000    0.000    0.000 
#    0.000    0.000    0.000    0.000    0.000    0.000 
#
# Total GULP energy -595439.544913 kJ/mol
# GULP energy per Si atom -12404.990519 kJ/mol
# Density = 1.983330 g / cm^3
# Si number density = 19.878547 Si / 1000 Ang^3
#
#
#
# Elastic Constant Matrix: (Units=GPa)
#
#
# Indices 1 2 3 4 5 6 
#
# 1 120.6336 72.8324 64.2061 0.0000 0.0000 0.0000
# 2 72.8324 166.8910 68.5785 0.0000 0.0000 0.0000
# 3 64.2061 68.5785 112.5903 0.0000 0.0000 0.0000
# 4 0.0000 0.0000 0.0000 40.6509 0.0000 0.0000
# 5 0.0000 0.0000 0.0000 0.0000 32.8465 0.0000
# 6 0.0000 0.0000 0.0000 0.0000 0.0000 25.6848
#
#
#
# Elastic Compliance Matrix: (Units=1/GPa)
#
#
# Indices 1 2 3 4 5 6 
#
# 1 0.013346 -0.003597 -0.005420 0.000000 0.000000 0.000000
# 2 -0.003597 0.008962 -0.003407 0.000000 0.000000 0.000000
# 3 -0.005420 -0.003407 0.014048 0.000000 0.000000 0.000000
# 4 0.000000 0.000000 0.000000 0.024600 0.000000 0.000000
# 5 0.000000 0.000000 0.000000 0.000000 0.030445 0.000000
# 6 0.000000 0.000000 0.000000 0.000000 0.000000 0.038933
#
#
# Mechanical properties :
#
#
# Convention : Reuss Voigt Hill
#
# Bulk Modulus (GPa) = 86.90164 90.14989 88.52576
# Shear Modulus (GPa) = 31.44306 32.80296 32.12301
#
# Velocity S-wave (km/s) = 3.98145 4.06663 4.02427
# Velocity P-wave (km/s) = 8.05898 8.21577 8.13775
#
# Compressibility (1/GPa) = 0.01150726
#
# Stress axis : x y z
#
# Youngs Moduli (GPa) = 74.92919 111.58318 71.18572
#
# Poissons Ratio (x) = 0.40139 0.38580
# Poissons Ratio (y) = 0.26954 0.24255
# Poissons Ratio (z) = 0.40609 0.38020
#
# Static dielectric constant tensor:
#      x y z
#    x 3.986040 0.000000 0.000000 
#    y 0.000000 3.721200 0.000000 
#    z 0.000000 0.000000 3.772950 
# 
# 
# High freq. dielectric constant tensor:
#      x y z
#    x 1.792610 0.000000 0.000000 
#    y 0.000000 1.785160 0.000000 
#    z 0.000000 0.000000 1.789890 
# 
# From -- ./inp_files/9885.got.cif
#   From: 2010.03.12/outbox.cif.g09.slc.cpg/sg57_5_cif.got.tgz:9885.got - 2010.04.16 15:48:40.
