data_PCOD8233520
_publ_section_title
;
Structure prediction by ZEFSAII (Michael W. Deem and Ramdas Pophale) SiO2 
 PCOD8233520
Probable space group: P B C M
;
_chemical_formula_sum "Si O2"
_cell_formula_units_Z 48
_cell_length_a 5.035007
_cell_length_b 17.908945
_cell_length_c 21.704665
_cell_angle_alpha 90.000000
_cell_angle_beta 90.000000
_cell_angle_gamma 90.000000
_cell_volume 1957.145747
_symmetry_space_group_name_H-M "P B C M"
_symmetry_group_IT_number 57
_symmetry_cell_setting 'orthorhombic'
loop_
_space_group_symop_operation_xyz
x,y,z
-x,-y,1/2+z
x,1/2-y,-z
-x,1/2+y,1/2-z
-x,-y,-z
x,y,1/2-z
-x,1/2+y,z
x,1/2-y,1/2+z
loop_
_atom_site_type_symbol
_atom_site_label
_atom_site_fract_x
_atom_site_fract_y
_atom_site_fract_z
Si Si1 0.665757 0.870805 0.862244
Si Si2 0.764793 0.040983 0.621286
Si Si3 0.367215 0.919315 0.750000
Si Si4 0.027228 0.757861 0.179129
Si Si5 0.414348 0.749857 0.933921
Si Si6 0.869053 0.019123 0.750000
Si Si7 0.758553 0.871865 0.105216
O O1 0.426840 0.872183 0.811856
O O2 0.906695 0.824078 0.832741
O O3 0.543827 0.830833 0.922035
O O4 0.777207 0.951307 0.883499
O O5 0.461978 0.064511 0.615238
O O6 0.977815 0.084679 0.577910
O O7 0.891594 0.066978 0.687790
O O8 0.569317 0.988267 0.750000
O O9 0.067567 0.948732 0.750000
O O10 0.134579 0.760416 0.250000
O O11 0.808480 0.822760 0.167706
O O12 0.244139 0.775833 0.125523
O O13 0.648576 0.688311 0.943835
O O14 0.259826 0.750000 0.000000
#
# Coordination Sequence:
#
# PCOD8233520 Si02
#       7
#     8   8   4   8   8   4   8
#     4  10  24  41  74 104 146 189 247 307 367 437
#     4  11  23  42  69 109 146 189 237 305 371 440
#     4  10  20  38  62 108 140 180 231 296 359 428
#     4  11  25  45  74 111 148 195 248 306 361 442
#     4  11  27  50  74 103 148 203 248 299 371 449
#     4  10  22  34  62 102 156 184 215 284 381 436
#     4  11  25  46  70 104 150 188 242 297 376 437
#
# _framework density 24.525510000000001
#
# number of rings (size 3 to 8) (size 9 to 14) (size 15 to 20)
#    0.000    1.333    2.500    2.000   10.500    3.333 
#    0.000    1.667    0.000    0.000    0.000    0.000 
#    0.000    0.000    0.000    0.000    0.000    0.000 
#
# Total GULP energy -594632.954530 kJ/mol
# GULP energy per Si atom -12388.186553 kJ/mol
# Density = 2.446969 g / cm^3
# Si number density = 24.525510 Si / 1000 Ang^3
#
#
#
# Elastic Constant Matrix: (Units=GPa)
#
#
# Indices 1 2 3 4 5 6 
#
# 1 107.7730 42.2784 29.8519 0.0000 0.0000 0.0000
# 2 42.2784 119.0573 16.8131 0.0000 0.0000 0.0000
# 3 29.8519 16.8131 123.9895 0.0000 0.0000 0.0000
# 4 0.0000 0.0000 0.0000 12.5369 0.0000 0.0000
# 5 0.0000 0.0000 0.0000 0.0000 21.8823 0.0000
# 6 0.0000 0.0000 0.0000 0.0000 0.0000 44.0518
#
#
#
# Elastic Compliance Matrix: (Units=1/GPa)
#
#
# Indices 1 2 3 4 5 6 
#
# 1 0.011355 -0.003717 -0.002230 0.000000 0.000000 0.000000
# 2 -0.003717 0.009780 -0.000431 0.000000 0.000000 0.000000
# 3 -0.002230 -0.000431 0.008660 0.000000 0.000000 0.000000
# 4 0.000000 0.000000 0.000000 0.079764 0.000000 0.000000
# 5 0.000000 0.000000 0.000000 0.000000 0.045699 0.000000
# 6 0.000000 0.000000 0.000000 0.000000 0.000000 0.022701
#
#
# Mechanical properties :
#
#
# Convention : Reuss Voigt Hill
#
# Bulk Modulus (GPa) = 58.68892 58.74516 58.71704
# Shear Modulus (GPa) = 25.45884 33.15262 29.30573
#
# Velocity S-wave (km/s) = 3.22538 3.68062 3.46049
# Velocity P-wave (km/s) = 6.15244 6.48593 6.32138
#
# Compressibility (1/GPa) = 0.01703899
#
# Stress axis : x y z
#
# Youngs Moduli (GPa) = 88.06993 102.24687 115.46682
#
# Poissons Ratio (x) = 0.38008 0.25746
# Poissons Ratio (y) = 0.32738 0.04979
# Poissons Ratio (z) = 0.19637 0.04409
#
# Static dielectric constant tensor:
#      x y z
#    x 4.403990 0.000000 0.000000 
#    y 0.000000 4.515650 0.000000 
#    z 0.000000 0.000000 4.182780 
# 
# 
# High freq. dielectric constant tensor:
#      x y z
#    x 1.978400 0.000000 0.000000 
#    y 0.000000 1.999610 0.000000 
#    z 0.000000 0.000000 1.929930 
# 
# From -- ./inp_files/26241.got.cif
#   From: 2010.03.12/outbox.cif.g09.slc.cpg/sg57_14_cif.got.tgz:26241.got - 2010.04.16 15:48:40.
