data_PCOD8233084
_publ_section_title
;
Structure prediction by ZEFSAII (Michael W. Deem and Ramdas Pophale) SiO2 
 PCOD8233084
Probable space group: P B C M
;
_chemical_formula_sum "Si O2"
_cell_formula_units_Z 64
_cell_length_a 13.807097
_cell_length_b 26.931683
_cell_length_c 8.834039
_cell_angle_alpha 90.000000
_cell_angle_beta 90.000000
_cell_angle_gamma 90.000000
_cell_volume 3284.922910
_symmetry_space_group_name_H-M "P B C M"
_symmetry_group_IT_number 57
_symmetry_cell_setting 'orthorhombic'
loop_
_space_group_symop_operation_xyz
x,y,z
-x,-y,1/2+z
x,1/2-y,-z
-x,1/2+y,1/2-z
-x,-y,-z
x,y,1/2-z
-x,1/2+y,z
x,1/2-y,1/2+z
loop_
_atom_site_type_symbol
_atom_site_label
_atom_site_fract_x
_atom_site_fract_y
_atom_site_fract_z
Si Si1 0.062506 0.383333 0.072568
Si Si2 0.844388 0.085732 0.577430
Si Si3 0.904343 0.520119 0.424187
Si Si4 0.658904 0.120144 0.426565
Si Si5 0.358048 0.135870 0.918471
Si Si6 0.451155 0.700589 0.581719
Si Si7 0.498041 0.446449 0.070909
Si Si8 0.190333 0.304644 0.929012
O O1 0.079916 0.378470 0.250000
O O2 0.951388 0.395231 0.032063
O O3 0.128729 0.429375 0.009897
O O4 0.094459 0.331959 0.992967
O O5 0.822262 0.101498 0.750000
O O6 0.771282 0.111594 0.462813
O O7 0.829930 0.025889 0.561384
O O8 0.924050 0.533567 0.250000
O O9 0.000000 0.500000 0.500000
O O10 0.639397 0.114937 0.250000
O O11 0.632812 0.175170 0.482879
O O12 0.593776 0.080909 0.514602
O O13 0.310994 0.132441 0.750000
O O14 0.453707 0.168151 0.909648
O O15 0.397650 0.082025 0.975372
O O16 0.281758 0.160309 0.032145
O O17 0.483700 0.750000 0.500000
O O18 0.410772 0.710753 0.750000
O O19 0.504526 0.449841 0.250000
O O20 0.500000 0.500000 0.000000
O O21 0.182746 0.298615 0.750000
O O22 0.201556 0.250000 0.000000
#
# Coordination Sequence:
#
# PCOD8233084 Si02
#       8
#     8   8   8   8   8   8   8   8
#     4  10  21  38  59  82 111 145 185 234 282 332
#     4   9  19  36  57  81 112 149 186 228 276 327
#     4   9  17  31  53  80 108 140 179 222 270 322
#     4  11  22  35  55  82 112 148 187 226 272 329
#     4   9  20  38  59  83 111 145 184 227 276 330
#     4  10  20  36  58  82 109 139 176 224 271 319
#     4  10  21  38  59  84 118 155 191 234 282 337
#     4  12  25  40  60  84 113 149 190 239 291 346
#
# _framework density 19.482952000000001
#
# number of rings (size 3 to 8) (size 9 to 14) (size 15 to 20)
#    0.000    2.000    0.000    5.625    0.000    8.000 
#    0.000    0.625    0.000    3.000    0.000    0.000 
#    0.000    0.000    0.000    0.000    0.000    0.000 
#
# Total GULP energy -793395.080121 kJ/mol
# GULP energy per Si atom -12396.798127 kJ/mol
# Density = 1.943861 g / cm^3
# Si number density = 19.482952 Si / 1000 Ang^3
#
#
#
# Elastic Constant Matrix: (Units=GPa)
#
#
# Indices 1 2 3 4 5 6 
#
# 1 67.8769 26.9100 35.0544 0.0000 0.0000 0.0000
# 2 26.9100 108.4233 51.3880 0.0000 0.0000 0.0000
# 3 35.0544 51.3880 128.4700 0.0000 0.0000 0.0000
# 4 0.0000 0.0000 0.0000 37.2984 0.0000 0.0000
# 5 0.0000 0.0000 0.0000 0.0000 31.6516 0.0000
# 6 0.0000 0.0000 0.0000 0.0000 0.0000 15.5597
#
#
#
# Elastic Compliance Matrix: (Units=1/GPa)
#
#
# Indices 1 2 3 4 5 6 
#
# 1 0.017724 -0.002600 -0.003796 0.000000 0.000000 0.000000
# 2 -0.002600 0.011762 -0.003995 0.000000 0.000000 0.000000
# 3 -0.003796 -0.003995 0.010418 0.000000 0.000000 0.000000
# 4 0.000000 0.000000 0.000000 0.026811 0.000000 0.000000
# 5 0.000000 0.000000 0.000000 0.000000 0.031594 0.000000
# 6 0.000000 0.000000 0.000000 0.000000 0.000000 0.064269
#
#
# Mechanical properties :
#
#
# Convention : Reuss Voigt Hill
#
# Bulk Modulus (GPa) = 52.29864 59.05278 55.67571
# Shear Modulus (GPa) = 26.35274 29.66312 28.00793
#
# Velocity S-wave (km/s) = 3.68177 3.90618 3.79563
# Velocity P-wave (km/s) = 6.70637 7.12180 6.91721
#
# Compressibility (1/GPa) = 0.01912096
#
# Stress axis : x y z
#
# Youngs Moduli (GPa) = 56.42152 85.01951 95.98817
#
# Poissons Ratio (x) = 0.22102 0.36440
# Poissons Ratio (y) = 0.14668 0.38352
# Poissons Ratio (z) = 0.21419 0.33969
#
# Static dielectric constant tensor:
#      x y z
#    x 3.450400 0.000000 0.000000 
#    y 0.000000 4.003110 0.000000 
#    z 0.000000 0.000000 3.699500 
# 
# 
# High freq. dielectric constant tensor:
#      x y z
#    x 1.740530 0.000000 0.000000 
#    y 0.000000 1.763140 0.000000 
#    z 0.000000 0.000000 1.769310 
# 
# From -- ./inp_files/5562.got.cif
#   From: 2010.03.12/outbox.cif.g09.slc.cpg/sg57_3_cif.got.tgz:5562.got - 2010.04.16 15:48:40.
