data_PCOD8233432
_publ_section_title
;
Structure prediction by ZEFSAII (Michael W. Deem and Ramdas Pophale) SiO2 
 PCOD8233432
Probable space group: P B C M
;
_chemical_formula_sum "Si O2"
_cell_formula_units_Z 56
_cell_length_a 14.710441
_cell_length_b 22.522200
_cell_length_c 8.510295
_cell_angle_alpha 90.000000
_cell_angle_beta 90.000000
_cell_angle_gamma 90.000000
_cell_volume 2819.558553
_symmetry_space_group_name_H-M "P B C M"
_symmetry_group_IT_number 57
_symmetry_cell_setting 'orthorhombic'
loop_
_space_group_symop_operation_xyz
x,y,z
-x,-y,1/2+z
x,1/2-y,-z
-x,1/2+y,1/2-z
-x,-y,-z
x,y,1/2-z
-x,1/2+y,z
x,1/2-y,1/2+z
loop_
_atom_site_type_symbol
_atom_site_label
_atom_site_fract_x
_atom_site_fract_y
_atom_site_fract_z
Si Si1 0.616354 0.445128 0.432104
Si Si2 0.574588 0.921288 0.565154
Si Si3 0.879082 0.645421 0.933365
Si Si4 0.904536 0.979746 0.932724
Si Si5 0.303510 0.188056 0.065908
Si Si6 0.798168 0.084453 0.068156
Si Si7 0.921208 0.314456 0.436592
O O1 0.636684 0.434462 0.250000
O O2 0.619991 0.515239 0.474186
O O3 0.520007 0.416155 0.473916
O O4 0.690899 0.410371 0.535415
O O5 0.555907 0.915878 0.750000
O O6 0.639513 0.868467 0.501601
O O7 0.866216 0.655529 0.750000
O O8 0.977646 0.667325 0.990890
O O9 0.867596 0.576687 0.974551
O O10 0.802086 0.682972 0.020324
O O11 0.913652 0.964149 0.750000
O O12 0.833059 0.031878 0.956794
O O13 0.000000 0.000000 0.000000
O O14 0.312491 0.189763 0.250000
O O15 0.343305 0.250000 0.000000
O O16 0.817459 0.070456 0.250000
O O17 0.848008 0.144426 0.020552
O O18 0.898831 0.250000 0.500000
O O19 0.910751 0.318966 0.250000
#
# Coordination Sequence:
#
# PCOD8233432 Si02
#       7
#     8   8   8   8   8   8   8
#     4  10  20  37  64  93 120 151 192 247 306 364
#     4   9  20  39  61  88 120 155 193 242 304 364
#     4  11  23  39  61  88 120 159 203 247 298 360
#     4  12  23  37  58  87 122 157 198 246 299 352
#     4  11  23  39  60  87 123 163 205 252 300 360
#     4  12  24  39  61  88 121 159 200 246 296 353
#     4  11  24  41  60  82 115 156 203 250 294 349
#
# _framework density 19.861263999999998
#
# number of rings (size 3 to 8) (size 9 to 14) (size 15 to 20)
#    0.000    1.143    1.429    5.571    0.000    5.714 
#    0.000    0.714    0.000    1.714    0.000    0.000 
#    0.000    0.000    0.000    0.000    0.000    0.000 
#
# Total GULP energy -694728.625632 kJ/mol
# GULP energy per Si atom -12405.868315 kJ/mol
# Density = 1.981606 g / cm^3
# Si number density = 19.861264 Si / 1000 Ang^3
#
#
#
# Elastic Constant Matrix: (Units=GPa)
#
#
# Indices 1 2 3 4 5 6 
#
# 1 119.7601 56.2302 37.6585 0.0000 0.0000 0.0000
# 2 56.2302 117.5382 18.8358 0.0000 0.0000 0.0000
# 3 37.6585 18.8358 60.7235 0.0000 0.0000 0.0000
# 4 0.0000 0.0000 0.0000 30.9629 0.0000 0.0000
# 5 0.0000 0.0000 0.0000 0.0000 34.1953 0.0000
# 6 0.0000 0.0000 0.0000 0.0000 0.0000 25.8985
#
#
#
# Elastic Compliance Matrix: (Units=1/GPa)
#
#
# Indices 1 2 3 4 5 6 
#
# 1 0.012717 -0.005072 -0.006313 0.000000 0.000000 0.000000
# 2 -0.005072 0.010976 -0.000259 0.000000 0.000000 0.000000
# 3 -0.006313 -0.000259 0.020464 0.000000 0.000000 0.000000
# 4 0.000000 0.000000 0.000000 0.032297 0.000000 0.000000
# 5 0.000000 0.000000 0.000000 0.000000 0.029244 0.000000
# 6 0.000000 0.000000 0.000000 0.000000 0.000000 0.038612
#
#
# Mechanical properties :
#
#
# Convention : Reuss Voigt Hill
#
# Bulk Modulus (GPa) = 47.92103 58.16342 53.04222
# Shear Modulus (GPa) = 28.64463 30.56452 29.60457
#
# Velocity S-wave (km/s) = 3.80180 3.92714 3.86498
# Velocity P-wave (km/s) = 6.59180 7.06482 6.83240
#
# Compressibility (1/GPa) = 0.02086767
#
# Stress axis : x y z
#
# Youngs Moduli (GPa) = 78.63773 91.10957 48.86716
#
# Poissons Ratio (x) = 0.46210 0.30850
# Poissons Ratio (y) = 0.39884 0.01267
# Poissons Ratio (z) = 0.49645 0.02361
#
# Static dielectric constant tensor:
#      x y z
#    x 3.812280 0.000000 0.000000 
#    y 0.000000 3.586260 0.000000 
#    z 0.000000 0.000000 3.591890 
# 
# 
# High freq. dielectric constant tensor:
#      x y z
#    x 1.775670 0.000000 0.000000 
#    y 0.000000 1.772690 0.000000 
#    z 0.000000 0.000000 1.783080 
# 
# From -- ./inp_files/5257.got.cif
#   From: 2010.03.12/outbox.cif.g09.slc.cpg/sg57_3_cif.got.tgz:5257.got - 2010.04.16 15:48:40.
