data_PCOD8233542
_publ_section_title
;
Structure prediction by ZEFSAII (Michael W. Deem and Ramdas Pophale) SiO2 
 PCOD8233542
Probable space group: P B C M
;
_chemical_formula_sum "Si O2"
_cell_formula_units_Z 64
_cell_length_a 11.834186
_cell_length_b 30.941244
_cell_length_c 8.820729
_cell_angle_alpha 90.000000
_cell_angle_beta 90.000000
_cell_angle_gamma 90.000000
_cell_volume 3229.837264
_symmetry_space_group_name_H-M "P B C M"
_symmetry_group_IT_number 57
_symmetry_cell_setting 'orthorhombic'
loop_
_space_group_symop_operation_xyz
x,y,z
-x,-y,1/2+z
x,1/2-y,-z
-x,1/2+y,1/2-z
-x,-y,-z
x,y,1/2-z
-x,1/2+y,z
x,1/2-y,1/2+z
loop_
_atom_site_type_symbol
_atom_site_label
_atom_site_fract_x
_atom_site_fract_y
_atom_site_fract_z
Si Si1 0.013678 0.793581 0.071675
Si Si2 0.023756 0.954370 0.427498
Si Si3 0.485649 0.953703 0.926300
Si Si4 0.508183 0.294325 0.928050
Si Si5 0.124219 0.375537 0.070042
Si Si6 0.239891 0.818568 0.924372
Si Si7 0.617599 0.624446 0.930146
Si Si8 0.238082 0.581333 0.422473
O O1 0.001101 0.790547 0.250000
O O2 0.943176 0.834029 0.005282
O O3 0.962535 0.750000 0.000000
O O4 0.145431 0.797494 0.029955
O O5 0.008406 0.959075 0.250000
O O6 0.150582 0.940197 0.463598
O O7 0.936022 0.918799 0.493036
O O8 0.000000 0.000000 0.500000
O O9 0.518571 0.954803 0.750000
O O10 0.356951 0.940854 0.950628
O O11 0.566161 0.919939 0.009825
O O12 0.500000 0.000000 0.000000
O O13 0.483630 0.295163 0.750000
O O14 0.641053 0.296800 0.963571
O O15 0.460755 0.250000 0.000000
O O16 0.445777 0.334575 0.002273
O O17 0.116627 0.375225 0.250000
O O18 0.252814 0.373927 0.014373
O O19 0.206025 0.810887 0.750000
O O20 0.251091 0.868761 0.962736
O O21 0.607803 0.625616 0.750000
O O22 0.196822 0.574557 0.250000
#
# Coordination Sequence:
#
# PCOD8233542 Si02
#       8
#     8   8   8   8   8   8   8   8
#     4  11  22  39  61  89 121 157 200 247 298 358
#     4  11  23  41  63  92 124 160 204 251 303 363
#     4  11  24  43  64  93 127 162 205 255 307 365
#     4  11  23  41  62  91 125 161 203 253 306 364
#     4   9  22  42  61  84 121 160 199 248 301 354
#     4  10  20  38  62  90 123 157 196 246 304 356
#     4  11  23  42  65  89 121 164 206 252 308 364
#     4  10  21  40  64  90 125 161 198 252 306 355
#
# _framework density 19.815238999999998
#
# number of rings (size 3 to 8) (size 9 to 14) (size 15 to 20)
#    0.000    1.500    2.500    2.250    1.750    3.500 
#    0.000    5.625    0.000    0.000    0.000    0.000 
#    0.000    0.000    0.000    0.000    0.000    0.000 
#
# Total GULP energy -793872.081444 kJ/mol
# GULP energy per Si atom -12404.251273 kJ/mol
# Density = 1.977014 g / cm^3
# Si number density = 19.815239 Si / 1000 Ang^3
#
#
#
# Elastic Constant Matrix: (Units=GPa)
#
#
# Indices 1 2 3 4 5 6 
#
# 1 101.3415 60.5169 50.9307 0.0000 0.0000 0.0000
# 2 60.5169 179.4455 58.2101 0.0000 0.0000 0.0000
# 3 50.9307 58.2101 83.7669 0.0000 0.0000 0.0000
# 4 0.0000 0.0000 0.0000 38.6626 0.0000 0.0000
# 5 0.0000 0.0000 0.0000 0.0000 21.5650 0.0000
# 6 0.0000 0.0000 0.0000 0.0000 0.0000 45.4426
#
#
#
# Elastic Compliance Matrix: (Units=1/GPa)
#
#
# Indices 1 2 3 4 5 6 
#
# 1 0.015190 -0.002746 -0.007327 0.000000 0.000000 0.000000
# 2 -0.002746 0.007691 -0.003675 0.000000 0.000000 0.000000
# 3 -0.007327 -0.003675 0.018947 0.000000 0.000000 0.000000
# 4 0.000000 0.000000 0.000000 0.025865 0.000000 0.000000
# 5 0.000000 0.000000 0.000000 0.000000 0.046372 0.000000
# 6 0.000000 0.000000 0.000000 0.000000 0.000000 0.022006
#
#
# Mechanical properties :
#
#
# Convention : Reuss Voigt Hill
#
# Bulk Modulus (GPa) = 69.77840 78.20770 73.99305
# Shear Modulus (GPa) = 29.70129 34.12710 31.91420
#
# Velocity S-wave (km/s) = 3.87578 4.15452 4.01757
# Velocity P-wave (km/s) = 7.43773 7.90996 7.67748
#
# Compressibility (1/GPa) = 0.01433108
#
# Stress axis : x y z
#
# Youngs Moduli (GPa) = 65.83375 130.02513 52.77938
#
# Poissons Ratio (x) = 0.35701 0.38674
# Poissons Ratio (y) = 0.18076 0.19396
# Poissons Ratio (z) = 0.48239 0.47784
#
# Static dielectric constant tensor:
#      x y z
#    x 3.517660 0.000000 0.000000 
#    y 0.000000 3.731820 0.000000 
#    z 0.000000 0.000000 3.547660 
# 
# 
# High freq. dielectric constant tensor:
#      x y z
#    x 1.774240 0.000000 0.000000 
#    y 0.000000 1.794000 0.000000 
#    z 0.000000 0.000000 1.767250 
# 
# From -- ./inp_files/3820.got.cif
#   From: 2010.03.12/outbox.cif.g09.slc.cpg/sg57_2_cif.got.tgz:3820.got - 2010.04.16 15:48:40.
