data_PCOD8233327
_publ_section_title
;
Structure prediction by ZEFSAII (Michael W. Deem and Ramdas Pophale) SiO2 
 PCOD8233327
Probable space group: P B C M
;
_chemical_formula_sum "Si O2"
_cell_formula_units_Z 48
_cell_length_a 30.240154
_cell_length_b 9.152954
_cell_length_c 8.699851
_cell_angle_alpha 90.000000
_cell_angle_beta 90.000000
_cell_angle_gamma 90.000000
_cell_volume 2408.003384
_symmetry_space_group_name_H-M "P B C M"
_symmetry_group_IT_number 57
_symmetry_cell_setting 'orthorhombic'
loop_
_space_group_symop_operation_xyz
x,y,z
-x,-y,1/2+z
x,1/2-y,-z
-x,1/2+y,1/2-z
-x,-y,-z
x,y,1/2-z
-x,1/2+y,z
x,1/2-y,1/2+z
loop_
_atom_site_type_symbol
_atom_site_label
_atom_site_fract_x
_atom_site_fract_y
_atom_site_fract_z
Si Si1 0.779836 0.095748 0.431654
Si Si2 0.120404 0.900966 0.930340
Si Si3 0.039523 0.408153 0.431657
Si Si4 0.706264 0.904353 0.928104
Si Si5 0.380147 0.910304 0.070449
Si Si6 0.459347 0.411267 0.067410
O O1 0.763436 0.250000 0.500000
O O2 0.775448 0.104752 0.250000
O O3 0.829946 0.062175 0.486770
O O4 0.750526 0.963383 0.493153
O O5 0.119945 0.881118 0.750000
O O6 0.086811 0.026470 0.983654
O O7 0.103203 0.750000 0.000000
O O8 0.036219 0.250000 0.500000
O O9 0.034794 0.403924 0.250000
O O10 0.000000 0.500000 0.500000
O O11 0.715755 0.880293 0.750000
O O12 0.667795 0.021145 0.956473
O O13 0.692301 0.750000 0.000000
O O14 0.392773 0.903853 0.250000
O O15 0.380768 0.750000 0.000000
O O16 0.414405 0.010534 0.980389
O O17 0.463023 0.403734 0.250000
O O18 0.460069 0.250000 0.000000
O O19 0.500000 0.500000 0.000000
#
# Coordination Sequence:
#
# PCOD8233327 Si02
#       6
#     8   8   8   8   8   8
#     4  10  20  37  60  86 117 153 194 238 287 344
#     4   9  20  37  58  84 114 149 189 235 286 342
#     4  11  23  39  58  83 114 149 190 235 287 343
#     4  11  24  40  60  87 120 157 197 244 296 349
#     4  11  24  42  64  91 122 158 200 245 296 351
#     4  12  25  43  66  93 126 162 202 247 297 351
#
# _framework density 19.933526000000001
#
# number of rings (size 3 to 8) (size 9 to 14) (size 15 to 20)
#    0.000    1.333    0.000    5.500    0.000    9.333 
#    0.000    1.667    0.000    0.000    0.000    0.000 
#    0.000    0.000    0.000    0.000    0.000    0.000 
#
# Total GULP energy -595441.213226 kJ/mol
# GULP energy per Si atom -12405.025276 kJ/mol
# Density = 1.988816 g / cm^3
# Si number density = 19.933526 Si / 1000 Ang^3
#
#
#
# Elastic Constant Matrix: (Units=GPa)
#
#
# Indices 1 2 3 4 5 6 
#
# 1 111.2315 67.6773 57.6422 0.0000 0.0000 0.0000
# 2 67.6773 166.9950 65.7343 0.0000 0.0000 0.0000
# 3 57.6422 65.7343 120.7760 0.0000 0.0000 0.0000
# 4 0.0000 0.0000 0.0000 41.7503 0.0000 0.0000
# 5 0.0000 0.0000 0.0000 0.0000 31.6893 0.0000
# 6 0.0000 0.0000 0.0000 0.0000 0.0000 61.2429
#
#
#
# Elastic Compliance Matrix: (Units=1/GPa)
#
#
# Indices 1 2 3 4 5 6 
#
# 1 0.013573 -0.003755 -0.004434 0.000000 0.000000 0.000000
# 2 -0.003755 0.008660 -0.002921 0.000000 0.000000 0.000000
# 3 -0.004434 -0.002921 0.011986 0.000000 0.000000 0.000000
# 4 0.000000 0.000000 0.000000 0.023952 0.000000 0.000000
# 5 0.000000 0.000000 0.000000 0.000000 0.031556 0.000000
# 6 0.000000 0.000000 0.000000 0.000000 0.000000 0.016328
#
#
# Mechanical properties :
#
#
# Convention : Reuss Voigt Hill
#
# Bulk Modulus (GPa) = 83.34732 86.79001 85.06866
# Shear Modulus (GPa) = 37.79999 40.79975 39.29987
#
# Velocity S-wave (km/s) = 4.35938 4.52906 4.44503
# Velocity P-wave (km/s) = 8.20014 8.42520 8.31343
#
# Compressibility (1/GPa) = 0.01199799
#
# Stress axis : x y z
#
# Youngs Moduli (GPa) = 73.67636 115.47495 83.43213
#
# Poissons Ratio (x) = 0.43364 0.36994
# Poissons Ratio (y) = 0.27667 0.24371
# Poissons Ratio (z) = 0.32668 0.33731
#
# Static dielectric constant tensor:
#      x y z
#    x 4.018820 0.000000 0.000000 
#    y 0.000000 3.669750 0.000000 
#    z 0.000000 0.000000 3.740700 
# 
# 
# High freq. dielectric constant tensor:
#      x y z
#    x 1.793020 0.000000 0.000000 
#    y 0.000000 1.787310 0.000000 
#    z 0.000000 0.000000 1.791630 
# 
# From -- ./inp_files/9990.got.cif
#   From: 2010.03.12/outbox.cif.g09.slc.cpg/sg57_5_cif.got.tgz:9990.got - 2010.04.16 15:48:40.
