data_PCOD8233539
_publ_section_title
;
Structure prediction by ZEFSAII (Michael W. Deem and Ramdas Pophale) SiO2 
 PCOD8233539
Probable space group: P B C M
;
_chemical_formula_sum "Si O2"
_cell_formula_units_Z 48
_cell_length_a 14.645276
_cell_length_b 8.707040
_cell_length_c 16.051368
_cell_angle_alpha 90.000000
_cell_angle_beta 90.000000
_cell_angle_gamma 90.000000
_cell_volume 2046.822357
_symmetry_space_group_name_H-M "P B C M"
_symmetry_group_IT_number 57
_symmetry_cell_setting 'orthorhombic'
loop_
_space_group_symop_operation_xyz
x,y,z
-x,-y,1/2+z
x,1/2-y,-z
-x,1/2+y,1/2-z
-x,-y,-z
x,y,1/2-z
-x,1/2+y,z
x,1/2-y,1/2+z
loop_
_atom_site_type_symbol
_atom_site_label
_atom_site_fract_x
_atom_site_fract_y
_atom_site_fract_z
Si Si1 0.388027 0.180109 0.912648
Si Si2 0.513621 0.721749 0.250000
Si Si3 0.062926 0.260701 0.655198
Si Si4 0.113622 0.929291 0.849557
Si Si5 0.759507 0.576740 0.385856
Si Si6 0.638198 0.432191 0.250000
Si Si7 0.281957 0.597502 0.456316
O O1 0.455809 0.196307 0.835658
O O2 0.292971 0.261297 0.888530
O O3 0.368708 0.997744 0.921826
O O4 0.427325 0.250000 0.000000
O O5 0.549271 0.547108 0.250000
O O6 0.403770 0.758194 0.250000
O O7 0.040751 0.224464 0.750000
O O8 0.140291 0.392136 0.649982
O O9 0.968782 0.323263 0.615815
O O10 0.095517 0.101074 0.614305
O O11 0.121289 0.928185 0.750000
O O12 0.208320 0.862363 0.885153
O O13 0.701472 0.457680 0.330151
O O14 0.770656 0.507872 0.476958
O O15 0.320756 0.750000 0.500000
#
# Coordination Sequence:
#
# PCOD8233539 Si02
#       7
#     8   4   8   8   8   4   8
#     4   9  20  41  67  96 128 174 215 263 320 400
#     4  10  22  40  74 103 127 167 217 260 332 392
#     4  10  20  38  62  90 121 169 215 266 316 374
#     4  10  23  39  61  89 125 165 219 265 317 374
#     4  10  20  40  64  85 124 172 212 250 322 390
#     4  10  22  42  68  99 125 165 215 258 314 402
#     4  11  24  39  56  95 129 165 216 267 322 369
#
# _framework density 23.450983999999998
#
# number of rings (size 3 to 8) (size 9 to 14) (size 15 to 20)
#    0.000    2.000    2.500    0.000    3.500    2.000 
#    1.500    8.333    0.000    0.000    0.000    0.000 
#    0.000    0.000    0.000    0.000    0.000    0.000 
#
# Total GULP energy -595056.937772 kJ/mol
# GULP energy per Si atom -12397.019537 kJ/mol
# Density = 2.339761 g / cm^3
# Si number density = 23.450984 Si / 1000 Ang^3
#
#
#
# Elastic Constant Matrix: (Units=GPa)
#
#
# Indices 1 2 3 4 5 6 
#
# 1 46.6977 1.5486 23.2654 0.0000 0.0000 0.0000
# 2 1.5486 41.7969 -6.4820 0.0000 0.0000 0.0000
# 3 23.2654 -6.4820 85.7026 0.0000 0.0000 0.0000
# 4 0.0000 0.0000 0.0000 27.9624 0.0000 0.0000
# 5 0.0000 0.0000 0.0000 0.0000 9.2423 0.0000
# 6 0.0000 0.0000 0.0000 0.0000 0.0000 33.7128
#
#
#
# Elastic Compliance Matrix: (Units=1/GPa)
#
#
# Indices 1 2 3 4 5 6 
#
# 1 0.024927 -0.001996 -0.006918 0.000000 0.000000 0.000000
# 2 -0.001996 0.024369 0.002385 0.000000 0.000000 0.000000
# 3 -0.006918 0.002385 0.013727 0.000000 0.000000 0.000000
# 4 0.000000 0.000000 0.000000 0.035762 0.000000 0.000000
# 5 0.000000 0.000000 0.000000 0.000000 0.108198 0.000000
# 6 0.000000 0.000000 0.000000 0.000000 0.000000 0.029662
#
#
# Mechanical properties :
#
#
# Convention : Reuss Voigt Hill
#
# Bulk Modulus (GPa) = 20.01425 23.42902 21.72163
# Shear Modulus (GPa) = 18.77169 24.57452 21.67311
#
# Velocity S-wave (km/s) = 2.83232 3.24066 3.04334
# Velocity P-wave (km/s) = 4.38738 4.90049 4.65101
#
# Compressibility (1/GPa) = 0.04996441
#
# Stress axis : x y z
#
# Youngs Moduli (GPa) = 40.11698 41.03565 72.85116
#
# Poissons Ratio (x) = 0.08192 0.50397
# Poissons Ratio (y) = 0.08009 -0.17375
# Poissons Ratio (z) = 0.27752 -0.09787
#
# Static dielectric constant tensor:
#      x y z
#    x 3.843720 0.000000 0.000000 
#    y 0.000000 4.247290 0.000000 
#    z 0.000000 0.000000 4.212500 
# 
# 
# High freq. dielectric constant tensor:
#      x y z
#    x 1.909580 0.000000 0.000000 
#    y 0.000000 1.924400 0.000000 
#    z 0.000000 0.000000 1.927100 
# 
# From -- ./inp_files/22539.got.cif
#   From: 2010.03.12/outbox.cif.g09.slc.cpg/sg57_12_cif.got.tgz:22539.got - 2010.04.16 15:48:40.
