data_PCOD8233012
_publ_section_title
;
Structure prediction by ZEFSAII (Michael W. Deem and Ramdas Pophale) SiO2 
 PCOD8233012
Probable space group: P B C M
;
_chemical_formula_sum "Si O2"
_cell_formula_units_Z 48
_cell_length_a 30.769321
_cell_length_b 9.092750
_cell_length_c 8.825129
_cell_angle_alpha 90.000000
_cell_angle_beta 90.000000
_cell_angle_gamma 90.000000
_cell_volume 2469.074678
_symmetry_space_group_name_H-M "P B C M"
_symmetry_group_IT_number 57
_symmetry_cell_setting 'orthorhombic'
loop_
_space_group_symop_operation_xyz
x,y,z
-x,-y,1/2+z
x,1/2-y,-z
-x,1/2+y,1/2-z
-x,-y,-z
x,y,1/2-z
-x,1/2+y,z
x,1/2-y,1/2+z
loop_
_atom_site_type_symbol
_atom_site_label
_atom_site_fract_x
_atom_site_fract_y
_atom_site_fract_z
Si Si1 0.284431 0.409347 0.429586
Si Si2 0.365964 0.905873 0.926106
Si Si3 0.462692 0.593986 0.427515
Si Si4 0.792435 0.090949 0.930283
Si Si5 0.960665 0.089465 0.570021
Si Si6 0.876321 0.591344 0.072566
O O1 0.277191 0.250000 0.500000
O O2 0.277988 0.399708 0.250000
O O3 0.332100 0.468624 0.476085
O O4 0.250791 0.523561 0.499324
O O5 0.362078 0.874232 0.750000
O O6 0.414255 0.965150 0.967568
O O7 0.354834 0.750000 0.000000
O O8 0.468228 0.750000 0.500000
O O9 0.500000 0.500000 0.500000
O O10 0.470353 0.602817 0.250000
O O11 0.787947 0.103331 0.750000
O O12 0.832308 0.987850 0.980109
O O13 0.800818 0.250000 0.000000
O O14 0.959892 0.250000 0.500000
O O15 0.965981 0.099869 0.750000
O O16 0.916539 0.008533 0.520922
O O17 0.000000 0.000000 0.500000
O O18 0.876699 0.615264 0.250000
O O19 0.880052 0.750000 0.000000
#
# Coordination Sequence:
#
# PCOD8233012 Si02
#       6
#     8   8   8   8   8   8
#     4  11  23  39  58  84 115 149 187 232 281 334
#     4   9  20  37  57  80 109 144 185 228 277 333
#     4  10  20  36  56  81 111 146 185 229 278 332
#     4  11  23  40  61  87 116 151 191 234 282 337
#     4  11  23  40  61  88 119 155 196 241 289 342
#     4  10  23  40  60  86 118 153 192 236 286 338
#
# _framework density 19.440480999999998
#
# number of rings (size 3 to 8) (size 9 to 14) (size 15 to 20)
#    0.000    1.667    0.000    4.000    0.000    9.333 
#    0.000    1.667    0.000    0.000    0.000    0.000 
#    0.000    0.000    0.000    0.000    0.000    0.000 
#
# Total GULP energy -595289.904520 kJ/mol
# GULP energy per Si atom -12401.873011 kJ/mol
# Density = 1.939623 g / cm^3
# Si number density = 19.440481 Si / 1000 Ang^3
#
#
#
# Elastic Constant Matrix: (Units=GPa)
#
#
# Indices 1 2 3 4 5 6 
#
# 1 150.9338 76.7734 58.9850 0.0000 0.0000 0.0000
# 2 76.7734 142.1211 57.7998 0.0000 0.0000 0.0000
# 3 58.9850 57.7998 81.8596 0.0000 0.0000 0.0000
# 4 0.0000 0.0000 0.0000 41.6981 0.0000 0.0000
# 5 0.0000 0.0000 0.0000 0.0000 31.5700 0.0000
# 6 0.0000 0.0000 0.0000 0.0000 0.0000 43.8308
#
#
#
# Elastic Compliance Matrix: (Units=1/GPa)
#
#
# Indices 1 2 3 4 5 6 
#
# 1 0.010389 -0.003602 -0.004943 0.000000 0.000000 0.000000
# 2 -0.003602 0.011120 -0.005256 0.000000 0.000000 0.000000
# 3 -0.004943 -0.005256 0.019489 0.000000 0.000000 0.000000
# 4 0.000000 0.000000 0.000000 0.023982 0.000000 0.000000
# 5 0.000000 0.000000 0.000000 0.000000 0.031676 0.000000
# 6 0.000000 0.000000 0.000000 0.000000 0.000000 0.022815
#
#
# Mechanical properties :
#
#
# Convention : Reuss Voigt Hill
#
# Bulk Modulus (GPa) = 74.64811 84.67012 79.65911
# Shear Modulus (GPa) = 32.99526 35.51020 34.25273
#
# Velocity S-wave (km/s) = 4.12423 4.27852 4.20209
# Velocity P-wave (km/s) = 7.82053 8.24959 8.03792
#
# Compressibility (1/GPa) = 0.01339619
#
# Stress axis : x y z
#
# Youngs Moduli (GPa) = 96.25322 89.93117 51.31173
#
# Poissons Ratio (x) = 0.32394 0.25362
# Poissons Ratio (y) = 0.34671 0.26969
# Poissons Ratio (z) = 0.47576 0.47267
#
# Static dielectric constant tensor:
#      x y z
#    x 3.930990 0.000000 0.000000 
#    y 0.000000 3.688440 0.000000 
#    z 0.000000 0.000000 3.665050 
# 
# 
# High freq. dielectric constant tensor:
#      x y z
#    x 1.778230 0.000000 0.000000 
#    y 0.000000 1.764230 0.000000 
#    z 0.000000 0.000000 1.766140 
# 
# From -- ./inp_files/9929.got.cif
#   From: 2010.03.12/outbox.cif.g09.slc.cpg/sg57_5_cif.got.tgz:9929.got - 2010.04.16 15:48:40.
