data_PCOD8233972
_publ_section_title
;
Structure prediction by ZEFSAII (Michael W. Deem and Ramdas Pophale) SiO2 
 PCOD8233972
Probable space group: P B C M
;
_chemical_formula_sum "Si O2"
_cell_formula_units_Z 40
_cell_length_a 9.980327
_cell_length_b 22.739467
_cell_length_c 8.760755
_cell_angle_alpha 90.000000
_cell_angle_beta 90.000000
_cell_angle_gamma 90.000000
_cell_volume 1988.229837
_symmetry_space_group_name_H-M "P B C M"
_symmetry_group_IT_number 57
_symmetry_cell_setting 'orthorhombic'
loop_
_space_group_symop_operation_xyz
x,y,z
-x,-y,1/2+z
x,1/2-y,-z
-x,1/2+y,1/2-z
-x,-y,-z
x,y,1/2-z
-x,1/2+y,z
x,1/2-y,1/2+z
loop_
_atom_site_type_symbol
_atom_site_label
_atom_site_fract_x
_atom_site_fract_y
_atom_site_fract_z
Si Si1 0.852933 0.506064 0.571339
Si Si2 0.239798 0.878848 0.575971
Si Si3 0.726222 0.880062 0.568062
Si Si4 0.977431 0.809933 0.574934
Si Si5 0.520474 0.314673 0.429468
O O1 0.871760 0.518621 0.750000
O O2 0.762424 0.448184 0.543587
O O3 0.765145 0.556180 0.493034
O O4 0.000000 0.500000 0.500000
O O5 0.283529 0.864912 0.750000
O O6 0.088629 0.858732 0.544707
O O7 0.335571 0.843277 0.462716
O O8 0.718698 0.882966 0.750000
O O9 0.585842 0.859437 0.500861
O O10 0.837610 0.833930 0.508732
O O11 0.023810 0.750000 0.500000
O O12 0.957747 0.795909 0.750000
O O13 0.507812 0.250000 0.500000
O O14 0.498211 0.309167 0.250000
#
# Coordination Sequence:
#
# PCOD8233972 Si02
#       5
#     8   8   8   8   8
#     4  11  22  40  66  96 131 167 211 265 321 379
#     4  10  22  42  64  91 126 167 211 261 315 376
#     4  11  23  42  65  92 127 169 213 264 318 377
#     4  10  21  37  59  89 121 158 208 259 312 371
#     4  12  26  44  65  94 128 170 214 261 320 382
#
# _framework density 20.118397000000002
#
# number of rings (size 3 to 8) (size 9 to 14) (size 15 to 20)
#    0.000    1.200    2.000    4.200    0.000    8.000 
#    0.000    0.000    0.000    0.000    0.000    0.000 
#    0.000    0.000    0.000    0.000    0.000    0.000 
#
# Total GULP energy -496137.068009 kJ/mol
# GULP energy per Si atom -12403.426700 kJ/mol
# Density = 2.007261 g / cm^3
# Si number density = 20.118397 Si / 1000 Ang^3
#
#
#
# Elastic Constant Matrix: (Units=GPa)
#
#
# Indices 1 2 3 4 5 6 
#
# 1 58.5567 19.8471 30.7866 0.0000 0.0000 0.0000
# 2 19.8471 108.6452 45.9226 0.0000 0.0000 0.0000
# 3 30.7866 45.9226 106.9461 0.0000 0.0000 0.0000
# 4 0.0000 0.0000 0.0000 38.3349 0.0000 0.0000
# 5 0.0000 0.0000 0.0000 0.0000 34.0443 0.0000
# 6 0.0000 0.0000 0.0000 0.0000 0.0000 21.4426
#
#
#
# Elastic Compliance Matrix: (Units=1/GPa)
#
#
# Indices 1 2 3 4 5 6 
#
# 1 0.020325 -0.001515 -0.005201 0.000000 0.000000 0.000000
# 2 -0.001515 0.011358 -0.004441 0.000000 0.000000 0.000000
# 3 -0.005201 -0.004441 0.012755 0.000000 0.000000 0.000000
# 4 0.000000 0.000000 0.000000 0.026086 0.000000 0.000000
# 5 0.000000 0.000000 0.000000 0.000000 0.029374 0.000000
# 6 0.000000 0.000000 0.000000 0.000000 0.000000 0.046636
#
#
# Mechanical properties :
#
#
# Convention : Reuss Voigt Hill
#
# Bulk Modulus (GPa) = 45.19777 51.91784 48.55781
# Shear Modulus (GPa) = 28.37341 30.60380 29.48861
#
# Velocity S-wave (km/s) = 3.75950 3.90447 3.83267
# Velocity P-wave (km/s) = 6.43116 6.79622 6.61621
#
# Compressibility (1/GPa) = 0.02212498
#
# Stress axis : x y z
#
# Youngs Moduli (GPa) = 49.20030 88.04218 78.40300
#
# Poissons Ratio (x) = 0.13336 0.40774
# Poissons Ratio (y) = 0.07453 0.34820
# Poissons Ratio (z) = 0.25587 0.39101
#
# Static dielectric constant tensor:
#      x y z
#    x 3.659390 0.000000 0.000000 
#    y 0.000000 3.800430 0.000000 
#    z 0.000000 0.000000 3.679560 
# 
# 
# High freq. dielectric constant tensor:
#      x y z
#    x 1.789610 0.000000 0.000000 
#    y 0.000000 1.801320 0.000000 
#    z 0.000000 0.000000 1.788720 
# 
# From -- ./inp_files/1508.got.cif
#   From: 2010.03.12/outbox.cif.g09.slc.cpg/sg57_1_cif.got.tgz:1508.got - 2010.04.16 15:48:40.
