data_PCOD8233202
_publ_section_title
;
Structure prediction by ZEFSAII (Michael W. Deem and Ramdas Pophale) SiO2 
 PCOD8233202
Probable space group: P B C M
;
_chemical_formula_sum "Si O2"
_cell_formula_units_Z 48
_cell_length_a 18.386250
_cell_length_b 8.449957
_cell_length_c 14.408733
_cell_angle_alpha 90.000000
_cell_angle_beta 90.000000
_cell_angle_gamma 90.000000
_cell_volume 2238.584301
_symmetry_space_group_name_H-M "P B C M"
_symmetry_group_IT_number 57
_symmetry_cell_setting 'orthorhombic'
loop_
_space_group_symop_operation_xyz
x,y,z
-x,-y,1/2+z
x,1/2-y,-z
-x,1/2+y,1/2-z
-x,-y,-z
x,y,1/2-z
-x,1/2+y,z
x,1/2-y,1/2+z
loop_
_atom_site_type_symbol
_atom_site_label
_atom_site_fract_x
_atom_site_fract_y
_atom_site_fract_z
Si Si1 0.386486 0.758601 0.250000
Si Si2 0.171471 0.430719 0.521615
Si Si3 0.303022 0.623108 0.926127
Si Si4 0.946145 0.064168 0.644312
Si Si5 0.484986 0.053481 0.250000
Si Si6 0.098937 0.579983 0.355913
Si Si7 0.564758 0.911007 0.549417
O O1 0.332558 0.787744 0.164718
O O2 0.426522 0.585115 0.250000
O O3 0.459396 0.869708 0.250000
O O4 0.191531 0.250000 0.500000
O O5 0.233357 0.509116 0.587786
O O6 0.096634 0.442253 0.578706
O O7 0.163720 0.524740 0.423732
O O8 0.366644 0.519592 0.968468
O O9 0.277547 0.750000 0.000000
O O10 0.925310 0.024358 0.750000
O O11 0.926128 0.243396 0.617910
O O12 0.031776 0.039381 0.629092
O O13 0.450637 0.128606 0.157125
O O14 0.127592 0.572858 0.250000
O O15 0.582412 0.750000 0.500000
O O16 0.500000 0.000000 0.500000
#
# Coordination Sequence:
#
# PCOD8233202 Si02
#       7
#     4   8   8   8   4   8   8
#     4  10  22  40  66  94 128 158 206 258 318 380
#     4  12  25  41  61  87 129 173 217 264 328 389
#     4  11  24  42  61  90 125 166 212 257 320 388
#     4  10  21  38  66  94 126 165 215 272 327 381
#     4  10  20  36  60  94 118 154 198 250 306 372
#     4  10  21  40  64  96 126 165 221 273 321 381
#     4  11  21  37  63  89 123 159 203 257 313 372
#
# _framework density 21.442122999999999
#
# number of rings (size 3 to 8) (size 9 to 14) (size 15 to 20)
#    0.000    1.333    0.000    7.000    1.167    2.000 
#    1.500    0.000    0.000    0.000    0.000    0.000 
#    0.000    0.000    0.000    0.000    0.000    0.000 
#
# Total GULP energy -595133.669083 kJ/mol
# GULP energy per Si atom -12398.618106 kJ/mol
# Density = 2.139332 g / cm^3
# Si number density = 21.442123 Si / 1000 Ang^3
#
#
#
# Elastic Constant Matrix: (Units=GPa)
#
#
# Indices 1 2 3 4 5 6 
#
# 1 78.3293 17.8903 26.8187 0.0000 0.0000 0.0000
# 2 17.8903 77.1023 32.2124 0.0000 0.0000 0.0000
# 3 26.8187 32.2124 109.3609 0.0000 0.0000 0.0000
# 4 0.0000 0.0000 0.0000 28.0601 0.0000 0.0000
# 5 0.0000 0.0000 0.0000 0.0000 33.3540 0.0000
# 6 0.0000 0.0000 0.0000 0.0000 0.0000 41.4692
#
#
#
# Elastic Compliance Matrix: (Units=1/GPa)
#
#
# Indices 1 2 3 4 5 6 
#
# 1 0.014230 -0.002103 -0.002870 0.000000 0.000000 0.000000
# 2 -0.002103 0.015100 -0.003932 0.000000 0.000000 0.000000
# 3 -0.002870 -0.003932 0.011006 0.000000 0.000000 0.000000
# 4 0.000000 0.000000 0.000000 0.035638 0.000000 0.000000
# 5 0.000000 0.000000 0.000000 0.000000 0.029981 0.000000
# 6 0.000000 0.000000 0.000000 0.000000 0.000000 0.024114
#
#
# Mechanical properties :
#
#
# Convention : Reuss Voigt Hill
#
# Bulk Modulus (GPa) = 44.39295 46.51503 45.45399
# Shear Modulus (GPa) = 32.17742 33.10141 32.63941
#
# Velocity S-wave (km/s) = 3.87804 3.93333 3.90578
# Velocity P-wave (km/s) = 6.38755 6.50911 6.44862
#
# Compressibility (1/GPa) = 0.02252610
#
# Stress axis : x y z
#
# Youngs Moduli (GPa) = 70.27621 66.22299 90.85829
#
# Poissons Ratio (x) = 0.13924 0.26078
# Poissons Ratio (y) = 0.14776 0.35728
# Poissons Ratio (z) = 0.20171 0.26041
#
# Static dielectric constant tensor:
#      x y z
#    x 3.759850 0.000000 0.000000 
#    y 0.000000 3.439770 0.000000 
#    z 0.000000 0.000000 4.039060 
# 
# 
# High freq. dielectric constant tensor:
#      x y z
#    x 1.831790 0.000000 0.000000 
#    y 0.000000 1.842450 0.000000 
#    z 0.000000 0.000000 1.853020 
# 
# From -- ./inp_files/18998.got.cif
#   From: 2010.03.12/outbox.cif.g09.slc.cpg/sg57_10_cif.got.tgz:18998.got - 2010.04.16 15:48:40.
