data_PCOD8233160
_publ_section_title
;
Structure prediction by ZEFSAII (Michael W. Deem and Ramdas Pophale) SiO2 
 PCOD8233160
Probable space group: P B C M
;
_chemical_formula_sum "Si O2"
_cell_formula_units_Z 56
_cell_length_a 14.885278
_cell_length_b 22.572235
_cell_length_c 8.667602
_cell_angle_alpha 90.000000
_cell_angle_beta 90.000000
_cell_angle_gamma 90.000000
_cell_volume 2912.262206
_symmetry_space_group_name_H-M "P B C M"
_symmetry_group_IT_number 57
_symmetry_cell_setting 'orthorhombic'
loop_
_space_group_symop_operation_xyz
x,y,z
-x,-y,1/2+z
x,1/2-y,-z
-x,1/2+y,1/2-z
-x,-y,-z
x,y,1/2-z
-x,1/2+y,z
x,1/2-y,1/2+z
loop_
_atom_site_type_symbol
_atom_site_label
_atom_site_fract_x
_atom_site_fract_y
_atom_site_fract_z
Si Si1 0.432636 0.187658 0.066231
Si Si2 0.916913 0.420768 0.930625
Si Si3 0.296975 0.092223 0.424854
Si Si4 0.590504 0.023632 0.573583
Si Si5 0.627255 0.145938 0.068205
Si Si6 0.190562 0.688254 0.931866
Si Si7 0.884953 0.954453 0.932239
O O1 0.431458 0.187165 0.250000
O O2 0.362718 0.139752 0.993388
O O3 0.532860 0.172517 0.008695
O O4 0.401394 0.250000 0.000000
O O5 0.900530 0.413190 0.750000
O O6 0.022472 0.421655 0.973990
O O7 0.871530 0.365740 0.014813
O O8 0.874262 0.482535 0.984337
O O9 0.290296 0.113823 0.250000
O O10 0.195665 0.088393 0.492604
O O11 0.335810 0.026828 0.436356
O O12 0.572874 0.042991 0.750000
O O13 0.630406 0.077185 0.475267
O O14 0.500000 0.000000 0.500000
O O15 0.639828 0.152985 0.250000
O O16 0.706792 0.180432 0.984476
O O17 0.187276 0.691885 0.750000
O O18 0.153025 0.750000 0.000000
O O19 0.876897 0.966553 0.750000
#
# Coordination Sequence:
#
# PCOD8233160 Si02
#       7
#     8   8   8   8   8   8   8
#     4  10  21  37  54  74 105 145 185 227 272 325
#     4  10  20  36  59  89 119 148 185 236 291 346
#     4   9  18  35  55  78 110 147 183 226 279 332
#     4  11  20  33  54  82 116 153 190 233 286 337
#     4  11  22  38  58  83 114 148 189 238 287 343
#     4  12  25  41  60  84 115 155 196 241 293 351
#     4   9  18  35  62  88 114 150 189 232 289 347
#
# _framework density 19.229037999999999
#
# number of rings (size 3 to 8) (size 9 to 14) (size 15 to 20)
#    0.000    1.714    1.429    3.857    0.000    4.000 
#    0.000    2.143    0.000    1.714    0.000    0.000 
#    0.000    0.000    0.000    0.000    0.000    0.000 
#
# Total GULP energy -694393.712064 kJ/mol
# GULP energy per Si atom -12399.887715 kJ/mol
# Density = 1.918527 g / cm^3
# Si number density = 19.229038 Si / 1000 Ang^3
#
#
#
# Elastic Constant Matrix: (Units=GPa)
#
#
# Indices 1 2 3 4 5 6 
#
# 1 136.2352 63.7645 39.1803 0.0000 0.0000 0.0000
# 2 63.7645 123.2024 42.1816 0.0000 0.0000 0.0000
# 3 39.1803 42.1816 81.2736 0.0000 0.0000 0.0000
# 4 0.0000 0.0000 0.0000 33.6031 0.0000 0.0000
# 5 0.0000 0.0000 0.0000 0.0000 22.5770 0.0000
# 6 0.0000 0.0000 0.0000 0.0000 0.0000 22.1598
#
#
#
# Elastic Compliance Matrix: (Units=1/GPa)
#
#
# Indices 1 2 3 4 5 6 
#
# 1 0.010129 -0.004342 -0.002629 0.000000 0.000000 0.000000
# 2 -0.004342 0.011732 -0.003996 0.000000 0.000000 0.000000
# 3 -0.002629 -0.003996 0.015646 0.000000 0.000000 0.000000
# 4 0.000000 0.000000 0.000000 0.029759 0.000000 0.000000
# 5 0.000000 0.000000 0.000000 0.000000 0.044293 0.000000
# 6 0.000000 0.000000 0.000000 0.000000 0.000000 0.045127
#
#
# Mechanical properties :
#
#
# Convention : Reuss Voigt Hill
#
# Bulk Modulus (GPa) = 64.21785 70.10712 67.16249
# Shear Modulus (GPa) = 27.20200 28.70694 27.95447
#
# Velocity S-wave (km/s) = 3.76524 3.86799 3.81696
# Velocity P-wave (km/s) = 7.23681 7.51576 7.37760
#
# Compressibility (1/GPa) = 0.01557199
#
# Stress axis : x y z
#
# Youngs Moduli (GPa) = 98.72962 85.23673 63.91605
#
# Poissons Ratio (x) = 0.37010 0.16806
# Poissons Ratio (y) = 0.42868 0.25540
# Poissons Ratio (z) = 0.25959 0.34059
#
# Static dielectric constant tensor:
#      x y z
#    x 3.857530 0.000000 0.000000 
#    y 0.000000 3.514670 0.000000 
#    z 0.000000 0.000000 3.440870 
# 
# 
# High freq. dielectric constant tensor:
#      x y z
#    x 1.755910 0.000000 0.000000 
#    y 0.000000 1.746440 0.000000 
#    z 0.000000 0.000000 1.739010 
# 
# From -- ./inp_files/5239.got.cif
#   From: 2010.03.12/outbox.cif.g09.slc.cpg/sg57_3_cif.got.tgz:5239.got - 2010.04.16 15:48:40.
