data_PCOD8233686
_publ_section_title
;
Structure prediction by ZEFSAII (Michael W. Deem and Ramdas Pophale) SiO2 
 PCOD8233686
Probable space group: P B C M
;
_chemical_formula_sum "Si O2"
_cell_formula_units_Z 64
_cell_length_a 17.169479
_cell_length_b 9.053771
_cell_length_c 19.769309
_cell_angle_alpha 90.000000
_cell_angle_beta 90.000000
_cell_angle_gamma 90.000000
_cell_volume 3073.110044
_symmetry_space_group_name_H-M "P B C M"
_symmetry_group_IT_number 57
_symmetry_cell_setting 'orthorhombic'
loop_
_space_group_symop_operation_xyz
x,y,z
-x,-y,1/2+z
x,1/2-y,-z
-x,1/2+y,1/2-z
-x,-y,-z
x,y,1/2-z
-x,1/2+y,z
x,1/2-y,1/2+z
loop_
_atom_site_type_symbol
_atom_site_label
_atom_site_fract_x
_atom_site_fract_y
_atom_site_fract_z
Si Si1 0.150772 0.841723 0.568861
Si Si2 0.412230 0.251806 0.672107
Si Si3 0.279956 0.468173 0.674283
Si Si4 0.918760 0.579953 0.496517
Si Si5 0.564027 0.422942 0.830724
Si Si6 0.969087 0.279023 0.323945
Si Si7 0.895688 0.577544 0.149981
Si Si8 0.684323 0.242441 0.581523
O O1 0.138806 0.750000 0.500000
O O2 0.089600 0.790316 0.623491
O O3 0.237283 0.832093 0.597071
O O4 0.136181 0.015951 0.555265
O O5 0.423963 0.219251 0.750000
O O6 0.327173 0.318571 0.655713
O O7 0.476785 0.371866 0.649950
O O8 0.423904 0.088959 0.639701
O O9 0.307002 0.524274 0.750000
O O10 0.188678 0.428728 0.684369
O O11 0.299786 0.580001 0.613132
O O12 0.936028 0.750000 0.500000
O O13 0.875329 0.543175 0.427212
O O14 0.000000 0.500000 0.500000
O O15 0.581377 0.407590 0.750000
O O16 0.617750 0.315310 0.874269
O O17 0.948326 0.217321 0.250000
O O18 0.957442 0.455838 0.323098
O O19 0.059061 0.234451 0.341163
O O20 0.666110 0.250000 0.500000
#
# Coordination Sequence:
#
# PCOD8233686 Si02
#       8
#     8   8   8   8   8   8   8   8
#     4  11  22  42  63  88 119 160 218 264 310 382
#     4   9  20  39  68 101 130 166 216 259 307 387
#     4  11  22  42  67  91 126 172 215 262 323 384
#     4  12  23  39  63  86 112 163 215 263 314 381
#     4  10  20  40  68  98 130 168 211 258 314 384
#     4  12  24  39  60  88 124 161 206 264 324 378
#     4  12  24  41  61  89 125 166 214 263 324 380
#     4  11  23  40  64  94 129 167 215 269 321 382
#
# _framework density 20.825809
#
# number of rings (size 3 to 8) (size 9 to 14) (size 15 to 20)
#    0.000    1.000    3.750    4.125    0.000    3.500 
#    0.000    3.125    0.000    0.000    0.000    0.000 
#    0.000    0.000    0.000    0.000    0.000    0.000 
#
# Total GULP energy -793004.955469 kJ/mol
# GULP energy per Si atom -12390.702429 kJ/mol
# Density = 2.077841 g / cm^3
# Si number density = 20.825809 Si / 1000 Ang^3
#
#
#
# Elastic Constant Matrix: (Units=GPa)
#
#
# Indices 1 2 3 4 5 6 
#
# 1 120.0289 64.2214 26.5680 0.0000 0.0000 0.0000
# 2 64.2214 113.7053 6.1941 0.0000 0.0000 0.0000
# 3 26.5680 6.1941 91.8017 0.0000 0.0000 0.0000
# 4 0.0000 0.0000 0.0000 25.7176 0.0000 0.0000
# 5 0.0000 0.0000 0.0000 0.0000 17.6292 0.0000
# 6 0.0000 0.0000 0.0000 0.0000 0.0000 19.2910
#
#
#
# Elastic Compliance Matrix: (Units=1/GPa)
#
#
# Indices 1 2 3 4 5 6 
#
# 1 0.012831 -0.007071 -0.003236 0.000000 0.000000 0.000000
# 2 -0.007071 0.012723 0.001188 0.000000 0.000000 0.000000
# 3 -0.003236 0.001188 0.011750 0.000000 0.000000 0.000000
# 4 0.000000 0.000000 0.000000 0.038884 0.000000 0.000000
# 5 0.000000 0.000000 0.000000 0.000000 0.056724 0.000000
# 6 0.000000 0.000000 0.000000 0.000000 0.000000 0.051838
#
#
# Mechanical properties :
#
#
# Convention : Reuss Voigt Hill
#
# Bulk Modulus (GPa) = 52.45035 57.72255 55.08645
# Shear Modulus (GPa) = 23.88428 27.76438 25.82433
#
# Velocity S-wave (km/s) = 3.39021 3.65522 3.52521
# Velocity P-wave (km/s) = 6.36903 6.75213 6.56338
#
# Compressibility (1/GPa) = 0.01906565
#
# Stress axis : x y z
#
# Youngs Moduli (GPa) = 77.93747 78.59478 85.11000
#
# Poissons Ratio (x) = 0.55571 0.27544
# Poissons Ratio (y) = 0.55107 -0.10109
# Poissons Ratio (z) = 0.25223 -0.09335
#
# Static dielectric constant tensor:
#      x y z
#    x 3.821930 0.000000 0.000000 
#    y 0.000000 -4.040620 0.000000 
#    z 0.000000 0.000000 2.281570 
# 
# 
# High freq. dielectric constant tensor:
#      x y z
#    x 1.810730 0.000000 0.000000 
#    y 0.000000 1.815500 0.000000 
#    z 0.000000 0.000000 1.813070 
# 
# From -- ./inp_files/25610.got.cif
#   From: 2010.03.12/outbox.cif.g09.slc.cpg/sg57_13_cif.got.tgz:25610.got - 2010.04.16 15:48:40.
