data_PCOD8233950
_publ_section_title
;
Structure prediction by ZEFSAII (Michael W. Deem and Ramdas Pophale) SiO2 
 PCOD8233950
Probable space group: P B C M
;
_chemical_formula_sum "Si O2"
_cell_formula_units_Z 48
_cell_length_a 29.749632
_cell_length_b 9.528844
_cell_length_c 8.671636
_cell_angle_alpha 90.000000
_cell_angle_beta 90.000000
_cell_angle_gamma 90.000000
_cell_volume 2458.231925
_symmetry_space_group_name_H-M "P B C M"
_symmetry_group_IT_number 57
_symmetry_cell_setting 'orthorhombic'
loop_
_space_group_symop_operation_xyz
x,y,z
-x,-y,1/2+z
x,1/2-y,-z
-x,1/2+y,1/2-z
-x,-y,-z
x,y,1/2-z
-x,1/2+y,z
x,1/2-y,1/2+z
loop_
_atom_site_type_symbol
_atom_site_label
_atom_site_fract_x
_atom_site_fract_y
_atom_site_fract_z
Si Si1 0.784162 0.397215 0.929164
Si Si2 0.637985 0.401543 0.930985
Si Si3 0.464013 0.601467 0.429300
Si Si4 0.712785 0.596156 0.067865
Si Si5 0.039529 0.405462 0.566848
Si Si6 0.889145 0.101654 0.070227
O O1 0.771802 0.396653 0.750000
O O2 0.836626 0.421878 0.958406
O O3 0.768210 0.250000 0.000000
O O4 0.758232 0.521607 0.012849
O O5 0.647913 0.396652 0.750000
O O6 0.586791 0.446442 0.967475
O O7 0.649220 0.250000 0.000000
O O8 0.668882 0.515891 0.010629
O O9 0.474348 0.750000 0.500000
O O10 0.500000 0.500000 0.500000
O O11 0.472136 0.611051 0.250000
O O12 0.712416 0.604238 0.250000
O O13 0.711884 0.750000 0.000000
O O14 0.035863 0.250000 0.500000
O O15 0.036096 0.398639 0.750000
O O16 0.086559 0.474310 0.516378
O O17 0.000000 0.500000 0.500000
O O18 0.901741 0.100595 0.250000
O O19 0.905120 0.250000 0.000000
#
# Coordination Sequence:
#
# PCOD8233950 Si02
#       6
#     8   8   8   8   8   8
#     4  10  21  39  63  89 119 155 195 237 284 343
#     4  10  21  39  61  85 113 149 192 235 283 340
#     4  10  21  37  59  85 115 150 189 234 283 339
#     4  12  25  40  59  84 116 152 192 240 291 342
#     4  12  25  42  63  88 120 157 198 243 292 346
#     4  10  21  39  63  91 121 155 195 239 288 342
#
# _framework density 19.526229000000001
#
# number of rings (size 3 to 8) (size 9 to 14) (size 15 to 20)
#    0.000    1.333    0.000    6.000    0.000    5.333 
#    0.000    0.000    0.000    0.000    0.000    0.000 
#    0.000    0.000    0.000    0.000    0.000    0.000 
#
# Total GULP energy -595449.563036 kJ/mol
# GULP energy per Si atom -12405.199230 kJ/mol
# Density = 1.948179 g / cm^3
# Si number density = 19.526229 Si / 1000 Ang^3
#
#
#
# Elastic Constant Matrix: (Units=GPa)
#
#
# Indices 1 2 3 4 5 6 
#
# 1 108.9143 88.4782 71.6511 0.0000 0.0000 0.0000
# 2 88.4782 166.4497 108.7457 0.0000 0.0000 0.0000
# 3 71.6511 108.7457 158.2012 0.0000 0.0000 0.0000
# 4 0.0000 0.0000 0.0000 42.8727 0.0000 0.0000
# 5 0.0000 0.0000 0.0000 0.0000 37.6151 0.0000
# 6 0.0000 0.0000 0.0000 0.0000 0.0000 47.0742
#
#
#
# Elastic Compliance Matrix: (Units=1/GPa)
#
#
# Indices 1 2 3 4 5 6 
#
# 1 0.016755 -0.007167 -0.002662 0.000000 0.000000 0.000000
# 2 -0.007167 0.013971 -0.006357 0.000000 0.000000 0.000000
# 3 -0.002662 -0.006357 0.011897 0.000000 0.000000 0.000000
# 4 0.000000 0.000000 0.000000 0.023325 0.000000 0.000000
# 5 0.000000 0.000000 0.000000 0.000000 0.026585 0.000000
# 6 0.000000 0.000000 0.000000 0.000000 0.000000 0.021243
#
#
# Mechanical properties :
#
#
# Convention : Reuss Voigt Hill
#
# Bulk Modulus (GPa) = 97.56349 107.92389 102.74369
# Shear Modulus (GPa) = 33.43007 36.49176 34.96092
#
# Velocity S-wave (km/s) = 4.14219 4.32772 4.23597
# Velocity P-wave (km/s) = 8.54113 8.96457 8.75541
#
# Compressibility (1/GPa) = 0.01024974
#
# Stress axis : x y z
#
# Youngs Moduli (GPa) = 59.68302 71.57589 84.05693
#
# Poissons Ratio (x) = 0.51301 0.22375
# Poissons Ratio (y) = 0.42777 0.53439
# Poissons Ratio (z) = 0.15887 0.45504
#
# Static dielectric constant tensor:
#      x y z
#    x 3.724590 0.000000 0.000000 
#    y 0.000000 3.542320 0.000000 
#    z 0.000000 0.000000 3.809850 
# 
# 
# High freq. dielectric constant tensor:
#      x y z
#    x 1.774860 0.000000 0.000000 
#    y 0.000000 1.763970 0.000000 
#    z 0.000000 0.000000 1.783250 
# 
# From -- ./inp_files/10018.got.cif
#   From: 2010.03.12/outbox.cif.g09.slc.cpg/sg57_6_cif.got.tgz:10018.got - 2010.04.16 15:48:40.
