data_PCOD8233813
_publ_section_title
;
Structure prediction by ZEFSAII (Michael W. Deem and Ramdas Pophale) SiO2 
 PCOD8233813
Probable space group: P B C M
;
_chemical_formula_sum "Si O2"
_cell_formula_units_Z 64
_cell_length_a 19.447612
_cell_length_b 18.884485
_cell_length_c 8.927624
_cell_angle_alpha 90.000000
_cell_angle_beta 90.000000
_cell_angle_gamma 90.000000
_cell_volume 3278.742559
_symmetry_space_group_name_H-M "P B C M"
_symmetry_group_IT_number 57
_symmetry_cell_setting 'orthorhombic'
loop_
_space_group_symop_operation_xyz
x,y,z
-x,-y,1/2+z
x,1/2-y,-z
-x,1/2+y,1/2-z
-x,-y,-z
x,y,1/2-z
-x,1/2+y,z
x,1/2-y,1/2+z
loop_
_atom_site_type_symbol
_atom_site_label
_atom_site_fract_x
_atom_site_fract_y
_atom_site_fract_z
Si Si1 0.534722 0.674910 0.075635
Si Si2 0.597187 0.411719 0.928196
Si Si3 0.217756 0.452044 0.073705
Si Si4 0.714084 0.324762 0.421898
Si Si5 0.031243 0.822148 0.074337
Si Si6 0.876133 0.822295 0.426074
Si Si7 0.634494 0.550344 0.425686
Si Si8 0.155234 0.584064 0.920873
O O1 0.526950 0.688892 0.250000
O O2 0.465929 0.636614 0.015636
O O3 0.600352 0.626067 0.039468
O O4 0.546030 0.750000 0.000000
O O5 0.600471 0.415809 0.750000
O O6 0.667830 0.381561 0.992596
O O7 0.588629 0.490695 0.993008
O O8 0.232712 0.451904 0.250000
O O9 0.173414 0.384916 0.021335
O O10 0.288519 0.449532 0.985375
O O11 0.174864 0.521565 0.032620
O O12 0.705311 0.250000 0.500000
O O13 0.689966 0.318348 0.250000
O O14 0.792113 0.350666 0.434195
O O15 0.035172 0.809731 0.250000
O O16 0.080852 0.886816 0.027835
O O17 0.953827 0.840441 0.021061
O O18 0.057517 0.750000 0.000000
O O19 0.849586 0.750000 0.500000
O O20 0.873357 0.811864 0.250000
O O21 0.635057 0.533535 0.250000
O O22 0.154026 0.555601 0.750000
#
# Coordination Sequence:
#
# PCOD8233813 Si02
#       8
#     8   8   8   8   8   8   8   8
#     4  10  24  42  62  89 119 151 192 238 288 344
#     4  11  22  39  62  89 117 152 192 235 287 344
#     4  11  23  38  58  85 116 151 194 241 287 344
#     4  11  22  35  54  83 118 156 195 235 280 334
#     4   9  18  35  57  82 114 152 193 237 287 343
#     4   9  20  38  59  84 113 148 193 242 291 343
#     4  11  23  41  62  86 117 154 194 239 290 346
#     4  10  21  36  55  81 116 154 192 236 287 341
#
# _framework density 19.519677000000001
#
# number of rings (size 3 to 8) (size 9 to 14) (size 15 to 20)
#    0.000    1.750    1.250    2.625    0.000    6.000 
#    0.000    2.500    0.000    0.000    0.000    0.000 
#    0.000    0.000    0.000    0.000    0.000    0.000 
#
# Total GULP energy -793850.345711 kJ/mol
# GULP energy per Si atom -12403.911652 kJ/mol
# Density = 1.947525 g / cm^3
# Si number density = 19.519677 Si / 1000 Ang^3
#
#
#
# Elastic Constant Matrix: (Units=GPa)
#
#
# Indices 1 2 3 4 5 6 
#
# 1 68.6763 59.9345 28.8254 0.0000 0.0000 0.0000
# 2 59.9345 139.7221 53.5375 0.0000 0.0000 0.0000
# 3 28.8254 53.5375 71.4652 0.0000 0.0000 0.0000
# 4 0.0000 0.0000 0.0000 37.0691 0.0000 0.0000
# 5 0.0000 0.0000 0.0000 0.0000 23.2318 0.0000
# 6 0.0000 0.0000 0.0000 0.0000 0.0000 33.4070
#
#
#
# Elastic Compliance Matrix: (Units=1/GPa)
#
#
# Indices 1 2 3 4 5 6 
#
# 1 0.023645 -0.009100 -0.002720 0.000000 0.000000 0.000000
# 2 -0.009100 0.013541 -0.006474 0.000000 0.000000 0.000000
# 3 -0.002720 -0.006474 0.019939 0.000000 0.000000 0.000000
# 4 0.000000 0.000000 0.000000 0.026977 0.000000 0.000000
# 5 0.000000 0.000000 0.000000 0.000000 0.043044 0.000000
# 6 0.000000 0.000000 0.000000 0.000000 0.000000 0.029934
#
#
# Mechanical properties :
#
#
# Convention : Reuss Voigt Hill
#
# Bulk Modulus (GPa) = 48.69013 62.71759 55.70386
# Shear Modulus (GPa) = 24.93601 27.91267 26.42434
#
# Velocity S-wave (km/s) = 3.57806 3.78560 3.68330
# Velocity P-wave (km/s) = 6.48601 7.16296 6.83287
#
# Compressibility (1/GPa) = 0.02053804
#
# Stress axis : x y z
#
# Youngs Moduli (GPa) = 42.29311 73.84844 50.15187
#
# Poissons Ratio (x) = 0.67205 0.13639
# Poissons Ratio (y) = 0.38488 0.32467
# Poissons Ratio (z) = 0.11502 0.47807
#
# Static dielectric constant tensor:
#      x y z
#    x 3.725320 0.000000 0.000000 
#    y 0.000000 3.396200 0.000000 
#    z 0.000000 0.000000 3.551060 
# 
# 
# High freq. dielectric constant tensor:
#      x y z
#    x 1.767020 0.000000 0.000000 
#    y 0.000000 1.765020 0.000000 
#    z 0.000000 0.000000 1.761510 
# 
# From -- ./inp_files/8610.got.cif
#   From: 2010.03.12/outbox.cif.g09.slc.cpg/sg57_5_cif.got.tgz:8610.got - 2010.04.16 15:48:40.
