data_PCOD8233680
_publ_section_title
;
Structure prediction by ZEFSAII (Michael W. Deem and Ramdas Pophale) SiO2 
 PCOD8233680
Probable space group: P B C M
;
_chemical_formula_sum "Si O2"
_cell_formula_units_Z 48
_cell_length_a 14.360221
_cell_length_b 9.426341
_cell_length_c 17.004106
_cell_angle_alpha 90.000000
_cell_angle_beta 90.000000
_cell_angle_gamma 90.000000
_cell_volume 2301.749586
_symmetry_space_group_name_H-M "P B C M"
_symmetry_group_IT_number 57
_symmetry_cell_setting 'orthorhombic'
loop_
_space_group_symop_operation_xyz
x,y,z
-x,-y,1/2+z
x,1/2-y,-z
-x,1/2+y,1/2-z
-x,-y,-z
x,y,1/2-z
-x,1/2+y,z
x,1/2-y,1/2+z
loop_
_atom_site_type_symbol
_atom_site_label
_atom_site_fract_x
_atom_site_fract_y
_atom_site_fract_z
Si Si1 0.332740 0.776338 0.839264
Si Si2 0.718049 0.502216 0.066074
Si Si3 0.578312 0.002024 0.065421
Si Si4 0.094126 0.084348 0.508793
Si Si5 0.359010 0.241693 0.838119
Si Si6 0.192328 0.030406 0.834254
O O1 0.359608 0.731519 0.750000
O O2 0.297691 0.644597 0.889901
O O3 0.422325 0.855870 0.879956
O O4 0.247768 0.884142 0.839213
O O5 0.656529 0.615208 0.113711
O O6 0.678955 0.498997 0.977331
O O7 0.827390 0.538155 0.055586
O O8 0.566058 0.861132 0.118654
O O9 0.500000 0.000000 0.000000
O O10 0.074949 0.250000 0.500000
O O11 0.119093 0.045337 0.597349
O O12 0.000000 0.000000 0.500000
O O13 0.394736 0.276022 0.750000
O O14 0.261431 0.162659 0.836133
O O15 0.139065 0.033443 0.750000
#
# Coordination Sequence:
#
# PCOD8233680 Si02
#       6
#     8   8   8   8   8   8
#     4  10  22  40  65  95 129 172 217 273 334 390
#     4  12  22  40  64  96 131 167 224 279 325 394
#     4  11  23  40  65  94 126 172 221 266 329 397
#     4  12  25  41  65  99 133 177 225 275 338 406
#     4  10  20  40  67  90 126 174 215 269 333 393
#     4   9  19  40  64  87 122 170 214 264 331 388
#
# _framework density 20.853701999999998
#
# number of rings (size 3 to 8) (size 9 to 14) (size 15 to 20)
#    0.000    1.333    5.000    3.000    2.333    2.667 
#    0.000    7.500    0.000    0.000    0.000    0.000 
#    0.000    0.000    0.000    0.000    0.000    0.000 
#
# Total GULP energy -595059.603732 kJ/mol
# GULP energy per Si atom -12397.075078 kJ/mol
# Density = 2.080624 g / cm^3
# Si number density = 20.853702 Si / 1000 Ang^3
#
#
#
# Elastic Constant Matrix: (Units=GPa)
#
#
# Indices 1 2 3 4 5 6 
#
# 1 59.6171 10.4769 20.5178 0.0000 0.0000 0.0000
# 2 10.4769 113.2468 38.4216 0.0000 0.0000 0.0000
# 3 20.5178 38.4216 148.0570 0.0000 0.0000 0.0000
# 4 0.0000 0.0000 0.0000 32.5296 0.0000 0.0000
# 5 0.0000 0.0000 0.0000 0.0000 29.2033 0.0000
# 6 0.0000 0.0000 0.0000 0.0000 0.0000 14.8455
#
#
#
# Elastic Compliance Matrix: (Units=1/GPa)
#
#
# Indices 1 2 3 4 5 6 
#
# 1 0.017694 -0.000883 -0.002223 0.000000 0.000000 0.000000
# 2 -0.000883 0.009727 -0.002402 0.000000 0.000000 0.000000
# 3 -0.002223 -0.002402 0.007686 0.000000 0.000000 0.000000
# 4 0.000000 0.000000 0.000000 0.030741 0.000000 0.000000
# 5 0.000000 0.000000 0.000000 0.000000 0.034243 0.000000
# 6 0.000000 0.000000 0.000000 0.000000 0.000000 0.067360
#
#
# Mechanical properties :
#
#
# Convention : Reuss Voigt Hill
#
# Bulk Modulus (GPa) = 41.50898 51.08369 46.29633
# Shear Modulus (GPa) = 26.81023 32.08265 29.44644
#
# Velocity S-wave (km/s) = 3.58946 3.92658 3.76180
# Velocity P-wave (km/s) = 6.09320 6.71616 6.41225
#
# Compressibility (1/GPa) = 0.02409117
#
# Stress axis : x y z
#
# Youngs Moduli (GPa) = 56.51668 102.80857 130.11514
#
# Poissons Ratio (x) = 0.09075 0.28924
# Poissons Ratio (y) = 0.04989 0.31251
# Poissons Ratio (z) = 0.12563 0.24693
#
# Static dielectric constant tensor:
#      x y z
#    x 3.431140 0.000000 0.000000 
#    y 0.000000 3.917700 0.000000 
#    z 0.000000 0.000000 4.168180 
# 
# 
# High freq. dielectric constant tensor:
#      x y z
#    x 1.783580 0.000000 0.000000 
#    y 0.000000 1.828620 0.000000 
#    z 0.000000 0.000000 1.842040 
# 
# From -- ./inp_files/22402.got.cif
#   From: 2010.03.12/outbox.cif.g09.slc.cpg/sg57_12_cif.got.tgz:22402.got - 2010.04.16 15:48:40.
