data_PCOD8233817
_publ_section_title
;
Structure prediction by ZEFSAII (Michael W. Deem and Ramdas Pophale) SiO2 
 PCOD8233817
Probable space group: P B C M
;
_chemical_formula_sum "Si O2"
_cell_formula_units_Z 48
_cell_length_a 16.252204
_cell_length_b 5.171827
_cell_length_c 30.366551
_cell_angle_alpha 90.000000
_cell_angle_beta 90.000000
_cell_angle_gamma 90.000000
_cell_volume 2552.417550
_symmetry_space_group_name_H-M "P B C M"
_symmetry_group_IT_number 57
_symmetry_cell_setting 'orthorhombic'
loop_
_space_group_symop_operation_xyz
x,y,z
-x,-y,1/2+z
x,1/2-y,-z
-x,1/2+y,1/2-z
-x,-y,-z
x,y,1/2-z
-x,1/2+y,z
x,1/2-y,1/2+z
loop_
_atom_site_type_symbol
_atom_site_label
_atom_site_fract_x
_atom_site_fract_y
_atom_site_fract_z
Si Si1 0.446871 0.282860 0.699679
Si Si2 0.946014 0.236983 0.550322
Si Si3 0.802315 0.322995 0.621098
Si Si4 0.276869 0.318885 0.843229
Si Si5 0.036440 0.890340 0.659090
Si Si6 0.814387 0.654749 0.250000
Si Si7 0.923202 0.349589 0.750000
O O1 0.413877 0.302331 0.750000
O O2 0.513971 0.503437 0.691081
O O3 0.374357 0.317325 0.664409
O O4 0.916313 0.250000 0.500000
O O5 0.862847 0.292774 0.578770
O O6 0.014188 0.456968 0.560300
O O7 0.746222 0.579429 0.624265
O O8 0.865521 0.361787 0.661499
O O9 0.746975 0.072218 0.628743
O O10 0.237948 0.318062 0.794776
O O11 0.010808 0.854773 0.709812
O O12 0.993805 0.648673 0.633987
O O13 0.857951 0.379106 0.250000
O O14 0.877982 0.881333 0.250000
#
# Coordination Sequence:
#
# PCOD8233817 Si02
#       7
#     8   8   8   8   8   4   4
#     4  10  21  36  56  80 107 146 191 229 269 321
#     4  10  21  40  63  84 111 145 184 234 290 341
#     4  12  23  36  55  80 106 140 181 226 282 332
#     4  12  22  37  56  77 112 143 183 228 270 328
#     4  12  22  33  45  63  94 133 177 225 252 293
#     4  12  20  37  48  71 100 144 180 222 272 309
#     4  12  22  35  46  61  96 136 194 224 258 303
#
# _framework density 18.805702
#
# number of rings (size 3 to 8) (size 9 to 14) (size 15 to 20)
#    0.000    0.667    4.167    5.500    0.000    0.000 
#    0.000    0.000    0.000    0.000    0.000    0.000 
#    0.000   13.333    0.000    0.000    0.000    0.000 
#
# Total GULP energy -594663.537667 kJ/mol
# GULP energy per Si atom -12388.823701 kJ/mol
# Density = 1.876290 g / cm^3
# Si number density = 18.805702 Si / 1000 Ang^3
#
#
#
# Elastic Constant Matrix: (Units=GPa)
#
#
# Indices 1 2 3 4 5 6 
#
# 1 87.5947 35.6197 22.2016 0.0000 0.0000 0.0000
# 2 35.6197 117.9466 29.8887 0.0000 0.0000 0.0000
# 3 22.2016 29.8887 61.9601 0.0000 0.0000 0.0000
# 4 0.0000 0.0000 0.0000 19.8923 0.0000 0.0000
# 5 0.0000 0.0000 0.0000 0.0000 29.8391 0.0000
# 6 0.0000 0.0000 0.0000 0.0000 0.0000 23.8953
#
#
#
# Elastic Compliance Matrix: (Units=1/GPa)
#
#
# Indices 1 2 3 4 5 6 
#
# 1 0.013578 -0.003267 -0.003289 0.000000 0.000000 0.000000
# 2 -0.003267 0.010445 -0.003868 0.000000 0.000000 0.000000
# 3 -0.003289 -0.003868 0.019184 0.000000 0.000000 0.000000
# 4 0.000000 0.000000 0.000000 0.050271 0.000000 0.000000
# 5 0.000000 0.000000 0.000000 0.000000 0.033513 0.000000
# 6 0.000000 0.000000 0.000000 0.000000 0.000000 0.041849
#
#
# Mechanical properties :
#
#
# Convention : Reuss Voigt Hill
#
# Bulk Modulus (GPa) = 44.72544 49.21349 46.96946
# Shear Modulus (GPa) = 25.36235 26.71144 26.03690
#
# Velocity S-wave (km/s) = 3.67638 3.77290 3.72495
# Velocity P-wave (km/s) = 6.46959 6.72353 6.59778
#
# Compressibility (1/GPa) = 0.02235864
#
# Stress axis : x y z
#
# Youngs Moduli (GPa) = 73.64588 95.73722 52.12685
#
# Poissons Ratio (x) = 0.31278 0.17147
# Poissons Ratio (y) = 0.24061 0.20163
# Poissons Ratio (z) = 0.24225 0.37031
#
# Static dielectric constant tensor:
#      x y z
#    x 3.246300 0.000000 0.000000 
#    y 0.000000 3.830280 0.000000 
#    z 0.000000 0.000000 3.490660 
# 
# 
# High freq. dielectric constant tensor:
#      x y z
#    x 1.701970 0.000000 0.000000 
#    y 0.000000 1.766180 0.000000 
#    z 0.000000 0.000000 1.710610 
# 
# From -- ./inp_files/29841.got.cif
#   From: 2010.03.12/outbox.cif.g09.slc.cpg/sg57_15_cif.got.tgz:29841.got - 2010.04.16 15:48:40.
