data_PCOD8233230
_publ_section_title
;
Structure prediction by ZEFSAII (Michael W. Deem and Ramdas Pophale) SiO2 
 PCOD8233230
Probable space group: P B C M
;
_chemical_formula_sum "Si O2"
_cell_formula_units_Z 48
_cell_length_a 29.218486
_cell_length_b 8.831824
_cell_length_c 9.152940
_cell_angle_alpha 90.000000
_cell_angle_beta 90.000000
_cell_angle_gamma 90.000000
_cell_volume 2361.939286
_symmetry_space_group_name_H-M "P B C M"
_symmetry_group_IT_number 57
_symmetry_cell_setting 'orthorhombic'
loop_
_space_group_symop_operation_xyz
x,y,z
-x,-y,1/2+z
x,1/2-y,-z
-x,1/2+y,1/2-z
-x,-y,-z
x,y,1/2-z
-x,1/2+y,z
x,1/2-y,1/2+z
loop_
_atom_site_type_symbol
_atom_site_label
_atom_site_fract_x
_atom_site_fract_y
_atom_site_fract_z
Si Si1 0.462619 0.595002 0.916949
Si Si2 0.939360 0.072356 0.250000
Si Si3 0.964515 0.073809 0.750000
Si Si4 0.802220 0.905303 0.916088
Si Si5 0.639352 0.091250 0.919104
Si Si6 0.098781 0.069380 0.479511
Si Si7 0.717492 0.913368 0.073960
O O1 0.478312 0.619482 0.750000
O O2 0.411969 0.520831 0.923006
O O3 0.459359 0.750000 0.000000
O O4 0.500000 0.500000 0.000000
O O5 0.955376 0.246334 0.250000
O O6 0.904992 0.031270 0.378157
O O7 0.981452 0.954669 0.250000
O O8 0.943666 0.988693 0.887070
O O9 0.784584 0.880614 0.750000
O O10 0.852232 0.981961 0.911393
O O11 0.811248 0.750000 0.000000
O O12 0.763127 0.998045 0.009408
O O13 0.655512 0.107652 0.750000
O O14 0.641105 0.250000 0.000000
O O15 0.671209 0.982940 0.012759
O O16 0.093937 0.250000 0.500000
O O17 0.716747 0.910708 0.250000
O O18 0.721466 0.750000 0.000000
#
# Coordination Sequence:
#
# PCOD8233230 Si02
#       7
#     8   4   4   8   8   8   8
#     4  10  21  37  59  85 117 158 203 255 309 370
#     4  12  26  40  68  86 130 160 200 256 299 368
#     4  12  24  46  60  96 122 162 204 246 309 360
#     4  10  20  36  62  90 121 153 198 247 297 359
#     4  10  21  39  60  85 120 161 205 251 310 370
#     4  11  23  40  66  93 121 160 204 249 305 365
#     4  11  22  37  62  92 123 158 204 252 302 358
#
# _framework density 20.322285000000001
#
# number of rings (size 3 to 8) (size 9 to 14) (size 15 to 20)
#    0.000    1.333    0.833    6.500    4.667    2.667 
#    0.000    1.667    0.000    0.000    0.000    0.000 
#    0.000    0.000    0.000    0.000    0.000    0.000 
#
# Total GULP energy -594707.651757 kJ/mol
# GULP energy per Si atom -12389.742745 kJ/mol
# Density = 2.027603 g / cm^3
# Si number density = 20.322285 Si / 1000 Ang^3
#
#
#
# Elastic Constant Matrix: (Units=GPa)
#
#
# Indices 1 2 3 4 5 6 
#
# 1 118.8040 30.8128 56.8916 0.0000 0.0000 0.0000
# 2 30.8128 72.9887 27.5662 0.0000 0.0000 0.0000
# 3 56.8916 27.5662 191.3370 0.0000 0.0000 0.0000
# 4 0.0000 0.0000 0.0000 34.3669 0.0000 0.0000
# 5 0.0000 0.0000 0.0000 0.0000 40.5803 0.0000
# 6 0.0000 0.0000 0.0000 0.0000 0.0000 21.1264
#
#
#
# Elastic Compliance Matrix: (Units=1/GPa)
#
#
# Indices 1 2 3 4 5 6 
#
# 1 0.010585 -0.003468 -0.002647 0.000000 0.000000 0.000000
# 2 -0.003468 0.015626 -0.001220 0.000000 0.000000 0.000000
# 3 -0.002647 -0.001220 0.006189 0.000000 0.000000 0.000000
# 4 0.000000 0.000000 0.000000 0.029098 0.000000 0.000000
# 5 0.000000 0.000000 0.000000 0.000000 0.024642 0.000000
# 6 0.000000 0.000000 0.000000 0.000000 0.000000 0.047334
#
#
# Mechanical properties :
#
#
# Convention : Reuss Voigt Hill
#
# Bulk Modulus (GPa) = 56.40827 68.18567 62.29697
# Shear Modulus (GPa) = 32.45591 37.07201 34.76396
#
# Velocity S-wave (km/s) = 4.00066 4.27570 4.14047
# Velocity P-wave (km/s) = 7.01124 7.61581 7.31977
#
# Compressibility (1/GPa) = 0.01772790
#
# Stress axis : x y z
#
# Youngs Moduli (GPa) = 94.47687 63.99700 161.56841
#
# Poissons Ratio (x) = 0.22197 0.42775
# Poissons Ratio (y) = 0.32769 0.19710
# Poissons Ratio (z) = 0.25013 0.07807
#
# Static dielectric constant tensor:
#      x y z
#    x 4.851260 0.000000 0.000000 
#    y 0.000000 3.500340 0.000000 
#    z 0.000000 0.000000 3.825390 
# 
# 
# High freq. dielectric constant tensor:
#      x y z
#    x 1.817690 0.000000 0.000000 
#    y 0.000000 1.756720 0.000000 
#    z 0.000000 0.000000 1.819760 
# 
# From -- ./inp_files/10159.got.cif
#   From: 2010.03.12/outbox.cif.g09.slc.cpg/sg57_6_cif.got.tgz:10159.got - 2010.04.16 15:48:40.
