data_PCOD8233766
_publ_section_title
;
Structure prediction by ZEFSAII (Michael W. Deem and Ramdas Pophale) SiO2 
 PCOD8233766
Probable space group: P B C M
;
_chemical_formula_sum "Si O2"
_cell_formula_units_Z 36
_cell_length_a 20.807167
_cell_length_b 5.208935
_cell_length_c 13.661789
_cell_angle_alpha 90.000000
_cell_angle_beta 90.000000
_cell_angle_gamma 90.000000
_cell_volume 1480.708142
_symmetry_space_group_name_H-M "P B C M"
_symmetry_group_IT_number 57
_symmetry_cell_setting 'orthorhombic'
loop_
_space_group_symop_operation_xyz
x,y,z
-x,-y,1/2+z
x,1/2-y,-z
-x,1/2+y,1/2-z
-x,-y,-z
x,y,1/2-z
-x,1/2+y,z
x,1/2-y,1/2+z
loop_
_atom_site_type_symbol
_atom_site_label
_atom_site_fract_x
_atom_site_fract_y
_atom_site_fract_z
Si Si1 0.958429 0.983317 0.361505
Si Si2 0.251228 0.397888 0.866407
Si Si3 0.672461 0.394129 0.865477
Si Si4 0.141112 0.250000 0.000000
Si Si5 0.526559 0.316705 0.606450
O O1 0.932254 0.965136 0.250000
O O2 0.900743 0.952947 0.438166
O O3 0.010296 0.759673 0.380792
O O4 0.239155 0.404146 0.750000
O O5 0.291674 0.640924 0.903869
O O6 0.183191 0.407977 0.921448
O O7 0.289252 0.144221 0.901241
O O8 0.668554 0.390720 0.750000
O O9 0.600496 0.393054 0.905191
O O10 0.496176 0.250000 0.500000
O O11 0.487004 0.545030 0.661814
#
# Coordination Sequence:
#
# PCOD8233766 Si02
#       5
#     8   8   8   4   8
#     4  10  23  43  66  95 131 163 199 251 300 349
#     4  10  24  40  58  89 122 160 203 253 300 355
#     4  10  22  41  59  82 121 157 199 251 309 363
#     4  12  24  40  68  94 122 168 208 248 290 370
#     4  10  21  35  56  85 114 147 196 252 305 365
#
# _framework density 24.312694
#
# number of rings (size 3 to 8) (size 9 to 14) (size 15 to 20)
#    0.000    1.778    0.000    2.667    3.111    4.444 
#    0.000    6.667    0.000    0.000    0.000    0.000 
#    0.000    0.000    0.000    0.000    0.000    0.000 
#
# Total GULP energy -446376.866368 kJ/mol
# GULP energy per Si atom -12399.357399 kJ/mol
# Density = 2.425736 g / cm^3
# Si number density = 24.312694 Si / 1000 Ang^3
#
#
#
# Elastic Constant Matrix: (Units=GPa)
#
#
# Indices 1 2 3 4 5 6 
#
# 1 125.3191 32.3331 39.7290 0.0000 0.0000 0.0000
# 2 32.3331 151.8808 21.7088 0.0000 0.0000 0.0000
# 3 39.7290 21.7088 58.8564 0.0000 0.0000 0.0000
# 4 0.0000 0.0000 0.0000 11.3848 0.0000 0.0000
# 5 0.0000 0.0000 0.0000 0.0000 78.2756 0.0000
# 6 0.0000 0.0000 0.0000 0.0000 0.0000 -25.8515
#
#
#
# Elastic Compliance Matrix: (Units=1/GPa)
#
#
# Indices 1 2 3 4 5 6 
#
# 1 0.010381 -0.001276 -0.006537 0.000000 0.000000 0.000000
# 2 -0.001276 0.007107 -0.001760 0.000000 0.000000 0.000000
# 3 -0.006537 -0.001760 0.022052 0.000000 0.000000 0.000000
# 4 0.000000 0.000000 0.000000 0.087836 0.000000 0.000000
# 5 0.000000 0.000000 0.000000 0.000000 0.012775 0.000000
# 6 0.000000 0.000000 0.000000 0.000000 0.000000 -0.038683
#
#
# Mechanical properties :
#
#
# Convention : Reuss Voigt Hill
#
# Bulk Modulus (GPa) = 49.03202 58.17756 53.60479
# Shear Modulus (GPa) = 39.24215 28.91415 34.07815
#
# Velocity S-wave (km/s) = 4.02190 3.45231 3.74794
# Velocity P-wave (km/s) = 6.46363 6.31443 6.38947
#
# Compressibility (1/GPa) = 0.02039484
#
# Stress axis : x y z
#
# Youngs Moduli (GPa) = 96.32899 140.70053 45.34675
#
# Poissons Ratio (x) = 0.17948 0.29643
# Poissons Ratio (y) = 0.12288 0.07983
# Poissons Ratio (z) = 0.62969 0.24769
#
# Static dielectric constant tensor:
#      x y z
#    x 4.173740 0.000000 0.000000 
#    y 0.000000 4.965390 0.000000 
#    z 0.000000 0.000000 4.486580 
# 
# 
# High freq. dielectric constant tensor:
#      x y z
#    x 1.951570 0.000000 0.000000 
#    y 0.000000 1.979230 0.000000 
#    z 0.000000 0.000000 1.987370 
# 
# From -- ./inp_files/19214.got.cif
#   From: 2010.03.12/outbox.cif.g09.slc.cpg/sg57_10_cif.got.tgz:19214.got - 2010.04.16 15:48:40.
