data_PCOD8233268
_publ_section_title
;
Structure prediction by ZEFSAII (Michael W. Deem and Ramdas Pophale) SiO2 
 PCOD8233268
Probable space group: P B C M
;
_chemical_formula_sum "Si O2"
_cell_formula_units_Z 64
_cell_length_a 21.062009
_cell_length_b 18.676763
_cell_length_c 8.720467
_cell_angle_alpha 90.000000
_cell_angle_beta 90.000000
_cell_angle_gamma 90.000000
_cell_volume 3430.371415
_symmetry_space_group_name_H-M "P B C M"
_symmetry_group_IT_number 57
_symmetry_cell_setting 'orthorhombic'
loop_
_space_group_symop_operation_xyz
x,y,z
-x,-y,1/2+z
x,1/2-y,-z
-x,1/2+y,1/2-z
-x,-y,-z
x,y,1/2-z
-x,1/2+y,z
x,1/2-y,1/2+z
loop_
_atom_site_type_symbol
_atom_site_label
_atom_site_fract_x
_atom_site_fract_y
_atom_site_fract_z
Si Si1 0.808111 0.032571 0.069758
Si Si2 0.508136 0.577130 0.068950
Si Si3 0.396335 0.678044 0.429181
Si Si4 0.253168 0.675682 0.067713
Si Si5 0.118874 0.325282 0.931841
Si Si6 0.061933 0.464209 0.432082
Si Si7 0.617860 0.827589 0.431315
Si Si8 0.755556 0.883782 0.430968
O O1 0.804618 0.041269 0.250000
O O2 0.786227 0.108472 0.998229
O O3 0.879388 0.014515 0.016987
O O4 0.761401 0.967450 0.020879
O O5 0.518279 0.574550 0.250000
O O6 0.442542 0.614731 0.021669
O O7 0.500000 0.500000 0.000000
O O8 0.567759 0.616175 0.994596
O O9 0.424968 0.750000 0.500000
O O10 0.394966 0.688796 0.250000
O O11 0.325294 0.663314 0.489951
O O12 0.248607 0.679556 0.250000
O O13 0.225869 0.750000 0.000000
O O14 0.113691 0.324209 0.750000
O O15 0.095421 0.250000 0.000000
O O16 0.071873 0.385586 0.998219
O O17 0.191585 0.338176 0.980939
O O18 0.057161 0.457463 0.250000
O O19 0.000000 0.500000 0.500000
O O20 0.604006 0.750000 0.500000
O O21 0.611724 0.823467 0.250000
O O22 0.687309 0.854689 0.481772
O O23 0.767931 0.874668 0.250000
#
# Coordination Sequence:
#
# PCOD8233268 Si02
#       8
#     8   8   8   8   8   8   8   8
#     4   8  16  32  56  79 105 142 181 221 268 326
#     4  11  24  39  55  78 106 141 184 232 281 336
#     4   9  19  34  55  76 100 134 176 219 270 327
#     4   9  17  32  54  78 104 135 174 220 269 323
#     4  11  21  35  57  85 117 150 187 233 281 333
#     4  10  20  37  58  83 113 150 194 232 276 331
#     4  11  23  38  58  81 111 147 185 229 281 339
#     4   9  19  35  57  83 110 145 186 229 280 337
#
# _framework density 18.656872
#
# number of rings (size 3 to 8) (size 9 to 14) (size 15 to 20)
#    0.000    2.250    0.000    3.750    1.750    4.000 
#    0.000    3.750    0.000    1.500    0.000    0.000 
#    0.000    0.000    0.000    0.000    0.000    0.000 
#
# Total GULP energy -793585.211335 kJ/mol
# GULP energy per Si atom -12399.768927 kJ/mol
# Density = 1.861441 g / cm^3
# Si number density = 18.656872 Si / 1000 Ang^3
#
#
#
# Elastic Constant Matrix: (Units=GPa)
#
#
# Indices 1 2 3 4 5 6 
#
# 1 110.2386 85.0490 44.3762 0.0000 0.0000 0.0000
# 2 85.0490 182.3287 50.4374 0.0000 0.0000 0.0000
# 3 44.3762 50.4374 64.4694 0.0000 0.0000 0.0000
# 4 0.0000 0.0000 0.0000 33.1691 0.0000 0.0000
# 5 0.0000 0.0000 0.0000 0.0000 27.7633 0.0000
# 6 0.0000 0.0000 0.0000 0.0000 0.0000 31.6966
#
#
#
# Elastic Compliance Matrix: (Units=1/GPa)
#
#
# Indices 1 2 3 4 5 6 
#
# 1 0.016139 -0.005686 -0.006661 0.000000 0.000000 0.000000
# 2 -0.005686 0.009002 -0.003129 0.000000 0.000000 0.000000
# 3 -0.006661 -0.003129 0.022544 0.000000 0.000000 0.000000
# 4 0.000000 0.000000 0.000000 0.030149 0.000000 0.000000
# 5 0.000000 0.000000 0.000000 0.000000 0.036019 0.000000
# 6 0.000000 0.000000 0.000000 0.000000 0.000000 0.031549
#
#
# Mechanical properties :
#
#
# Convention : Reuss Voigt Hill
#
# Bulk Modulus (GPa) = 59.75841 79.64020 69.69930
# Shear Modulus (GPa) = 27.48284 30.33743 28.91013
#
# Velocity S-wave (km/s) = 3.84222 4.03683 3.94073
# Velocity P-wave (km/s) = 7.19606 8.03166 7.62531
#
# Compressibility (1/GPa) = 0.01673405
#
# Stress axis : x y z
#
# Youngs Moduli (GPa) = 61.96195 111.08168 44.35696
#
# Poissons Ratio (x) = 0.63156 0.29545
# Poissons Ratio (y) = 0.35229 0.13881
# Poissons Ratio (z) = 0.41272 0.34762
#
# Static dielectric constant tensor:
#      x y z
#    x 3.597830 0.000000 0.000000 
#    y 0.000000 3.691440 0.000000 
#    z 0.000000 0.000000 3.311410 
# 
# 
# High freq. dielectric constant tensor:
#      x y z
#    x 1.717360 0.000000 0.000000 
#    y 0.000000 1.737720 0.000000 
#    z 0.000000 0.000000 1.716460 
# 
# From -- ./inp_files/8597.got.cif
#   From: 2010.03.12/outbox.cif.g09.slc.cpg/sg57_5_cif.got.tgz:8597.got - 2010.04.16 15:48:40.
