data_PCOD8233787
_publ_section_title
;
Structure prediction by ZEFSAII (Michael W. Deem and Ramdas Pophale) SiO2 
 PCOD8233787
Probable space group: P B C M
;
_chemical_formula_sum "Si O2"
_cell_formula_units_Z 48
_cell_length_a 26.707533
_cell_length_b 5.082093
_cell_length_c 18.433549
_cell_angle_alpha 90.000000
_cell_angle_beta 90.000000
_cell_angle_gamma 90.000000
_cell_volume 2501.988675
_symmetry_space_group_name_H-M "P B C M"
_symmetry_group_IT_number 57
_symmetry_cell_setting 'orthorhombic'
loop_
_space_group_symop_operation_xyz
x,y,z
-x,-y,1/2+z
x,1/2-y,-z
-x,1/2+y,1/2-z
-x,-y,-z
x,y,1/2-z
-x,1/2+y,z
x,1/2-y,1/2+z
loop_
_atom_site_type_symbol
_atom_site_label
_atom_site_fract_x
_atom_site_fract_y
_atom_site_fract_z
Si Si1 0.970432 0.768492 0.585543
Si Si2 0.805650 0.371890 0.832079
Si Si3 0.386429 0.491268 0.452558
Si Si4 0.129591 0.116834 0.167844
Si Si5 0.532286 0.975587 0.333566
Si Si6 0.272273 0.493253 0.452439
O O1 0.963233 0.750000 0.500000
O O2 0.918978 0.870560 0.618479
O O3 0.987438 0.479207 0.611209
O O4 0.785985 0.328269 0.750000
O O5 0.846453 0.598114 0.835234
O O6 0.758784 0.460282 0.879761
O O7 0.831713 0.104588 0.861677
O O8 0.391613 0.750000 0.500000
O O9 0.418036 0.521709 0.379716
O O10 0.329298 0.436060 0.428830
O O11 0.407308 0.250000 0.500000
O O12 0.114158 0.041959 0.250000
O O13 0.548685 0.996497 0.250000
O O14 0.490915 0.193606 0.352526
O O15 0.268313 0.750000 0.500000
O O16 0.251115 0.250000 0.500000
#
# Coordination Sequence:
#
# PCOD8233787 Si02
#       6
#     8   8   8   8   8   8
#     4  10  21  36  53  76 106 138 174 215 259 311
#     4  10  21  37  56  80 109 140 177 221 268 321
#     4  10  21  36  55  80 109 141 180 224 268 319
#     4  10  21  36  55  80 107 137 177 220 263 316
#     4  10  21  36  54  79 110 143 182 225 268 319
#     4  10  21  37  56  81 110 140 179 223 267 320
#
# _framework density 19.184739
#
# number of rings (size 3 to 8) (size 9 to 14) (size 15 to 20)
#    0.000    2.000    0.000    3.000    0.000    5.333 
#    0.000    0.000    0.000   12.000    0.000    0.000 
#    0.000    0.000    0.000    0.000    0.000    0.000 
#
# Total GULP energy -595274.438665 kJ/mol
# GULP energy per Si atom -12401.550806 kJ/mol
# Density = 1.914107 g / cm^3
# Si number density = 19.184739 Si / 1000 Ang^3
#
#
#
# Elastic Constant Matrix: (Units=GPa)
#
#
# Indices 1 2 3 4 5 6 
#
# 1 93.9619 19.3572 66.9160 0.0000 0.0000 0.0000
# 2 19.3572 101.5006 30.3956 0.0000 0.0000 0.0000
# 3 66.9160 30.3956 83.8432 0.0000 0.0000 0.0000
# 4 0.0000 0.0000 0.0000 23.8233 0.0000 0.0000
# 5 0.0000 0.0000 0.0000 0.0000 36.8647 0.0000
# 6 0.0000 0.0000 0.0000 0.0000 0.0000 35.1021
#
#
#
# Elastic Compliance Matrix: (Units=1/GPa)
#
#
# Indices 1 2 3 4 5 6 
#
# 1 0.024820 0.001345 -0.020297 0.000000 0.000000 0.000000
# 2 0.001345 0.011125 -0.005106 0.000000 0.000000 0.000000
# 3 -0.020297 -0.005106 0.029977 0.000000 0.000000 0.000000
# 4 0.000000 0.000000 0.000000 0.041976 0.000000 0.000000
# 5 0.000000 0.000000 0.000000 0.000000 0.027126 0.000000
# 6 0.000000 0.000000 0.000000 0.000000 0.000000 0.028488
#
#
# Mechanical properties :
#
#
# Convention : Reuss Voigt Hill
#
# Bulk Modulus (GPa) = 56.16215 56.96037 56.56126
# Shear Modulus (GPa) = 22.98177 30.00047 26.49112
#
# Velocity S-wave (km/s) = 3.46485 3.95874 3.72000
# Velocity P-wave (km/s) = 6.73386 7.11691 6.92803
#
# Compressibility (1/GPa) = 0.01780559
#
# Stress axis : x y z
#
# Youngs Moduli (GPa) = 40.29002 89.88891 33.35884
#
# Poissons Ratio (x) = -0.12087 0.67707
# Poissons Ratio (y) = -0.05417 0.17034
# Poissons Ratio (z) = 0.81775 0.45899
#
# Static dielectric constant tensor:
#      x y z
#    x 3.383050 0.000000 0.000000 
#    y 0.000000 3.858430 0.000000 
#    z 0.000000 0.000000 3.423600 
# 
# 
# High freq. dielectric constant tensor:
#      x y z
#    x 1.738130 0.000000 0.000000 
#    y 0.000000 1.771680 0.000000 
#    z 0.000000 0.000000 1.739210 
# 
# From -- ./inp_files/19568.got.cif
#   From: 2010.03.12/outbox.cif.g09.slc.cpg/sg57_10_cif.got.tgz:19568.got - 2010.04.16 15:48:40.
