data_PCOD8233388
_publ_section_title
;
Structure prediction by ZEFSAII (Michael W. Deem and Ramdas Pophale) SiO2 
 PCOD8233388
Probable space group: P B C M
;
_chemical_formula_sum "Si O2"
_cell_formula_units_Z 48
_cell_length_a 14.857674
_cell_length_b 18.567341
_cell_length_c 8.786129
_cell_angle_alpha 90.000000
_cell_angle_beta 90.000000
_cell_angle_gamma 90.000000
_cell_volume 2423.807439
_symmetry_space_group_name_H-M "P B C M"
_symmetry_group_IT_number 57
_symmetry_cell_setting 'orthorhombic'
loop_
_space_group_symop_operation_xyz
x,y,z
-x,-y,1/2+z
x,1/2-y,-z
-x,1/2+y,1/2-z
-x,-y,-z
x,y,1/2-z
-x,1/2+y,z
x,1/2-y,1/2+z
loop_
_atom_site_type_symbol
_atom_site_label
_atom_site_fract_x
_atom_site_fract_y
_atom_site_fract_z
Si Si1 0.086062 0.908437 0.926932
Si Si2 0.614071 0.069256 0.074998
Si Si3 0.245215 0.826365 0.428588
Si Si4 0.263383 0.325219 0.428943
Si Si5 0.407041 0.418739 0.926010
Si Si6 0.901650 0.927010 0.426149
O O1 0.096837 0.891830 0.750000
O O2 0.116201 0.989722 0.967641
O O3 0.147980 0.853155 0.017394
O O4 0.983123 0.895380 0.974866
O O5 0.645105 0.073848 0.250000
O O6 0.512504 0.096517 0.052312
O O7 0.677660 0.118022 0.973772
O O8 0.624285 0.987167 0.022898
O O9 0.269176 0.750000 0.500000
O O10 0.243528 0.817454 0.250000
O O11 0.232209 0.250000 0.500000
O O12 0.279150 0.317075 0.250000
O O13 0.355701 0.349347 0.509270
O O14 0.187327 0.383477 0.468280
O O15 0.383436 0.432069 0.750000
O O16 0.928164 0.918988 0.250000
#
# Coordination Sequence:
#
# PCOD8233388 Si02
#       6
#     8   8   8   8   8   8
#     4  10  20  37  62  88 114 147 190 239 287 339
#     4  10  21  39  62  88 117 149 190 238 285 337
#     4  12  25  40  59  84 117 155 194 237 288 345
#     4  11  23  38  57  82 117 156 194 239 288 341
#     4  10  21  38  62  89 116 150 192 236 284 340
#     4   9  20  38  59  84 114 151 193 236 283 336
#
# _framework density 19.803552
#
# number of rings (size 3 to 8) (size 9 to 14) (size 15 to 20)
#    0.000    1.667    0.000    4.500    0.000    6.667 
#    0.000    1.667    0.000    0.000    0.000    0.000 
#    0.000    0.000    0.000    0.000    0.000    0.000 
#
# Total GULP energy -595542.651362 kJ/mol
# GULP energy per Si atom -12407.138570 kJ/mol
# Density = 1.975848 g / cm^3
# Si number density = 19.803552 Si / 1000 Ang^3
#
#
#
# Elastic Constant Matrix: (Units=GPa)
#
#
# Indices 1 2 3 4 5 6 
#
# 1 70.1750 19.9451 40.4433 0.0000 0.0000 0.0000
# 2 19.9451 43.7277 20.0013 0.0000 0.0000 0.0000
# 3 40.4433 20.0013 110.5193 0.0000 0.0000 0.0000
# 4 0.0000 0.0000 0.0000 36.8355 0.0000 0.0000
# 5 0.0000 0.0000 0.0000 0.0000 34.3666 0.0000
# 6 0.0000 0.0000 0.0000 0.0000 0.0000 10.6242
#
#
#
# Elastic Compliance Matrix: (Units=1/GPa)
#
#
# Indices 1 2 3 4 5 6 
#
# 1 0.019455 -0.006124 -0.006011 0.000000 0.000000 0.000000
# 2 -0.006124 0.026861 -0.002620 0.000000 0.000000 0.000000
# 3 -0.006011 -0.002620 0.011722 0.000000 0.000000 0.000000
# 4 0.000000 0.000000 0.000000 0.027148 0.000000 0.000000
# 5 0.000000 0.000000 0.000000 0.000000 0.029098 0.000000
# 6 0.000000 0.000000 0.000000 0.000000 0.000000 0.094125
#
#
# Mechanical properties :
#
#
# Convention : Reuss Voigt Hill
#
# Bulk Modulus (GPa) = 35.05454 42.80016 38.92735
# Shear Modulus (GPa) = 20.20793 25.96742 23.08768
#
# Velocity S-wave (km/s) = 3.19787 3.62505 3.41814
# Velocity P-wave (km/s) = 5.60131 6.25944 5.93950
#
# Compressibility (1/GPa) = 0.02852697
#
# Stress axis : x y z
#
# Youngs Moduli (GPa) = 51.40063 37.22922 85.30968
#
# Poissons Ratio (x) = 0.22801 0.51279
# Poissons Ratio (y) = 0.31480 0.22351
# Poissons Ratio (z) = 0.30897 0.09754
#
# Static dielectric constant tensor:
#      x y z
#    x 3.612840 0.000000 0.000000 
#    y 0.000000 3.600460 0.000000 
#    z 0.000000 0.000000 3.687330 
# 
# 
# High freq. dielectric constant tensor:
#      x y z
#    x 1.779910 0.000000 0.000000 
#    y 0.000000 1.767910 0.000000 
#    z 0.000000 0.000000 1.785270 
# 
# From -- ./inp_files/4700.got.cif
#   From: 2010.03.12/outbox.cif.g09.slc.cpg/sg57_3_cif.got.tgz:4700.got - 2010.04.16 15:48:40.
