data_PCOD8233002
_publ_section_title
;
Structure prediction by ZEFSAII (Michael W. Deem and Ramdas Pophale) SiO2 
 PCOD8233002
Probable space group: P B C M
;
_chemical_formula_sum "Si O2"
_cell_formula_units_Z 56
_cell_length_a 19.251104
_cell_length_b 15.900086
_cell_length_c 9.213709
_cell_angle_alpha 90.000000
_cell_angle_beta 90.000000
_cell_angle_gamma 90.000000
_cell_volume 2820.262970
_symmetry_space_group_name_H-M "P B C M"
_symmetry_group_IT_number 57
_symmetry_cell_setting 'orthorhombic'
loop_
_space_group_symop_operation_xyz
x,y,z
-x,-y,1/2+z
x,1/2-y,-z
-x,1/2+y,1/2-z
-x,-y,-z
x,y,1/2-z
-x,1/2+y,z
x,1/2-y,1/2+z
loop_
_atom_site_type_symbol
_atom_site_label
_atom_site_fract_x
_atom_site_fract_y
_atom_site_fract_z
Si Si1 0.278895 0.412033 0.580031
Si Si2 0.072689 1.000000 0.920865
Si Si3 0.842275 0.667312 0.922503
Si Si4 0.711656 0.424676 0.583581
Si Si5 0.574502 0.336010 0.581071
Si Si6 0.421493 0.165257 0.083024
Si Si7 0.152863 0.666859 0.084563
O O1 0.261655 0.404495 0.750000
O O2 0.234382 0.343795 0.491409
O O3 0.259481 0.503639 0.521535
O O4 0.360824 0.400226 0.546153
O O5 0.060532 0.997321 0.750000
O O6 0.112924 0.085309 0.963741
O O7 0.114743 0.917365 0.973080
O O8 0.000000 0.000000 0.000000
O O9 0.837217 0.680951 0.750000
O O10 0.875418 0.750000 0.000000
O O11 0.712897 0.457736 0.750000
O O12 0.634068 0.400711 0.532677
O O13 0.764088 0.346109 0.567575
O O14 0.587506 0.250000 0.500000
O O15 0.582633 0.316623 0.750000
O O16 0.497716 0.372656 0.542491
O O17 0.420227 0.190527 0.250000
O O18 0.405990 0.250000 0.000000
O O19 0.132033 0.682888 0.250000
O O20 0.128692 0.750000 0.000000
#
# Coordination Sequence:
#
# PCOD8233002 Si02
#       7
#     8   8   8   8   8   8   8
#     4  11  22  35  55  83 115 152 199 250 296 350
#     4  10  23  43  65  90 126 159 193 240 291 350
#     4  11  23  42  65  91 124 160 201 247 295 352
#     4  10  20  36  56  79 114 153 192 242 301 352
#     4   9  18  33  53  75 106 148 191 240 297 353
#     4   9  19  34  50  75 108 144 191 243 294 351
#     4  10  21  39  61  89 121 156 196 241 290 347
#
# _framework density 19.856304000000002
#
# number of rings (size 3 to 8) (size 9 to 14) (size 15 to 20)
#    0.000    2.000    1.429    1.714    0.000    6.286 
#    0.000    2.857    0.000    0.000    0.000    0.000 
#    0.000    0.000    0.000    0.000    0.000    0.000 
#
# Total GULP energy -694294.589530 kJ/mol
# GULP energy per Si atom -12398.117670 kJ/mol
# Density = 1.981111 g / cm^3
# Si number density = 19.856304 Si / 1000 Ang^3
#
#
#
# Elastic Constant Matrix: (Units=GPa)
#
#
# Indices 1 2 3 4 5 6 
#
# 1 111.7962 52.8554 45.2161 0.0000 0.0000 0.0000
# 2 52.8554 135.0199 52.8324 0.0000 0.0000 0.0000
# 3 45.2161 52.8324 63.6465 0.0000 0.0000 0.0000
# 4 0.0000 0.0000 0.0000 37.6742 0.0000 0.0000
# 5 0.0000 0.0000 0.0000 0.0000 25.7632 0.0000
# 6 0.0000 0.0000 0.0000 0.0000 0.0000 17.8074
#
#
#
# Elastic Compliance Matrix: (Units=1/GPa)
#
#
# Indices 1 2 3 4 5 6 
#
# 1 0.012970 -0.002180 -0.007405 0.000000 0.000000 0.000000
# 2 -0.002180 0.011336 -0.007861 0.000000 0.000000 0.000000
# 3 -0.007405 -0.007861 0.027498 0.000000 0.000000 0.000000
# 4 0.000000 0.000000 0.000000 0.026543 0.000000 0.000000
# 5 0.000000 0.000000 0.000000 0.000000 0.038815 0.000000
# 6 0.000000 0.000000 0.000000 0.000000 0.000000 0.056156
#
#
# Mechanical properties :
#
#
# Convention : Reuss Voigt Hill
#
# Bulk Modulus (GPa) = 59.12916 68.03004 63.57960
# Shear Modulus (GPa) = 23.38114 26.88621 25.13368
#
# Velocity S-wave (km/s) = 3.43522 3.68372 3.56164
# Velocity P-wave (km/s) = 6.75111 7.24076 7.00022
#
# Compressibility (1/GPa) = 0.01691213
#
# Stress axis : x y z
#
# Youngs Moduli (GPa) = 77.09837 88.21768 36.36670
#
# Poissons Ratio (x) = 0.19231 0.26929
# Poissons Ratio (y) = 0.16807 0.28587
# Poissons Ratio (z) = 0.57091 0.69347
#
# Static dielectric constant tensor:
#      x y z
#    x 3.784120 0.000000 0.000000 
#    y 0.000000 3.702080 0.000000 
#    z 0.000000 0.000000 3.477000 
# 
# 
# High freq. dielectric constant tensor:
#      x y z
#    x 1.780710 0.000000 0.000000 
#    y 0.000000 1.766450 0.000000 
#    z 0.000000 0.000000 1.770130 
# 
# From -- ./inp_files/7991.got.cif
#   From: 2010.03.12/outbox.cif.g09.slc.cpg/sg57_4_cif.got.tgz:7991.got - 2010.04.16 15:48:40.
