data_PCOD8233301
_publ_section_title
;
Structure prediction by ZEFSAII (Michael W. Deem and Ramdas Pophale) SiO2 
 PCOD8233301
Probable space group: P B C M
;
_chemical_formula_sum "Si O2"
_cell_formula_units_Z 48
_cell_length_a 30.372863
_cell_length_b 9.170173
_cell_length_c 8.802851
_cell_angle_alpha 90.000000
_cell_angle_beta 90.000000
_cell_angle_gamma 90.000000
_cell_volume 2451.808865
_symmetry_space_group_name_H-M "P B C M"
_symmetry_group_IT_number 57
_symmetry_cell_setting 'orthorhombic'
loop_
_space_group_symop_operation_xyz
x,y,z
-x,-y,1/2+z
x,1/2-y,-z
-x,1/2+y,1/2-z
-x,-y,-z
x,y,1/2-z
-x,1/2+y,z
x,1/2-y,1/2+z
loop_
_atom_site_type_symbol
_atom_site_label
_atom_site_fract_x
_atom_site_fract_y
_atom_site_fract_z
Si Si1 0.375488 0.592337 0.571952
Si Si2 0.291949 0.406560 0.569624
Si Si3 0.118806 0.601256 0.427078
Si Si4 0.781369 0.403740 0.930211
Si Si5 0.539650 0.590230 0.430355
Si Si6 0.961349 0.593033 0.570581
O O1 0.380312 0.750000 0.500000
O O2 0.375711 0.615239 0.750000
O O3 0.330570 0.515831 0.518147
O O4 0.415638 0.490262 0.520690
O O5 0.302555 0.250000 0.500000
O O6 0.288358 0.393153 0.750000
O O7 0.246507 0.465728 0.501442
O O8 0.101552 0.750000 0.500000
O O9 0.117676 0.628528 0.250000
O O10 0.168353 0.563253 0.479402
O O11 0.086017 0.472872 0.475864
O O12 0.774915 0.398750 0.750000
O O13 0.765644 0.250000 0.000000
O O14 0.540182 0.750000 0.500000
O O15 0.500000 0.500000 0.500000
O O16 0.534275 0.600795 0.250000
O O17 0.963905 0.750000 0.500000
O O18 0.967594 0.600188 0.750000
O O19 0.000000 0.500000 0.500000
#
# Coordination Sequence:
#
# PCOD8233301 Si02
#       6
#     8   8   8   8   8   8
#     4  10  23  40  60  85 115 150 191 235 285 339
#     4  11  23  39  58  84 115 151 191 236 286 338
#     4   9  20  37  58  83 113 147 186 229 279 333
#     4  10  20  37  59  85 115 150 189 232 279 334
#     4  11  23  40  61  88 119 154 193 237 285 338
#     4  11  23  39  58  83 113 148 187 231 280 334
#
# _framework density 19.577383999999999
#
# number of rings (size 3 to 8) (size 9 to 14) (size 15 to 20)
#    0.000    1.667    0.000    4.000    0.000    9.333 
#    0.000    1.667    0.000    0.000    0.000    0.000 
#    0.000    0.000    0.000    0.000    0.000    0.000 
#
# Total GULP energy -595408.568279 kJ/mol
# GULP energy per Si atom -12404.345172 kJ/mol
# Density = 1.953282 g / cm^3
# Si number density = 19.577384 Si / 1000 Ang^3
#
#
#
# Elastic Constant Matrix: (Units=GPa)
#
#
# Indices 1 2 3 4 5 6 
#
# 1 130.3306 84.6592 54.4028 0.0000 0.0000 0.0000
# 2 84.6592 180.8851 61.1675 0.0000 0.0000 0.0000
# 3 54.4028 61.1675 77.0860 0.0000 0.0000 0.0000
# 4 0.0000 0.0000 0.0000 42.8293 0.0000 0.0000
# 5 0.0000 0.0000 0.0000 0.0000 30.6334 0.0000
# 6 0.0000 0.0000 0.0000 0.0000 0.0000 51.4370
#
#
#
# Elastic Compliance Matrix: (Units=1/GPa)
#
#
# Indices 1 2 3 4 5 6 
#
# 1 0.012670 -0.003972 -0.005790 0.000000 0.000000 0.000000
# 2 -0.003972 0.008801 -0.004180 0.000000 0.000000 0.000000
# 3 -0.005790 -0.004180 0.020376 0.000000 0.000000 0.000000
# 4 0.000000 0.000000 0.000000 0.023349 0.000000 0.000000
# 5 0.000000 0.000000 0.000000 0.000000 0.032644 0.000000
# 6 0.000000 0.000000 0.000000 0.000000 0.000000 0.019441
#
#
# Mechanical properties :
#
#
# Convention : Reuss Voigt Hill
#
# Bulk Modulus (GPa) = 71.62215 87.64008 79.63111
# Shear Modulus (GPa) = 33.37373 37.51807 35.44590
#
# Velocity S-wave (km/s) = 4.13329 4.38242 4.25968
# Velocity P-wave (km/s) = 7.70989 8.39468 8.05956
#
# Compressibility (1/GPa) = 0.01396216
#
# Stress axis : x y z
#
# Youngs Moduli (GPa) = 78.92909 113.62409 49.07787
#
# Poissons Ratio (x) = 0.45130 0.28415
# Poissons Ratio (y) = 0.31350 0.20517
# Poissons Ratio (z) = 0.45698 0.47500
#
# Static dielectric constant tensor:
#      x y z
#    x 4.043060 0.000000 0.000000 
#    y 0.000000 3.615370 0.000000 
#    z 0.000000 0.000000 3.635000 
# 
# 
# High freq. dielectric constant tensor:
#      x y z
#    x 1.779440 0.000000 0.000000 
#    y 0.000000 1.771490 0.000000 
#    z 0.000000 0.000000 1.770260 
# 
# From -- ./inp_files/10019.got.cif
#   From: 2010.03.12/outbox.cif.g09.slc.cpg/sg57_6_cif.got.tgz:10019.got - 2010.04.16 15:48:40.
