data_PCOD8233411
_publ_section_title
;
Structure prediction by ZEFSAII (Michael W. Deem and Ramdas Pophale) SiO2 
 PCOD8233411
Probable space group: P B C M
;
_chemical_formula_sum "Si O2"
_cell_formula_units_Z 56
_cell_length_a 16.525044
_cell_length_b 10.783764
_cell_length_c 14.757528
_cell_angle_alpha 90.000000
_cell_angle_beta 90.000000
_cell_angle_gamma 90.000000
_cell_volume 2629.823581
_symmetry_space_group_name_H-M "P B C M"
_symmetry_group_IT_number 57
_symmetry_cell_setting 'orthorhombic'
loop_
_space_group_symop_operation_xyz
x,y,z
-x,-y,1/2+z
x,1/2-y,-z
-x,1/2+y,1/2-z
-x,-y,-z
x,y,1/2-z
-x,1/2+y,z
x,1/2-y,1/2+z
loop_
_atom_site_type_symbol
_atom_site_label
_atom_site_fract_x
_atom_site_fract_y
_atom_site_fract_z
Si Si1 0.956941 0.479191 0.147054
Si Si2 0.570152 0.149185 0.750000
Si Si3 0.833637 0.877393 0.525059
Si Si4 0.561181 0.865776 0.750000
Si Si5 0.344044 0.139030 0.433852
Si Si6 0.141181 0.989930 0.646697
Si Si7 0.334502 0.860823 0.433591
Si Si8 0.826819 0.294750 0.350460
O O1 0.953119 0.528041 0.250000
O O2 0.919349 0.341323 0.136318
O O3 0.048902 0.487126 0.114332
O O4 0.899263 0.559757 0.086327
O O5 0.508329 0.263189 0.750000
O O6 0.625430 0.166740 0.837559
O O7 0.529726 0.010104 0.750000
O O8 0.876902 0.750000 0.500000
O O9 0.751979 0.850923 0.581291
O O10 0.806771 0.941319 0.429619
O O11 0.615023 0.840586 0.837714
O O12 0.375480 0.250000 0.500000
O O13 0.361693 0.997356 0.470376
O O14 0.154829 0.038627 0.750000
O O15 0.170166 0.850630 0.637349
O O16 0.362585 0.750000 0.500000
O O17 0.236263 0.857640 0.420818
O O18 0.796805 0.330966 0.250000
#
# Coordination Sequence:
#
# PCOD8233411 Si02
#       8
#     8   4   8   4   8   8   8   8
#     4  10  22  37  59  84 121 166 216 270 332 372
#     4  10  24  44  68 106 127 175 211 259 332 404
#     4  11  23  38  58  87 122 167 217 254 317 394
#     4  10  24  46  76  96 141 165 215 269 330 406
#     4  10  23  43  65  99 133 173 218 261 332 398
#     4  10  23  40  56  88 126 164 215 284 330 373
#     4  11  21  39  68  97 131 171 218 272 318 394
#     4  10  20  37  63  88 119 161 219 271 319 383
#
# _framework density 21.294203
#
# number of rings (size 3 to 8) (size 9 to 14) (size 15 to 20)
#    0.000    1.714    2.143    1.286    3.000    2.286 
#    3.857    2.857    0.000    0.000    0.000    0.000 
#    0.000    0.000    0.000    0.000    0.000    0.000 
#
# Total GULP energy -693943.735159 kJ/mol
# GULP energy per Si atom -12391.852414 kJ/mol
# Density = 2.124574 g / cm^3
# Si number density = 21.294203 Si / 1000 Ang^3
#
#
#
# Elastic Constant Matrix: (Units=GPa)
#
#
# Indices 1 2 3 4 5 6 
#
# 1 69.5256 20.7054 28.3767 0.0000 0.0000 0.0000
# 2 20.7054 110.6776 40.2706 0.0000 0.0000 0.0000
# 3 28.3767 40.2706 73.5515 0.0000 0.0000 0.0000
# 4 0.0000 0.0000 0.0000 21.9507 0.0000 0.0000
# 5 0.0000 0.0000 0.0000 0.0000 12.8699 0.0000
# 6 0.0000 0.0000 0.0000 0.0000 0.0000 24.2499
#
#
#
# Elastic Compliance Matrix: (Units=1/GPa)
#
#
# Indices 1 2 3 4 5 6 
#
# 1 0.017160 -0.001001 -0.006072 0.000000 0.000000 0.000000
# 2 -0.001001 0.011341 -0.005823 0.000000 0.000000 0.000000
# 3 -0.006072 -0.005823 0.019127 0.000000 0.000000 0.000000
# 4 0.000000 0.000000 0.000000 0.045557 0.000000 0.000000
# 5 0.000000 0.000000 0.000000 0.000000 0.077700 0.000000
# 6 0.000000 0.000000 0.000000 0.000000 0.000000 0.041237
#
#
# Mechanical properties :
#
#
# Convention : Reuss Voigt Hill
#
# Bulk Modulus (GPa) = 45.79818 48.05111 46.92465
# Shear Modulus (GPa) = 20.39201 22.77425 21.58313
#
# Velocity S-wave (km/s) = 3.09792 3.27388 3.18711
# Velocity P-wave (km/s) = 5.86090 6.07498 5.96890
#
# Compressibility (1/GPa) = 0.02183493
#
# Stress axis : x y z
#
# Youngs Moduli (GPa) = 58.27625 88.17274 52.28171
#
# Poissons Ratio (x) = 0.08824 0.31748
# Poissons Ratio (y) = 0.05832 0.30446
# Poissons Ratio (z) = 0.35388 0.51347
#
# Static dielectric constant tensor:
#      x y z
#    x 3.660340 0.000000 0.000000 
#    y 0.000000 4.269950 0.000000 
#    z 0.000000 0.000000 4.034860 
# 
# 
# High freq. dielectric constant tensor:
#      x y z
#    x 1.811240 0.000000 0.000000 
#    y 0.000000 1.846370 0.000000 
#    z 0.000000 0.000000 1.843790 
# 
# From -- ./inp_files/18595.got.cif
#   From: 2010.03.12/outbox.cif.g09.slc.cpg/sg57_10_cif.got.tgz:18595.got - 2010.04.16 15:48:40.
