data_PCOD8233307
_publ_section_title
;
Structure prediction by ZEFSAII (Michael W. Deem and Ramdas Pophale) SiO2 
 PCOD8233307
Probable space group: P B C M
;
_chemical_formula_sum "Si O2"
_cell_formula_units_Z 48
_cell_length_a 30.534666
_cell_length_b 9.183428
_cell_length_c 8.706281
_cell_angle_alpha 90.000000
_cell_angle_beta 90.000000
_cell_angle_gamma 90.000000
_cell_volume 2441.353562
_symmetry_space_group_name_H-M "P B C M"
_symmetry_group_IT_number 57
_symmetry_cell_setting 'orthorhombic'
loop_
_space_group_symop_operation_xyz
x,y,z
-x,-y,1/2+z
x,1/2-y,-z
-x,1/2+y,1/2-z
-x,-y,-z
x,y,1/2-z
-x,1/2+y,z
x,1/2-y,1/2+z
loop_
_atom_site_type_symbol
_atom_site_label
_atom_site_fract_x
_atom_site_fract_y
_atom_site_fract_z
Si Si1 0.786066 0.902091 0.069933
Si Si2 0.375496 0.091176 0.569142
Si Si3 0.539846 0.410404 0.568080
Si Si4 0.114414 0.094781 0.932166
Si Si5 0.960459 0.408628 0.067229
Si Si6 0.293237 0.907697 0.931645
O O1 0.782515 0.882893 0.250000
O O2 0.835575 0.941239 0.021321
O O3 0.753509 0.028531 0.011868
O O4 0.770637 0.750000 0.000000
O O5 0.380671 0.250000 0.500000
O O6 0.374106 0.108946 0.750000
O O7 0.415904 0.991345 0.517116
O O8 0.331294 0.014687 0.507983
O O9 0.540332 0.250000 0.500000
O O10 0.500000 0.500000 0.500000
O O11 0.535023 0.400886 0.750000
O O12 0.106968 0.095226 0.750000
O O13 0.100053 0.250000 0.000000
O O14 0.085730 0.971666 0.011799
O O15 0.962691 0.406234 0.250000
O O16 0.965565 0.250000 0.000000
O O17 0.000000 0.500000 0.000000
O O18 0.295093 0.893911 0.750000
O O19 0.300568 0.750000 0.000000
#
# Coordination Sequence:
#
# PCOD8233307 Si02
#       6
#     8   8   8   8   8   8
#     4   9  19  35  57  83 113 147 187 229 274 328
#     4  10  22  38  58  83 112 145 187 233 282 336
#     4  11  23  39  59  85 115 150 189 234 283 338
#     4  10  20  37  59  86 117 151 189 232 279 333
#     4  12  25  42  62  86 115 150 189 233 282 335
#     4  10  21  37  55  81 113 147 186 231 279 332
#
# _framework density 19.661223
#
# number of rings (size 3 to 8) (size 9 to 14) (size 15 to 20)
#    0.000    1.667    0.000    4.500    0.000    5.333 
#    0.000    1.667    0.000    0.000    0.000    0.000 
#    0.000    0.000    0.000    0.000    0.000    0.000 
#
# Total GULP energy -595373.317308 kJ/mol
# GULP energy per Si atom -12403.610777 kJ/mol
# Density = 1.961647 g / cm^3
# Si number density = 19.661223 Si / 1000 Ang^3
#
#
#
# Elastic Constant Matrix: (Units=GPa)
#
#
# Indices 1 2 3 4 5 6 
#
# 1 141.4631 91.8176 50.2566 0.0000 0.0000 0.0000
# 2 91.8176 185.8267 56.7695 0.0000 0.0000 0.0000
# 3 50.2566 56.7695 80.7004 0.0000 0.0000 0.0000
# 4 0.0000 0.0000 0.0000 41.2893 0.0000 0.0000
# 5 0.0000 0.0000 0.0000 0.0000 27.7493 0.0000
# 6 0.0000 0.0000 0.0000 0.0000 0.0000 43.5691
#
#
#
# Elastic Compliance Matrix: (Units=1/GPa)
#
#
# Indices 1 2 3 4 5 6 
#
# 1 0.011323 -0.004382 -0.003969 0.000000 0.000000 0.000000
# 2 -0.004382 0.008551 -0.003286 0.000000 0.000000 0.000000
# 3 -0.003969 -0.003286 0.017175 0.000000 0.000000 0.000000
# 4 0.000000 0.000000 0.000000 0.024219 0.000000 0.000000
# 5 0.000000 0.000000 0.000000 0.000000 0.036037 0.000000
# 6 0.000000 0.000000 0.000000 0.000000 0.000000 0.022952
#
#
# Mechanical properties :
#
#
# Convention : Reuss Voigt Hill
#
# Bulk Modulus (GPa) = 72.59861 89.51975 81.05918
# Shear Modulus (GPa) = 33.75587 36.46465 35.11026
#
# Velocity S-wave (km/s) = 4.14801 4.31123 4.23041
# Velocity P-wave (km/s) = 7.74250 8.39120 8.07337
#
# Compressibility (1/GPa) = 0.01377437
#
# Stress axis : x y z
#
# Youngs Moduli (GPa) = 88.31238 116.95154 58.22584
#
# Poissons Ratio (x) = 0.51254 0.23109
# Poissons Ratio (y) = 0.38703 0.19132
# Poissons Ratio (z) = 0.35050 0.38427
#
# Static dielectric constant tensor:
#      x y z
#    x 4.018040 0.000000 0.000000 
#    y 0.000000 3.731950 0.000000 
#    z 0.000000 0.000000 3.599680 
# 
# 
# High freq. dielectric constant tensor:
#      x y z
#    x 1.785570 0.000000 0.000000 
#    y 0.000000 1.774980 0.000000 
#    z 0.000000 0.000000 1.767750 
# 
# From -- ./inp_files/9882.got.cif
#   From: 2010.03.12/outbox.cif.g09.slc.cpg/sg57_5_cif.got.tgz:9882.got - 2010.04.16 15:48:40.
