data_PCOD8233598
_publ_section_title
;
Structure prediction by ZEFSAII (Michael W. Deem and Ramdas Pophale) SiO2 
 PCOD8233598
Probable space group: P B C M
;
_chemical_formula_sum "Si O2"
_cell_formula_units_Z 40
_cell_length_a 8.699628
_cell_length_b 12.683263
_cell_length_c 18.665055
_cell_angle_alpha 90.000000
_cell_angle_beta 90.000000
_cell_angle_gamma 90.000000
_cell_volume 2059.496008
_symmetry_space_group_name_H-M "P B C M"
_symmetry_group_IT_number 57
_symmetry_cell_setting 'orthorhombic'
loop_
_space_group_symop_operation_xyz
x,y,z
-x,-y,1/2+z
x,1/2-y,-z
-x,1/2+y,1/2-z
-x,-y,-z
x,y,1/2-z
-x,1/2+y,z
x,1/2-y,1/2+z
loop_
_atom_site_type_symbol
_atom_site_label
_atom_site_fract_x
_atom_site_fract_y
_atom_site_fract_z
Si Si1 0.559352 0.957150 0.425237
Si Si2 0.849242 0.868344 0.488791
Si Si3 0.244611 0.611747 0.332919
Si Si4 0.055513 0.500600 0.888852
Si Si5 0.299902 0.647232 0.830768
O O1 0.695094 0.875265 0.442127
O O2 0.431055 0.891179 0.384272
O O3 0.500000 0.000000 0.500000
O O4 0.623170 0.053932 0.378217
O O5 0.897762 0.750000 0.500000
O O6 0.831464 0.922879 0.566893
O O7 0.989776 0.918499 0.446416
O O8 0.282639 0.593100 0.250000
O O9 0.246613 0.735356 0.352894
O O10 0.076003 0.565755 0.349054
O O11 0.155420 0.567499 0.832733
O O12 0.365033 0.647262 0.750000
#
# Coordination Sequence:
#
# PCOD8233598 Si02
#       5
#     8   8   8   8   8
#     4  11  23  39  58  87 122 158 198 250 294 353
#     4  10  21  36  57  88 118 152 198 246 302 352
#     4  10  23  41  61  89 124 160 201 250 301 357
#     4  10  20  39  60  87 122 156 198 250 298 356
#     4  11  23  39  63  90 120 163 203 244 304 359
#
# _framework density 19.422226999999999
#
# number of rings (size 3 to 8) (size 9 to 14) (size 15 to 20)
#    0.000    1.600    2.000    2.400    2.800    0.000 
#    0.000    0.000    0.000    9.600    0.000    0.000 
#    0.000    0.000    0.000    0.000    0.000    0.000 
#
# Total GULP energy -496054.634056 kJ/mol
# GULP energy per Si atom -12401.365851 kJ/mol
# Density = 1.937802 g / cm^3
# Si number density = 19.422227 Si / 1000 Ang^3
#
#
#
# Elastic Constant Matrix: (Units=GPa)
#
#
# Indices 1 2 3 4 5 6 
#
# 1 99.2954 60.1578 45.8512 0.0000 0.0000 0.0000
# 2 60.1578 148.9387 63.3619 0.0000 0.0000 0.0000
# 3 45.8512 63.3619 118.2793 0.0000 0.0000 0.0000
# 4 0.0000 0.0000 0.0000 31.3750 0.0000 0.0000
# 5 0.0000 0.0000 0.0000 0.0000 32.5401 0.0000
# 6 0.0000 0.0000 0.0000 0.0000 0.0000 24.2235
#
#
#
# Elastic Compliance Matrix: (Units=1/GPa)
#
#
# Indices 1 2 3 4 5 6 
#
# 1 0.014184 -0.004390 -0.003146 0.000000 0.000000 0.000000
# 2 -0.004390 0.010055 -0.003684 0.000000 0.000000 0.000000
# 3 -0.003146 -0.003684 0.011648 0.000000 0.000000 0.000000
# 4 0.000000 0.000000 0.000000 0.031872 0.000000 0.000000
# 5 0.000000 0.000000 0.000000 0.000000 0.030731 0.000000
# 6 0.000000 0.000000 0.000000 0.000000 0.000000 0.041282
#
#
# Mechanical properties :
#
#
# Convention : Reuss Voigt Hill
#
# Bulk Modulus (GPa) = 74.38171 78.36170 76.37170
# Shear Modulus (GPa) = 29.99456 30.77055 30.38256
#
# Velocity S-wave (km/s) = 3.93408 3.98464 3.95944
# Velocity P-wave (km/s) = 7.68221 7.84881 7.76595
#
# Compressibility (1/GPa) = 0.01344417
#
# Stress axis : x y z
#
# Youngs Moduli (GPa) = 70.50297 99.45348 85.85127
#
# Poissons Ratio (x) = 0.43664 0.27013
# Poissons Ratio (y) = 0.30954 0.31632
# Poissons Ratio (z) = 0.22183 0.36643
#
# Static dielectric constant tensor:
#      x y z
#    x 3.525450 0.000000 0.000000 
#    y 0.000000 3.619090 0.000000 
#    z 0.000000 0.000000 3.664030 
# 
# 
# High freq. dielectric constant tensor:
#      x y z
#    x 1.756150 0.000000 0.000000 
#    y 0.000000 1.763270 0.000000 
#    z 0.000000 0.000000 1.764010 
# 
# From -- ./inp_files/20518.got.cif
#   From: 2010.03.12/outbox.cif.g09.slc.cpg/sg57_11_cif.got.tgz:20518.got - 2010.04.16 15:48:40.
