data_PCOD8233019
_publ_section_title
;
Structure prediction by ZEFSAII (Michael W. Deem and Ramdas Pophale) SiO2 
 PCOD8233019
Probable space group: P B C M
;
_chemical_formula_sum "Si O2"
_cell_formula_units_Z 40
_cell_length_a 25.124723
_cell_length_b 9.726899
_cell_length_c 8.560274
_cell_angle_alpha 90.000000
_cell_angle_beta 90.000000
_cell_angle_gamma 90.000000
_cell_volume 2092.008066
_symmetry_space_group_name_H-M "P B C M"
_symmetry_group_IT_number 57
_symmetry_cell_setting 'orthorhombic'
loop_
_space_group_symop_operation_xyz
x,y,z
-x,-y,1/2+z
x,1/2-y,-z
-x,1/2+y,1/2-z
-x,-y,-z
x,y,1/2-z
-x,1/2+y,z
x,1/2-y,1/2+z
loop_
_atom_site_type_symbol
_atom_site_label
_atom_site_fract_x
_atom_site_fract_y
_atom_site_fract_z
Si Si1 0.341630 0.398369 0.064678
Si Si2 0.041743 0.105083 0.065668
Si Si3 0.161184 0.104631 0.433775
Si Si4 0.543317 0.897422 0.935686
Si Si5 0.253313 0.596754 0.935452
O O1 0.343829 0.389287 0.250000
O O2 0.322953 0.250000 0.000000
O O3 0.399048 0.440126 0.999120
O O4 0.302561 0.518116 0.011095
O O5 0.039334 0.105848 0.250000
O O6 0.101555 0.070362 0.006068
O O7 0.023212 0.250000 0.000000
O O8 0.000000 0.000000 0.000000
O O9 0.181696 0.250000 0.500000
O O10 0.161912 0.119903 0.250000
O O11 0.199662 0.981986 0.488534
O O12 0.544331 0.896873 0.750000
O O13 0.526634 0.750000 0.000000
O O14 0.500000 0.000000 0.000000
O O15 0.259961 0.599031 0.750000
O O16 0.250411 0.750000 0.000000
#
# Coordination Sequence:
#
# PCOD8233019 Si02
#       5
#     8   8   8   8   8
#     4  11  22  39  61  86 114 150 190 231 277 334
#     4  10  20  36  56  82 112 147 186 230 278 332
#     4   9  20  37  58  81 109 144 187 229 276 334
#     4  11  22  39  61  88 118 152 191 234 280 332
#     4  11  23  39  57  83 114 147 185 232 283 334
#
# _framework density 19.120386
#
# number of rings (size 3 to 8) (size 9 to 14) (size 15 to 20)
#    0.000    1.600    0.000    6.600    0.000    5.600 
#    0.000    6.000    0.000    0.000    0.000    0.000 
#    0.000    0.000    0.000    0.000    0.000    0.000 
#
# Total GULP energy -496093.454686 kJ/mol
# GULP energy per Si atom -12402.336367 kJ/mol
# Density = 1.907687 g / cm^3
# Si number density = 19.120386 Si / 1000 Ang^3
#
#
#
# Elastic Constant Matrix: (Units=GPa)
#
#
# Indices 1 2 3 4 5 6 
#
# 1 137.4280 115.6628 59.4629 0.0000 0.0000 0.0000
# 2 115.6628 173.3828 64.8527 0.0000 0.0000 0.0000
# 3 59.4629 64.8527 129.0733 0.0000 0.0000 0.0000
# 4 0.0000 0.0000 0.0000 38.3180 0.0000 0.0000
# 5 0.0000 0.0000 0.0000 0.0000 28.5571 0.0000
# 6 0.0000 0.0000 0.0000 0.0000 0.0000 45.5848
#
#
#
# Elastic Compliance Matrix: (Units=1/GPa)
#
#
# Indices 1 2 3 4 5 6 
#
# 1 0.017311 -0.010547 -0.002676 0.000000 0.000000 0.000000
# 2 -0.010547 0.013529 -0.001938 0.000000 0.000000 0.000000
# 3 -0.002676 -0.001938 0.009954 0.000000 0.000000 0.000000
# 4 0.000000 0.000000 0.000000 0.026097 0.000000 0.000000
# 5 0.000000 0.000000 0.000000 0.000000 0.035018 0.000000
# 6 0.000000 0.000000 0.000000 0.000000 0.000000 0.021937
#
#
# Mechanical properties :
#
#
# Convention : Reuss Voigt Hill
#
# Bulk Modulus (GPa) = 95.49957 102.20453 98.85205
# Shear Modulus (GPa) = 31.71395 35.81904 33.76650
#
# Velocity S-wave (km/s) = 4.07707 4.33291 4.20693
# Velocity P-wave (km/s) = 8.49813 8.86574 8.68388
#
# Compressibility (1/GPa) = 0.01047125
#
# Stress axis : x y z
#
# Youngs Moduli (GPa) = 57.76615 73.91658 100.46120
#
# Poissons Ratio (x) = 0.77963 0.26879
# Poissons Ratio (y) = 0.60928 0.19474
# Poissons Ratio (z) = 0.15456 0.14328
#
# Static dielectric constant tensor:
#      x y z
#    x 3.913750 0.000000 0.000000 
#    y 0.000000 3.513720 0.000000 
#    z 0.000000 0.000000 3.643310 
# 
# 
# High freq. dielectric constant tensor:
#      x y z
#    x 1.756150 0.000000 0.000000 
#    y 0.000000 1.745330 0.000000 
#    z 0.000000 0.000000 1.759460 
# 
# From -- ./inp_files/8849.got.cif
#   From: 2010.03.12/outbox.cif.g09.slc.cpg/sg57_5_cif.got.tgz:8849.got - 2010.04.16 15:48:40.
