data_PCOD8233364
_publ_section_title
;
Structure prediction by ZEFSAII (Michael W. Deem and Ramdas Pophale) SiO2 
 PCOD8233364
Probable space group: P B C M
;
_chemical_formula_sum "Si O2"
_cell_formula_units_Z 56
_cell_length_a 8.889226
_cell_length_b 16.628318
_cell_length_c 19.487048
_cell_angle_alpha 90.000000
_cell_angle_beta 90.000000
_cell_angle_gamma 90.000000
_cell_volume 2880.436623
_symmetry_space_group_name_H-M "P B C M"
_symmetry_group_IT_number 57
_symmetry_cell_setting 'orthorhombic'
loop_
_space_group_symop_operation_xyz
x,y,z
-x,-y,1/2+z
x,1/2-y,-z
-x,1/2+y,1/2-z
-x,-y,-z
x,y,1/2-z
-x,1/2+y,z
x,1/2-y,1/2+z
loop_
_atom_site_type_symbol
_atom_site_label
_atom_site_fract_x
_atom_site_fract_y
_atom_site_fract_z
Si Si1 0.621736 0.671932 0.671282
Si Si2 0.815296 0.979692 0.326629
Si Si3 0.064022 0.054491 0.414071
Si Si4 0.367535 0.718482 0.926386
Si Si5 0.803719 0.414912 0.009561
Si Si6 0.617774 0.389283 0.615975
Si Si7 0.298078 0.352884 0.829156
O O1 0.564633 0.659431 0.750000
O O2 0.733534 0.601342 0.648759
O O3 0.486209 0.666878 0.617179
O O4 0.705597 0.756928 0.664486
O O5 0.874375 0.968972 0.250000
O O6 0.703445 0.056570 0.328309
O O7 0.959485 0.991881 0.373644
O O8 0.144912 0.116459 0.363601
O O9 0.958565 0.102611 0.467868
O O10 0.187886 0.999745 0.451579
O O11 0.224056 0.660702 0.939641
O O12 0.321575 0.796673 0.881144
O O13 0.434030 0.750000 0.000000
O O14 0.659201 0.423961 0.959279
O O15 0.440199 0.390754 0.630885
O O16 0.304018 0.380366 0.750000
#
# Coordination Sequence:
#
# PCOD8233364 Si02
#       7
#     8   8   8   8   8   8   8
#     4   9  20  38  58  86 120 151 194 248 300 349
#     4  10  20  38  58  82 117 155 191 235 297 353
#     4  10  21  38  56  86 115 157 191 239 286 351
#     4   9  18  38  59  87 115 148 195 244 287 349
#     4   9  20  39  56  81 121 149 192 230 295 350
#     4   9  19  36  60  83 112 146 192 242 288 338
#     4  10  20  37  61  88 112 146 199 243 291 349
#
# _framework density 19.441496999999998
#
# number of rings (size 3 to 8) (size 9 to 14) (size 15 to 20)
#    0.000    2.571    0.000    0.857    2.000    1.143 
#   30.857    0.714    0.000    0.000    0.000    0.000 
#    0.000    0.000    0.000    0.000    0.000    0.000 
#
# Total GULP energy -694149.474165 kJ/mol
# GULP energy per Si atom -12395.526324 kJ/mol
# Density = 1.939725 g / cm^3
# Si number density = 19.441497 Si / 1000 Ang^3
#
#
#
# Elastic Constant Matrix: (Units=GPa)
#
#
# Indices 1 2 3 4 5 6 
#
# 1 98.1285 66.1974 57.4649 0.0000 0.0000 0.0000
# 2 66.1974 99.5922 58.4297 0.0000 0.0000 0.0000
# 3 57.4649 58.4297 82.0408 0.0000 0.0000 0.0000
# 4 0.0000 0.0000 0.0000 32.9291 0.0000 0.0000
# 5 0.0000 0.0000 0.0000 0.0000 32.1596 0.0000
# 6 0.0000 0.0000 0.0000 0.0000 0.0000 36.2947
#
#
#
# Elastic Compliance Matrix: (Units=1/GPa)
#
#
# Indices 1 2 3 4 5 6 
#
# 1 0.021339 -0.009301 -0.008323 0.000000 0.000000 0.000000
# 2 -0.009301 0.021302 -0.008656 0.000000 0.000000 0.000000
# 3 -0.008323 -0.008656 0.024184 0.000000 0.000000 0.000000
# 4 0.000000 0.000000 0.000000 0.030368 0.000000 0.000000
# 5 0.000000 0.000000 0.000000 0.000000 0.031095 0.000000
# 6 0.000000 0.000000 0.000000 0.000000 0.000000 0.027552
#
#
# Mechanical properties :
#
#
# Convention : Reuss Voigt Hill
#
# Bulk Modulus (GPa) = 70.10380 71.54949 70.82665
# Shear Modulus (GPa) = 23.45722 26.78798 25.12260
#
# Velocity S-wave (km/s) = 3.47732 3.71600 3.59864
# Velocity P-wave (km/s) = 7.22907 7.43599 7.33326
#
# Compressibility (1/GPa) = 0.01426456
#
# Stress axis : x y z
#
# Youngs Moduli (GPa) = 46.86299 46.94461 41.35031
#
# Poissons Ratio (x) = 0.43662 0.34414
# Poissons Ratio (y) = 0.43587 0.35795
# Poissons Ratio (z) = 0.39002 0.40637
#
# Static dielectric constant tensor:
#      x y z
#    x 3.311530 0.000000 0.000000 
#    y 0.000000 3.629170 0.000000 
#    z 0.000000 0.000000 3.667970 
# 
# 
# High freq. dielectric constant tensor:
#      x y z
#    x 1.733030 0.000000 0.000000 
#    y 0.000000 1.760640 0.000000 
#    z 0.000000 0.000000 1.762120 
# 
# From -- ./inp_files/24423.got.cif
#   From: 2010.03.12/outbox.cif.g09.slc.cpg/sg57_13_cif.got.tgz:24423.got - 2010.04.16 15:48:40.
