data_PCOD8233599
_publ_section_title
;
Structure prediction by ZEFSAII (Michael W. Deem and Ramdas Pophale) SiO2 
 PCOD8233599
Probable space group: P B C M
;
_chemical_formula_sum "Si O2"
_cell_formula_units_Z 56
_cell_length_a 9.371609
_cell_length_b 16.285649
_cell_length_c 18.998028
_cell_angle_alpha 90.000000
_cell_angle_beta 90.000000
_cell_angle_gamma 90.000000
_cell_volume 2899.530988
_symmetry_space_group_name_H-M "P B C M"
_symmetry_group_IT_number 57
_symmetry_cell_setting 'orthorhombic'
loop_
_space_group_symop_operation_xyz
x,y,z
-x,-y,1/2+z
x,1/2-y,-z
-x,1/2+y,1/2-z
-x,-y,-z
x,y,1/2-z
-x,1/2+y,z
x,1/2-y,1/2+z
loop_
_atom_site_type_symbol
_atom_site_label
_atom_site_fract_x
_atom_site_fract_y
_atom_site_fract_z
Si Si1 0.735936 0.081113 0.171744
Si Si2 0.118930 0.873594 0.455869
Si Si3 0.346282 0.487288 0.963933
Si Si4 0.183930 0.077052 0.913928
Si Si5 0.072874 0.704760 0.396665
Si Si6 0.215847 0.261314 0.168377
Si Si7 0.586241 0.611970 0.329761
O O1 0.750224 0.045358 0.250000
O O2 0.842711 0.157041 0.163504
O O3 0.581318 0.118492 0.156933
O O4 0.769635 0.008699 0.118773
O O5 0.150430 0.791765 0.410818
O O6 0.067380 0.849812 0.533445
O O7 0.987665 0.922182 0.419686
O O8 0.262597 0.926406 0.459266
O O9 0.352045 0.453876 0.884483
O O10 0.500000 0.500000 0.000000
O O11 0.257133 0.420911 0.009291
O O12 0.246661 0.151565 0.868171
O O13 0.913232 0.716806 0.370461
O O14 0.179595 0.276707 0.250000
O O15 0.352690 0.203237 0.158434
O O16 0.621933 0.581731 0.250000
#
# Coordination Sequence:
#
# PCOD8233599 Si02
#       7
#     8   8   8   8   8   8   8
#     4  11  22  39  60  86 120 161 201 246 306 366
#     4  10  22  37  61  89 123 152 201 256 305 355
#     4  12  22  39  62  93 121 158 210 253 304 366
#     4  11  22  38  62  90 120 156 201 255 305 363
#     4  10  20  39  60  88 117 160 199 250 305 361
#     4  10  22  40  61  89 123 162 206 253 304 368
#     4  10  23  41  59  84 123 162 203 250 310 368
#
# _framework density 19.313469000000001
#
# number of rings (size 3 to 8) (size 9 to 14) (size 15 to 20)
#    0.000    1.429    2.857    2.143    2.000    2.857 
#    0.000    3.571    0.000    0.000    0.000    0.000 
#    0.000    0.000    0.000    0.000    0.000    0.000 
#
# Total GULP energy -694479.907124 kJ/mol
# GULP energy per Si atom -12401.426913 kJ/mol
# Density = 1.926951 g / cm^3
# Si number density = 19.313469 Si / 1000 Ang^3
#
#
#
# Elastic Constant Matrix: (Units=GPa)
#
#
# Indices 1 2 3 4 5 6 
#
# 1 97.0057 63.8655 33.1498 0.0000 0.0000 0.0000
# 2 63.8655 115.0849 53.0052 0.0000 0.0000 0.0000
# 3 33.1498 53.0052 92.1204 0.0000 0.0000 0.0000
# 4 0.0000 0.0000 0.0000 36.9427 0.0000 0.0000
# 5 0.0000 0.0000 0.0000 0.0000 29.7235 0.0000
# 6 0.0000 0.0000 0.0000 0.0000 0.0000 28.0849
#
#
#
# Elastic Compliance Matrix: (Units=1/GPa)
#
#
# Indices 1 2 3 4 5 6 
#
# 1 0.016298 -0.008630 -0.000899 0.000000 0.000000 0.000000
# 2 -0.008630 0.016392 -0.006326 0.000000 0.000000 0.000000
# 3 -0.000899 -0.006326 0.014819 0.000000 0.000000 0.000000
# 4 0.000000 0.000000 0.000000 0.027069 0.000000 0.000000
# 5 0.000000 0.000000 0.000000 0.000000 0.033643 0.000000
# 6 0.000000 0.000000 0.000000 0.000000 0.000000 0.035606
#
#
# Mechanical properties :
#
#
# Convention : Reuss Voigt Hill
#
# Bulk Modulus (GPa) = 63.29995 67.13909 65.21952
# Shear Modulus (GPa) = 27.65410 29.22959 28.44184
#
# Velocity S-wave (km/s) = 3.78809 3.89450 3.84167
# Velocity P-wave (km/s) = 7.20965 7.42032 7.31574
#
# Compressibility (1/GPa) = 0.01579780
#
# Stress axis : x y z
#
# Youngs Moduli (GPa) = 61.35799 61.00437 67.48097
#
# Poissons Ratio (x) = 0.52648 0.06067
# Poissons Ratio (y) = 0.52954 0.42691
# Poissons Ratio (z) = 0.05516 0.38593
#
# Static dielectric constant tensor:
#      x y z
#    x 3.519810 0.000000 0.000000 
#    y 0.000000 3.546240 0.000000 
#    z 0.000000 0.000000 3.792070 
# 
# 
# High freq. dielectric constant tensor:
#      x y z
#    x 1.751210 0.000000 0.000000 
#    y 0.000000 1.751210 0.000000 
#    z 0.000000 0.000000 1.765220 
# 
# From -- ./inp_files/24453.got.cif
#   From: 2010.03.12/outbox.cif.g09.slc.cpg/sg57_13_cif.got.tgz:24453.got - 2010.04.16 15:48:40.
