data_PCOD8233830
_publ_section_title
;
Structure prediction by ZEFSAII (Michael W. Deem and Ramdas Pophale) SiO2 
 PCOD8233830
Probable space group: P B C M
;
_chemical_formula_sum "Si O2"
_cell_formula_units_Z 48
_cell_length_a 14.889526
_cell_length_b 19.211282
_cell_length_c 8.761084
_cell_angle_alpha 90.000000
_cell_angle_beta 90.000000
_cell_angle_gamma 90.000000
_cell_volume 2506.080768
_symmetry_space_group_name_H-M "P B C M"
_symmetry_group_IT_number 57
_symmetry_cell_setting 'orthorhombic'
loop_
_space_group_symop_operation_xyz
x,y,z
-x,-y,1/2+z
x,1/2-y,-z
-x,1/2+y,1/2-z
-x,-y,-z
x,y,1/2-z
-x,1/2+y,z
x,1/2-y,1/2+z
loop_
_atom_site_type_symbol
_atom_site_label
_atom_site_fract_x
_atom_site_fract_y
_atom_site_fract_z
Si Si1 0.429860 0.821827 0.429452
Si Si2 0.899131 0.324986 0.072512
Si Si3 0.272162 0.920262 0.073440
Si Si4 0.368026 0.177954 0.929770
Si Si5 0.963804 0.928832 0.930284
Si Si6 0.226699 0.436725 0.429138
O O1 0.394443 0.750000 0.500000
O O2 0.425901 0.812154 0.250000
O O3 0.364774 0.884345 0.479570
O O4 0.530740 0.838739 0.487039
O O5 0.922516 0.317936 0.250000
O O6 0.808184 0.366951 0.045301
O O7 0.886059 0.250000 0.000000
O O8 0.980773 0.363415 0.989968
O O9 0.275148 0.943883 0.250000
O O10 0.259356 0.985968 0.965442
O O11 0.366196 0.186108 0.750000
O O12 0.304031 0.115902 0.984118
O O13 0.332690 0.250000 0.000000
O O14 0.972359 0.934451 0.750000
O O15 0.861281 0.917155 0.976539
O O16 0.000000 0.000000 0.000000
O O17 0.206364 0.430379 0.250000
#
# Coordination Sequence:
#
# PCOD8233830 Si02
#       6
#     8   8   8   8   8   8
#     4   9  18  35  57  83 116 154 195 240 290 344
#     4  11  23  39  60  89 121 155 197 242 290 348
#     4  10  21  36  57  85 119 156 194 239 291 348
#     4   9  20  38  59  84 115 152 196 244 291 343
#     4  12  24  41  63  86 115 154 195 242 297 354
#     4  11  23  38  59  86 117 154 196 242 293 352
#
# _framework density 19.153413
#
# number of rings (size 3 to 8) (size 9 to 14) (size 15 to 20)
#    0.000    1.667    1.667    3.000    0.000    4.000 
#    0.000    1.667    0.000    0.000    0.000    0.000 
#    0.000    0.000    0.000    0.000    0.000    0.000 
#
# Total GULP energy -595408.348123 kJ/mol
# GULP energy per Si atom -12404.340586 kJ/mol
# Density = 1.910982 g / cm^3
# Si number density = 19.153413 Si / 1000 Ang^3
#
#
#
# Elastic Constant Matrix: (Units=GPa)
#
#
# Indices 1 2 3 4 5 6 
#
# 1 118.0866 62.5172 46.1405 0.0000 0.0000 0.0000
# 2 62.5172 122.4826 52.8408 0.0000 0.0000 0.0000
# 3 46.1405 52.8408 87.2580 0.0000 0.0000 0.0000
# 4 0.0000 0.0000 0.0000 36.7160 0.0000 0.0000
# 5 0.0000 0.0000 0.0000 0.0000 26.6765 0.0000
# 6 0.0000 0.0000 0.0000 0.0000 0.0000 1.6897
#
#
#
# Elastic Compliance Matrix: (Units=1/GPa)
#
#
# Indices 1 2 3 4 5 6 
#
# 1 0.012426 -0.004748 -0.003695 0.000000 0.000000 0.000000
# 2 -0.004748 0.012866 -0.005281 0.000000 0.000000 0.000000
# 3 -0.003695 -0.005281 0.016612 0.000000 0.000000 0.000000
# 4 0.000000 0.000000 0.000000 0.027236 0.000000 0.000000
# 5 0.000000 0.000000 0.000000 0.000000 0.037486 0.000000
# 6 0.000000 0.000000 0.000000 0.000000 0.000000 0.591826
#
#
# Mechanical properties :
#
#
# Convention : Reuss Voigt Hill
#
# Bulk Modulus (GPa) = 69.17535 72.31381 70.74458
# Shear Modulus (GPa) = 6.84257 24.10503 15.47380
#
# Velocity S-wave (km/s) = 1.89216 3.55142 2.84542
# Velocity P-wave (km/s) = 6.40067 7.39282 6.91456
#
# Compressibility (1/GPa) = 0.01445602
#
# Stress axis : x y z
#
# Youngs Moduli (GPa) = 80.47602 77.72352 60.19755
#
# Poissons Ratio (x) = 0.36905 0.22245
# Poissons Ratio (y) = 0.38212 0.31787
# Poissons Ratio (z) = 0.29738 0.41042
#
# Static dielectric constant tensor:
#      x y z
#    x 3.880610 0.000000 0.000000 
#    y 0.000000 3.550700 0.000000 
#    z 0.000000 0.000000 3.411050 
# 
# 
# High freq. dielectric constant tensor:
#      x y z
#    x 1.756950 0.000000 0.000000 
#    y 0.000000 1.747770 0.000000 
#    z 0.000000 0.000000 1.747410 
# 
# From -- ./inp_files/4666.got.cif
#   From: 2010.03.12/outbox.cif.g09.slc.cpg/sg57_3_cif.got.tgz:4666.got - 2010.04.16 15:48:40.
