data_PCOD8233809
_publ_section_title
;
Structure prediction by ZEFSAII (Michael W. Deem and Ramdas Pophale) SiO2 
 PCOD8233809
Probable space group: P B C M
;
_chemical_formula_sum "Si O2"
_cell_formula_units_Z 48
_cell_length_a 20.941463
_cell_length_b 14.051810
_cell_length_c 9.164233
_cell_angle_alpha 90.000000
_cell_angle_beta 90.000000
_cell_angle_gamma 90.000000
_cell_volume 2696.717232
_symmetry_space_group_name_H-M "P B C M"
_symmetry_group_IT_number 57
_symmetry_cell_setting 'orthorhombic'
loop_
_space_group_symop_operation_xyz
x,y,z
-x,-y,1/2+z
x,1/2-y,-z
-x,1/2+y,1/2-z
-x,-y,-z
x,y,1/2-z
-x,1/2+y,z
x,1/2-y,1/2+z
loop_
_atom_site_type_symbol
_atom_site_label
_atom_site_fract_x
_atom_site_fract_y
_atom_site_fract_z
Si Si1 0.567285 0.499945 0.922600
Si Si2 0.225152 0.000224 0.582275
Si Si3 0.996264 0.150900 0.420882
Si Si4 0.904878 0.014218 0.919825
Si Si5 0.668587 0.848229 0.418933
Si Si6 0.669063 0.348416 0.580850
O O1 0.557544 0.499489 0.750000
O O2 0.606620 0.593133 0.971987
O O3 0.607291 0.407442 0.972538
O O4 0.500000 0.500000 0.000000
O O5 0.201467 0.000358 0.750000
O O6 0.166552 0.003274 0.472344
O O7 0.266494 0.906579 0.549246
O O8 0.267404 0.092814 0.549607
O O9 0.010878 0.250000 0.500000
O O10 0.984117 0.168526 0.250000
O O11 0.933754 0.102292 0.489958
O O12 0.056484 0.082649 0.448964
O O13 0.905719 0.041667 0.750000
O O14 0.672830 0.750000 0.500000
O O15 0.661842 0.826108 0.250000
O O16 0.672882 0.250000 0.500000
O O17 0.662263 0.326852 0.750000
#
# Coordination Sequence:
#
# PCOD8233809 Si02
#       6
#     8   8   8   8   8   8
#     4   9  19  35  52  73 102 134 168 207 253 303
#     4   9  19  36  54  73 103 139 170 207 256 306
#     4  10  21  37  56  78 106 139 174 213 257 306
#     4  10  21  36  55  80 107 136 173 215 258 306
#     4   9  19  35  53  74 102 135 171 211 255 304
#     4   9  19  35  53  74 101 133 169 208 251 300
#
# _framework density 17.799417999999999
#
# number of rings (size 3 to 8) (size 9 to 14) (size 15 to 20)
#    0.000    2.667    0.000    3.000    0.000    6.667 
#    0.000   11.667    0.000    0.000    0.000    0.000 
#    0.000    0.000    0.000    0.000    0.000    0.000 
#
# Total GULP energy -595227.161697 kJ/mol
# GULP energy per Si atom -12400.565869 kJ/mol
# Density = 1.775891 g / cm^3
# Si number density = 17.799418 Si / 1000 Ang^3
#
#
#
# Elastic Constant Matrix: (Units=GPa)
#
#
# Indices 1 2 3 4 5 6 
#
# 1 116.3902 50.5413 56.1291 0.0000 0.0000 0.0000
# 2 50.5413 148.6697 66.8229 0.0000 0.0000 0.0000
# 3 56.1291 66.8229 85.9946 0.0000 0.0000 0.0000
# 4 0.0000 0.0000 0.0000 38.2056 0.0000 0.0000
# 5 0.0000 0.0000 0.0000 0.0000 37.7759 0.0000
# 6 0.0000 0.0000 0.0000 0.0000 0.0000 14.8614
#
#
#
# Elastic Compliance Matrix: (Units=1/GPa)
#
#
# Indices 1 2 3 4 5 6 
#
# 1 0.012617 -0.000903 -0.007533 0.000000 0.000000 0.000000
# 2 -0.000903 0.010401 -0.007493 0.000000 0.000000 0.000000
# 3 -0.007533 -0.007493 0.022368 0.000000 0.000000 0.000000
# 4 0.000000 0.000000 0.000000 0.026174 0.000000 0.000000
# 5 0.000000 0.000000 0.000000 0.000000 0.026472 0.000000
# 6 0.000000 0.000000 0.000000 0.000000 0.000000 0.067288
#
#
# Mechanical properties :
#
#
# Convention : Reuss Voigt Hill
#
# Bulk Modulus (GPa) = 73.92340 77.56011 75.74176
# Shear Modulus (GPa) = 24.79075 30.00600 27.39838
#
# Velocity S-wave (km/s) = 3.73605 4.11029 3.92763
# Velocity P-wave (km/s) = 7.76095 8.13603 7.95070
#
# Compressibility (1/GPa) = 0.01352752
#
# Stress axis : x y z
#
# Youngs Moduli (GPa) = 79.25873 96.14287 44.70673
#
# Poissons Ratio (x) = 0.08684 0.33679
# Poissons Ratio (y) = 0.07159 0.33498
# Poissons Ratio (z) = 0.59708 0.72038
#
# Static dielectric constant tensor:
#      x y z
#    x 3.328730 0.000000 0.000000 
#    y 0.000000 3.227160 0.000000 
#    z 0.000000 0.000000 3.242470 
# 
# 
# High freq. dielectric constant tensor:
#      x y z
#    x 1.691130 0.000000 0.000000 
#    y 0.000000 1.693580 0.000000 
#    z 0.000000 0.000000 1.689760 
# 
# From -- ./inp_files/7876.got.cif
#   From: 2010.03.12/outbox.cif.g09.slc.cpg/sg57_4_cif.got.tgz:7876.got - 2010.04.16 15:48:40.
