data_PCOD8233919
_publ_section_title
;
Structure prediction by ZEFSAII (Michael W. Deem and Ramdas Pophale) SiO2 
 PCOD8233919
Probable space group: P B C M
;
_chemical_formula_sum "Si O2"
_cell_formula_units_Z 48
_cell_length_a 21.000452
_cell_length_b 14.113585
_cell_length_c 8.735873
_cell_angle_alpha 90.000000
_cell_angle_beta 90.000000
_cell_angle_gamma 90.000000
_cell_volume 2589.239938
_symmetry_space_group_name_H-M "P B C M"
_symmetry_group_IT_number 57
_symmetry_cell_setting 'orthorhombic'
loop_
_space_group_symop_operation_xyz
x,y,z
-x,-y,1/2+z
x,1/2-y,-z
-x,1/2+y,1/2-z
-x,-y,-z
x,y,1/2-z
-x,1/2+y,z
x,1/2-y,1/2+z
loop_
_atom_site_type_symbol
_atom_site_label
_atom_site_fract_x
_atom_site_fract_y
_atom_site_fract_z
Si Si1 0.495061 0.148628 0.928101
Si Si2 0.173315 0.353304 0.931885
Si Si3 0.931473 0.997641 0.927031
Si Si4 0.599848 0.508524 0.072898
Si Si5 0.827725 0.352377 0.429388
Si Si6 0.735353 0.500140 0.569762
O O1 0.477910 0.158678 0.750000
O O2 0.556643 0.083588 0.952989
O O3 0.510684 0.250000 0.000000
O O4 0.435305 0.103056 0.015503
O O5 0.177389 0.350077 0.750000
O O6 0.110708 0.409990 0.988978
O O7 0.169421 0.250000 0.000000
O O8 0.236035 0.405628 0.993012
O O9 0.942639 0.983492 0.750000
O O10 0.894112 0.094492 0.962915
O O11 0.000000 0.000000 0.000000
O O12 0.618172 0.521781 0.250000
O O13 0.661724 0.492822 0.971198
O O14 0.834585 0.250000 0.500000
O O15 0.813309 0.347084 0.250000
O O16 0.769383 0.406184 0.507778
O O17 0.744634 0.506638 0.750000
#
# Coordination Sequence:
#
# PCOD8233919 Si02
#       6
#     8   8   8   8   8   8
#     4  10  21  37  58  83 111 144 182 224 271 322
#     4  10  21  38  57  81 111 144 183 227 274 325
#     4   9  20  36  55  79 110 144 181 225 271 323
#     4  10  21  38  58  81 112 146 182 226 271 321
#     4  10  21  38  57  81 111 145 184 227 274 324
#     4  11  22  37  58  83 111 145 183 226 275 327
#
# _framework density 18.538259
#
# number of rings (size 3 to 8) (size 9 to 14) (size 15 to 20)
#    0.000    2.000    0.000    4.500    0.000    8.000 
#    0.000    8.333    0.000    0.000    0.000    0.000 
#    0.000    0.000    0.000    0.000    0.000    0.000 
#
# Total GULP energy -595355.428013 kJ/mol
# GULP energy per Si atom -12403.238084 kJ/mol
# Density = 1.849606 g / cm^3
# Si number density = 18.538259 Si / 1000 Ang^3
#
#
#
# Elastic Constant Matrix: (Units=GPa)
#
#
# Indices 1 2 3 4 5 6 
#
# 1 105.1727 35.4114 44.2735 0.0000 0.0000 0.0000
# 2 35.4114 134.6029 58.0790 0.0000 0.0000 0.0000
# 3 44.2735 58.0790 107.4841 0.0000 0.0000 0.0000
# 4 0.0000 0.0000 0.0000 36.9034 0.0000 0.0000
# 5 0.0000 0.0000 0.0000 0.0000 37.3660 0.0000
# 6 0.0000 0.0000 0.0000 0.0000 0.0000 12.1827
#
#
#
# Elastic Compliance Matrix: (Units=1/GPa)
#
#
# Indices 1 2 3 4 5 6 
#
# 1 0.011674 -0.001299 -0.004107 0.000000 0.000000 0.000000
# 2 -0.001299 0.009833 -0.004778 0.000000 0.000000 0.000000
# 3 -0.004107 -0.004778 0.013577 0.000000 0.000000 0.000000
# 4 0.000000 0.000000 0.000000 0.027098 0.000000 0.000000
# 5 0.000000 0.000000 0.000000 0.000000 0.026762 0.000000
# 6 0.000000 0.000000 0.000000 0.000000 0.000000 0.082084
#
#
# Mechanical properties :
#
#
# Convention : Reuss Voigt Hill
#
# Bulk Modulus (GPa) = 67.95192 69.19862 68.57527
# Shear Modulus (GPa) = 25.47109 31.25682 28.36396
#
# Velocity S-wave (km/s) = 3.71074 4.11063 3.91579
# Velocity P-wave (km/s) = 7.42253 7.74198 7.58394
#
# Compressibility (1/GPa) = 0.01471629
#
# Stress axis : x y z
#
# Youngs Moduli (GPa) = 85.65748 101.70182 73.65394
#
# Poissons Ratio (x) = 0.13214 0.30247
# Poissons Ratio (y) = 0.11130 0.35191
# Poissons Ratio (z) = 0.35177 0.48592
#
# Static dielectric constant tensor:
#      x y z
#    x 6.942760 0.000000 0.000000 
#    y 0.000000 3.245970 0.000000 
#    z 0.000000 0.000000 3.549950 
# 
# 
# High freq. dielectric constant tensor:
#      x y z
#    x 1.721080 0.000000 0.000000 
#    y 0.000000 1.724770 0.000000 
#    z 0.000000 0.000000 1.734850 
# 
# From -- ./inp_files/6514.got.cif
#   From: 2010.03.12/outbox.cif.g09.slc.cpg/sg57_4_cif.got.tgz:6514.got - 2010.04.16 15:48:40.
