data_PCOD8233363
_publ_section_title
;
Structure prediction by ZEFSAII (Michael W. Deem and Ramdas Pophale) SiO2 
 PCOD8233363
Probable space group: P B C M
;
_chemical_formula_sum "Si O2"
_cell_formula_units_Z 52
_cell_length_a 15.768159
_cell_length_b 14.283065
_cell_length_c 11.477769
_cell_angle_alpha 90.000000
_cell_angle_beta 90.000000
_cell_angle_gamma 90.000000
_cell_volume 2584.996046
_symmetry_space_group_name_H-M "P B C M"
_symmetry_group_IT_number 57
_symmetry_cell_setting 'orthorhombic'
loop_
_space_group_symop_operation_xyz
x,y,z
-x,-y,1/2+z
x,1/2-y,-z
-x,1/2+y,1/2-z
-x,-y,-z
x,y,1/2-z
-x,1/2+y,z
x,1/2-y,1/2+z
loop_
_atom_site_type_symbol
_atom_site_label
_atom_site_fract_x
_atom_site_fract_y
_atom_site_fract_z
Si Si1 0.478193 0.883652 0.620103
Si Si2 0.238827 0.313396 0.382306
Si Si3 0.352761 0.750000 0.500000
Si Si4 0.732393 0.419916 0.387405
Si Si5 0.943678 0.645396 0.956793
Si Si6 0.620729 0.946076 0.466336
Si Si7 0.912301 0.022274 0.620187
O O1 0.512601 0.867065 0.750000
O O2 0.410118 0.804491 0.592205
O O3 0.556654 0.874656 0.530634
O O4 0.434084 0.985631 0.615221
O O5 0.249481 0.250000 0.500000
O O6 0.246285 0.266721 0.250000
O O7 0.145386 0.358615 0.388170
O O8 0.311714 0.391462 0.387227
O O9 0.292105 0.682994 0.572442
O O10 0.730936 0.423597 0.250000
O O11 0.666308 0.495881 0.432708
O O12 0.825503 0.442101 0.439668
O O13 0.944200 0.573928 0.064453
O O14 0.964286 0.750000 0.000000
O O15 0.019298 0.606667 0.876500
O O16 0.890548 0.992556 0.750000
#
# Coordination Sequence:
#
# PCOD8233363 Si02
#       7
#     8   8   4   8   8   8   8
#     4  10  21  38  59  83 118 156 199 251 307 366
#     4  11  24  41  62  91 123 162 206 257 310 370
#     4  10  22  36  58  88 122 154 204 248 316 364
#     4  10  20  37  61  87 120 159 206 256 310 376
#     4  10  22  40  63  89 127 164 210 264 313 383
#     4  10  21  39  59  86 115 157 203 252 307 371
#     4  10  21  38  62  91 124 165 209 259 318 377
#
# _framework density 20.116085999999999
#
# number of rings (size 3 to 8) (size 9 to 14) (size 15 to 20)
#    0.000    1.846    1.538    1.846    2.154    4.308 
#    0.000    1.538    0.000    0.000    0.000    0.000 
#    0.000    0.000    0.000    0.000    0.000    0.000 
#
# Total GULP energy -644552.766197 kJ/mol
# GULP energy per Si atom -12395.245504 kJ/mol
# Density = 2.007030 g / cm^3
# Si number density = 20.116086 Si / 1000 Ang^3
#
#
#
# Elastic Constant Matrix: (Units=GPa)
#
#
# Indices 1 2 3 4 5 6 
#
# 1 91.2688 31.3690 13.7174 0.0000 0.0000 0.0000
# 2 31.3690 94.4882 31.0870 0.0000 0.0000 0.0000
# 3 13.7174 31.0870 102.2479 0.0000 0.0000 0.0000
# 4 0.0000 0.0000 0.0000 15.9798 0.0000 0.0000
# 5 0.0000 0.0000 0.0000 0.0000 11.5988 0.0000
# 6 0.0000 0.0000 0.0000 0.0000 0.0000 30.7562
#
#
#
# Elastic Compliance Matrix: (Units=1/GPa)
#
#
# Indices 1 2 3 4 5 6 
#
# 1 0.012387 -0.003962 -0.000457 0.000000 0.000000 0.000000
# 2 -0.003962 0.013027 -0.003429 0.000000 0.000000 0.000000
# 3 -0.000457 -0.003429 0.010884 0.000000 0.000000 0.000000
# 4 0.000000 0.000000 0.000000 0.062579 0.000000 0.000000
# 5 0.000000 0.000000 0.000000 0.000000 0.086216 0.000000
# 6 0.000000 0.000000 0.000000 0.000000 0.000000 0.032514
#
#
# Mechanical properties :
#
#
# Convention : Reuss Voigt Hill
#
# Bulk Modulus (GPa) = 48.54038 48.92797 48.73417
# Shear Modulus (GPa) = 20.81855 25.78906 23.30381
#
# Velocity S-wave (km/s) = 3.22051 3.58440 3.40732
# Velocity P-wave (km/s) = 6.16534 6.44253 6.30546
#
# Compressibility (1/GPa) = 0.02060141
#
# Stress axis : x y z
#
# Youngs Moduli (GPa) = 80.72926 76.76457 91.87745
#
# Poissons Ratio (x) = 0.30414 0.04201
# Poissons Ratio (y) = 0.31984 0.31506
# Poissons Ratio (z) = 0.03691 0.26323
#
# Static dielectric constant tensor:
#      x y z
#    x 3.973680 0.000000 0.000000 
#    y 0.000000 3.597550 0.000000 
#    z 0.000000 0.000000 3.555290 
# 
# 
# High freq. dielectric constant tensor:
#      x y z
#    x 1.801280 0.000000 0.000000 
#    y 0.000000 1.776690 0.000000 
#    z 0.000000 0.000000 1.781530 
# 
# From -- ./inp_files/13796.got.cif
#   From: 2010.03.12/outbox.cif.g09.slc.cpg/sg57_7_cif.got.tgz:13796.got - 2010.04.16 15:48:40.
