data_PCOD8233588
_publ_section_title
;
Structure prediction by ZEFSAII (Michael W. Deem and Ramdas Pophale) SiO2 
 PCOD8233588
Probable space group: P B C M
;
_chemical_formula_sum "Si O2"
_cell_formula_units_Z 64
_cell_length_a 9.836402
_cell_length_b 21.970956
_cell_length_c 15.131513
_cell_angle_alpha 90.000000
_cell_angle_beta 90.000000
_cell_angle_gamma 90.000000
_cell_volume 3270.149286
_symmetry_space_group_name_H-M "P B C M"
_symmetry_group_IT_number 57
_symmetry_cell_setting 'orthorhombic'
loop_
_space_group_symop_operation_xyz
x,y,z
-x,-y,1/2+z
x,1/2-y,-z
-x,1/2+y,1/2-z
-x,-y,-z
x,y,1/2-z
-x,1/2+y,z
x,1/2-y,1/2+z
loop_
_atom_site_type_symbol
_atom_site_label
_atom_site_fract_x
_atom_site_fract_y
_atom_site_fract_z
Si Si1 0.378066 0.045184 0.509155
Si Si2 0.294183 0.253636 0.396102
Si Si3 0.983902 0.260428 0.396961
Si Si4 0.792072 0.127714 0.851565
Si Si5 0.035117 0.873254 0.651163
Si Si6 0.480575 0.361724 0.349468
Si Si7 0.277417 0.118964 0.150877
Si Si8 0.132945 0.540020 0.005918
O O1 0.402044 0.092955 0.586461
O O2 0.364289 0.078550 0.415400
O O3 0.500000 0.000000 0.500000
O O4 0.247830 0.006548 0.535134
O O5 0.316145 0.250000 0.500000
O O6 0.405157 0.297394 0.353364
O O7 0.324496 0.188526 0.353505
O O8 0.140842 0.275891 0.373412
O O9 0.966940 0.250000 0.500000
O O10 0.890342 0.315123 0.364912
O O11 0.935303 0.198827 0.349235
O O12 0.801131 0.106137 0.750000
O O13 0.638155 0.146401 0.877441
O O14 0.838137 0.070996 0.911409
O O15 0.064713 0.897597 0.750000
O O16 0.128225 0.908088 0.580970
O O17 0.879920 0.885507 0.622844
O O18 0.472099 0.387508 0.250000
O O19 0.300837 0.094302 0.250000
O O20 0.000000 0.500000 0.000000
#
# Coordination Sequence:
#
# PCOD8233588 Si02
#       8
#     8   8   8   8   8   8   8   8
#     4  12  25  44  64  89 125 170 214 259 309 367
#     4  10  20  38  69  99 125 158 207 261 317 373
#     4  10  20  38  69  97 126 161 202 258 322 378
#     4  11  25  44  65  94 130 170 208 257 322 381
#     4  10  21  40  65  96 127 158 203 262 317 372
#     4  11  25  44  65  93 130 168 211 261 315 378
#     4  10  21  40  67  94 124 165 207 253 314 379
#     4  12  25  42  66  91 123 164 218 261 308 371
#
# _framework density 19.570971
#
# number of rings (size 3 to 8) (size 9 to 14) (size 15 to 20)
#    0.000    1.250    5.000    0.750    1.750    4.000 
#    2.250    0.000    0.000    0.000    0.000    0.000 
#    0.000    0.000    0.000    0.000    0.000    0.000 
#
# Total GULP energy -793811.173623 kJ/mol
# GULP energy per Si atom -12403.299588 kJ/mol
# Density = 1.952643 g / cm^3
# Si number density = 19.570971 Si / 1000 Ang^3
#
#
#
# Elastic Constant Matrix: (Units=GPa)
#
#
# Indices 1 2 3 4 5 6 
#
# 1 124.7795 67.6381 44.8134 0.0000 0.0000 0.0000
# 2 67.6381 102.9056 52.2640 0.0000 0.0000 0.0000
# 3 44.8134 52.2640 114.1621 0.0000 0.0000 0.0000
# 4 0.0000 0.0000 0.0000 1.4030 0.0000 0.0000
# 5 0.0000 0.0000 0.0000 0.0000 26.6983 0.0000
# 6 0.0000 0.0000 0.0000 0.0000 0.0000 40.6919
#
#
#
# Elastic Compliance Matrix: (Units=1/GPa)
#
#
# Indices 1 2 3 4 5 6 
#
# 1 0.012647 -0.007545 -0.001510 0.000000 0.000000 0.000000
# 2 -0.007545 0.017164 -0.004896 0.000000 0.000000 0.000000
# 3 -0.001510 -0.004896 0.011593 0.000000 0.000000 0.000000
# 4 0.000000 0.000000 0.000000 0.712759 0.000000 0.000000
# 5 0.000000 0.000000 0.000000 0.000000 0.037456 0.000000
# 6 0.000000 0.000000 0.000000 0.000000 0.000000 0.024575
#
#
# Mechanical properties :
#
#
# Convention : Reuss Voigt Hill
#
# Bulk Modulus (GPa) = 74.06634 74.58648 74.32641
# Shear Modulus (GPa) = 5.89209 25.56742 15.72975
#
# Velocity S-wave (km/s) = 1.73700 3.61833 2.83809
# Velocity P-wave (km/s) = 6.47688 7.45989 6.98570
#
# Compressibility (1/GPa) = 0.01350141
#
# Stress axis : x y z
#
# Youngs Moduli (GPa) = 79.07313 58.26292 86.25563
#
# Poissons Ratio (x) = 0.43962 0.13024
# Poissons Ratio (y) = 0.59664 0.42228
# Poissons Ratio (z) = 0.11940 0.28524
#
# Static dielectric constant tensor:
#      x y z
#    x 3.505010 0.000000 0.000000 
#    y 0.000000 3.553670 0.000000 
#    z 0.000000 0.000000 4.042940 
# 
# 
# High freq. dielectric constant tensor:
#      x y z
#    x 1.756860 0.000000 0.000000 
#    y 0.000000 1.766770 0.000000 
#    z 0.000000 0.000000 1.775700 
# 
# From -- ./inp_files/16948.got.cif
#   From: 2010.03.12/outbox.cif.g09.slc.cpg/sg57_9_cif.got.tgz:16948.got - 2010.04.16 15:48:40.
