data_PCOD8233651
_publ_section_title
;
Structure prediction by ZEFSAII (Michael W. Deem and Ramdas Pophale) SiO2 
 PCOD8233651
Probable space group: P B C M
;
_chemical_formula_sum "Si O2"
_cell_formula_units_Z 40
_cell_length_a 23.313798
_cell_length_b 9.213455
_cell_length_c 8.901526
_cell_angle_alpha 90.000000
_cell_angle_beta 90.000000
_cell_angle_gamma 90.000000
_cell_volume 1912.053382
_symmetry_space_group_name_H-M "P B C M"
_symmetry_group_IT_number 57
_symmetry_cell_setting 'orthorhombic'
loop_
_space_group_symop_operation_xyz
x,y,z
-x,-y,1/2+z
x,1/2-y,-z
-x,1/2+y,1/2-z
-x,-y,-z
x,y,1/2-z
-x,1/2+y,z
x,1/2-y,1/2+z
loop_
_atom_site_type_symbol
_atom_site_label
_atom_site_fract_x
_atom_site_fract_y
_atom_site_fract_z
Si Si1 0.366302 0.911664 0.471918
Si Si2 0.427756 0.990921 0.750000
Si Si3 0.538772 0.167182 0.750000
Si Si4 0.737933 0.601382 0.417140
Si Si5 0.050631 0.592498 0.568555
Si Si6 0.831163 0.093079 0.430468
O O1 0.340806 0.750000 0.500000
O O2 0.382617 0.003438 0.616656
O O3 0.427277 0.895416 0.390862
O O4 0.318487 0.004280 0.387925
O O5 0.462675 0.840699 0.750000
O O6 0.472680 0.121504 0.750000
O O7 0.721927 0.750000 0.500000
O O8 0.763784 0.630059 0.250000
O O9 0.781543 0.517609 0.525301
O O10 0.042079 0.750000 0.500000
O O11 0.049926 0.593346 0.750000
O O12 0.110688 0.530515 0.505311
O O13 0.000000 0.500000 0.500000
O O14 0.816921 0.250000 0.500000
O O15 0.836838 0.104668 0.250000
#
# Coordination Sequence:
#
# PCOD8233651 Si02
#       6
#     8   4   4   8   8   8
#     4  10  22  40  63  87 120 161 206 250 308 377
#     4  10  22  34  64  86 124 152 205 240 313 366
#     4  10  20  40  56  92 116 162 195 256 297 376
#     4  12  26  43  63  91 126 161 209 266 324 379
#     4  11  22  40  65  97 134 174 220 266 318 373
#     4  11  23  42  68  96 128 170 216 260 315 377
#
# _framework density 20.919917000000002
#
# number of rings (size 3 to 8) (size 9 to 14) (size 15 to 20)
#    0.000    1.200    1.000    6.600    2.800    2.400 
#    0.000    4.000    0.000    0.000    0.000    0.000 
#    0.000    0.000    0.000    0.000    0.000    0.000 
#
# Total GULP energy -495847.968735 kJ/mol
# GULP energy per Si atom -12396.199218 kJ/mol
# Density = 2.087230 g / cm^3
# Si number density = 20.919917 Si / 1000 Ang^3
#
#
#
# Elastic Constant Matrix: (Units=GPa)
#
#
# Indices 1 2 3 4 5 6 
#
# 1 92.5342 42.9805 28.4211 0.0000 0.0000 0.0000
# 2 42.9805 76.3868 28.4160 0.0000 0.0000 0.0000
# 3 28.4211 28.4160 178.1954 0.0000 0.0000 0.0000
# 4 0.0000 0.0000 0.0000 31.1432 0.0000 0.0000
# 5 0.0000 0.0000 0.0000 0.0000 39.5470 0.0000
# 6 0.0000 0.0000 0.0000 0.0000 0.0000 39.3241
#
#
#
# Elastic Compliance Matrix: (Units=1/GPa)
#
#
# Indices 1 2 3 4 5 6 
#
# 1 0.014831 -0.007936 -0.001100 0.000000 0.000000 0.000000
# 2 -0.007936 0.018163 -0.001631 0.000000 0.000000 0.000000
# 3 -0.001100 -0.001631 0.006047 0.000000 0.000000 0.000000
# 4 0.000000 0.000000 0.000000 0.032110 0.000000 0.000000
# 5 0.000000 0.000000 0.000000 0.000000 0.025286 0.000000
# 6 0.000000 0.000000 0.000000 0.000000 0.000000 0.025430
#
#
# Mechanical properties :
#
#
# Convention : Reuss Voigt Hill
#
# Bulk Modulus (GPa) = 56.47009 60.75018 58.61014
# Shear Modulus (GPa) = 33.53416 38.48946 36.01181
#
# Velocity S-wave (km/s) = 4.00806 4.29400 4.15349
# Velocity P-wave (km/s) = 6.96215 7.32714 7.14697
#
# Compressibility (1/GPa) = 0.01770849
#
# Stress axis : x y z
#
# Youngs Moduli (GPa) = 67.42838 55.05714 165.36330
#
# Poissons Ratio (x) = 0.43691 0.18189
# Poissons Ratio (y) = 0.53508 0.26966
# Poissons Ratio (z) = 0.07417 0.08978
#
# Static dielectric constant tensor:
#      x y z
#    x 4.498410 0.000000 0.000000 
#    y 0.000000 3.675050 0.000000 
#    z 0.000000 0.000000 4.611960 
# 
# 
# High freq. dielectric constant tensor:
#      x y z
#    x 1.819390 0.000000 0.000000 
#    y 0.000000 1.810590 0.000000 
#    z 0.000000 0.000000 1.845210 
# 
# From -- ./inp_files/8960.got.cif
#   From: 2010.03.12/outbox.cif.g09.slc.cpg/sg57_5_cif.got.tgz:8960.got - 2010.04.16 15:48:40.
