data_PCOD8233059
_publ_section_title
;
Structure prediction by ZEFSAII (Michael W. Deem and Ramdas Pophale) SiO2 
 PCOD8233059
Probable space group: P B C M
;
_chemical_formula_sum "Si O2"
_cell_formula_units_Z 60
_cell_length_a 29.530471
_cell_length_b 5.183409
_cell_length_c 19.313551
_cell_angle_alpha 90.000000
_cell_angle_beta 90.000000
_cell_angle_gamma 90.000000
_cell_volume 2956.296458
_symmetry_space_group_name_H-M "P B C M"
_symmetry_group_IT_number 57
_symmetry_cell_setting 'orthorhombic'
loop_
_space_group_symop_operation_xyz
x,y,z
-x,-y,1/2+z
x,1/2-y,-z
-x,1/2+y,1/2-z
-x,-y,-z
x,y,1/2-z
-x,1/2+y,z
x,1/2-y,1/2+z
loop_
_atom_site_type_symbol
_atom_site_label
_atom_site_fract_x
_atom_site_fract_y
_atom_site_fract_z
Si Si1 0.529393 0.502270 0.828781
Si Si2 0.395035 0.876438 0.568738
Si Si3 0.275695 0.278402 0.631668
Si Si4 0.674761 0.245980 0.173860
Si Si5 0.118573 0.719332 0.169008
Si Si6 0.174881 0.223224 0.330685
Si Si7 0.324877 0.250000 0.000000
Si Si8 0.029059 0.746183 0.919979
O O1 0.548338 0.522355 0.750000
O O2 0.493117 0.725420 0.841843
O O3 0.568549 0.535087 0.886102
O O4 0.418202 0.750000 0.500000
O O5 0.367752 0.689681 0.622149
O O6 0.356125 0.051580 0.538965
O O7 0.292450 0.507073 0.681672
O O8 0.221840 0.256521 0.628942
O O9 0.291995 0.377455 0.556402
O O10 0.296342 0.003069 0.652121
O O11 0.654001 0.194762 0.250000
O O12 0.106416 0.717198 0.250000
O O13 0.142639 0.455971 0.145593
O O14 0.072951 0.748331 0.126905
O O15 0.151286 0.955321 0.150275
O O16 0.186116 0.246078 0.250000
O O17 0.001924 0.488902 0.901454
O O18 0.044005 0.750000 0.000000
#
# Coordination Sequence:
#
# PCOD8233059 Si02
#       8
#     8   8   8   8   8   8   4   8
#     4  10  24  44  66  93 123 157 201 248 296 359
#     4  11  23  41  63  88 127 161 193 250 300 360
#     4  11  22  39  60  85 123 158 203 251 299 358
#     4  11  22  37  62  89 113 156 206 249 294 352
#     4  10  21  37  57  86 118 149 195 244 293 351
#     4  10  20  36  57  83 116 154 193 244 293 346
#     4  10  24  42  58  92 128 162 202 254 302 354
#     4  10  21  38  59  83 115 152 192 241 292 350
#
# _framework density 20.295663999999999
#
# number of rings (size 3 to 8) (size 9 to 14) (size 15 to 20)
#    0.000    1.600    1.333    3.200    1.867    2.133 
#    2.400    2.667    0.000    0.000    0.000    0.000 
#    0.000    0.000    0.000    0.000    0.000    0.000 
#
# Total GULP energy -743865.249093 kJ/mol
# GULP energy per Si atom -12397.754152 kJ/mol
# Density = 2.024947 g / cm^3
# Si number density = 20.295664 Si / 1000 Ang^3
#
#
#
# Elastic Constant Matrix: (Units=GPa)
#
#
# Indices 1 2 3 4 5 6 
#
# 1 82.9217 16.3263 65.9910 0.0000 0.0000 0.0000
# 2 16.3263 89.2962 18.2759 0.0000 0.0000 0.0000
# 3 65.9910 18.2759 119.8392 0.0000 0.0000 0.0000
# 4 0.0000 0.0000 0.0000 12.3115 0.0000 0.0000
# 5 0.0000 0.0000 0.0000 0.0000 30.8271 0.0000
# 6 0.0000 0.0000 0.0000 0.0000 0.0000 54.0233
#
#
#
# Elastic Compliance Matrix: (Units=1/GPa)
#
#
# Indices 1 2 3 4 5 6 
#
# 1 0.021678 -0.001569 -0.011698 0.000000 0.000000 0.000000
# 2 -0.001569 0.011673 -0.000916 0.000000 0.000000 0.000000
# 3 -0.011698 -0.000916 0.014926 0.000000 0.000000 0.000000
# 4 0.000000 0.000000 0.000000 0.081225 0.000000 0.000000
# 5 0.000000 0.000000 0.000000 0.000000 0.032439 0.000000
# 6 0.000000 0.000000 0.000000 0.000000 0.000000 0.018511
#
#
# Mechanical properties :
#
#
# Convention : Reuss Voigt Hill
#
# Bulk Modulus (GPa) = 50.22504 54.80484 52.51494
# Shear Modulus (GPa) = 23.20671 32.19665 27.70168
#
# Velocity S-wave (km/s) = 3.38514 3.98726 3.69847
# Velocity P-wave (km/s) = 6.33082 6.94691 6.64601
#
# Compressibility (1/GPa) = 0.01991039
#
# Stress axis : x y z
#
# Youngs Moduli (GPa) = 46.12956 85.66720 66.99777
#
# Poissons Ratio (x) = 0.13444 0.78374
# Poissons Ratio (y) = 0.07239 0.06137
# Poissons Ratio (z) = 0.53962 0.07847
#
# Static dielectric constant tensor:
#      x y z
#    x 3.524280 0.000000 0.000000 
#    y 0.000000 3.798720 0.000000 
#    z 0.000000 0.000000 4.469180 
# 
# 
# High freq. dielectric constant tensor:
#      x y z
#    x 1.787260 0.000000 0.000000 
#    y 0.000000 1.800670 0.000000 
#    z 0.000000 0.000000 1.798970 
# 
# From -- ./inp_files/23155.got.cif
#   From: 2010.03.12/outbox.cif.g09.slc.cpg/sg57_12_cif.got.tgz:23155.got - 2010.04.16 15:48:40.
