data_PCOD8233620
_publ_section_title
;
Structure prediction by ZEFSAII (Michael W. Deem and Ramdas Pophale) SiO2 
 PCOD8233620
Probable space group: P B C M
;
_chemical_formula_sum "Si O2"
_cell_formula_units_Z 40
_cell_length_a 7.908578
_cell_length_b 28.950956
_cell_length_c 8.714304
_cell_angle_alpha 90.000000
_cell_angle_beta 90.000000
_cell_angle_gamma 90.000000
_cell_volume 1995.234832
_symmetry_space_group_name_H-M "P B C M"
_symmetry_group_IT_number 57
_symmetry_cell_setting 'orthorhombic'
loop_
_space_group_symop_operation_xyz
x,y,z
-x,-y,1/2+z
x,1/2-y,-z
-x,1/2+y,1/2-z
-x,-y,-z
x,y,1/2-z
-x,1/2+y,z
x,1/2-y,1/2+z
loop_
_atom_site_type_symbol
_atom_site_label
_atom_site_fract_x
_atom_site_fract_y
_atom_site_fract_z
Si Si1 0.567102 0.142594 0.070742
Si Si2 0.059285 0.636621 0.430413
Si Si3 0.747193 0.699694 0.068025
Si Si4 0.429433 0.046683 0.068888
Si Si5 0.931503 0.953002 0.431047
O O1 0.532509 0.144201 0.250000
O O2 0.757274 0.159422 0.030683
O O3 0.422869 0.175807 0.998234
O O4 0.547688 0.089365 0.017644
O O5 0.044693 0.625402 0.250000
O O6 0.911701 0.670868 0.485264
O O7 0.053900 0.588948 0.523965
O O8 0.741503 0.703288 0.250000
O O9 0.764404 0.750000 0.000000
O O10 0.418478 0.040798 0.250000
O O11 0.247554 0.058854 0.003650
O O12 0.500000 0.000000 0.000000
O O13 0.917350 0.958356 0.250000
O O14 0.000000 0.000000 0.500000
#
# Coordination Sequence:
#
# PCOD8233620 Si02
#       5
#     8   8   8   8   8
#     4   9  19  37  61  86 116 157 199 243 302 365
#     4  10  20  39  64  87 119 159 202 253 309 367
#     4  10  21  39  61  88 120 159 202 251 307 365
#     4  11  21  37  59  88 124 162 207 253 305 367
#     4  12  24  38  58  87 123 163 207 254 309 370
#
# _framework density 20.047764000000001
#
# number of rings (size 3 to 8) (size 9 to 14) (size 15 to 20)
#    0.000    1.600    2.000    3.600    0.000    3.200 
#    0.000    2.000    0.000    0.000    0.000    0.000 
#    0.000    0.000    0.000    0.000    0.000    0.000 
#
# Total GULP energy -495982.756294 kJ/mol
# GULP energy per Si atom -12399.568907 kJ/mol
# Density = 2.000213 g / cm^3
# Si number density = 20.047764 Si / 1000 Ang^3
#
#
#
# Elastic Constant Matrix: (Units=GPa)
#
#
# Indices 1 2 3 4 5 6 
#
# 1 157.7271 70.6352 27.1792 0.0000 0.0000 0.0000
# 2 70.6352 150.6811 35.3660 0.0000 0.0000 0.0000
# 3 27.1792 35.3660 67.1679 0.0000 0.0000 0.0000
# 4 0.0000 0.0000 0.0000 34.3978 0.0000 0.0000
# 5 0.0000 0.0000 0.0000 0.0000 21.7982 0.0000
# 6 0.0000 0.0000 0.0000 0.0000 0.0000 32.4860
#
#
#
# Elastic Compliance Matrix: (Units=1/GPa)
#
#
# Indices 1 2 3 4 5 6 
#
# 1 0.008150 -0.003476 -0.001468 0.000000 0.000000 0.000000
# 2 -0.003476 0.009055 -0.003361 0.000000 0.000000 0.000000
# 3 -0.001468 -0.003361 0.017252 0.000000 0.000000 0.000000
# 4 0.000000 0.000000 0.000000 0.029072 0.000000 0.000000
# 5 0.000000 0.000000 0.000000 0.000000 0.045875 0.000000
# 6 0.000000 0.000000 0.000000 0.000000 0.000000 0.030782
#
#
# Mechanical properties :
#
#
# Convention : Reuss Voigt Hill
#
# Bulk Modulus (GPa) = 56.03202 71.32629 63.67915
# Shear Modulus (GPa) = 30.72320 33.89612 32.30966
#
# Velocity S-wave (km/s) = 3.91896 4.11636 4.01887
# Velocity P-wave (km/s) = 6.96331 7.63203 7.30533
#
# Compressibility (1/GPa) = 0.01784694
#
# Stress axis : x y z
#
# Youngs Moduli (GPa) = 122.70636 110.43866 57.96547
#
# Poissons Ratio (x) = 0.38387 0.08507
# Poissons Ratio (y) = 0.42651 0.19483
# Poissons Ratio (z) = 0.18008 0.37120
#
# Static dielectric constant tensor:
#      x y z
#    x 3.975100 0.000000 0.000000 
#    y 0.000000 3.737680 0.000000 
#    z 0.000000 0.000000 3.457550 
# 
# 
# High freq. dielectric constant tensor:
#      x y z
#    x 1.802000 0.000000 0.000000 
#    y 0.000000 1.782210 0.000000 
#    z 0.000000 0.000000 1.758810 
# 
# From -- ./inp_files/1480.got.cif
#   From: 2010.03.12/outbox.cif.g09.slc.cpg/sg57_1_cif.got.tgz:1480.got - 2010.04.16 15:48:40.
