data_PCOD8233759
_publ_section_title
;
Structure prediction by ZEFSAII (Michael W. Deem and Ramdas Pophale) SiO2 
 PCOD8233759
Probable space group: P B C M
;
_chemical_formula_sum "Si O2"
_cell_formula_units_Z 64
_cell_length_a 29.880791
_cell_length_b 5.409464
_cell_length_c 18.455960
_cell_angle_alpha 90.000000
_cell_angle_beta 90.000000
_cell_angle_gamma 90.000000
_cell_volume 2983.204085
_symmetry_space_group_name_H-M "P B C M"
_symmetry_group_IT_number 57
_symmetry_cell_setting 'orthorhombic'
loop_
_space_group_symop_operation_xyz
x,y,z
-x,-y,1/2+z
x,1/2-y,-z
-x,1/2+y,1/2-z
-x,-y,-z
x,y,1/2-z
-x,1/2+y,z
x,1/2-y,1/2+z
loop_
_atom_site_type_symbol
_atom_site_label
_atom_site_fract_x
_atom_site_fract_y
_atom_site_fract_z
Si Si1 0.973530 0.764127 0.416221
Si Si2 0.476046 0.076423 0.663529
Si Si3 0.203603 0.009825 0.669132
Si Si4 0.375742 0.078516 0.835098
Si Si5 0.166154 0.879688 0.429543
Si Si6 0.887919 0.812493 0.831508
Si Si7 0.747364 0.856187 0.573102
Si Si8 0.675486 0.418355 0.163842
O O1 0.958924 0.750000 0.500000
O O2 0.930809 0.820214 0.365711
O O3 0.994735 0.496846 0.397674
O O4 0.476525 0.077310 0.750000
O O5 0.499947 0.826316 0.634733
O O6 0.425641 0.076729 0.631967
O O7 0.217110 0.933941 0.750000
O O8 0.198965 0.769802 0.621923
O O9 0.155710 0.143963 0.667756
O O10 0.245640 0.159559 0.637786
O O11 0.380294 0.068184 0.750000
O O12 0.350053 0.830500 0.860606
O O13 0.351672 0.333335 0.857873
O O14 0.145577 0.750000 0.500000
O O15 0.122736 0.958489 0.384143
O O16 0.202250 0.080771 0.455452
O O17 0.898630 0.903046 0.750000
O O18 0.723342 0.750000 0.500000
O O19 0.719134 0.074558 0.611609
O O20 0.687059 0.414355 0.250000
#
# Coordination Sequence:
#
# PCOD8233759 Si02
#       8
#     8   8   8   8   8   8   8   8
#     4  10  24  43  66  96 129 168 210 252 304 368
#     4   9  15  24  43  70 104 144 183 233 294 357
#     4  10  22  40  61  89 121 152 196 250 304 365
#     4   9  18  32  48  75 111 150 195 237 296 366
#     4  11  23  38  65  90 119 160 200 256 310 365
#     4  10  24  41  63  94 125 161 205 257 312 370
#     4  11  23  39  56  85 115 153 204 249 300 359
#     4  10  21  35  54  77 112 157 194 241 297 356
#
# _framework density 21.453441999999999
#
# number of rings (size 3 to 8) (size 9 to 14) (size 15 to 20)
#    0.000    2.000    1.250    1.500    5.250    5.500 
#    0.000    0.000    0.000    0.000    0.000    0.000 
#    0.000   10.000    0.000    0.000    0.000    0.000 
#
# Total GULP energy -793093.706912 kJ/mol
# GULP energy per Si atom -12392.089170 kJ/mol
# Density = 2.140461 g / cm^3
# Si number density = 21.453442 Si / 1000 Ang^3
#
#
#
# Elastic Constant Matrix: (Units=GPa)
#
#
# Indices 1 2 3 4 5 6 
#
# 1 96.3738 27.8298 30.6976 0.0000 0.0000 0.0000
# 2 27.8298 115.8264 20.0933 0.0000 0.0000 0.0000
# 3 30.6976 20.0933 97.6988 0.0000 0.0000 0.0000
# 4 0.0000 0.0000 0.0000 22.9792 0.0000 0.0000
# 5 0.0000 0.0000 0.0000 0.0000 -6.4452 0.0000
# 6 0.0000 0.0000 0.0000 0.0000 0.0000 26.0422
#
#
#
# Elastic Compliance Matrix: (Units=1/GPa)
#
#
# Indices 1 2 3 4 5 6 
#
# 1 0.012109 -0.002333 -0.003325 0.000000 0.000000 0.000000
# 2 -0.002333 0.009402 -0.001201 0.000000 0.000000 0.000000
# 3 -0.003325 -0.001201 0.011527 0.000000 0.000000 0.000000
# 4 0.000000 0.000000 0.000000 0.043518 0.000000 0.000000
# 5 0.000000 0.000000 0.000000 0.000000 -0.155155 0.000000
# 6 0.000000 0.000000 0.000000 0.000000 0.000000 0.038399
#
#
# Mechanical properties :
#
#
# Convention : Reuss Voigt Hill
#
# Bulk Modulus (GPa) = 51.75519 51.90448 51.82984
# Shear Modulus (GPa) = -249.47434 23.93380 -112.77027
#
# Velocity S-wave (km/s) = -10.79532 3.34371 -7.25805
# Velocity P-wave (km/s) = 11.45462 6.25729 6.78434
#
# Compressibility (1/GPa) = 0.01932174
#
# Stress axis : x y z
#
# Youngs Moduli (GPa) = 82.58356 106.35594 86.75112
#
# Poissons Ratio (x) = 0.24809 0.28844
# Poissons Ratio (y) = 0.19264 0.10417
# Poissons Ratio (z) = 0.27459 0.12771
#
# Static dielectric constant tensor:
#      x y z
#    x 3.844080 0.000000 0.000000 
#    y 0.000000 3.984850 0.000000 
#    z 0.000000 0.000000 3.529670 
# 
# 
# High freq. dielectric constant tensor:
#      x y z
#    x 1.837920 0.000000 0.000000 
#    y 0.000000 1.848520 0.000000 
#    z 0.000000 0.000000 1.814960 
# 
# From -- ./inp_files/25903.got.cif
#   From: 2010.03.12/outbox.cif.g09.slc.cpg/sg57_13_cif.got.tgz:25903.got - 2010.04.16 15:48:40.
