data_PCOD8233179
_publ_section_title
;
Structure prediction by ZEFSAII (Michael W. Deem and Ramdas Pophale) SiO2 
 PCOD8233179
Probable space group: P B C M
;
_chemical_formula_sum "Si O2"
_cell_formula_units_Z 64
_cell_length_a 9.087522
_cell_length_b 24.308060
_cell_length_c 14.940424
_cell_angle_alpha 90.000000
_cell_angle_beta 90.000000
_cell_angle_gamma 90.000000
_cell_volume 3300.340110
_symmetry_space_group_name_H-M "P B C M"
_symmetry_group_IT_number 57
_symmetry_cell_setting 'orthorhombic'
loop_
_space_group_symop_operation_xyz
x,y,z
-x,-y,1/2+z
x,1/2-y,-z
-x,1/2+y,1/2-z
-x,-y,-z
x,y,1/2-z
-x,1/2+y,z
x,1/2-y,1/2+z
loop_
_atom_site_type_symbol
_atom_site_label
_atom_site_fract_x
_atom_site_fract_y
_atom_site_fract_z
Si Si1 0.295002 0.267611 0.654824
Si Si2 0.466894 0.372731 0.890094
Si Si3 0.332550 0.058610 0.848690
Si Si4 0.366587 0.003569 0.148743
Si Si5 0.966593 0.802767 0.947809
Si Si6 0.833382 0.488518 0.519352
Si Si7 0.690042 0.837879 0.442568
Si Si8 0.802249 0.117072 0.356056
O O1 0.305182 0.238023 0.750000
O O2 0.380528 0.324828 0.660425
O O3 0.124330 0.279858 0.636061
O O4 0.355448 0.224743 0.581162
O O5 0.410189 0.432698 0.861354
O O6 0.635165 0.363476 0.863596
O O7 0.436487 0.363867 0.994820
O O8 0.280256 0.039578 0.750000
O O9 0.319499 0.124825 0.853676
O O10 0.493396 0.034789 0.867735
O O11 0.226956 0.040837 0.928549
O O12 0.304813 0.994980 0.250000
O O13 0.248311 0.982559 0.076157
O O14 0.095602 0.839704 0.907681
O O15 0.035003 0.750000 0.000000
O O16 0.851914 0.837425 0.010427
O O17 0.814063 0.438853 0.588357
O O18 0.000000 0.500000 0.500000
O O19 0.844346 0.109952 0.250000
#
# Coordination Sequence:
#
# PCOD8233179 Si02
#       8
#     8   8   8   8   8   8   8   8
#     4  10  20  36  60  89 117 153 202 252 299 361
#     4  11  21  38  60  87 121 154 203 254 302 356
#     4  11  21  38  62  87 118 159 202 246 302 365
#     4  11  23  41  63  86 118 163 203 246 306 366
#     4   9  21  39  59  84 122 163 204 244 306 355
#     4  12  25  40  58  88 125 157 200 252 304 363
#     4  10  20  38  60  88 117 158 200 250 303 362
#     4  12  24  39  61  91 122 161 206 252 304 366
#
# _framework density 19.391940999999999
#
# number of rings (size 3 to 8) (size 9 to 14) (size 15 to 20)
#    0.000    1.250    2.500    5.250    1.750    2.000 
#    0.000    0.000    0.000    1.500    0.000    0.000 
#    0.000    0.000    0.000    0.000    0.000    0.000 
#
# Total GULP energy -792975.150801 kJ/mol
# GULP energy per Si atom -12390.236731 kJ/mol
# Density = 1.934780 g / cm^3
# Si number density = 19.391941 Si / 1000 Ang^3
#
#
#
# Elastic Constant Matrix: (Units=GPa)
#
#
# Indices 1 2 3 4 5 6 
#
# 1 90.5322 34.7159 61.9119 0.0000 0.0000 0.0000
# 2 34.7159 106.2310 52.7054 0.0000 0.0000 0.0000
# 3 61.9119 52.7054 143.5540 0.0000 0.0000 0.0000
# 4 0.0000 0.0000 0.0000 26.1079 0.0000 0.0000
# 5 0.0000 0.0000 0.0000 0.0000 13.5278 0.0000
# 6 0.0000 0.0000 0.0000 0.0000 0.0000 20.4073
#
#
#
# Elastic Compliance Matrix: (Units=1/GPa)
#
#
# Indices 1 2 3 4 5 6 
#
# 1 0.016083 -0.002219 -0.006122 0.000000 0.000000 0.000000
# 2 -0.002219 0.011816 -0.003381 0.000000 0.000000 0.000000
# 3 -0.006122 -0.003381 0.010848 0.000000 0.000000 0.000000
# 4 0.000000 0.000000 0.000000 0.038303 0.000000 0.000000
# 5 0.000000 0.000000 0.000000 0.000000 0.073922 0.000000
# 6 0.000000 0.000000 0.000000 0.000000 0.000000 0.049002
#
#
# Mechanical properties :
#
#
# Convention : Reuss Voigt Hill
#
# Bulk Modulus (GPa) = 65.34542 70.99819 68.17180
# Shear Modulus (GPa) = 21.88011 24.74087 23.31049
#
# Velocity S-wave (km/s) = 3.36268 3.57576 3.47085
# Velocity P-wave (km/s) = 6.98907 7.33074 7.16194
#
# Compressibility (1/GPa) = 0.01530329
#
# Stress axis : x y z
#
# Youngs Moduli (GPa) = 62.17758 84.63004 92.18587
#
# Poissons Ratio (x) = 0.18776 0.56433
# Poissons Ratio (y) = 0.13795 0.31172
# Poissons Ratio (z) = 0.38063 0.28617
#
# Static dielectric constant tensor:
#      x y z
#    x 3.379490 0.000000 0.000000 
#    y 0.000000 3.786500 0.000000 
#    z 0.000000 0.000000 3.903590 
# 
# 
# High freq. dielectric constant tensor:
#      x y z
#    x 1.732480 0.000000 0.000000 
#    y 0.000000 1.765780 0.000000 
#    z 0.000000 0.000000 1.776020 
# 
# From -- ./inp_files/16931.got.cif
#   From: 2010.03.12/outbox.cif.g09.slc.cpg/sg57_9_cif.got.tgz:16931.got - 2010.04.16 15:48:40.
