data_PCOD8233581
_publ_section_title
;
Structure prediction by ZEFSAII (Michael W. Deem and Ramdas Pophale) SiO2 
 PCOD8233581
Probable space group: P B C M
;
_chemical_formula_sum "Si O2"
_cell_formula_units_Z 64
_cell_length_a 14.986289
_cell_length_b 13.698368
_cell_length_c 14.797643
_cell_angle_alpha 90.000000
_cell_angle_beta 90.000000
_cell_angle_gamma 90.000000
_cell_volume 3037.774122
_symmetry_space_group_name_H-M "P B C M"
_symmetry_group_IT_number 57
_symmetry_cell_setting 'orthorhombic'
loop_
_space_group_symop_operation_xyz
x,y,z
-x,-y,1/2+z
x,1/2-y,-z
-x,1/2+y,1/2-z
-x,-y,-z
x,y,1/2-z
-x,1/2+y,z
x,1/2-y,1/2+z
loop_
_atom_site_type_symbol
_atom_site_label
_atom_site_fract_x
_atom_site_fract_y
_atom_site_fract_z
Si Si1 0.923935 0.151300 0.356863
Si Si2 0.742314 0.864725 0.990497
Si Si3 0.147741 0.648403 0.855562
Si Si4 0.401898 0.853011 0.646604
Si Si5 0.759456 0.014823 0.357620
Si Si6 0.344792 0.852470 0.144449
Si Si7 0.892177 0.934960 0.643594
Si Si8 0.564017 0.542097 0.425508
O O1 0.931337 0.153450 0.250000
O O2 0.903732 0.258688 0.397789
O O3 0.019254 0.116712 0.395046
O O4 0.845269 0.078347 0.385396
O O5 0.806435 0.898361 0.909941
O O6 0.641507 0.890566 0.964412
O O7 0.752056 0.750000 0.000000
O O8 0.766583 0.914149 0.086733
O O9 0.158715 0.668857 0.750000
O O10 0.246302 0.637846 0.899189
O O11 0.092579 0.550246 0.874182
O O12 0.374733 0.845326 0.750000
O O13 0.392193 0.744556 0.602887
O O14 0.502989 0.889660 0.637783
O O15 0.328833 0.928341 0.605498
O O16 0.756183 0.991782 0.250000
O O17 0.335631 0.838860 0.250000
O O18 0.400293 0.949554 0.128389
O O19 0.874986 0.915125 0.750000
O O20 0.500000 0.500000 0.500000
#
# Coordination Sequence:
#
# PCOD8233581 Si02
#       8
#     8   8   8   8   8   8   8   8
#     4   9  18  36  68 101 129 165 212 266 322 383
#     4  12  28  45  61  91 133 172 216 264 315 392
#     4   9  16  33  62  95 127 162 212 264 310 373
#     4  10  21  38  65  95 124 164 215 269 329 389
#     4  10  21  43  67  93 127 166 213 270 326 379
#     4  10  20  38  66  95 123 163 216 270 317 380
#     4  10  22  41  66  96 133 172 210 260 325 387
#     4  12  25  40  60  89 128 167 210 268 324 385
#
# _framework density 21.068057
#
# number of rings (size 3 to 8) (size 9 to 14) (size 15 to 20)
#    0.000    1.750    3.750    0.375    1.750    2.500 
#    0.000    4.375    0.000    0.000    0.000    0.000 
#    0.000    0.000    0.000    0.000    0.000    0.000 
#
# Total GULP energy -793454.811526 kJ/mol
# GULP energy per Si atom -12397.731430 kJ/mol
# Density = 2.102011 g / cm^3
# Si number density = 21.068057 Si / 1000 Ang^3
#
#
#
# Elastic Constant Matrix: (Units=GPa)
#
#
# Indices 1 2 3 4 5 6 
#
# 1 142.4033 54.5615 26.5622 0.0000 0.0000 0.0000
# 2 54.5615 154.8271 30.2895 0.0000 0.0000 0.0000
# 3 26.5622 30.2895 45.9590 0.0000 0.0000 0.0000
# 4 0.0000 0.0000 0.0000 12.2079 0.0000 0.0000
# 5 0.0000 0.0000 0.0000 0.0000 26.0697 0.0000
# 6 0.0000 0.0000 0.0000 0.0000 0.0000 43.7623
#
#
#
# Elastic Compliance Matrix: (Units=1/GPa)
#
#
# Indices 1 2 3 4 5 6 
#
# 1 0.008557 -0.002351 -0.003396 0.000000 0.000000 0.000000
# 2 -0.002351 0.008061 -0.003954 0.000000 0.000000 0.000000
# 3 -0.003396 -0.003954 0.026327 0.000000 0.000000 0.000000
# 4 0.000000 0.000000 0.000000 0.081914 0.000000 0.000000
# 5 0.000000 0.000000 0.000000 0.000000 0.038359 0.000000
# 6 0.000000 0.000000 0.000000 0.000000 0.000000 0.022851
#
#
# Mechanical properties :
#
#
# Convention : Reuss Voigt Hill
#
# Bulk Modulus (GPa) = 42.47539 62.89064 52.68301
# Shear Modulus (GPa) = 23.43932 31.85972 27.64952
#
# Velocity S-wave (km/s) = 3.33911 3.89296 3.62662
# Velocity P-wave (km/s) = 5.92208 7.07975 6.52663
#
# Compressibility (1/GPa) = 0.02354305
#
# Stress axis : x y z
#
# Youngs Moduli (GPa) = 116.87014 124.05711 37.98399
#
# Poissons Ratio (x) = 0.29166 0.12899
# Poissons Ratio (y) = 0.27476 0.15018
# Poissons Ratio (z) = 0.39687 0.49049
#
# Static dielectric constant tensor:
#      x y z
#    x 3.927580 0.000000 0.000000 
#    y 0.000000 3.925680 0.000000 
#    z 0.000000 0.000000 3.564920 
# 
# 
# High freq. dielectric constant tensor:
#      x y z
#    x 1.830560 0.000000 0.000000 
#    y 0.000000 1.832850 0.000000 
#    z 0.000000 0.000000 1.811450 
# 
# From -- ./inp_files/22657.got.cif
#   From: 2010.03.12/outbox.cif.g09.slc.cpg/sg57_12_cif.got.tgz:22657.got - 2010.04.16 15:48:40.
