data_PCOD8233791
_publ_section_title
;
Structure prediction by ZEFSAII (Michael W. Deem and Ramdas Pophale) SiO2 
 PCOD8233791
Probable space group: P B C M
;
_chemical_formula_sum "Si O2"
_cell_formula_units_Z 64
_cell_length_a 17.368161
_cell_length_b 5.141570
_cell_length_c 36.109913
_cell_angle_alpha 90.000000
_cell_angle_beta 90.000000
_cell_angle_gamma 90.000000
_cell_volume 3224.601349
_symmetry_space_group_name_H-M "P B C M"
_symmetry_group_IT_number 57
_symmetry_cell_setting 'orthorhombic'
loop_
_space_group_symop_operation_xyz
x,y,z
-x,-y,1/2+z
x,1/2-y,-z
-x,1/2+y,1/2-z
-x,-y,-z
x,y,1/2-z
-x,1/2+y,z
x,1/2-y,1/2+z
loop_
_atom_site_type_symbol
_atom_site_label
_atom_site_fract_x
_atom_site_fract_y
_atom_site_fract_z
Si Si1 0.048474 0.427645 0.291365
Si Si2 0.672665 0.432085 0.096813
Si Si3 0.148312 0.927352 0.095756
Si Si4 0.845776 0.582870 0.858390
Si Si5 0.545372 0.234384 0.956448
Si Si6 0.449899 0.136304 0.792454
Si Si7 0.331981 0.425375 0.142895
Si Si8 0.913352 0.498200 0.016649
O O1 0.082305 0.459386 0.250000
O O2 0.115566 0.488210 0.319869
O O3 0.981080 0.635935 0.297779
O O4 0.761914 0.456538 0.084974
O O5 0.627144 0.347199 0.060289
O O6 0.642234 0.706380 0.113084
O O7 0.655611 0.214253 0.127595
O O8 0.134489 0.640763 0.111839
O O9 0.092207 0.979990 0.060916
O O10 0.123598 0.144140 0.125576
O O11 0.757088 0.613730 0.848395
O O12 0.516704 0.517568 0.943299
O O13 0.557091 0.250000 0.000000
O O14 0.421027 0.118695 0.750000
O O15 0.488307 0.412854 0.800880
O O16 0.376844 0.104885 0.818809
O O17 0.868979 0.250000 0.000000
O O18 0.000000 0.500000 0.000000
O O19 0.870164 0.750000 0.000000
#
# Coordination Sequence:
#
# PCOD8233791 Si02
#       8
#     8   8   8   8   8   8   8   8
#     4  10  21  39  59  86 117 145 186 233 280 339
#     4  10  21  36  56  81 107 147 182 231 278 331
#     4  10  21  39  58  81 117 145 189 231 278 339
#     4  10  21  39  58  86 113 150 190 233 283 336
#     4  10  21  36  53  78 109 138 182 232 275 331
#     4  10  21  36  54  81 116 151 190 233 280 334
#     4  10  21  36  57  81 113 145 191 230 273 333
#     4  10  21  39  56  80 112 144 178 231 273 326
#
# _framework density 19.847415999999999
#
# number of rings (size 3 to 8) (size 9 to 14) (size 15 to 20)
#    0.000    2.000    0.000    3.000    0.000    4.000 
#   13.500    1.875    0.000    9.000    0.000    0.000 
#    0.000    0.000    0.000    0.000    0.000    0.000 
#
# Total GULP energy -793490.040229 kJ/mol
# GULP energy per Si atom -12398.281879 kJ/mol
# Density = 1.980224 g / cm^3
# Si number density = 19.847416 Si / 1000 Ang^3
#
#
#
# Elastic Constant Matrix: (Units=GPa)
#
#
# Indices 1 2 3 4 5 6 
#
# 1 63.1177 17.8184 62.6530 0.0000 0.0000 0.0000
# 2 17.8184 112.6673 30.5834 0.0000 0.0000 0.0000
# 3 62.6530 30.5834 110.4882 0.0000 0.0000 0.0000
# 4 0.0000 0.0000 0.0000 30.2558 0.0000 0.0000
# 5 0.0000 0.0000 0.0000 0.0000 33.4467 0.0000
# 6 0.0000 0.0000 0.0000 0.0000 0.0000 15.3598
#
#
#
# Elastic Compliance Matrix: (Units=1/GPa)
#
#
# Indices 1 2 3 4 5 6 
#
# 1 0.036248 -0.000166 -0.020509 0.000000 0.000000 0.000000
# 2 -0.000166 0.009598 -0.002563 0.000000 0.000000 0.000000
# 3 -0.020509 -0.002563 0.021390 0.000000 0.000000 0.000000
# 4 0.000000 0.000000 0.000000 0.033051 0.000000 0.000000
# 5 0.000000 0.000000 0.000000 0.000000 0.029898 0.000000
# 6 0.000000 0.000000 0.000000 0.000000 0.000000 0.065105
#
#
# Mechanical properties :
#
#
# Convention : Reuss Voigt Hill
#
# Bulk Modulus (GPa) = 48.16708 56.48697 52.32703
# Shear Modulus (GPa) = 20.10578 27.49369 23.79974
#
# Velocity S-wave (km/s) = 3.18625 3.72594 3.46661
# Velocity P-wave (km/s) = 6.15285 6.85803 6.51499
#
# Compressibility (1/GPa) = 0.02076107
#
# Stress axis : x y z
#
# Youngs Moduli (GPa) = 27.58770 104.19353 46.75124
#
# Poissons Ratio (x) = 0.01725 0.95882
# Poissons Ratio (y) = 0.00457 0.11981
# Poissons Ratio (z) = 0.56579 0.26702
#
# Static dielectric constant tensor:
#      x y z
#    x 3.337890 0.000000 0.000000 
#    y 0.000000 5.523670 0.000000 
#    z 0.000000 0.000000 3.546680 
# 
# 
# High freq. dielectric constant tensor:
#      x y z
#    x 1.749570 0.000000 0.000000 
#    y 0.000000 1.804360 0.000000 
#    z 0.000000 0.000000 1.772320 
# 
# From -- ./inp_files/29959.got.cif
#   From: 2010.03.12/outbox.cif.g09.slc.cpg/sg57_15_cif.got.tgz:29959.got - 2010.04.16 15:48:40.
