data_PCOD8233639
_publ_section_title
;
Structure prediction by ZEFSAII (Michael W. Deem and Ramdas Pophale) SiO2 
 PCOD8233639
Probable space group: P B C M
;
_chemical_formula_sum "Si O2"
_cell_formula_units_Z 48
_cell_length_a 16.287115
_cell_length_b 9.826087
_cell_length_c 14.722232
_cell_angle_alpha 90.000000
_cell_angle_beta 90.000000
_cell_angle_gamma 90.000000
_cell_volume 2356.125530
_symmetry_space_group_name_H-M "P B C M"
_symmetry_group_IT_number 57
_symmetry_cell_setting 'orthorhombic'
loop_
_space_group_symop_operation_xyz
x,y,z
-x,-y,1/2+z
x,1/2-y,-z
-x,1/2+y,1/2-z
-x,-y,-z
x,y,1/2-z
-x,1/2+y,z
x,1/2-y,1/2+z
loop_
_atom_site_type_symbol
_atom_site_label
_atom_site_fract_x
_atom_site_fract_y
_atom_site_fract_z
Si Si1 0.637358 0.226962 0.647435
Si Si2 0.805814 0.341409 0.411043
Si Si3 0.592899 0.458202 0.988839
Si Si4 0.095858 0.452351 0.141356
Si Si5 0.757152 0.594035 0.518632
Si Si6 0.969787 0.263895 0.647228
O O1 0.601547 0.221467 0.750000
O O2 0.736239 0.227984 0.652024
O O3 0.599093 0.353665 0.594182
O O4 0.614876 0.095589 0.588600
O O5 0.809394 0.250000 0.500000
O O6 0.786196 0.498804 0.434888
O O7 0.891112 0.335526 0.357829
O O8 0.659088 0.575836 0.964302
O O9 0.500000 0.500000 0.000000
O O10 0.098140 0.458128 0.250000
O O11 0.189308 0.448306 0.106526
O O12 0.050880 0.589539 0.101792
O O13 0.045901 0.320175 0.103574
O O14 0.775527 0.750000 0.500000
O O15 0.994082 0.291683 0.750000
#
# Coordination Sequence:
#
# PCOD8233639 Si02
#       6
#     8   8   8   8   8   8
#     4  10  20  39  66  92 119 163 214 258 310 386
#     4  11  19  39  59  88 117 159 215 254 311 371
#     4  10  22  41  65  93 128 161 204 267 325 391
#     4  10  22  40  58  86 123 166 216 262 318 376
#     4  11  24  39  59  89 121 163 201 257 327 381
#     4  10  21  36  59  85 120 163 209 264 309 363
#
# _framework density 20.372427999999999
#
# number of rings (size 3 to 8) (size 9 to 14) (size 15 to 20)
#    0.000    1.667    5.000    0.500    4.667    4.000 
#    0.000    3.333    0.000    0.000    0.000    0.000 
#    0.000    0.000    0.000    0.000    0.000    0.000 
#
# Total GULP energy -594739.580513 kJ/mol
# GULP energy per Si atom -12390.407927 kJ/mol
# Density = 2.032606 g / cm^3
# Si number density = 20.372428 Si / 1000 Ang^3
#
#
#
# Elastic Constant Matrix: (Units=GPa)
#
#
# Indices 1 2 3 4 5 6 
#
# 1 146.7237 48.4825 30.3965 0.0000 0.0000 0.0000
# 2 48.4825 129.2692 28.8563 0.0000 0.0000 0.0000
# 3 30.3965 28.8563 91.8506 0.0000 0.0000 0.0000
# 4 0.0000 0.0000 0.0000 14.4994 0.0000 0.0000
# 5 0.0000 0.0000 0.0000 0.0000 16.6379 0.0000
# 6 0.0000 0.0000 0.0000 0.0000 0.0000 24.5003
#
#
#
# Elastic Compliance Matrix: (Units=1/GPa)
#
#
# Indices 1 2 3 4 5 6 
#
# 1 0.008061 -0.002611 -0.001847 0.000000 0.000000 0.000000
# 2 -0.002611 0.009165 -0.002015 0.000000 0.000000 0.000000
# 3 -0.001847 -0.002015 0.012132 0.000000 0.000000 0.000000
# 4 0.000000 0.000000 0.000000 0.068968 0.000000 0.000000
# 5 0.000000 0.000000 0.000000 0.000000 0.060104 0.000000
# 6 0.000000 0.000000 0.000000 0.000000 0.000000 0.040816
#
#
# Mechanical properties :
#
#
# Convention : Reuss Voigt Hill
#
# Bulk Modulus (GPa) = 60.93659 64.81266 62.87462
# Shear Modulus (GPa) = 22.97134 28.46809 25.71971
#
# Velocity S-wave (km/s) = 3.36157 3.74221 3.55699
# Velocity P-wave (km/s) = 6.71142 7.11022 6.91369
#
# Compressibility (1/GPa) = 0.01641050
#
# Stress axis : x y z
#
# Youngs Moduli (GPa) = 124.05441 109.11229 82.42845
#
# Poissons Ratio (x) = 0.28488 0.15228
# Poissons Ratio (y) = 0.32389 0.16611
# Poissons Ratio (z) = 0.22918 0.21989
#
# Static dielectric constant tensor:
#      x y z
#    x 4.055370 0.000000 0.000000 
#    y 0.000000 3.899300 0.000000 
#    z 0.000000 0.000000 3.555060 
# 
# 
# High freq. dielectric constant tensor:
#      x y z
#    x 1.797620 0.000000 0.000000 
#    y 0.000000 1.794360 0.000000 
#    z 0.000000 0.000000 1.776520 
# 
# From -- ./inp_files/18944.got.cif
#   From: 2010.03.12/outbox.cif.g09.slc.cpg/sg57_10_cif.got.tgz:18944.got - 2010.04.16 15:48:40.
