data_PCOD8233888
_publ_section_title
;
Structure prediction by ZEFSAII (Michael W. Deem and Ramdas Pophale) SiO2 
 PCOD8233888
Probable space group: P B C M
;
_chemical_formula_sum "Si O2"
_cell_formula_units_Z 48
_cell_length_a 21.077491
_cell_length_b 14.073240
_cell_length_c 8.708962
_cell_angle_alpha 90.000000
_cell_angle_beta 90.000000
_cell_angle_gamma 90.000000
_cell_volume 2583.327114
_symmetry_space_group_name_H-M "P B C M"
_symmetry_group_IT_number 57
_symmetry_cell_setting 'orthorhombic'
loop_
_space_group_symop_operation_xyz
x,y,z
-x,-y,1/2+z
x,1/2-y,-z
-x,1/2+y,1/2-z
-x,-y,-z
x,y,1/2-z
-x,1/2+y,z
x,1/2-y,1/2+z
loop_
_atom_site_type_symbol
_atom_site_label
_atom_site_fract_x
_atom_site_fract_y
_atom_site_fract_z
Si Si1 0.764847 0.508508 0.071165
Si Si2 0.099410 0.013102 0.571987
Si Si3 0.333230 0.353219 0.068779
Si Si4 0.667380 0.352169 0.072567
Si Si5 0.430603 0.007137 0.432531
Si Si6 0.998466 0.851380 0.929102
O O1 0.757226 0.534390 0.250000
O O2 0.732883 0.406649 0.035710
O O3 0.837673 0.501539 0.026500
O O4 0.730154 0.589042 0.972883
O O5 0.116226 0.025813 0.750000
O O6 0.058290 0.919197 0.541704
O O7 0.062749 0.106559 0.514844
O O8 0.341269 0.348201 0.250000
O O9 0.324832 0.250000 0.000000
O O10 0.396153 0.399525 0.996607
O O11 0.657943 0.335693 0.250000
O O12 0.608498 0.414758 0.010797
O O13 0.668642 0.250000 0.000000
O O14 0.432659 0.014378 0.250000
O O15 0.500000 0.000000 0.500000
O O16 0.982746 0.841918 0.750000
O O17 0.015762 0.750000 0.000000
#
# Coordination Sequence:
#
# PCOD8233888 Si02
#       6
#     8   8   8   8   8   8
#     4  10  21  38  57  81 112 144 181 227 274 325
#     4  10  21  37  57  82 110 143 183 225 272 325
#     4  11  22  38  59  83 111 145 184 229 278 330
#     4   9  20  36  55  79 109 142 179 222 268 319
#     4  10  21  38  57  82 113 147 186 229 276 326
#     4  10  21  37  57  81 111 145 182 226 273 323
#
# _framework density 18.580690000000001
#
# number of rings (size 3 to 8) (size 9 to 14) (size 15 to 20)
#    0.000    2.000    0.000    4.500    0.000    8.000 
#    0.000    8.333    0.000    0.000    0.000    0.000 
#    0.000    0.000    0.000    0.000    0.000    0.000 
#
# Total GULP energy -595344.761255 kJ/mol
# GULP energy per Si atom -12403.015859 kJ/mol
# Density = 1.853840 g / cm^3
# Si number density = 18.580690 Si / 1000 Ang^3
#
#
#
# Elastic Constant Matrix: (Units=GPa)
#
#
# Indices 1 2 3 4 5 6 
#
# 1 112.3947 27.9036 30.4431 0.0000 0.0000 0.0000
# 2 27.9036 110.7443 37.5304 0.0000 0.0000 0.0000
# 3 30.4431 37.5304 88.3942 0.0000 0.0000 0.0000
# 4 0.0000 0.0000 0.0000 37.1419 0.0000 0.0000
# 5 0.0000 0.0000 0.0000 0.0000 34.5393 0.0000
# 6 0.0000 0.0000 0.0000 0.0000 0.0000 11.9518
#
#
#
# Elastic Compliance Matrix: (Units=1/GPa)
#
#
# Indices 1 2 3 4 5 6 
#
# 1 0.010046 -0.001587 -0.002786 0.000000 0.000000 0.000000
# 2 -0.001587 0.010798 -0.004038 0.000000 0.000000 0.000000
# 3 -0.002786 -0.004038 0.013987 0.000000 0.000000 0.000000
# 4 0.000000 0.000000 0.000000 0.026924 0.000000 0.000000
# 5 0.000000 0.000000 0.000000 0.000000 0.028952 0.000000
# 6 0.000000 0.000000 0.000000 0.000000 0.000000 0.083669
#
#
# Mechanical properties :
#
#
# Convention : Reuss Voigt Hill
#
# Bulk Modulus (GPa) = 55.52870 55.92083 55.72476
# Shear Modulus (GPa) = 25.35475 31.10368 28.22922
#
# Velocity S-wave (km/s) = 3.69802 4.09587 3.90202
# Velocity P-wave (km/s) = 6.94146 7.24774 7.09625
#
# Compressibility (1/GPa) = 0.01800871
#
# Stress axis : x y z
#
# Youngs Moduli (GPa) = 99.54382 92.60833 71.49521
#
# Poissons Ratio (x) = 0.14697 0.19918
# Poissons Ratio (y) = 0.15798 0.28870
# Poissons Ratio (z) = 0.27733 0.37396
#
# Static dielectric constant tensor:
#      x y z
#    x 3.699570 0.000000 0.000000 
#    y 0.000000 -0.142640 0.000000 
#    z 0.000000 0.000000 3.507280 
# 
# 
# High freq. dielectric constant tensor:
#      x y z
#    x 1.724090 0.000000 0.000000 
#    y 0.000000 1.724960 0.000000 
#    z 0.000000 0.000000 1.735960 
# 
# From -- ./inp_files/7862.got.cif
#   From: 2010.03.12/outbox.cif.g09.slc.cpg/sg57_4_cif.got.tgz:7862.got - 2010.04.16 15:48:40.
