data_PCOD8233083
_publ_section_title
;
Structure prediction by ZEFSAII (Michael W. Deem and Ramdas Pophale) SiO2 
 PCOD8233083
Probable space group: P B C M
;
_chemical_formula_sum "Si O2"
_cell_formula_units_Z 48
_cell_length_a 18.741250
_cell_length_b 15.355585
_cell_length_c 8.775665
_cell_angle_alpha 90.000000
_cell_angle_beta 90.000000
_cell_angle_gamma 90.000000
_cell_volume 2525.485949
_symmetry_space_group_name_H-M "P B C M"
_symmetry_group_IT_number 57
_symmetry_cell_setting 'orthorhombic'
loop_
_space_group_symop_operation_xyz
x,y,z
-x,-y,1/2+z
x,1/2-y,-z
-x,1/2+y,1/2-z
-x,-y,-z
x,y,1/2-z
-x,1/2+y,z
x,1/2-y,1/2+z
loop_
_atom_site_type_symbol
_atom_site_label
_atom_site_fract_x
_atom_site_fract_y
_atom_site_fract_z
Si Si1 0.326341 0.659576 0.928709
Si Si2 0.577325 0.504374 0.071363
Si Si3 0.175303 0.841294 0.569342
Si Si4 0.170270 0.160430 0.929685
Si Si5 0.077541 0.999763 0.930093
Si Si6 0.666708 0.659352 0.569836
O O1 0.313799 0.672547 0.750000
O O2 0.384338 0.586555 0.965145
O O3 0.354251 0.750000 0.000000
O O4 0.252020 0.631111 0.004548
O O5 0.572077 0.521868 0.250000
O O6 0.500000 0.500000 0.000000
O O7 0.620073 0.582036 0.995110
O O8 0.149469 0.750000 0.500000
O O9 0.181276 0.833929 0.750000
O O10 0.118038 0.912743 0.517761
O O11 0.164949 0.167870 0.750000
O O12 0.121646 0.082345 0.992961
O O13 0.251606 0.142873 0.980574
O O14 0.141129 0.250000 0.000000
O O15 0.071350 0.004408 0.750000
O O16 0.000000 0.000000 0.000000
O O17 0.638940 0.750000 0.500000
O O18 0.657986 0.663084 0.750000
#
# Coordination Sequence:
#
# PCOD8233083 Si02
#       6
#     8   8   8   8   8   8
#     4  10  21  37  59  85 110 141 183 229 275 325
#     4  11  24  39  56  82 115 150 187 227 275 330
#     4  10  20  36  58  82 108 141 181 225 273 324
#     4   9  19  36  57  81 107 138 179 224 270 321
#     4  10  22  37  53  77 110 146 181 219 268 323
#     4  10  20  37  61  85 111 144 183 230 279 329
#
# _framework density 19.006245
#
# number of rings (size 3 to 8) (size 9 to 14) (size 15 to 20)
#    0.000    2.000    0.000    4.000    0.000    8.000 
#    0.000    5.000    0.000    0.000    0.000    0.000 
#    0.000    0.000    0.000    0.000    0.000    0.000 
#
# Total GULP energy -595365.604242 kJ/mol
# GULP energy per Si atom -12403.450088 kJ/mol
# Density = 1.896299 g / cm^3
# Si number density = 19.006245 Si / 1000 Ang^3
#
#
#
# Elastic Constant Matrix: (Units=GPa)
#
#
# Indices 1 2 3 4 5 6 
#
# 1 134.1272 102.2748 55.0401 0.0000 0.0000 0.0000
# 2 102.2748 166.2637 67.2561 0.0000 0.0000 0.0000
# 3 55.0401 67.2561 83.0908 0.0000 0.0000 0.0000
# 4 0.0000 0.0000 0.0000 35.8853 0.0000 0.0000
# 5 0.0000 0.0000 0.0000 0.0000 32.9812 0.0000
# 6 0.0000 0.0000 0.0000 0.0000 0.0000 -6.0490
#
#
#
# Elastic Compliance Matrix: (Units=1/GPa)
#
#
# Indices 1 2 3 4 5 6 
#
# 1 0.014734 -0.007606 -0.003604 0.000000 0.000000 0.000000
# 2 -0.007606 0.012869 -0.005378 0.000000 0.000000 0.000000
# 3 -0.003604 -0.005378 0.018775 0.000000 0.000000 0.000000
# 4 0.000000 0.000000 0.000000 0.027867 0.000000 0.000000
# 5 0.000000 0.000000 0.000000 0.000000 0.030320 0.000000
# 6 0.000000 0.000000 0.000000 0.000000 0.000000 -0.165315
#
#
# Mechanical properties :
#
#
# Convention : Reuss Voigt Hill
#
# Bulk Modulus (GPa) = 75.74067 92.51373 84.12720
# Shear Modulus (GPa) = -215.74989 23.15753 -96.29618
#
# Velocity S-wave (km/s) = -10.66591 3.49437 -7.12570
# Velocity P-wave (km/s) = 10.57097 8.06610 4.83132
#
# Compressibility (1/GPa) = 0.01320295
#
# Stress axis : x y z
#
# Youngs Moduli (GPa) = 67.87115 77.70880 53.26123
#
# Poissons Ratio (x) = 0.59102 0.19193
# Poissons Ratio (y) = 0.51620 0.28645
# Poissons Ratio (z) = 0.24458 0.41793
#
# Static dielectric constant tensor:
#      x y z
#    x 3.501710 0.000000 0.000000 
#    y 0.000000 3.763910 0.000000 
#    z 0.000000 0.000000 3.519270 
# 
# 
# High freq. dielectric constant tensor:
#      x y z
#    x 1.735280 0.000000 0.000000 
#    y 0.000000 1.755500 0.000000 
#    z 0.000000 0.000000 1.746120 
# 
# From -- ./inp_files/6470.got.cif
#   From: 2010.03.12/outbox.cif.g09.slc.cpg/sg57_4_cif.got.tgz:6470.got - 2010.04.16 15:48:40.
