data_PCOD8233361
_publ_section_title
;
Structure prediction by ZEFSAII (Michael W. Deem and Ramdas Pophale) SiO2 
 PCOD8233361
Probable space group: P B C M
;
_chemical_formula_sum "Si O2"
_cell_formula_units_Z 48
_cell_length_a 9.551255
_cell_length_b 30.417565
_cell_length_c 8.523341
_cell_angle_alpha 90.000000
_cell_angle_beta 90.000000
_cell_angle_gamma 90.000000
_cell_volume 2476.251484
_symmetry_space_group_name_H-M "P B C M"
_symmetry_group_IT_number 57
_symmetry_cell_setting 'orthorhombic'
loop_
_space_group_symop_operation_xyz
x,y,z
-x,-y,1/2+z
x,1/2-y,-z
-x,1/2+y,1/2-z
-x,-y,-z
x,y,1/2-z
-x,1/2+y,z
x,1/2-y,1/2+z
loop_
_atom_site_type_symbol
_atom_site_label
_atom_site_fract_x
_atom_site_fract_y
_atom_site_fract_z
Si Si1 0.792313 0.702283 0.566638
Si Si2 0.354145 0.516573 0.432626
Si Si3 0.713420 0.110275 0.568008
Si Si4 0.778582 0.936337 0.929881
Si Si5 0.435013 0.141066 0.068548
Si Si6 0.997805 0.865686 0.567758
O O1 0.824013 0.750000 0.500000
O O2 0.763640 0.704362 0.750000
O O3 0.654573 0.682995 0.483451
O O4 0.928539 0.672830 0.533361
O O5 0.500000 0.500000 0.500000
O O6 0.369331 0.527409 0.250000
O O7 0.307120 0.559982 0.521212
O O8 0.237669 0.478911 0.460087
O O9 0.750047 0.113314 0.750000
O O10 0.576425 0.139012 0.531696
O O11 0.839453 0.131314 0.469892
O O12 0.776777 0.951947 0.750000
O O13 0.650733 0.903363 0.963235
O O14 0.923883 0.912278 0.972748
O O15 0.474180 0.145901 0.250000
O O16 0.972513 0.854583 0.750000
#
# Coordination Sequence:
#
# PCOD8233361 Si02
#       6
#     8   8   8   8   8   8
#     4  11  22  40  66  94 121 152 194 237 288 352
#     4  12  23  35  55  82 116 157 204 252 298 345
#     4  12  24  38  58  86 120 158 200 245 298 353
#     4   9  19  36  58  82 112 153 201 244 290 345
#     4  10  20  37  61  87 118 153 193 240 293 346
#     4  10  22  41  62  86 120 158 196 243 301 356
#
# _framework density 19.384136999999999
#
# number of rings (size 3 to 8) (size 9 to 14) (size 15 to 20)
#    0.000    1.333    1.667    6.500    0.000    4.000 
#    0.000    0.833    0.000    0.000    0.000    0.000 
#    0.000    0.000    0.000    0.000    0.000    0.000 
#
# Total GULP energy -595471.174972 kJ/mol
# GULP energy per Si atom -12405.649479 kJ/mol
# Density = 1.934002 g / cm^3
# Si number density = 19.384137 Si / 1000 Ang^3
#
#
#
# Elastic Constant Matrix: (Units=GPa)
#
#
# Indices 1 2 3 4 5 6 
#
# 1 103.3058 27.8127 7.4800 0.0000 0.0000 0.0000
# 2 27.8127 83.8383 11.6845 0.0000 0.0000 0.0000
# 3 7.4800 11.6845 73.9781 0.0000 0.0000 0.0000
# 4 0.0000 0.0000 0.0000 31.2183 0.0000 0.0000
# 5 0.0000 0.0000 0.0000 0.0000 32.8217 0.0000
# 6 0.0000 0.0000 0.0000 0.0000 0.0000 61.7829
#
#
#
# Elastic Compliance Matrix: (Units=1/GPa)
#
#
# Indices 1 2 3 4 5 6 
#
# 1 0.010650 -0.003459 -0.000530 0.000000 0.000000 0.000000
# 2 -0.003459 0.013320 -0.001754 0.000000 0.000000 0.000000
# 3 -0.000530 -0.001754 0.013848 0.000000 0.000000 0.000000
# 4 0.000000 0.000000 0.000000 0.032032 0.000000 0.000000
# 5 0.000000 0.000000 0.000000 0.000000 0.030468 0.000000
# 6 0.000000 0.000000 0.000000 0.000000 0.000000 0.016186
#
#
# Mechanical properties :
#
#
# Convention : Reuss Voigt Hill
#
# Bulk Modulus (GPa) = 37.97877 39.45297 38.71587
# Shear Modulus (GPa) = 36.55847 39.44093 37.99970
#
# Velocity S-wave (km/s) = 4.34752 4.51566 4.43239
# Velocity P-wave (km/s) = 6.69601 6.89824 6.79787
#
# Compressibility (1/GPa) = 0.02633050
#
# Stress axis : x y z
#
# Youngs Moduli (GPa) = 93.89966 75.07689 72.21161
#
# Poissons Ratio (x) = 0.25969 0.03830
# Poissons Ratio (y) = 0.32480 0.12666
# Poissons Ratio (z) = 0.04981 0.13169
#
# Static dielectric constant tensor:
#      x y z
#    x 3.524580 0.000000 0.000000 
#    y 0.000000 3.308730 0.000000 
#    z 0.000000 0.000000 3.613620 
# 
# 
# High freq. dielectric constant tensor:
#      x y z
#    x 1.753460 0.000000 0.000000 
#    y 0.000000 1.742700 0.000000 
#    z 0.000000 0.000000 1.766150 
# 
# From -- ./inp_files/1985.got.cif
#   From: 2010.03.12/outbox.cif.g09.slc.cpg/sg57_1_cif.got.tgz:1985.got - 2010.04.16 15:48:40.
