data_PCOD8233241
_publ_section_title
;
Structure prediction by ZEFSAII (Michael W. Deem and Ramdas Pophale) SiO2 
 PCOD8233241
Probable space group: P B C M
;
_chemical_formula_sum "Si O2"
_cell_formula_units_Z 40
_cell_length_a 11.995361
_cell_length_b 8.981385
_cell_length_c 17.938949
_cell_angle_alpha 90.000000
_cell_angle_beta 90.000000
_cell_angle_gamma 90.000000
_cell_volume 1932.651870
_symmetry_space_group_name_H-M "P B C M"
_symmetry_group_IT_number 57
_symmetry_cell_setting 'orthorhombic'
loop_
_space_group_symop_operation_xyz
x,y,z
-x,-y,1/2+z
x,1/2-y,-z
-x,1/2+y,1/2-z
-x,-y,-z
x,y,1/2-z
-x,1/2+y,z
x,1/2-y,1/2+z
loop_
_atom_site_type_symbol
_atom_site_label
_atom_site_fract_x
_atom_site_fract_y
_atom_site_fract_z
Si Si1 0.450348 0.876071 0.446750
Si Si2 0.722666 0.521871 0.334096
Si Si3 0.086684 0.872178 0.404967
Si Si4 0.310636 0.308228 0.082914
Si Si5 0.867334 0.461265 0.569405
O O1 0.394765 0.750000 0.500000
O O2 0.556949 0.814029 0.401836
O O3 0.500000 0.000000 0.500000
O O4 0.360082 0.934917 0.389314
O O5 0.677968 0.508260 0.250000
O O6 0.845409 0.449569 0.338475
O O7 0.735878 0.693817 0.356306
O O8 0.102304 0.695539 0.392910
O O9 0.138115 0.936154 0.481232
O O10 0.956693 0.914296 0.404703
O O11 0.252049 0.469938 0.094048
O O12 0.283241 0.250000 0.000000
#
# Coordination Sequence:
#
# PCOD8233241 Si02
#       5
#     8   8   8   8   8
#     4  11  22  41  68  95 125 170 222 265 307 385
#     4  12  26  42  63  97 137 168 207 273 337 380
#     4  10  21  36  62  98 128 162 218 267 315 378
#     4  11  21  40  65  94 128 169 219 260 315 383
#     4  10  20  36  67  95 121 168 222 267 304 374
#
# _framework density 20.696950999999999
#
# number of rings (size 3 to 8) (size 9 to 14) (size 15 to 20)
#    0.000    1.200    6.000    1.200    8.400    0.800 
#    0.000    5.000    0.000    0.000    0.000    0.000 
#    0.000    0.000    0.000    0.000    0.000    0.000 
#
# Total GULP energy -495950.865214 kJ/mol
# GULP energy per Si atom -12398.771630 kJ/mol
# Density = 2.064984 g / cm^3
# Si number density = 20.696951 Si / 1000 Ang^3
#
#
#
# Elastic Constant Matrix: (Units=GPa)
#
#
# Indices 1 2 3 4 5 6 
#
# 1 73.2368 31.1642 26.4579 0.0000 0.0000 0.0000
# 2 31.1642 125.3354 32.0972 0.0000 0.0000 0.0000
# 3 26.4579 32.0972 92.3084 0.0000 0.0000 0.0000
# 4 0.0000 0.0000 0.0000 20.0589 0.0000 0.0000
# 5 0.0000 0.0000 0.0000 0.0000 16.7555 0.0000
# 6 0.0000 0.0000 0.0000 0.0000 0.0000 41.7950
#
#
#
# Elastic Compliance Matrix: (Units=1/GPa)
#
#
# Indices 1 2 3 4 5 6 
#
# 1 0.016279 -0.003132 -0.003577 0.000000 0.000000 0.000000
# 2 -0.003132 0.009361 -0.002357 0.000000 0.000000 0.000000
# 3 -0.003577 -0.002357 0.012678 0.000000 0.000000 0.000000
# 4 0.000000 0.000000 0.000000 0.049853 0.000000 0.000000
# 5 0.000000 0.000000 0.000000 0.000000 0.059682 0.000000
# 6 0.000000 0.000000 0.000000 0.000000 0.000000 0.023926
#
#
# Mechanical properties :
#
#
# Convention : Reuss Voigt Hill
#
# Bulk Modulus (GPa) = 49.53895 52.25771 50.89833
# Shear Modulus (GPa) = 25.42707 29.13264 27.27986
#
# Velocity S-wave (km/s) = 3.50886 3.75584 3.63445
# Velocity P-wave (km/s) = 6.35637 6.64171 6.50061
#
# Compressibility (1/GPa) = 0.02018614
#
# Stress axis : x y z
#
# Youngs Moduli (GPa) = 61.42794 106.82653 78.87541
#
# Poissons Ratio (x) = 0.33455 0.28214
# Poissons Ratio (y) = 0.19237 0.18594
# Poissons Ratio (z) = 0.21973 0.25183
#
# Static dielectric constant tensor:
#      x y z
#    x 4.285830 0.000000 0.000000 
#    y 0.000000 5.038130 0.000000 
#    z 0.000000 0.000000 3.617590 
# 
# 
# High freq. dielectric constant tensor:
#      x y z
#    x 1.818690 0.000000 0.000000 
#    y 0.000000 1.828390 0.000000 
#    z 0.000000 0.000000 1.753960 
# 
# From -- ./inp_files/21629.got.cif
#   From: 2010.03.12/outbox.cif.g09.slc.cpg/sg57_11_cif.got.tgz:21629.got - 2010.04.16 15:48:40.
