data_PCOD8233978
_publ_section_title
;
Structure prediction by ZEFSAII (Michael W. Deem and Ramdas Pophale) SiO2 
 PCOD8233978
Probable space group: P B C M
;
_chemical_formula_sum "Si O2"
_cell_formula_units_Z 48
_cell_length_a 8.912203
_cell_length_b 17.085484
_cell_length_c 15.627079
_cell_angle_alpha 90.000000
_cell_angle_beta 90.000000
_cell_angle_gamma 90.000000
_cell_volume 2379.524408
_symmetry_space_group_name_H-M "P B C M"
_symmetry_group_IT_number 57
_symmetry_cell_setting 'orthorhombic'
loop_
_space_group_symop_operation_xyz
x,y,z
-x,-y,1/2+z
x,1/2-y,-z
-x,1/2+y,1/2-z
-x,-y,-z
x,y,1/2-z
-x,1/2+y,z
x,1/2-y,1/2+z
loop_
_atom_site_type_symbol
_atom_site_label
_atom_site_fract_x
_atom_site_fract_y
_atom_site_fract_z
Si Si1 0.086193 0.469916 0.082904
Si Si2 0.372054 0.785447 0.250000
Si Si3 0.575244 0.530803 0.915377
Si Si4 0.902160 0.785348 0.413085
Si Si5 0.616792 0.471416 0.250000
Si Si6 0.053678 0.715650 0.250000
Si Si7 0.060233 0.038231 0.250000
Si Si8 0.434383 0.214738 0.586890
O O1 0.255646 0.503249 0.088474
O O2 0.090821 0.377497 0.079466
O O3 0.998570 0.495731 0.166350
O O4 0.000000 0.500000 0.000000
O O5 0.336026 0.879033 0.250000
O O6 0.231664 0.727307 0.250000
O O7 0.465605 0.760766 0.166841
O O8 0.482283 0.505342 0.832082
O O9 0.577474 0.622962 0.921700
O O10 0.500000 0.500000 0.000000
O O11 0.971597 0.750000 0.500000
O O12 0.733718 0.752215 0.399714
O O13 0.999245 0.759096 0.333890
O O14 0.760123 0.528452 0.250000
O O15 0.995962 0.627145 0.250000
O O16 0.505589 0.250000 0.500000
#
# Coordination Sequence:
#
# PCOD8233978 Si02
#       8
#     8   4   8   8   4   4   4   8
#     4  11  22  39  62  89 122 157 195 248 304 358
#     4  10  21  38  59  86 115 150 191 242 300 350
#     4  10  21  37  60  88 116 152 197 239 293 361
#     4  10  21  40  62  85 115 156 198 239 290 356
#     4  10  21  40  61  82 117 160 199 244 296 358
#     4  12  25  38  58  88 118 154 199 244 296 356
#     4  12  25  40  58  86 120 160 203 248 302 354
#     4   9  20  38  61  85 113 149 191 237 292 350
#
# _framework density 20.172097000000001
#
# number of rings (size 3 to 8) (size 9 to 14) (size 15 to 20)
#    0.000    1.667    0.000    4.500    0.000    8.667 
#    0.000    2.500    0.000    0.000    0.000    0.000 
#    0.000    0.000    0.000    0.000    0.000    0.000 
#
# Total GULP energy -595243.412597 kJ/mol
# GULP energy per Si atom -12400.904429 kJ/mol
# Density = 2.012618 g / cm^3
# Si number density = 20.172097 Si / 1000 Ang^3
#
#
#
# Elastic Constant Matrix: (Units=GPa)
#
#
# Indices 1 2 3 4 5 6 
#
# 1 157.3755 43.0167 94.9043 0.0000 0.0000 0.0000
# 2 43.0167 54.8538 39.5884 0.0000 0.0000 0.0000
# 3 94.9043 39.5884 208.9833 0.0000 0.0000 0.0000
# 4 0.0000 0.0000 0.0000 36.9988 0.0000 0.0000
# 5 0.0000 0.0000 0.0000 0.0000 132.8333 0.0000
# 6 0.0000 0.0000 0.0000 0.0000 0.0000 32.1435
#
#
#
# Elastic Compliance Matrix: (Units=1/GPa)
#
#
# Indices 1 2 3 4 5 6 
#
# 1 0.009897 -0.005233 -0.003503 0.000000 0.000000 0.000000
# 2 -0.005233 0.023884 -0.002148 0.000000 0.000000 0.000000
# 3 -0.003503 -0.002148 0.006783 0.000000 0.000000 0.000000
# 4 0.000000 0.000000 0.000000 0.027028 0.000000 0.000000
# 5 0.000000 0.000000 0.000000 0.000000 0.007528 0.000000
# 6 0.000000 0.000000 0.000000 0.000000 0.000000 0.031110
#
#
# Mechanical properties :
#
#
# Convention : Reuss Voigt Hill
#
# Bulk Modulus (GPa) = 53.20361 86.24793 69.72577
# Shear Modulus (GPa) = 37.23971 56.64198 46.94084
#
# Velocity S-wave (km/s) = 4.30129 5.30475 4.82915
# Velocity P-wave (km/s) = 7.14844 8.96489 8.10770
#
# Compressibility (1/GPa) = 0.01879572
#
# Stress axis : x y z
#
# Youngs Moduli (GPa) = 101.03793 41.86832 147.42994
#
# Poissons Ratio (x) = 0.21910 0.51648
# Poissons Ratio (y) = 0.52875 0.31668
# Poissons Ratio (z) = 0.35396 0.08993
#
# Static dielectric constant tensor:
#      x y z
#    x 3.985130 0.000000 0.000000 
#    y 0.000000 3.617570 0.000000 
#    z 0.000000 0.000000 3.789750 
# 
# 
# High freq. dielectric constant tensor:
#      x y z
#    x 1.795910 0.000000 0.000000 
#    y 0.000000 1.779510 0.000000 
#    z 0.000000 0.000000 1.810720 
# 
# From -- ./inp_files/16478.got.cif
#   From: 2010.03.12/outbox.cif.g09.slc.cpg/sg57_9_cif.got.tgz:16478.got - 2010.04.16 15:48:40.
