data_PCOD8233190
_publ_section_title
;
Structure prediction by ZEFSAII (Michael W. Deem and Ramdas Pophale) SiO2 
 PCOD8233190
Probable space group: P B C M
;
_chemical_formula_sum "Si O2"
_cell_formula_units_Z 64
_cell_length_a 23.702833
_cell_length_b 15.301091
_cell_length_c 8.822109
_cell_angle_alpha 90.000000
_cell_angle_beta 90.000000
_cell_angle_gamma 90.000000
_cell_volume 3199.595476
_symmetry_space_group_name_H-M "P B C M"
_symmetry_group_IT_number 57
_symmetry_cell_setting 'orthorhombic'
loop_
_space_group_symop_operation_xyz
x,y,z
-x,-y,1/2+z
x,1/2-y,-z
-x,1/2+y,1/2-z
-x,-y,-z
x,y,1/2-z
-x,1/2+y,z
x,1/2-y,1/2+z
loop_
_atom_site_type_symbol
_atom_site_label
_atom_site_fract_x
_atom_site_fract_y
_atom_site_fract_z
Si Si1 0.499749 0.343779 0.571304
Si Si2 0.998218 0.349184 0.929686
Si Si3 0.610547 0.908709 0.076320
Si Si4 0.389388 0.918732 0.074568
Si Si5 0.078819 0.507724 0.572072
Si Si6 0.274369 0.837088 0.423420
Si Si7 0.270288 0.337673 0.424066
Si Si8 0.208203 0.002241 0.071055
O O1 0.495344 0.250000 0.500000
O O2 0.510086 0.338913 0.750000
O O3 0.441063 0.390582 0.536307
O O4 0.550719 0.393049 0.492632
O O5 0.993591 0.336121 0.750000
O O6 0.050528 0.414042 0.973196
O O7 0.003153 0.250000 0.000000
O O8 0.944785 0.405319 0.988789
O O9 0.589124 0.909947 0.250000
O O10 0.661874 0.841795 0.055478
O O11 0.634712 0.001691 0.024217
O O12 0.396844 0.944850 0.250000
O O13 0.342200 0.844102 0.055826
O O14 0.071186 0.524246 0.750000
O O15 0.143397 0.500674 0.521597
O O16 0.252110 0.750000 0.500000
O O17 0.257518 0.830526 0.250000
O O18 0.240679 0.918041 0.495786
O O19 0.248113 0.250000 0.500000
O O20 0.253298 0.337756 0.250000
O O21 0.237634 0.414419 0.503133
O O22 0.215422 0.007562 0.250000
#
# Coordination Sequence:
#
# PCOD8233190 Si02
#       8
#     8   8   8   8   8   8   8   8
#     4  12  25  40  58  83 114 148 190 244 300 365
#     4  10  20  36  60  90 125 165 205 251 300 354
#     4  11  23  40  61  86 114 150 194 244 301 364
#     4  11  22  39  61  85 113 151 194 242 302 362
#     4   9  20  38  61  89 123 163 206 253 301 352
#     4  10  22  38  60  86 116 156 197 245 299 357
#     4  11  24  40  62  89 119 158 202 250 304 362
#     4  10  21  41  63  88 123 160 203 252 303 355
#
# _framework density 20.002528999999999
#
# number of rings (size 3 to 8) (size 9 to 14) (size 15 to 20)
#    0.000    1.500    1.250    3.750    0.000    7.000 
#    0.000    2.500    0.000    0.000    0.000    0.000 
#    0.000    0.000    0.000    0.000    0.000    0.000 
#
# Total GULP energy -793439.073153 kJ/mol
# GULP energy per Si atom -12397.485518 kJ/mol
# Density = 1.995700 g / cm^3
# Si number density = 20.002529 Si / 1000 Ang^3
#
#
#
# Elastic Constant Matrix: (Units=GPa)
#
#
# Indices 1 2 3 4 5 6 
#
# 1 119.4486 52.4887 42.6239 0.0000 0.0000 0.0000
# 2 52.4887 160.6797 37.4720 0.0000 0.0000 0.0000
# 3 42.6239 37.4720 31.8493 0.0000 0.0000 0.0000
# 4 0.0000 0.0000 0.0000 37.6300 0.0000 0.0000
# 5 0.0000 0.0000 0.0000 0.0000 26.4387 0.0000
# 6 0.0000 0.0000 0.0000 0.0000 0.0000 0.1451
#
#
#
# Elastic Compliance Matrix: (Units=1/GPa)
#
#
# Indices 1 2 3 4 5 6 
#
# 1 0.016036 -0.000322 -0.021083 0.000000 0.000000 0.000000
# 2 -0.000322 0.008583 -0.009668 0.000000 0.000000 0.000000
# 3 -0.021083 -0.009668 0.070988 0.000000 0.000000 0.000000
# 4 0.000000 0.000000 0.000000 0.026575 0.000000 0.000000
# 5 0.000000 0.000000 0.000000 0.000000 0.037823 0.000000
# 6 0.000000 0.000000 0.000000 0.000000 0.000000 6.890622
#
#
# Mechanical properties :
#
#
# Convention : Reuss Voigt Hill
#
# Bulk Modulus (GPa) = 29.88439 64.12743 47.00591
# Shear Modulus (GPa) = 0.70186 24.80230 12.75208
#
# Velocity S-wave (km/s) = 0.59300 3.52512 2.52766
# Velocity P-wave (km/s) = 3.92958 6.97839 5.66302
#
# Compressibility (1/GPa) = 0.03346228
#
# Stress axis : x y z
#
# Youngs Moduli (GPa) = 62.35798 116.50463 14.08690
#
# Poissons Ratio (x) = 0.03749 0.29699
# Poissons Ratio (y) = 0.02007 0.13619
# Poissons Ratio (z) = 1.31469 1.12636
#
# Static dielectric constant tensor:
#      x y z
#    x 3.492210 0.000000 0.000000 
#    y 0.000000 3.834320 0.000000 
#    z 0.000000 0.000000 3.637040 
# 
# 
# High freq. dielectric constant tensor:
#      x y z
#    x 1.778170 0.000000 0.000000 
#    y 0.000000 1.791780 0.000000 
#    z 0.000000 0.000000 1.784050 
# 
# From -- ./inp_files/9391.got.cif
#   From: 2010.03.12/outbox.cif.g09.slc.cpg/sg57_5_cif.got.tgz:9391.got - 2010.04.16 15:48:40.
