data_PCOD8233953
_publ_section_title
;
Structure prediction by ZEFSAII (Michael W. Deem and Ramdas Pophale) SiO2 
 PCOD8233953
Probable space group: P B C M
;
_chemical_formula_sum "Si O2"
_cell_formula_units_Z 48
_cell_length_a 30.321196
_cell_length_b 9.429849
_cell_length_c 8.644546
_cell_angle_alpha 90.000000
_cell_angle_beta 90.000000
_cell_angle_gamma 90.000000
_cell_volume 2471.685762
_symmetry_space_group_name_H-M "P B C M"
_symmetry_group_IT_number 57
_symmetry_cell_setting 'orthorhombic'
loop_
_space_group_symop_operation_xyz
x,y,z
-x,-y,1/2+z
x,1/2-y,-z
-x,1/2+y,1/2-z
-x,-y,-z
x,y,1/2-z
-x,1/2+y,z
x,1/2-y,1/2+z
loop_
_atom_site_type_symbol
_atom_site_label
_atom_site_fract_x
_atom_site_fract_y
_atom_site_fract_z
Si Si1 0.213157 0.094035 0.069155
Si Si2 0.709796 0.093928 0.432874
Si Si3 0.961914 0.404370 0.566824
Si Si4 0.535841 0.601194 0.430841
Si Si5 0.364001 0.096948 0.067518
Si Si6 0.870186 0.098797 0.930534
O O1 0.224541 0.101815 0.250000
O O2 0.167108 0.016612 0.037897
O O3 0.210164 0.250000 0.000000
O O4 0.250818 0.007320 0.983614
O O5 0.717013 0.250000 0.500000
O O6 0.708456 0.105207 0.250000
O O7 0.664272 0.028238 0.493234
O O8 0.969821 0.250000 0.500000
O O9 0.964133 0.403020 0.750000
O O10 0.914196 0.460581 0.512110
O O11 0.000000 0.500000 0.500000
O O12 0.523343 0.750000 0.500000
O O13 0.500000 0.500000 0.500000
O O14 0.530325 0.606737 0.250000
O O15 0.585700 0.558746 0.476583
O O16 0.356103 0.102053 0.250000
O O17 0.350154 0.250000 0.000000
O O18 0.879604 0.120937 0.750000
O O19 0.855385 0.250000 0.000000
#
# Coordination Sequence:
#
# PCOD8233953 Si02
#       6
#     8   8   8   8   8   8
#     4  11  24  41  62  88 119 154 193 237 286 342
#     4  12  25  41  62  87 117 152 192 238 287 342
#     4  11  22  38  60  86 118 155 196 241 290 344
#     4  10  21  37  59  85 116 153 193 238 287 342
#     4  10  21  39  61  86 116 152 193 237 288 342
#     4  10  21  38  60  86 116 152 194 239 290 344
#
# _framework density 19.419944999999998
#
# number of rings (size 3 to 8) (size 9 to 14) (size 15 to 20)
#    0.000    1.333    0.000    7.000    0.000    7.333 
#    0.000    1.667    0.000    0.000    0.000    0.000 
#    0.000    0.000    0.000    0.000    0.000    0.000 
#
# Total GULP energy -595371.588481 kJ/mol
# GULP energy per Si atom -12403.574760 kJ/mol
# Density = 1.937574 g / cm^3
# Si number density = 19.419945 Si / 1000 Ang^3
#
#
#
# Elastic Constant Matrix: (Units=GPa)
#
#
# Indices 1 2 3 4 5 6 
#
# 1 125.7728 86.2181 61.4751 0.0000 0.0000 0.0000
# 2 86.2181 134.9405 67.7531 0.0000 0.0000 0.0000
# 3 61.4751 67.7531 135.9320 0.0000 0.0000 0.0000
# 4 0.0000 0.0000 0.0000 39.9663 0.0000 0.0000
# 5 0.0000 0.0000 0.0000 0.0000 35.5446 0.0000
# 6 0.0000 0.0000 0.0000 0.0000 0.0000 48.8388
#
#
#
# Elastic Compliance Matrix: (Units=1/GPa)
#
#
# Indices 1 2 3 4 5 6 
#
# 1 0.014828 -0.008146 -0.002646 0.000000 0.000000 0.000000
# 2 -0.008146 0.014359 -0.003473 0.000000 0.000000 0.000000
# 3 -0.002646 -0.003473 0.010284 0.000000 0.000000 0.000000
# 4 0.000000 0.000000 0.000000 0.025021 0.000000 0.000000
# 5 0.000000 0.000000 0.000000 0.000000 0.028134 0.000000
# 6 0.000000 0.000000 0.000000 0.000000 0.000000 0.020476
#
#
# Mechanical properties :
#
#
# Convention : Reuss Voigt Hill
#
# Bulk Modulus (GPa) = 91.39078 91.94864 91.66971
# Shear Modulus (GPa) = 34.41667 36.94986 35.68326
#
# Velocity S-wave (km/s) = 4.21436 4.36670 4.29120
# Velocity P-wave (km/s) = 8.41686 8.53665 8.47697
#
# Compressibility (1/GPa) = 0.01094202
#
# Stress axis : x y z
#
# Youngs Moduli (GPa) = 67.44009 69.64247 97.23487
#
# Poissons Ratio (x) = 0.56728 0.25727
# Poissons Ratio (y) = 0.54934 0.33772
# Poissons Ratio (z) = 0.17844 0.24188
#
# Static dielectric constant tensor:
#      x y z
#    x 3.940120 0.000000 0.000000 
#    y 0.000000 3.276790 0.000000 
#    z 0.000000 0.000000 3.709160 
# 
# 
# High freq. dielectric constant tensor:
#      x y z
#    x 1.772190 0.000000 0.000000 
#    y 0.000000 1.758930 0.000000 
#    z 0.000000 0.000000 1.779050 
# 
# From -- ./inp_files/9931.got.cif
#   From: 2010.03.12/outbox.cif.g09.slc.cpg/sg57_5_cif.got.tgz:9931.got - 2010.04.16 15:48:40.
