data_PCOD8233545
_publ_section_title
;
Structure prediction by ZEFSAII (Michael W. Deem and Ramdas Pophale) SiO2 
 PCOD8233545
Probable space group: P B C M
;
_chemical_formula_sum "Si O2"
_cell_formula_units_Z 40
_cell_length_a 14.751882
_cell_length_b 8.847251
_cell_length_c 15.253968
_cell_angle_alpha 90.000000
_cell_angle_beta 90.000000
_cell_angle_gamma 90.000000
_cell_volume 1990.850320
_symmetry_space_group_name_H-M "P B C M"
_symmetry_group_IT_number 57
_symmetry_cell_setting 'orthorhombic'
loop_
_space_group_symop_operation_xyz
x,y,z
-x,-y,1/2+z
x,1/2-y,-z
-x,1/2+y,1/2-z
-x,-y,-z
x,y,1/2-z
-x,1/2+y,z
x,1/2-y,1/2+z
loop_
_atom_site_type_symbol
_atom_site_label
_atom_site_fract_x
_atom_site_fract_y
_atom_site_fract_z
Si Si1 0.906460 0.325702 0.250000
Si Si2 0.583747 0.320340 0.594974
Si Si3 0.261348 0.131857 0.151121
Si Si4 0.899972 0.678663 0.250000
Si Si5 0.227406 0.806496 0.095948
Si Si6 0.584296 0.850342 0.348744
O O1 0.919705 0.502238 0.250000
O O2 0.853552 0.271134 0.336681
O O3 0.007550 0.265480 0.250000
O O4 0.569444 0.250000 0.500000
O O5 0.683888 0.282002 0.630088
O O6 0.572151 0.501353 0.591933
O O7 0.507455 0.246985 0.656155
O O8 0.292205 0.078552 0.250000
O O9 0.334667 0.247327 0.110835
O O10 0.162257 0.213546 0.163132
O O11 0.252427 0.984597 0.089974
O O12 0.197147 0.750000 0.000000
O O13 0.609781 0.900036 0.250000
#
# Coordination Sequence:
#
# PCOD8233545 Si02
#       6
#     4   8   8   4   8   8
#     4  10  20  38  63  84 121 156 199 254 300 366
#     4  11  24  38  54  85 126 163 197 248 300 352
#     4   8  18  38  59  85 122 154 199 249 301 351
#     4   8  18  36  61  88 117 156 189 250 314 350
#     4  10  21  38  60  87 120 163 201 246 305 361
#     4  11  22  36  63  90 116 159 208 242 294 364
#
# _framework density 20.091918
#
# number of rings (size 3 to 8) (size 9 to 14) (size 15 to 20)
#    0.600    1.600    1.000    2.400    2.800    4.800 
#    0.000    4.000    0.000    1.200    0.000    0.000 
#    0.000    0.000    0.000    0.000    0.000    0.000 
#
# Total GULP energy -495751.903412 kJ/mol
# GULP energy per Si atom -12393.797585 kJ/mol
# Density = 2.004619 g / cm^3
# Si number density = 20.091918 Si / 1000 Ang^3
#
#
#
# Elastic Constant Matrix: (Units=GPa)
#
#
# Indices 1 2 3 4 5 6 
#
# 1 109.1891 23.4025 11.9693 0.0000 0.0000 0.0000
# 2 23.4025 93.3633 32.1270 0.0000 0.0000 0.0000
# 3 11.9693 32.1270 74.7440 0.0000 0.0000 0.0000
# 4 0.0000 0.0000 0.0000 29.1635 0.0000 0.0000
# 5 0.0000 0.0000 0.0000 0.0000 13.9374 0.0000
# 6 0.0000 0.0000 0.0000 0.0000 0.0000 36.1201
#
#
#
# Elastic Compliance Matrix: (Units=1/GPa)
#
#
# Indices 1 2 3 4 5 6 
#
# 1 0.009701 -0.002226 -0.000597 0.000000 0.000000 0.000000
# 2 -0.002226 0.013081 -0.005266 0.000000 0.000000 0.000000
# 3 -0.000597 -0.005266 0.015738 0.000000 0.000000 0.000000
# 4 0.000000 0.000000 0.000000 0.034289 0.000000 0.000000
# 5 0.000000 0.000000 0.000000 0.000000 0.071749 0.000000
# 6 0.000000 0.000000 0.000000 0.000000 0.000000 0.027685
#
#
# Mechanical properties :
#
#
# Convention : Reuss Voigt Hill
#
# Bulk Modulus (GPa) = 44.75857 45.81045 45.28451
# Shear Modulus (GPa) = 25.52719 29.83071 27.67895
#
# Velocity S-wave (km/s) = 3.56830 3.85738 3.71565
# Velocity P-wave (km/s) = 6.26916 6.53369 6.40279
#
# Compressibility (1/GPa) = 0.02234209
#
# Stress axis : x y z
#
# Youngs Moduli (GPa) = 103.08219 76.44673 63.54045
#
# Poissons Ratio (x) = 0.17020 0.03790
# Poissons Ratio (y) = 0.22950 0.33461
# Poissons Ratio (z) = 0.06149 0.40257
#
# Static dielectric constant tensor:
#      x y z
#    x 4.008320 0.000000 0.000000 
#    y 0.000000 3.554950 0.000000 
#    z 0.000000 0.000000 3.333150 
# 
# 
# High freq. dielectric constant tensor:
#      x y z
#    x 1.784500 0.000000 0.000000 
#    y 0.000000 1.781840 0.000000 
#    z 0.000000 0.000000 1.762830 
# 
# From -- ./inp_files/22315.got.cif
#   From: 2010.03.12/outbox.cif.g09.slc.cpg/sg57_12_cif.got.tgz:22315.got - 2010.04.16 15:48:40.
