data_PCOD8233928
_publ_section_title
;
Structure prediction by ZEFSAII (Michael W. Deem and Ramdas Pophale) SiO2 
 PCOD8233928
Probable space group: P B C M
;
_chemical_formula_sum "Si O2"
_cell_formula_units_Z 40
_cell_length_a 24.971631
_cell_length_b 9.695352
_cell_length_c 8.680567
_cell_angle_alpha 90.000000
_cell_angle_beta 90.000000
_cell_angle_gamma 90.000000
_cell_volume 2101.641248
_symmetry_space_group_name_H-M "P B C M"
_symmetry_group_IT_number 57
_symmetry_cell_setting 'orthorhombic'
loop_
_space_group_symop_operation_xyz
x,y,z
-x,-y,1/2+z
x,1/2-y,-z
-x,1/2+y,1/2-z
-x,-y,-z
x,y,1/2-z
-x,1/2+y,z
x,1/2-y,1/2+z
loop_
_atom_site_type_symbol
_atom_site_label
_atom_site_fract_x
_atom_site_fract_y
_atom_site_fract_z
Si Si1 0.337224 0.896337 0.431274
Si Si2 0.843228 0.396637 0.931568
Si Si3 0.253040 0.401154 0.069324
Si Si4 0.540511 0.393331 0.430624
Si Si5 0.043717 0.601024 0.933205
O O1 0.317839 0.750000 0.500000
O O2 0.328861 0.888215 0.250000
O O3 0.398489 0.926974 0.478087
O O4 0.304117 0.023058 0.498466
O O5 0.852420 0.379160 0.750000
O O6 0.799521 0.511309 0.971684
O O7 0.824285 0.250000 0.000000
O O8 0.897848 0.447335 0.010867
O O9 0.261826 0.388308 0.250000
O O10 0.246495 0.250000 0.000000
O O11 0.522143 0.250000 0.500000
O O12 0.500000 0.500000 0.500000
O O13 0.533916 0.388834 0.250000
O O14 0.041574 0.603206 0.750000
O O15 0.030295 0.750000 0.000000
O O16 0.000000 0.500000 0.000000
#
# Coordination Sequence:
#
# PCOD8233928 Si02
#       5
#     8   8   8   8   8
#     4  10  21  38  60  84 112 147 189 231 277 334
#     4  10  21  38  59  84 112 147 190 232 278 335
#     4  11  24  39  58  84 115 149 187 233 284 333
#     4  10  21  37  58  84 113 148 187 231 279 332
#     4  11  22  38  60  86 116 151 190 233 280 332
#
# _framework density 19.032744000000001
#
# number of rings (size 3 to 8) (size 9 to 14) (size 15 to 20)
#    0.000    1.600    0.000    6.000    0.000    8.800 
#    0.000    2.000    0.000    0.000    0.000    0.000 
#    0.000    0.000    0.000    0.000    0.000    0.000 
#
# Total GULP energy -496152.184919 kJ/mol
# GULP energy per Si atom -12403.804623 kJ/mol
# Density = 1.898942 g / cm^3
# Si number density = 19.032744 Si / 1000 Ang^3
#
#
#
# Elastic Constant Matrix: (Units=GPa)
#
#
# Indices 1 2 3 4 5 6 
#
# 1 124.7865 103.7765 68.1526 0.0000 0.0000 0.0000
# 2 103.7765 160.6844 72.6634 0.0000 0.0000 0.0000
# 3 68.1526 72.6634 120.7154 0.0000 0.0000 0.0000
# 4 0.0000 0.0000 0.0000 40.2013 0.0000 0.0000
# 5 0.0000 0.0000 0.0000 0.0000 34.0467 0.0000
# 6 0.0000 0.0000 0.0000 0.0000 0.0000 43.7273
#
#
#
# Elastic Compliance Matrix: (Units=1/GPa)
#
#
# Indices 1 2 3 4 5 6 
#
# 1 0.018998 -0.010194 -0.004589 0.000000 0.000000 0.000000
# 2 -0.010194 0.014021 -0.002684 0.000000 0.000000 0.000000
# 3 -0.004589 -0.002684 0.012491 0.000000 0.000000 0.000000
# 4 0.000000 0.000000 0.000000 0.024875 0.000000 0.000000
# 5 0.000000 0.000000 0.000000 0.000000 0.029371 0.000000
# 6 0.000000 0.000000 0.000000 0.000000 0.000000 0.022869
#
#
# Mechanical properties :
#
#
# Convention : Reuss Voigt Hill
#
# Bulk Modulus (GPa) = 94.57393 99.48568 97.02980
# Shear Modulus (GPa) = 31.03910 34.36799 32.70355
#
# Velocity S-wave (km/s) = 4.04273 4.25400 4.14971
# Velocity P-wave (km/s) = 8.46106 8.74717 8.60530
#
# Compressibility (1/GPa) = 0.01057374
#
# Stress axis : x y z
#
# Youngs Moduli (GPa) = 52.63634 71.31989 80.05818
#
# Poissons Ratio (x) = 0.72707 0.36742
# Poissons Ratio (y) = 0.53660 0.21491
# Poissons Ratio (z) = 0.24157 0.19146
#
# Static dielectric constant tensor:
#      x y z
#    x 3.388270 0.000000 0.000000 
#    y 0.000000 3.602000 0.000000 
#    z 0.000000 0.000000 3.674460 
# 
# 
# High freq. dielectric constant tensor:
#      x y z
#    x 1.750670 0.000000 0.000000 
#    y 0.000000 1.742040 0.000000 
#    z 0.000000 0.000000 1.761650 
# 
# From -- ./inp_files/8872.got.cif
#   From: 2010.03.12/outbox.cif.g09.slc.cpg/sg57_5_cif.got.tgz:8872.got - 2010.04.16 15:48:40.
