data_PCOD8233856
_publ_section_title
;
Structure prediction by ZEFSAII (Michael W. Deem and Ramdas Pophale) SiO2 
 PCOD8233856
Probable space group: P B C M
;
_chemical_formula_sum "Si O2"
_cell_formula_units_Z 48
_cell_length_a 31.314066
_cell_length_b 9.101296
_cell_length_c 8.740477
_cell_angle_alpha 90.000000
_cell_angle_beta 90.000000
_cell_angle_gamma 90.000000
_cell_volume 2491.023565
_symmetry_space_group_name_H-M "P B C M"
_symmetry_group_IT_number 57
_symmetry_cell_setting 'orthorhombic'
loop_
_space_group_symop_operation_xyz
x,y,z
-x,-y,1/2+z
x,1/2-y,-z
-x,1/2+y,1/2-z
-x,-y,-z
x,y,1/2-z
-x,1/2+y,z
x,1/2-y,1/2+z
loop_
_atom_site_type_symbol
_atom_site_label
_atom_site_fract_x
_atom_site_fract_y
_atom_site_fract_z
Si Si1 0.539032 0.412334 0.931471
Si Si2 0.376823 0.909698 0.070783
Si Si3 0.038979 0.411052 0.568714
Si Si4 0.877945 0.090374 0.569980
Si Si5 0.283191 0.590699 0.571563
Si Si6 0.203408 0.090670 0.068656
O O1 0.535881 0.408872 0.750000
O O2 0.537772 0.250000 0.000000
O O3 0.500000 0.500000 0.000000
O O4 0.583660 0.490724 0.984899
O O5 0.387454 0.901082 0.250000
O O6 0.330203 0.981532 0.039725
O O7 0.373332 0.750000 0.000000
O O8 0.039628 0.250000 0.500000
O O9 0.034132 0.401677 0.750000
O O10 0.082235 0.491898 0.518047
O O11 0.000000 0.500000 0.500000
O O12 0.882455 0.250000 0.500000
O O13 0.876681 0.108860 0.750000
O O14 0.834963 0.012414 0.510052
O O15 0.277239 0.750000 0.500000
O O16 0.276447 0.615013 0.750000
O O17 0.247726 0.479087 0.507000
O O18 0.203181 0.104860 0.250000
O O19 0.197189 0.250000 0.000000
#
# Coordination Sequence:
#
# PCOD8233856 Si02
#       6
#     8   8   8   8   8   8
#     4  11  21  35  54  78 106 139 177 220 267 319
#     4   9  16  29  49  74 102 134 171 215 261 311
#     4  11  23  39  59  85 115 150 188 231 278 330
#     4  10  22  38  58  83 111 142 183 228 273 322
#     4   9  18  32  53  78 104 133 172 217 261 310
#     4  10  21  37  54  78 109 142 177 217 264 318
#
# _framework density 19.269186999999999
#
# number of rings (size 3 to 8) (size 9 to 14) (size 15 to 20)
#    0.000    2.000    0.000    5.000    0.000    4.667 
#    0.000    0.833    0.000    2.000    0.000    0.000 
#    0.000    0.000    0.000    0.000    0.000    0.000 
#
# Total GULP energy -595045.121351 kJ/mol
# GULP energy per Si atom -12396.773361 kJ/mol
# Density = 1.922533 g / cm^3
# Si number density = 19.269187 Si / 1000 Ang^3
#
#
#
# Elastic Constant Matrix: (Units=GPa)
#
#
# Indices 1 2 3 4 5 6 
#
# 1 201.5776 81.4696 63.3584 0.0000 0.0000 0.0000
# 2 81.4696 125.8486 42.4749 0.0000 0.0000 0.0000
# 3 63.3584 42.4749 86.3979 0.0000 0.0000 0.0000
# 4 0.0000 0.0000 0.0000 33.1311 0.0000 0.0000
# 5 0.0000 0.0000 0.0000 0.0000 29.3814 0.0000
# 6 0.0000 0.0000 0.0000 0.0000 0.0000 46.8517
#
#
#
# Elastic Compliance Matrix: (Units=1/GPa)
#
#
# Indices 1 2 3 4 5 6 
#
# 1 0.007634 -0.003660 -0.003799 0.000000 0.000000 0.000000
# 2 -0.003660 0.011281 -0.002862 0.000000 0.000000 0.000000
# 3 -0.003799 -0.002862 0.015768 0.000000 0.000000 0.000000
# 4 0.000000 0.000000 0.000000 0.030183 0.000000 0.000000
# 5 0.000000 0.000000 0.000000 0.000000 0.034035 0.000000
# 6 0.000000 0.000000 0.000000 0.000000 0.000000 0.021344
#
#
# Mechanical properties :
#
#
# Convention : Reuss Voigt Hill
#
# Bulk Modulus (GPa) = 71.22214 87.60333 79.41274
# Shear Modulus (GPa) = 34.34827 36.97425 35.66126
#
# Velocity S-wave (km/s) = 4.22660 4.38519 4.30663
# Velocity P-wave (km/s) = 7.80134 8.43810 8.12596
#
# Compressibility (1/GPa) = 0.01404058
#
# Stress axis : x y z
#
# Youngs Moduli (GPa) = 130.99078 88.64220 63.42152
#
# Poissons Ratio (x) = 0.32441 0.24095
# Poissons Ratio (y) = 0.47940 0.18153
# Poissons Ratio (z) = 0.49765 0.25372
#
# Static dielectric constant tensor:
#      x y z
#    x 4.725710 0.000000 0.000000 
#    y 0.000000 3.316850 0.000000 
#    z 0.000000 0.000000 3.547930 
# 
# 
# High freq. dielectric constant tensor:
#      x y z
#    x 1.780810 0.000000 0.000000 
#    y 0.000000 1.726650 0.000000 
#    z 0.000000 0.000000 1.752400 
# 
# From -- ./inp_files/9951.got.cif
#   From: 2010.03.12/outbox.cif.g09.slc.cpg/sg57_5_cif.got.tgz:9951.got - 2010.04.16 15:48:40.
