data_PCOD8233918
_publ_section_title
;
Structure prediction by ZEFSAII (Michael W. Deem and Ramdas Pophale) SiO2 
 PCOD8233918
Probable space group: P B C M
;
_chemical_formula_sum "Si O2"
_cell_formula_units_Z 48
_cell_length_a 29.860161
_cell_length_b 9.524359
_cell_length_c 8.921192
_cell_angle_alpha 90.000000
_cell_angle_beta 90.000000
_cell_angle_gamma 90.000000
_cell_volume 2537.177130
_symmetry_space_group_name_H-M "P B C M"
_symmetry_group_IT_number 57
_symmetry_cell_setting 'orthorhombic'
loop_
_space_group_symop_operation_xyz
x,y,z
-x,-y,1/2+z
x,1/2-y,-z
-x,1/2+y,1/2-z
-x,-y,-z
x,y,1/2-z
-x,1/2+y,z
x,1/2-y,1/2+z
loop_
_atom_site_type_symbol
_atom_site_label
_atom_site_fract_x
_atom_site_fract_y
_atom_site_fract_z
Si Si1 0.206103 0.901025 0.072614
Si Si2 0.716350 0.892150 0.574437
Si Si3 0.537399 0.402845 0.072572
Si Si4 0.966561 0.604129 0.577755
Si Si5 0.863896 0.601081 0.923799
Si Si6 0.615531 0.607628 0.424893
O O1 0.200321 0.888034 0.250000
O O2 0.251708 0.980635 0.027057
O O3 0.209087 0.750000 0.000000
O O4 0.163771 0.981497 0.006383
O O5 0.734638 0.750000 0.500000
O O6 0.717574 0.867106 0.750000
O O7 0.665901 0.926131 0.518603
O O8 0.529280 0.390357 0.250000
O O9 0.585004 0.474414 0.034033
O O10 0.536358 0.250000 0.000000
O O11 0.500000 0.500000 0.000000
O O12 0.974578 0.750000 0.500000
O O13 0.979706 0.618286 0.750000
O O14 0.915396 0.555155 0.557562
O O15 0.000000 0.500000 0.500000
O O16 0.850125 0.612073 0.750000
O O17 0.853982 0.750000 0.000000
O O18 0.596866 0.750000 0.500000
O O19 0.614498 0.637514 0.250000
#
# Coordination Sequence:
#
# PCOD8233918 Si02
#       6
#     8   8   8   8   8   8
#     4  11  23  37  55  80 111 145 182 227 275 322
#     4   9  19  36  57  81 108 141 181 222 268 323
#     4  11  23  38  57  81 111 146 184 227 275 326
#     4  10  21  37  58  83 111 144 181 223 270 322
#     4  10  21  38  59  82 109 143 183 224 269 323
#     4   9  19  36  57  81 109 141 179 223 270 322
#
# _framework density 18.918664
#
# number of rings (size 3 to 8) (size 9 to 14) (size 15 to 20)
#    0.000    2.000    0.000    3.000    0.000    8.667 
#    0.000    0.000    0.000    0.000    0.000    0.000 
#    0.000    0.000    0.000    0.000    0.000    0.000 
#
# Total GULP energy -595316.584899 kJ/mol
# GULP energy per Si atom -12402.428852 kJ/mol
# Density = 1.887560 g / cm^3
# Si number density = 18.918664 Si / 1000 Ang^3
#
#
#
# Elastic Constant Matrix: (Units=GPa)
#
#
# Indices 1 2 3 4 5 6 
#
# 1 112.5029 91.8676 70.5194 0.0000 0.0000 0.0000
# 2 91.8676 168.1685 83.3596 0.0000 0.0000 0.0000
# 3 70.5194 83.3596 112.4840 0.0000 0.0000 0.0000
# 4 0.0000 0.0000 0.0000 40.6513 0.0000 0.0000
# 5 0.0000 0.0000 0.0000 0.0000 28.1613 0.0000
# 6 0.0000 0.0000 0.0000 0.0000 0.0000 35.8145
#
#
#
# Elastic Compliance Matrix: (Units=1/GPa)
#
#
# Indices 1 2 3 4 5 6 
#
# 1 0.018675 -0.006952 -0.006556 0.000000 0.000000 0.000000
# 2 -0.006952 0.011987 -0.004525 0.000000 0.000000 0.000000
# 3 -0.006556 -0.004525 0.016354 0.000000 0.000000 0.000000
# 4 0.000000 0.000000 0.000000 0.024599 0.000000 0.000000
# 5 0.000000 0.000000 0.000000 0.000000 0.035510 0.000000
# 6 0.000000 0.000000 0.000000 0.000000 0.000000 0.027922
#
#
# Mechanical properties :
#
#
# Convention : Reuss Voigt Hill
#
# Bulk Modulus (GPa) = 91.32505 98.29429 94.80967
# Shear Modulus (GPa) = 28.61025 30.75266 29.68146
#
# Velocity S-wave (km/s) = 3.89302 4.03615 3.96523
# Velocity P-wave (km/s) = 8.28159 8.59009 8.43725
#
# Compressibility (1/GPa) = 0.01094990
#
# Stress axis : x y z
#
# Youngs Moduli (GPa) = 53.54758 83.42176 61.14893
#
# Poissons Ratio (x) = 0.57996 0.40088
# Poissons Ratio (y) = 0.37227 0.27670
# Poissons Ratio (z) = 0.35104 0.37748
#
# Static dielectric constant tensor:
#      x y z
#    x 3.770430 0.000000 0.000000 
#    y 0.000000 3.238240 0.000000 
#    z 0.000000 0.000000 3.601090 
# 
# 
# High freq. dielectric constant tensor:
#      x y z
#    x 1.747050 0.000000 0.000000 
#    y 0.000000 1.735160 0.000000 
#    z 0.000000 0.000000 1.746450 
# 
# From -- ./inp_files/9965.got.cif
#   From: 2010.03.12/outbox.cif.g09.slc.cpg/sg57_5_cif.got.tgz:9965.got - 2010.04.16 15:48:40.
