data_PCOD8233131
_publ_section_title
;
Structure prediction by ZEFSAII (Michael W. Deem and Ramdas Pophale) SiO2 
 PCOD8233131
Probable space group: P B C M
;
_chemical_formula_sum "Si O2"
_cell_formula_units_Z 48
_cell_length_a 9.316803
_cell_length_b 30.635037
_cell_length_c 8.842843
_cell_angle_alpha 90.000000
_cell_angle_beta 90.000000
_cell_angle_gamma 90.000000
_cell_volume 2523.929596
_symmetry_space_group_name_H-M "P B C M"
_symmetry_group_IT_number 57
_symmetry_cell_setting 'orthorhombic'
loop_
_space_group_symop_operation_xyz
x,y,z
-x,-y,1/2+z
x,1/2-y,-z
-x,1/2+y,1/2-z
-x,-y,-z
x,y,1/2-z
-x,1/2+y,z
x,1/2-y,1/2+z
loop_
_atom_site_type_symbol
_atom_site_label
_atom_site_fract_x
_atom_site_fract_y
_atom_site_fract_z
Si Si1 0.166426 0.954586 0.572105
Si Si2 0.849172 0.794877 0.572809
Si Si3 0.340533 0.877180 0.073143
Si Si4 0.355230 0.125048 0.074328
Si Si5 0.849126 0.295555 0.428874
Si Si6 0.840036 0.955863 0.572463
O O1 0.181915 0.955211 0.750000
O O2 0.267844 0.917338 0.509756
O O3 0.002778 0.945593 0.520374
O O4 0.219524 0.001115 0.509405
O O5 0.792609 0.750000 0.500000
O O6 0.877087 0.788328 0.750000
O O7 0.730641 0.830980 0.540263
O O8 0.997596 0.809511 0.496169
O O9 0.326176 0.885191 0.250000
O O10 0.264696 0.832266 0.024176
O O11 0.505343 0.874262 0.028053
O O12 0.397731 0.121471 0.250000
O O13 0.257929 0.084463 0.023382
O O14 0.796081 0.250000 0.500000
O O15 0.862895 0.290171 0.250000
O O16 0.834454 0.964327 0.750000
#
# Coordination Sequence:
#
# PCOD8233131 Si02
#       6
#     8   8   8   8   8   8
#     4  10  20  36  60  85 109 141 180 224 274 325
#     4  10  20  36  59  85 111 142 182 226 272 323
#     4  11  24  38  54  80 113 147 183 224 270 323
#     4  10  22  38  56  79 110 148 184 221 269 324
#     4  10  21  37  58  83 109 141 182 226 271 319
#     4   9  19  37  59  83 109 139 181 228 271 320
#
# _framework density 19.017962000000001
#
# number of rings (size 3 to 8) (size 9 to 14) (size 15 to 20)
#    0.000    2.000    0.000    4.000    0.000    8.000 
#    0.000    3.333    0.000    0.000    0.000    0.000 
#    0.000    0.000    0.000    0.000    0.000    0.000 
#
# Total GULP energy -595397.076421 kJ/mol
# GULP energy per Si atom -12404.105759 kJ/mol
# Density = 1.897468 g / cm^3
# Si number density = 19.017962 Si / 1000 Ang^3
#
#
#
# Elastic Constant Matrix: (Units=GPa)
#
#
# Indices 1 2 3 4 5 6 
#
# 1 94.6681 70.6235 33.2918 0.0000 0.0000 0.0000
# 2 70.6235 139.1095 49.4451 0.0000 0.0000 0.0000
# 3 33.2918 49.4451 66.0964 0.0000 0.0000 0.0000
# 4 0.0000 0.0000 0.0000 29.9353 0.0000 0.0000
# 5 0.0000 0.0000 0.0000 0.0000 32.0944 0.0000
# 6 0.0000 0.0000 0.0000 0.0000 0.0000 65.3367
#
#
#
# Elastic Compliance Matrix: (Units=1/GPa)
#
#
# Indices 1 2 3 4 5 6 
#
# 1 0.017412 -0.007795 -0.002939 0.000000 0.000000 0.000000
# 2 -0.007795 0.013282 -0.006010 0.000000 0.000000 0.000000
# 3 -0.002939 -0.006010 0.021105 0.000000 0.000000 0.000000
# 4 0.000000 0.000000 0.000000 0.033405 0.000000 0.000000
# 5 0.000000 0.000000 0.000000 0.000000 0.031158 0.000000
# 6 0.000000 0.000000 0.000000 0.000000 0.000000 0.015305
#
#
# Mechanical properties :
#
#
# Convention : Reuss Voigt Hill
#
# Bulk Modulus (GPa) = 54.60862 67.39943 61.00403
# Shear Modulus (GPa) = 29.19539 35.24085 32.21812
#
# Velocity S-wave (km/s) = 3.92235 4.30935 4.12040
# Velocity P-wave (km/s) = 7.02066 7.76386 7.40159
#
# Compressibility (1/GPa) = 0.01831213
#
# Stress axis : x y z
#
# Youngs Moduli (GPa) = 57.43157 75.28870 47.38129
#
# Poissons Ratio (x) = 0.58689 0.13924
# Poissons Ratio (y) = 0.44769 0.28475
# Poissons Ratio (z) = 0.16878 0.45247
#
# Static dielectric constant tensor:
#      x y z
#    x 3.427480 0.000000 0.000000 
#    y 0.000000 3.674030 0.000000 
#    z 0.000000 0.000000 3.523530 
# 
# 
# High freq. dielectric constant tensor:
#      x y z
#    x 1.734270 0.000000 0.000000 
#    y 0.000000 1.754480 0.000000 
#    z 0.000000 0.000000 1.746890 
# 
# From -- ./inp_files/1974.got.cif
#   From: 2010.03.12/outbox.cif.g09.slc.cpg/sg57_1_cif.got.tgz:1974.got - 2010.04.16 15:48:40.
