data_PCOD8233124
_publ_section_title
;
Structure prediction by ZEFSAII (Michael W. Deem and Ramdas Pophale) SiO2 
 PCOD8233124
Probable space group: P B C M
;
_chemical_formula_sum "Si O2"
_cell_formula_units_Z 64
_cell_length_a 21.316175
_cell_length_b 18.079106
_cell_length_c 8.498956
_cell_angle_alpha 90.000000
_cell_angle_beta 90.000000
_cell_angle_gamma 90.000000
_cell_volume 3275.305458
_symmetry_space_group_name_H-M "P B C M"
_symmetry_group_IT_number 57
_symmetry_cell_setting 'orthorhombic'
loop_
_space_group_symop_operation_xyz
x,y,z
-x,-y,1/2+z
x,1/2-y,-z
-x,1/2+y,1/2-z
-x,-y,-z
x,y,1/2-z
-x,1/2+y,z
x,1/2-y,1/2+z
loop_
_atom_site_type_symbol
_atom_site_label
_atom_site_fract_x
_atom_site_fract_y
_atom_site_fract_z
Si Si1 0.313512 0.554456 0.067721
Si Si2 0.996989 0.670110 0.566947
Si Si3 0.109978 0.424322 0.569460
Si Si4 0.112648 0.915254 0.567185
Si Si5 0.564486 0.530423 0.564671
Si Si6 0.770068 0.331046 0.066621
Si Si7 0.250808 0.081182 0.431650
Si Si8 0.370918 0.330315 0.933636
O O1 0.314227 0.576443 0.250000
O O2 0.381031 0.525681 0.008666
O O3 0.295123 0.625924 0.965022
O O4 0.262477 0.489971 0.040224
O O5 0.979695 0.750000 0.500000
O O6 0.014279 0.674662 0.750000
O O7 0.936759 0.618063 0.545352
O O8 0.055393 0.638680 0.471021
O O9 0.089900 0.411213 0.750000
O O10 0.107063 0.511471 0.536986
O O11 0.179823 0.392127 0.538376
O O12 0.111446 0.936741 0.750000
O O13 0.176049 0.872477 0.528787
O O14 0.500000 0.500000 0.500000
O O15 0.561920 0.534654 0.750000
O O16 0.578501 0.612433 0.502093
O O17 0.786630 0.329163 0.250000
O O18 0.761986 0.250000 0.000000
O O19 0.260201 0.057356 0.250000
O O20 0.299675 0.145827 0.478282
O O21 0.380999 0.327953 0.750000
O O22 0.385176 0.250000 0.000000
#
# Coordination Sequence:
#
# PCOD8233124 Si02
#       8
#     8   8   8   8   8   8   8   8
#     4  10  20  36  59  87 119 152 193 239 287 346
#     4  12  26  44  61  82 114 154 197 249 305 360
#     4  11  22  39  62  90 119 154 198 244 295 356
#     4  12  24  41  63  88 116 152 197 246 298 358
#     4  10  21  38  62  91 122 161 204 247 292 349
#     4  12  24  39  60  88 120 155 194 243 299 356
#     4   9  19  35  58  85 117 154 193 237 290 348
#     4  10  20  36  58  88 123 161 201 248 297 348
#
# _framework density 19.540161999999999
#
# number of rings (size 3 to 8) (size 9 to 14) (size 15 to 20)
#    0.000    1.250    1.250    5.625    0.000    3.000 
#    0.000    1.875    0.000    3.000    0.000    0.000 
#    0.000    0.000    0.000    0.000    0.000    0.000 
#
# Total GULP energy -793928.807221 kJ/mol
# GULP energy per Si atom -12405.137613 kJ/mol
# Density = 1.949569 g / cm^3
# Si number density = 19.540162 Si / 1000 Ang^3
#
#
#
# Elastic Constant Matrix: (Units=GPa)
#
#
# Indices 1 2 3 4 5 6 
#
# 1 101.5443 58.3398 31.0062 0.0000 0.0000 0.0000
# 2 58.3398 132.5093 22.2288 0.0000 0.0000 0.0000
# 3 31.0062 22.2288 76.0032 0.0000 0.0000 0.0000
# 4 0.0000 0.0000 0.0000 33.4290 0.0000 0.0000
# 5 0.0000 0.0000 0.0000 0.0000 31.3803 0.0000
# 6 0.0000 0.0000 0.0000 0.0000 0.0000 64.2186
#
#
#
# Elastic Compliance Matrix: (Units=1/GPa)
#
#
# Indices 1 2 3 4 5 6 
#
# 1 0.014362 -0.005616 -0.004217 0.000000 0.000000 0.000000
# 2 -0.005616 0.010132 -0.000672 0.000000 0.000000 0.000000
# 3 -0.004217 -0.000672 0.015074 0.000000 0.000000 0.000000
# 4 0.000000 0.000000 0.000000 0.029914 0.000000 0.000000
# 5 0.000000 0.000000 0.000000 0.000000 0.031867 0.000000
# 6 0.000000 0.000000 0.000000 0.000000 0.000000 0.015572
#
#
# Mechanical properties :
#
#
# Convention : Reuss Voigt Hill
#
# Bulk Modulus (GPa) = 53.88334 59.24515 56.56425
# Shear Modulus (GPa) = 34.69420 39.03773 36.86596
#
# Velocity S-wave (km/s) = 4.21828 4.47455 4.34830
# Velocity P-wave (km/s) = 7.16664 7.55519 7.36348
#
# Compressibility (1/GPa) = 0.01855861
#
# Stress axis : x y z
#
# Youngs Moduli (GPa) = 69.62909 98.69871 66.33863
#
# Poissons Ratio (x) = 0.55426 0.27972
# Poissons Ratio (y) = 0.39102 0.04460
# Poissons Ratio (z) = 0.29360 0.06635
#
# Static dielectric constant tensor:
#      x y z
#    x 3.625570 0.000000 0.000000 
#    y 0.000000 3.586620 0.000000 
#    z 0.000000 0.000000 3.638850 
# 
# 
# High freq. dielectric constant tensor:
#      x y z
#    x 1.759290 0.000000 0.000000 
#    y 0.000000 1.758270 0.000000 
#    z 0.000000 0.000000 1.774080 
# 
# From -- ./inp_files/8433.got.cif
#   From: 2010.03.12/outbox.cif.g09.slc.cpg/sg57_5_cif.got.tgz:8433.got - 2010.04.16 15:48:40.
