data_PCOD8233485
_publ_section_title
;
Structure prediction by ZEFSAII (Michael W. Deem and Ramdas Pophale) SiO2 
 PCOD8233485
Probable space group: P B C M
;
_chemical_formula_sum "Si O2"
_cell_formula_units_Z 48
_cell_length_a 14.321866
_cell_length_b 20.482757
_cell_length_c 8.824272
_cell_angle_alpha 90.000000
_cell_angle_beta 90.000000
_cell_angle_gamma 90.000000
_cell_volume 2588.611672
_symmetry_space_group_name_H-M "P B C M"
_symmetry_group_IT_number 57
_symmetry_cell_setting 'orthorhombic'
loop_
_space_group_symop_operation_xyz
x,y,z
-x,-y,1/2+z
x,1/2-y,-z
-x,1/2+y,1/2-z
-x,-y,-z
x,y,1/2-z
-x,1/2+y,z
x,1/2-y,1/2+z
loop_
_atom_site_type_symbol
_atom_site_label
_atom_site_fract_x
_atom_site_fract_y
_atom_site_fract_z
Si Si1 0.752533 0.127765 0.570130
Si Si2 0.743082 0.519430 0.424979
Si Si3 0.950514 0.938221 0.573956
Si Si4 0.441774 0.058259 0.928480
Si Si5 0.557817 0.182554 0.928909
Si Si6 0.051226 0.681391 0.930298
O O1 0.754045 0.125366 0.750000
O O2 0.661344 0.165209 0.509029
O O3 0.844687 0.164351 0.510281
O O4 0.752176 0.053756 0.508571
O O5 0.712421 0.516922 0.250000
O O6 0.839746 0.556917 0.446790
O O7 0.664927 0.558185 0.517821
O O8 0.978515 0.935468 0.750000
O O9 0.980145 0.872835 0.489077
O O10 0.000000 0.000000 0.500000
O O11 0.447564 0.050359 0.750000
O O12 0.486512 0.126570 0.981066
O O13 0.500000 0.000000 0.000000
O O14 0.559824 0.189830 0.750000
O O15 0.523140 0.250000 0.000000
O O16 0.046298 0.684308 0.750000
O O17 0.020010 0.750000 0.000000
#
# Coordination Sequence:
#
# PCOD8233485 Si02
#       6
#     8   8   8   8   8   8
#     4   9  17  34  57  83 118 151 180 232 293 341
#     4  10  20  38  60  85 117 150 190 241 292 340
#     4  11  22  38  61  87 117 156 197 242 295 351
#     4  11  22  37  59  86 116 152 193 239 286 343
#     4  10  21  37  56  81 116 150 187 230 282 340
#     4  11  22  38  59  86 121 158 195 241 295 353
#
# _framework density 18.542757000000002
#
# number of rings (size 3 to 8) (size 9 to 14) (size 15 to 20)
#    0.000    1.667    3.333    2.000    0.000    2.667 
#    0.000    1.667    0.000    2.000    0.000    0.000 
#    0.000    0.000    0.000    0.000    0.000    0.000 
#
# Total GULP energy -595373.732855 kJ/mol
# GULP energy per Si atom -12403.619434 kJ/mol
# Density = 1.850055 g / cm^3
# Si number density = 18.542757 Si / 1000 Ang^3
#
#
#
# Elastic Constant Matrix: (Units=GPa)
#
#
# Indices 1 2 3 4 5 6 
#
# 1 99.9597 63.5414 41.0929 0.0000 0.0000 0.0000
# 2 63.5414 169.7827 52.0320 0.0000 0.0000 0.0000
# 3 41.0929 52.0320 67.9919 0.0000 0.0000 0.0000
# 4 0.0000 0.0000 0.0000 33.3607 0.0000 0.0000
# 5 0.0000 0.0000 0.0000 0.0000 30.8090 0.0000
# 6 0.0000 0.0000 0.0000 0.0000 0.0000 30.9146
#
#
#
# Elastic Compliance Matrix: (Units=1/GPa)
#
#
# Indices 1 2 3 4 5 6 
#
# 1 0.014881 -0.003675 -0.006182 0.000000 0.000000 0.000000
# 2 -0.003675 0.008602 -0.004362 0.000000 0.000000 0.000000
# 3 -0.006182 -0.004362 0.021782 0.000000 0.000000 0.000000
# 4 0.000000 0.000000 0.000000 0.029975 0.000000 0.000000
# 5 0.000000 0.000000 0.000000 0.000000 0.032458 0.000000
# 6 0.000000 0.000000 0.000000 0.000000 0.000000 0.032347
#
#
# Mechanical properties :
#
#
# Convention : Reuss Voigt Hill
#
# Bulk Modulus (GPa) = 59.42404 72.34077 65.88240
# Shear Modulus (GPa) = 28.72053 31.08806 29.90430
#
# Velocity S-wave (km/s) = 3.93985 4.09902 4.02023
# Velocity P-wave (km/s) = 7.26727 7.84221 7.56021
#
# Compressibility (1/GPa) = 0.01682821
#
# Stress axis : x y z
#
# Youngs Moduli (GPa) = 67.19837 116.25302 45.91031
#
# Poissons Ratio (x) = 0.42722 0.28380
# Poissons Ratio (y) = 0.24695 0.20025
# Poissons Ratio (z) = 0.41540 0.50707
#
# Static dielectric constant tensor:
#      x y z
#    x 3.553230 0.000000 0.000000 
#    y 0.000000 3.455560 0.000000 
#    z 0.000000 0.000000 3.305940 
# 
# 
# High freq. dielectric constant tensor:
#      x y z
#    x 1.722050 0.000000 0.000000 
#    y 0.000000 1.722330 0.000000 
#    z 0.000000 0.000000 1.709890 
# 
# From -- ./inp_files/4925.got.cif
#   From: 2010.03.12/outbox.cif.g09.slc.cpg/sg57_3_cif.got.tgz:4925.got - 2010.04.16 15:48:40.
