data_PCOD8233370
_publ_section_title
;
Structure prediction by ZEFSAII (Michael W. Deem and Ramdas Pophale) SiO2 
 PCOD8233370
Probable space group: P B C M
;
_chemical_formula_sum "Si O2"
_cell_formula_units_Z 56
_cell_length_a 20.964295
_cell_length_b 15.387925
_cell_length_c 8.896293
_cell_angle_alpha 90.000000
_cell_angle_beta 90.000000
_cell_angle_gamma 90.000000
_cell_volume 2869.917425
_symmetry_space_group_name_H-M "P B C M"
_symmetry_group_IT_number 57
_symmetry_cell_setting 'orthorhombic'
loop_
_space_group_symop_operation_xyz
x,y,z
-x,-y,1/2+z
x,1/2-y,-z
-x,1/2+y,1/2-z
-x,-y,-z
x,y,1/2-z
-x,1/2+y,z
x,1/2-y,1/2+z
loop_
_atom_site_type_symbol
_atom_site_label
_atom_site_fract_x
_atom_site_fract_y
_atom_site_fract_z
Si Si1 0.372752 0.162540 0.075540
Si Si2 0.918284 0.160382 0.927373
Si Si3 0.850740 0.999317 0.072481
Si Si4 0.283299 0.493564 0.574268
Si Si5 0.935970 0.838802 0.073712
Si Si6 0.509027 0.092950 0.072945
Si Si7 0.635597 0.337755 0.073577
O O1 0.361911 0.173971 0.250000
O O2 0.446659 0.149253 0.035581
O O3 0.332844 0.079549 0.019332
O O4 0.346730 0.250000 0.000000
O O5 0.909950 0.166712 0.750000
O O6 0.991311 0.141793 0.974764
O O7 0.894484 0.250000 0.000000
O O8 0.874061 0.084926 0.989255
O O9 0.856830 0.012575 0.250000
O O10 0.893183 0.918371 0.016244
O O11 0.778601 0.980854 0.026769
O O12 0.266225 0.484653 0.750000
O O13 0.313985 0.586830 0.539789
O O14 0.929927 0.826369 0.250000
O O15 0.910808 0.750000 0.000000
O O16 0.519099 0.081279 0.250000
O O17 0.568060 0.142364 0.001263
O O18 0.500000 0.000000 0.000000
O O19 0.624662 0.325249 0.250000
O O20 0.663499 0.250000 0.000000
#
# Coordination Sequence:
#
# PCOD8233370 Si02
#       7
#     8   8   8   8   8   8   8
#     4  10  22  40  60  85 115 151 192 237 289 345
#     4  10  20  37  61  88 118 154 191 236 292 343
#     4  11  23  38  58  87 119 153 197 241 288 346
#     4  10  23  43  59  78 116 159 198 241 290 345
#     4   9  20  37  59  88 120 152 192 239 287 344
#     4  11  21  37  62  90 120 153 190 240 297 350
#     4  11  23  41  62  87 117 151 195 244 295 354
#
# _framework density 19.512756
#
# number of rings (size 3 to 8) (size 9 to 14) (size 15 to 20)
#    0.000    1.714    1.429    2.571    0.000    6.857 
#    0.000    4.286    0.000    0.000    0.000    0.000 
#    0.000    0.000    0.000    0.000    0.000    0.000 
#
# Total GULP energy -694673.201755 kJ/mol
# GULP energy per Si atom -12404.878603 kJ/mol
# Density = 1.946834 g / cm^3
# Si number density = 19.512756 Si / 1000 Ang^3
#
#
#
# Elastic Constant Matrix: (Units=GPa)
#
#
# Indices 1 2 3 4 5 6 
#
# 1 65.7203 18.9792 32.1121 0.0000 0.0000 0.0000
# 2 18.9792 114.9848 41.2345 0.0000 0.0000 0.0000
# 3 32.1121 41.2345 67.9698 0.0000 0.0000 0.0000
# 4 0.0000 0.0000 0.0000 40.3526 0.0000 0.0000
# 5 0.0000 0.0000 0.0000 0.0000 31.6762 0.0000
# 6 0.0000 0.0000 0.0000 0.0000 0.0000 8.7159
#
#
#
# Elastic Compliance Matrix: (Units=1/GPa)
#
#
# Indices 1 2 3 4 5 6 
#
# 1 0.019784 0.000110 -0.009414 0.000000 0.000000 0.000000
# 2 0.000110 0.011115 -0.006795 0.000000 0.000000 0.000000
# 3 -0.009414 -0.006795 0.023282 0.000000 0.000000 0.000000
# 4 0.000000 0.000000 0.000000 0.024782 0.000000 0.000000
# 5 0.000000 0.000000 0.000000 0.000000 0.031569 0.000000
# 6 0.000000 0.000000 0.000000 0.000000 0.000000 0.114732
#
#
# Mechanical properties :
#
#
# Convention : Reuss Voigt Hill
#
# Bulk Modulus (GPa) = 45.48748 48.14739 46.81744
# Shear Modulus (GPa) = 18.88283 26.57222 22.72752
#
# Velocity S-wave (km/s) = 3.11419 3.69424 3.41655
# Velocity P-wave (km/s) = 6.02438 6.55172 6.29357
#
# Compressibility (1/GPa) = 0.02198407
#
# Stress axis : x y z
#
# Youngs Moduli (GPa) = 50.54617 89.96457 42.95076
#
# Poissons Ratio (x) = -0.00993 0.40433
# Poissons Ratio (y) = -0.00558 0.29187
# Poissons Ratio (z) = 0.47583 0.61135
#
# Static dielectric constant tensor:
#      x y z
#    x 3.774110 0.000000 0.000000 
#    y 0.000000 3.811590 0.000000 
#    z 0.000000 0.000000 3.558040 
# 
# 
# High freq. dielectric constant tensor:
#      x y z
#    x 1.755940 0.000000 0.000000 
#    y 0.000000 1.775910 0.000000 
#    z 0.000000 0.000000 1.763230 
# 
# From -- ./inp_files/8009.got.cif
#   From: 2010.03.12/outbox.cif.g09.slc.cpg/sg57_5_cif.got.tgz:8009.got - 2010.04.16 15:48:40.
