data_PCOD8233975
_publ_section_title
;
Structure prediction by ZEFSAII (Michael W. Deem and Ramdas Pophale) SiO2 
 PCOD8233975
Probable space group: P B C M
;
_chemical_formula_sum "Si O2"
_cell_formula_units_Z 40
_cell_length_a 9.030953
_cell_length_b 25.591376
_cell_length_c 8.868393
_cell_angle_alpha 90.000000
_cell_angle_beta 90.000000
_cell_angle_gamma 90.000000
_cell_volume 2049.614337
_symmetry_space_group_name_H-M "P B C M"
_symmetry_group_IT_number 57
_symmetry_cell_setting 'orthorhombic'
loop_
_space_group_symop_operation_xyz
x,y,z
-x,-y,1/2+z
x,1/2-y,-z
-x,1/2+y,1/2-z
-x,-y,-z
x,y,1/2-z
-x,1/2+y,z
x,1/2-y,1/2+z
loop_
_atom_site_type_symbol
_atom_site_label
_atom_site_fract_x
_atom_site_fract_y
_atom_site_fract_z
Si Si1 0.169965 0.601926 0.076907
Si Si2 0.329885 0.803897 0.074090
Si Si3 0.176144 0.098488 0.425143
Si Si4 0.668999 0.804717 0.071795
Si Si5 0.660031 0.997989 0.071702
O O1 0.206245 0.614707 0.250000
O O2 0.253687 0.550021 0.023199
O O3 0.997768 0.592542 0.050316
O O4 0.223535 0.650053 0.977786
O O5 0.312557 0.796279 0.250000
O O6 0.498835 0.817431 0.029786
O O7 0.277333 0.750000 0.000000
O O8 0.220344 0.097668 0.250000
O O9 0.227279 0.152258 0.498357
O O10 0.253288 0.051231 0.509200
O O11 0.694218 0.802856 0.250000
O O12 0.717507 0.750000 0.000000
O O13 0.646446 0.992355 0.250000
O O14 0.500000 0.000000 0.000000
#
# Coordination Sequence:
#
# PCOD8233975 Si02
#       5
#     8   8   8   8   8
#     4  10  23  40  58  83 117 153 190 233 285 340
#     4  10  21  37  60  86 114 149 191 236 283 336
#     4  11  23  39  59  85 117 153 191 235 285 340
#     4  10  21  38  60  87 116 151 194 239 286 339
#     4  11  23  40  62  87 115 150 191 237 286 341
#
# _framework density 19.515865999999999
#
# number of rings (size 3 to 8) (size 9 to 14) (size 15 to 20)
#    0.000    1.600    0.000    4.200    0.000    9.600 
#    0.000    0.000    0.000    0.000    0.000    0.000 
#    0.000    0.000    0.000    0.000    0.000    0.000 
#
# Total GULP energy -496252.215746 kJ/mol
# GULP energy per Si atom -12406.305394 kJ/mol
# Density = 1.947145 g / cm^3
# Si number density = 19.515866 Si / 1000 Ang^3
#
#
#
# Elastic Constant Matrix: (Units=GPa)
#
#
# Indices 1 2 3 4 5 6 
#
# 1 98.2371 69.9491 53.3292 0.0000 0.0000 0.0000
# 2 69.9491 159.2924 68.5728 0.0000 0.0000 0.0000
# 3 53.3292 68.5728 97.9503 0.0000 0.0000 0.0000
# 4 0.0000 0.0000 0.0000 42.0492 0.0000 0.0000
# 5 0.0000 0.0000 0.0000 0.0000 33.8012 0.0000
# 6 0.0000 0.0000 0.0000 0.0000 0.0000 111.2382
#
#
#
# Elastic Compliance Matrix: (Units=1/GPa)
#
#
# Indices 1 2 3 4 5 6 
#
# 1 0.016766 -0.004914 -0.005688 0.000000 0.000000 0.000000
# 2 -0.004914 0.010426 -0.004624 0.000000 0.000000 0.000000
# 3 -0.005688 -0.004624 0.016543 0.000000 0.000000 0.000000
# 4 0.000000 0.000000 0.000000 0.023782 0.000000 0.000000
# 5 0.000000 0.000000 0.000000 0.000000 0.029585 0.000000
# 6 0.000000 0.000000 0.000000 0.000000 0.000000 0.008990
#
#
# Mechanical properties :
#
#
# Convention : Reuss Voigt Hill
#
# Bulk Modulus (GPa) = 75.27964 82.13136 78.70550
# Shear Modulus (GPa) = 35.46826 48.32629 41.89728
#
# Velocity S-wave (km/s) = 4.26773 4.98160 4.63842
# Velocity P-wave (km/s) = 7.93360 8.67549 8.31283
#
# Compressibility (1/GPa) = 0.01328380
#
# Stress axis : x y z
#
# Youngs Moduli (GPa) = 59.64361 95.91511 60.44750
#
# Poissons Ratio (x) = 0.47130 0.34385
# Poissons Ratio (y) = 0.29307 0.27949
# Poissons Ratio (z) = 0.33928 0.44348
#
# Static dielectric constant tensor:
#      x y z
#    x 3.728700 0.000000 0.000000 
#    y 0.000000 3.294130 0.000000 
#    z 0.000000 0.000000 3.692990 
# 
# 
# High freq. dielectric constant tensor:
#      x y z
#    x 1.765360 0.000000 0.000000 
#    y 0.000000 1.776780 0.000000 
#    z 0.000000 0.000000 1.773600 
# 
# From -- ./inp_files/1482.got.cif
#   From: 2010.03.12/outbox.cif.g09.slc.cpg/sg57_1_cif.got.tgz:1482.got - 2010.04.16 15:48:40.
