data_PCOD8233237
_publ_section_title
;
Structure prediction by ZEFSAII (Michael W. Deem and Ramdas Pophale) SiO2 
 PCOD8233237
Probable space group: P B C M
;
_chemical_formula_sum "Si O2"
_cell_formula_units_Z 32
_cell_length_a 10.039289
_cell_length_b 8.765162
_cell_length_c 18.261758
_cell_angle_alpha 90.000000
_cell_angle_beta 90.000000
_cell_angle_gamma 90.000000
_cell_volume 1606.961556
_symmetry_space_group_name_H-M "P B C M"
_symmetry_group_IT_number 57
_symmetry_cell_setting 'orthorhombic'
loop_
_space_group_symop_operation_xyz
x,y,z
-x,-y,1/2+z
x,1/2-y,-z
-x,1/2+y,1/2-z
-x,-y,-z
x,y,1/2-z
-x,1/2+y,z
x,1/2-y,1/2+z
loop_
_atom_site_type_symbol
_atom_site_label
_atom_site_fract_x
_atom_site_fract_y
_atom_site_fract_z
Si Si1 0.950821 0.747088 0.167453
Si Si2 0.802832 0.066058 0.834180
Si Si3 0.633454 0.418890 0.024385
Si Si4 0.124088 0.413966 0.464963
O O1 0.910532 0.783524 0.250000
O O2 0.901351 0.577198 0.145541
O O3 0.882369 0.881322 0.121328
O O4 0.111027 0.776944 0.155872
O O5 0.751670 0.051391 0.750000
O O6 0.676143 0.065696 0.889353
O O7 0.608659 0.250000 0.000000
O O8 0.500000 0.500000 0.000000
O O9 0.748781 0.483270 0.974359
O O10 0.139212 0.250000 0.500000
O O11 0.000000 0.500000 0.500000
#
# Coordination Sequence:
#
# PCOD8233237 Si02
#       4
#     8   8   8   8
#     4  10  20  36  63  98 130 163 207 265 324 380
#     4  10  22  41  66  98 133 167 212 270 330 390
#     4  12  27  44  64  91 128 175 221 270 325 388
#     4  12  21  37  64  96 129 163 213 268 323 382
#
# _framework density 19.913357999999999
#
# number of rings (size 3 to 8) (size 9 to 14) (size 15 to 20)
#    0.000    1.000    5.000    1.500    3.500    0.000 
#    0.000    2.500    0.000    0.000    0.000    0.000 
#    0.000    0.000    0.000    0.000    0.000    0.000 
#
# Total GULP energy -396422.207587 kJ/mol
# GULP energy per Si atom -12388.193987 kJ/mol
# Density = 1.986803 g / cm^3
# Si number density = 19.913358 Si / 1000 Ang^3
#
#
#
# Elastic Constant Matrix: (Units=GPa)
#
#
# Indices 1 2 3 4 5 6 
#
# 1 142.6085 61.9749 57.5160 0.0000 0.0000 0.0000
# 2 61.9749 123.9478 48.1511 0.0000 0.0000 0.0000
# 3 57.5160 48.1511 130.5032 0.0000 0.0000 0.0000
# 4 0.0000 0.0000 0.0000 33.2283 0.0000 0.0000
# 5 0.0000 0.0000 0.0000 0.0000 32.4613 0.0000
# 6 0.0000 0.0000 0.0000 0.0000 0.0000 35.0107
#
#
#
# Elastic Compliance Matrix: (Units=1/GPa)
#
#
# Indices 1 2 3 4 5 6 
#
# 1 0.009841 -0.003777 -0.002943 0.000000 0.000000 0.000000
# 2 -0.003777 0.010867 -0.002345 0.000000 0.000000 0.000000
# 3 -0.002943 -0.002345 0.009825 0.000000 0.000000 0.000000
# 4 0.000000 0.000000 0.000000 0.030095 0.000000 0.000000
# 5 0.000000 0.000000 0.000000 0.000000 0.030806 0.000000
# 6 0.000000 0.000000 0.000000 0.000000 0.000000 0.028563
#
#
# Mechanical properties :
#
#
# Convention : Reuss Voigt Hill
#
# Bulk Modulus (GPa) = 80.63055 81.37150 81.00102
# Shear Modulus (GPa) = 35.14638 35.43454 35.29046
#
# Velocity S-wave (km/s) = 4.20571 4.22291 4.21432
# Velocity P-wave (km/s) = 8.01015 8.04542 8.02781
#
# Compressibility (1/GPa) = 0.01240225
#
# Stress axis : x y z
#
# Youngs Moduli (GPa) = 101.61823 92.01788 101.77925
#
# Poissons Ratio (x) = 0.34755 0.29959
# Poissons Ratio (y) = 0.38381 0.23868
# Poissons Ratio (z) = 0.29911 0.21579
#
# Static dielectric constant tensor:
#      x y z
#    x 2.941930 0.000000 0.000000 
#    y 0.000000 3.747960 0.000000 
#    z 0.000000 0.000000 4.005400 
# 
# 
# High freq. dielectric constant tensor:
#      x y z
#    x 1.737780 0.000000 0.000000 
#    y 0.000000 1.793940 0.000000 
#    z 0.000000 0.000000 1.800020 
# 
# From -- ./inp_files/23943.got.cif
#   From: 2010.03.12/outbox.cif.g09.slc.cpg/sg57_12_cif.got.tgz:23943.got - 2010.04.16 15:48:40.
