data_PCOD8233185
_publ_section_title
;
Structure prediction by ZEFSAII (Michael W. Deem and Ramdas Pophale) SiO2 
 PCOD8233185
Probable space group: P B C M
;
_chemical_formula_sum "Si O2"
_cell_formula_units_Z 48
_cell_length_a 13.672235
_cell_length_b 19.057539
_cell_length_c 8.770116
_cell_angle_alpha 90.000000
_cell_angle_beta 90.000000
_cell_angle_gamma 90.000000
_cell_volume 2285.133986
_symmetry_space_group_name_H-M "P B C M"
_symmetry_group_IT_number 57
_symmetry_cell_setting 'orthorhombic'
loop_
_space_group_symop_operation_xyz
x,y,z
-x,-y,1/2+z
x,1/2-y,-z
-x,1/2+y,1/2-z
-x,-y,-z
x,y,1/2-z
-x,1/2+y,z
x,1/2-y,1/2+z
loop_
_atom_site_type_symbol
_atom_site_label
_atom_site_fract_x
_atom_site_fract_y
_atom_site_fract_z
Si Si1 0.406598 0.929973 0.428115
Si Si2 0.920741 0.316006 0.917965
Si Si3 0.395572 0.411708 0.569863
Si Si4 0.203386 0.328876 0.567392
Si Si5 0.031055 0.425993 0.070370
Si Si6 0.304949 0.815916 0.583463
O O1 0.421322 0.930511 0.250000
O O2 0.499942 0.889530 0.501313
O O3 0.314032 0.884725 0.479547
O O4 0.383762 0.007986 0.489353
O O5 0.969107 0.327910 0.750000
O O6 0.808150 0.300062 0.894750
O O7 0.973091 0.250000 0.000000
O O8 0.935139 0.380916 0.031675
O O9 0.400291 0.409102 0.750000
O O10 0.307626 0.361732 0.512509
O O11 0.192021 0.250000 0.500000
O O12 0.197755 0.324775 0.750000
O O13 0.121531 0.384073 0.507936
O O14 0.050424 0.433783 0.250000
O O15 0.000000 0.500000 0.000000
O O16 0.355877 0.750000 0.500000
O O17 0.353579 0.826545 0.750000
#
# Coordination Sequence:
#
# PCOD8233185 Si02
#       6
#     8   8   8   8   8   8
#     4  10  20  36  60  89 122 161 205 257 310 363
#     4  10  21  39  61  88 120 160 202 247 303 361
#     4   9  21  40  61  87 120 163 208 253 307 367
#     4  11  24  44  67  94 127 167 213 262 317 377
#     4  12  26  43  64  92 124 161 205 256 309 370
#     4  10  21  36  57  86 119 156 198 246 297 359
#
# _framework density 21.005333
#
# number of rings (size 3 to 8) (size 9 to 14) (size 15 to 20)
#    0.000    1.667    0.000    4.000    2.333    4.667 
#    0.000    1.667    0.000    0.000    0.000    0.000 
#    0.000    0.000    0.000    0.000    0.000    0.000 
#
# Total GULP energy -594744.612177 kJ/mol
# GULP energy per Si atom -12390.512754 kJ/mol
# Density = 2.095752 g / cm^3
# Si number density = 21.005333 Si / 1000 Ang^3
#
#
#
# Elastic Constant Matrix: (Units=GPa)
#
#
# Indices 1 2 3 4 5 6 
#
# 1 67.9176 47.3147 36.4166 0.0000 0.0000 0.0000
# 2 47.3147 149.5493 53.9039 0.0000 0.0000 0.0000
# 3 36.4166 53.9039 88.7047 0.0000 0.0000 0.0000
# 4 0.0000 0.0000 0.0000 39.1946 0.0000 0.0000
# 5 0.0000 0.0000 0.0000 0.0000 30.7259 0.0000
# 6 0.0000 0.0000 0.0000 0.0000 0.0000 30.4295
#
#
#
# Elastic Compliance Matrix: (Units=1/GPa)
#
#
# Indices 1 2 3 4 5 6 
#
# 1 0.021037 -0.004536 -0.005880 0.000000 0.000000 0.000000
# 2 -0.004536 0.009540 -0.003935 0.000000 0.000000 0.000000
# 3 -0.005880 -0.003935 0.016078 0.000000 0.000000 0.000000
# 4 0.000000 0.000000 0.000000 0.025514 0.000000 0.000000
# 5 0.000000 0.000000 0.000000 0.000000 0.032546 0.000000
# 6 0.000000 0.000000 0.000000 0.000000 0.000000 0.032863
#
#
# Mechanical properties :
#
#
# Convention : Reuss Voigt Hill
#
# Bulk Modulus (GPa) = 55.70058 64.60468 60.15263
# Shear Modulus (GPa) = 29.02514 31.30574 30.16544
#
# Velocity S-wave (km/s) = 3.72129 3.86472 3.79368
# Velocity P-wave (km/s) = 6.71110 7.12305 6.92014
#
# Compressibility (1/GPa) = 0.01795313
#
# Stress axis : x y z
#
# Youngs Moduli (GPa) = 47.53632 104.81796 62.19491
#
# Poissons Ratio (x) = 0.47549 0.36569
# Poissons Ratio (y) = 0.21564 0.24475
# Poissons Ratio (z) = 0.27950 0.41247
#
# Static dielectric constant tensor:
#      x y z
#    x 3.782470 0.000000 0.000000 
#    y 0.000000 4.032640 0.000000 
#    z 0.000000 0.000000 4.043060 
# 
# 
# High freq. dielectric constant tensor:
#      x y z
#    x 1.815540 0.000000 0.000000 
#    y 0.000000 1.830850 0.000000 
#    z 0.000000 0.000000 1.833600 
# 
# From -- ./inp_files/4570.got.cif
#   From: 2010.03.12/outbox.cif.g09.slc.cpg/sg57_3_cif.got.tgz:4570.got - 2010.04.16 15:48:40.
