data_PCOD8233985
_publ_section_title
;
Structure prediction by ZEFSAII (Michael W. Deem and Ramdas Pophale) SiO2 
 PCOD8233985
Probable space group: P B C M
;
_chemical_formula_sum "Si O2"
_cell_formula_units_Z 64
_cell_length_a 29.529303
_cell_length_b 5.388085
_cell_length_c 18.557014
_cell_angle_alpha 90.000000
_cell_angle_beta 90.000000
_cell_angle_gamma 90.000000
_cell_volume 2952.539591
_symmetry_space_group_name_H-M "P B C M"
_symmetry_group_IT_number 57
_symmetry_cell_setting 'orthorhombic'
loop_
_space_group_symop_operation_xyz
x,y,z
-x,-y,1/2+z
x,1/2-y,-z
-x,1/2+y,1/2-z
-x,-y,-z
x,y,1/2-z
-x,1/2+y,z
x,1/2-y,1/2+z
loop_
_atom_site_type_symbol
_atom_site_label
_atom_site_fract_x
_atom_site_fract_y
_atom_site_fract_z
Si Si1 0.173051 0.255808 0.916457
Si Si2 0.025664 0.729549 0.335158
Si Si3 0.314473 0.627330 0.429043
Si Si4 0.472028 0.588203 0.167498
Si Si5 0.118988 0.753797 0.583418
Si Si6 0.259552 0.178668 0.831109
Si Si7 0.401859 0.360427 0.072546
Si Si8 0.647767 0.981707 0.830536
O O1 0.141208 0.488828 0.897919
O O2 0.216332 0.309826 0.866171
O O3 0.150473 0.990594 0.897080
O O4 0.187757 0.250000 0.000000
O O5 0.031719 0.728401 0.250000
O O6 0.074600 0.718067 0.369710
O O7 0.998845 0.482957 0.360806
O O8 0.293239 0.750000 0.500000
O O9 0.270802 0.552933 0.382566
O O10 0.350693 0.423558 0.454752
O O11 0.348073 0.780947 0.379344
O O12 0.453866 0.583804 0.250000
O O13 0.497747 0.844537 0.152490
O O14 0.431701 0.579611 0.108122
O O15 0.105329 0.750000 0.500000
O O16 0.248309 0.089898 0.750000
O O17 0.303668 0.348183 0.831817
O O18 0.394823 0.169916 0.138784
O O19 0.425614 0.250000 0.000000
O O20 0.634675 0.060968 0.750000
#
# Coordination Sequence:
#
# PCOD8233985 Si02
#       8
#     8   8   8   8   8   8   8   8
#     4  10  23  39  61  87 123 166 208 258 313 373
#     4  10  21  37  60  89 120 156 200 253 315 376
#     4  11  23  38  65  92 124 164 207 261 317 378
#     4  10  24  44  66  94 128 169 211 254 313 379
#     4  10  22  40  59  89 122 160 209 254 311 378
#     4  10  24  40  59  90 122 162 215 262 313 375
#     4  11  23  40  62  94 126 160 208 255 317 377
#     4  10  22  40  61  89 123 159 205 262 310 370
#
# _framework density 21.676254
#
# number of rings (size 3 to 8) (size 9 to 14) (size 15 to 20)
#    0.000    1.750    1.250    1.500    5.250    4.000 
#    0.000    0.000    0.000    0.000    0.000    0.000 
#    0.000    0.000    0.000    0.000    0.000    0.000 
#
# Total GULP energy -793247.304933 kJ/mol
# GULP energy per Si atom -12394.489140 kJ/mol
# Density = 2.162692 g / cm^3
# Si number density = 21.676254 Si / 1000 Ang^3
#
#
#
# Elastic Constant Matrix: (Units=GPa)
#
#
# Indices 1 2 3 4 5 6 
#
# 1 88.2515 22.7926 40.8838 0.0000 0.0000 0.0000
# 2 22.7926 108.5710 24.0057 0.0000 0.0000 0.0000
# 3 40.8838 24.0057 114.9434 0.0000 0.0000 0.0000
# 4 0.0000 0.0000 0.0000 26.3797 0.0000 0.0000
# 5 0.0000 0.0000 0.0000 0.0000 52.7810 0.0000
# 6 0.0000 0.0000 0.0000 0.0000 0.0000 28.8256
#
#
#
# Elastic Compliance Matrix: (Units=1/GPa)
#
#
# Indices 1 2 3 4 5 6 
#
# 1 0.013938 -0.001918 -0.004557 0.000000 0.000000 0.000000
# 2 -0.001918 0.009921 -0.001390 0.000000 0.000000 0.000000
# 3 -0.004557 -0.001390 0.010611 0.000000 0.000000 0.000000
# 4 0.000000 0.000000 0.000000 0.037908 0.000000 0.000000
# 5 0.000000 0.000000 0.000000 0.000000 0.018946 0.000000
# 6 0.000000 0.000000 0.000000 0.000000 0.000000 0.034691
#
#
# Mechanical properties :
#
#
# Convention : Reuss Voigt Hill
#
# Bulk Modulus (GPa) = 53.36272 54.12554 53.74413
# Shear Modulus (GPa) = 33.78585 36.53616 35.16101
#
# Velocity S-wave (km/s) = 3.95227 4.10998 4.03190
# Velocity P-wave (km/s) = 6.74527 6.89542 6.82076
#
# Compressibility (1/GPa) = 0.01873967
#
# Stress axis : x y z
#
# Youngs Moduli (GPa) = 71.74768 100.80096 94.24252
#
# Poissons Ratio (x) = 0.19338 0.42944
# Poissons Ratio (y) = 0.13764 0.13095
# Poissons Ratio (z) = 0.32694 0.14006
#
# Static dielectric constant tensor:
#      x y z
#    x 3.657620 0.000000 0.000000 
#    y 0.000000 4.119660 0.000000 
#    z 0.000000 0.000000 4.010660 
# 
# 
# High freq. dielectric constant tensor:
#      x y z
#    x 1.841160 0.000000 0.000000 
#    y 0.000000 1.858200 0.000000 
#    z 0.000000 0.000000 1.859310 
# 
# From -- ./inp_files/23182.got.cif
#   From: 2010.03.12/outbox.cif.g09.slc.cpg/sg57_12_cif.got.tgz:23182.got - 2010.04.16 15:48:40.
