data_PCOD8233312
_publ_section_title
;
Structure prediction by ZEFSAII (Michael W. Deem and Ramdas Pophale) SiO2 
 PCOD8233312
Probable space group: P B C M
;
_chemical_formula_sum "Si O2"
_cell_formula_units_Z 48
_cell_length_a 17.878757
_cell_length_b 7.467532
_cell_length_c 14.996117
_cell_angle_alpha 90.000000
_cell_angle_beta 90.000000
_cell_angle_gamma 90.000000
_cell_volume 2002.134430
_symmetry_space_group_name_H-M "P B C M"
_symmetry_group_IT_number 57
_symmetry_cell_setting 'orthorhombic'
loop_
_space_group_symop_operation_xyz
x,y,z
-x,-y,1/2+z
x,1/2-y,-z
-x,1/2+y,1/2-z
-x,-y,-z
x,y,1/2-z
-x,1/2+y,z
x,1/2-y,1/2+z
loop_
_atom_site_type_symbol
_atom_site_label
_atom_site_fract_x
_atom_site_fract_y
_atom_site_fract_z
Si Si1 0.445343 0.360715 0.651206
Si Si2 0.812848 0.504202 0.353501
Si Si3 0.323332 0.045395 0.477829
Si Si4 0.920688 0.804350 0.401942
Si Si5 0.921910 0.193792 0.348663
Si Si6 0.391659 0.956645 0.849054
O O1 0.434999 0.447615 0.750000
O O2 0.400778 0.475712 0.577633
O O3 0.533306 0.345674 0.629171
O O4 0.412373 0.163918 0.649871
O O5 0.789366 0.483823 0.250000
O O6 0.742027 0.468273 0.416164
O O7 0.846712 0.702739 0.367671
O O8 0.874330 0.360302 0.385169
O O9 0.303954 0.250000 0.500000
O O10 0.331848 0.929365 0.570166
O O11 0.943777 0.750000 0.500000
O O12 0.991607 0.752782 0.341957
O O13 0.905893 0.016782 0.405888
O O14 0.895073 0.144346 0.250000
O O15 0.359267 0.906016 0.750000
#
# Coordination Sequence:
#
# PCOD8233312 Si02
#       6
#     8   8   8   8   8   8
#     4   9  17  32  59  89 122 161 211 268 325 394
#     4  11  24  41  67  96 134 183 228 280 347 409
#     4  10  20  37  59  89 129 173 221 266 339 405
#     4  12  24  41  69 102 134 172 221 288 348 408
#     4  11  23  41  69 103 133 172 227 282 339 408
#     4   9  18  33  61  93 123 163 216 271 325 395
#
# _framework density 23.974412999999998
#
# number of rings (size 3 to 8) (size 9 to 14) (size 15 to 20)
#    0.000    1.667    1.667    3.500    0.000    0.667 
#    0.000    0.000   22.000    0.000    0.000    2.333 
#    0.000    0.000    0.000    0.000    0.000    0.000 
#
# Total GULP energy -595154.227929 kJ/mol
# GULP energy per Si atom -12399.046415 kJ/mol
# Density = 2.391985 g / cm^3
# Si number density = 23.974413 Si / 1000 Ang^3
#
#
#
# Elastic Constant Matrix: (Units=GPa)
#
#
# Indices 1 2 3 4 5 6 
#
# 1 105.4222 24.4571 63.7351 0.0000 0.0000 0.0000
# 2 24.4571 55.4370 28.3117 0.0000 0.0000 0.0000
# 3 63.7351 28.3117 147.9966 0.0000 0.0000 0.0000
# 4 0.0000 0.0000 0.0000 29.2856 0.0000 0.0000
# 5 0.0000 0.0000 0.0000 0.0000 36.0908 0.0000
# 6 0.0000 0.0000 0.0000 0.0000 0.0000 24.9326
#
#
#
# Elastic Compliance Matrix: (Units=1/GPa)
#
#
# Indices 1 2 3 4 5 6 
#
# 1 0.013339 -0.003271 -0.005119 0.000000 0.000000 0.000000
# 2 -0.003271 0.020794 -0.002569 0.000000 0.000000 0.000000
# 3 -0.005119 -0.002569 0.009453 0.000000 0.000000 0.000000
# 4 0.000000 0.000000 0.000000 0.034147 0.000000 0.000000
# 5 0.000000 0.000000 0.000000 0.000000 0.027708 0.000000
# 6 0.000000 0.000000 0.000000 0.000000 0.000000 0.040108
#
#
# Mechanical properties :
#
#
# Convention : Reuss Voigt Hill
#
# Bulk Modulus (GPa) = 46.15101 60.20704 53.17903
# Shear Modulus (GPa) = 28.62241 30.88525 29.75383
#
# Velocity S-wave (km/s) = 3.45900 3.59313 3.52670
# Velocity P-wave (km/s) = 5.93673 6.51012 6.23002
#
# Compressibility (1/GPa) = 0.02166800
#
# Stress axis : x y z
#
# Youngs Moduli (GPa) = 74.96739 48.09189 105.78799
#
# Poissons Ratio (x) = 0.15729 0.54151
# Poissons Ratio (y) = 0.24519 0.27180
# Poissons Ratio (z) = 0.38375 0.12356
#
# Static dielectric constant tensor:
#      x y z
#    x 4.072570 0.000000 0.000000 
#    y 0.000000 4.185250 0.000000 
#    z 0.000000 0.000000 4.792300 
# 
# 
# High freq. dielectric constant tensor:
#      x y z
#    x 1.927820 0.000000 0.000000 
#    y 0.000000 1.942000 0.000000 
#    z 0.000000 0.000000 1.967690 
# 
# From -- ./inp_files/18956.got.cif
#   From: 2010.03.12/outbox.cif.g09.slc.cpg/sg57_10_cif.got.tgz:18956.got - 2010.04.16 15:48:40.
