data_PCOD8233752
_publ_section_title
;
Structure prediction by ZEFSAII (Michael W. Deem and Ramdas Pophale) SiO2 
 PCOD8233752
Probable space group: P B C M
;
_chemical_formula_sum "Si O2"
_cell_formula_units_Z 60
_cell_length_a 18.216214
_cell_length_b 5.105539
_cell_length_c 32.465834
_cell_angle_alpha 90.000000
_cell_angle_beta 90.000000
_cell_angle_gamma 90.000000
_cell_volume 3019.439147
_symmetry_space_group_name_H-M "P B C M"
_symmetry_group_IT_number 57
_symmetry_cell_setting 'orthorhombic'
loop_
_space_group_symop_operation_xyz
x,y,z
-x,-y,1/2+z
x,1/2-y,-z
-x,1/2+y,1/2-z
-x,-y,-z
x,y,1/2-z
-x,1/2+y,z
x,1/2-y,1/2+z
loop_
_atom_site_type_symbol
_atom_site_label
_atom_site_fract_x
_atom_site_fract_y
_atom_site_fract_z
Si Si1 0.341704 0.808437 0.616887
Si Si2 0.453459 0.713819 0.546039
Si Si3 0.345356 0.298246 0.670755
Si Si4 0.952328 0.253669 0.452013
Si Si5 0.175676 0.758314 0.888041
Si Si6 0.963759 0.620885 0.297288
Si Si7 0.179553 0.250369 0.836058
Si Si8 0.448627 0.233452 0.250000
O O1 0.387779 0.761264 0.576582
O O2 0.353149 0.582041 0.650480
O O3 0.259031 0.829804 0.599890
O O4 0.368625 0.077134 0.638007
O O5 0.422354 0.750000 0.500000
O O6 0.481360 0.419961 0.553622
O O7 0.260670 0.246379 0.683840
O O8 0.397273 0.286647 0.710164
O O9 0.930974 0.250000 0.500000
O O10 0.877072 0.214403 0.427156
O O11 0.990507 0.526308 0.440274
O O12 0.173154 0.460135 0.872728
O O13 0.154537 0.965896 0.852449
O O14 0.986836 0.598807 0.250000
O O15 0.876961 0.667222 0.300528
O O16 0.989819 0.353282 0.319235
O O17 0.490334 0.508724 0.250000
#
# Coordination Sequence:
#
# PCOD8233752 Si02
#       8
#     8   8   8   8   8   8   8   4
#     4  10  21  39  59  84 116 148 187 232 283 335
#     4  10  21  36  57  86 114 145 184 221 271 339
#     4  10  23  40  59  84 113 150 189 230 284 343
#     4  10  21  36  54  79 112 150 190 233 284 333
#     4  10  21  36  55  82 107 140 189 228 265 328
#     4  10  21  35  52  79 108 137 178 221 263 319
#     4  10  21  37  57  79 109 145 181 223 275 329
#     4  12  26  42  62  90 116 144 194 240 278 344
#
# _framework density 19.87124
#
# number of rings (size 3 to 8) (size 9 to 14) (size 15 to 20)
#    0.000    1.867    0.000    3.200    0.933    6.933 
#    0.000    0.000    0.000    9.600    0.000    0.000 
#    0.000    0.000    0.000    0.000    0.000    0.000 
#
# Total GULP energy -744028.827157 kJ/mol
# GULP energy per Si atom -12400.480453 kJ/mol
# Density = 1.982601 g / cm^3
# Si number density = 19.871240 Si / 1000 Ang^3
#
#
#
# Elastic Constant Matrix: (Units=GPa)
#
#
# Indices 1 2 3 4 5 6 
#
# 1 91.5435 12.6650 56.6190 0.0000 0.0000 0.0000
# 2 12.6650 84.6120 12.2438 0.0000 0.0000 0.0000
# 3 56.6190 12.2438 65.2507 0.0000 0.0000 0.0000
# 4 0.0000 0.0000 0.0000 21.5507 0.0000 0.0000
# 5 0.0000 0.0000 0.0000 0.0000 41.5195 0.0000
# 6 0.0000 0.0000 0.0000 0.0000 0.0000 25.6820
#
#
#
# Elastic Compliance Matrix: (Units=1/GPa)
#
#
# Indices 1 2 3 4 5 6 
#
# 1 0.023605 -0.000585 -0.020373 0.000000 0.000000 0.000000
# 2 -0.000585 0.012163 -0.001774 0.000000 0.000000 0.000000
# 3 -0.020373 -0.001774 0.033336 0.000000 0.000000 0.000000
# 4 0.000000 0.000000 0.000000 0.046402 0.000000 0.000000
# 5 0.000000 0.000000 0.000000 0.000000 0.024085 0.000000
# 6 0.000000 0.000000 0.000000 0.000000 0.000000 0.038938
#
#
# Mechanical properties :
#
#
# Convention : Reuss Voigt Hill
#
# Bulk Modulus (GPa) = 42.30214 44.94021 43.62117
# Shear Modulus (GPa) = 21.56346 28.40900 24.98623
#
# Velocity S-wave (km/s) = 3.29775 3.78518 3.54984
# Velocity P-wave (km/s) = 5.98620 6.46284 6.22908
#
# Compressibility (1/GPa) = 0.02363946
#
# Stress axis : x y z
#
# Youngs Moduli (GPa) = 42.36380 82.21637 29.99753
#
# Poissons Ratio (x) = 0.04812 0.61113
# Poissons Ratio (y) = 0.02479 0.05323
# Poissons Ratio (z) = 0.86306 0.14589
#
# Static dielectric constant tensor:
#      x y z
#    x 3.616630 0.000000 0.000000 
#    y 0.000000 4.065150 0.000000 
#    z 0.000000 0.000000 3.351360 
# 
# 
# High freq. dielectric constant tensor:
#      x y z
#    x 1.778110 0.000000 0.000000 
#    y 0.000000 1.801820 0.000000 
#    z 0.000000 0.000000 1.756960 
# 
# From -- ./inp_files/28857.got.cif
#   From: 2010.03.12/outbox.cif.g09.slc.cpg/sg57_15_cif.got.tgz:28857.got - 2010.04.16 15:48:40.
