data_PCOD8233257
_publ_section_title
;
Structure prediction by ZEFSAII (Michael W. Deem and Ramdas Pophale) SiO2 
 PCOD8233257
Probable space group: P B C M
;
_chemical_formula_sum "Si O2"
_cell_formula_units_Z 48
_cell_length_a 9.956417
_cell_length_b 28.996570
_cell_length_c 8.856815
_cell_angle_alpha 90.000000
_cell_angle_beta 90.000000
_cell_angle_gamma 90.000000
_cell_volume 2556.979695
_symmetry_space_group_name_H-M "P B C M"
_symmetry_group_IT_number 57
_symmetry_cell_setting 'orthorhombic'
loop_
_space_group_symop_operation_xyz
x,y,z
-x,-y,1/2+z
x,1/2-y,-z
-x,1/2+y,1/2-z
-x,-y,-z
x,y,1/2-z
-x,1/2+y,z
x,1/2-y,1/2+z
loop_
_atom_site_type_symbol
_atom_site_label
_atom_site_fract_x
_atom_site_fract_y
_atom_site_fract_z
Si Si1 0.995635 0.628523 0.073248
Si Si2 0.493709 0.799600 0.429799
Si Si3 0.283150 0.877774 0.071773
Si Si4 0.890493 0.531378 0.072924
Si Si5 0.630530 0.478654 0.428273
Si Si6 0.227403 0.201414 0.428895
O O1 0.025373 0.627040 0.250000
O O2 0.915451 0.583339 0.018828
O O3 0.898404 0.669993 0.027988
O O4 0.136970 0.633891 0.991282
O O5 0.454836 0.750000 0.500000
O O6 0.504030 0.794729 0.250000
O O7 0.383179 0.837086 0.479143
O O8 0.635534 0.817361 0.496004
O O9 0.270556 0.880201 0.250000
O O10 0.337328 0.927059 0.010172
O O11 0.904141 0.526262 0.250000
O O12 0.746134 0.513746 0.019046
O O13 0.000000 0.500000 0.000000
O O14 0.500000 0.500000 0.500000
O O15 0.612598 0.477095 0.250000
O O16 0.190138 0.250000 0.500000
O O17 0.249714 0.204922 0.250000
#
# Coordination Sequence:
#
# PCOD8233257 Si02
#       6
#     8   8   8   8   8   8
#     4  10  22  37  57  85 112 145 186 228 276 329
#     4  10  21  38  59  83 111 145 185 227 278 331
#     4  10  22  39  57  82 114 147 185 230 276 328
#     4  10  20  37  58  81 112 147 185 226 272 324
#     4  10  22  38  56  82 114 147 186 229 274 326
#     4  10  21  38  59  84 113 144 184 229 277 331
#
# _framework density 18.772147
#
# number of rings (size 3 to 8) (size 9 to 14) (size 15 to 20)
#    0.000    2.000    1.667    2.000    2.333    4.667 
#    0.000    3.333    0.000    0.000    0.000    0.000 
#    0.000    0.000    0.000    0.000    0.000    0.000 
#
# Total GULP energy -595194.156421 kJ/mol
# GULP energy per Si atom -12399.878259 kJ/mol
# Density = 1.872942 g / cm^3
# Si number density = 18.772147 Si / 1000 Ang^3
#
#
#
# Elastic Constant Matrix: (Units=GPa)
#
#
# Indices 1 2 3 4 5 6 
#
# 1 189.2245 107.7096 50.9648 0.0000 0.0000 0.0000
# 2 107.7096 138.0674 43.6303 0.0000 0.0000 0.0000
# 3 50.9648 43.6303 45.5596 0.0000 0.0000 0.0000
# 4 0.0000 0.0000 0.0000 26.3235 0.0000 0.0000
# 5 0.0000 0.0000 0.0000 0.0000 34.9605 0.0000
# 6 0.0000 0.0000 0.0000 0.0000 0.0000 73.2578
#
#
#
# Elastic Compliance Matrix: (Units=1/GPa)
#
#
# Indices 1 2 3 4 5 6 
#
# 1 0.010397 -0.006361 -0.005540 0.000000 0.000000 0.000000
# 2 -0.006361 0.014277 -0.006557 0.000000 0.000000 0.000000
# 3 -0.005540 -0.006557 0.034426 0.000000 0.000000 0.000000
# 4 0.000000 0.000000 0.000000 0.037989 0.000000 0.000000
# 5 0.000000 0.000000 0.000000 0.000000 0.028604 0.000000
# 6 0.000000 0.000000 0.000000 0.000000 0.000000 0.013650
#
#
# Mechanical properties :
#
#
# Convention : Reuss Voigt Hill
#
# Bulk Modulus (GPa) = 45.07527 86.38457 65.72992
# Shear Modulus (GPa) = 27.22531 38.27815 32.75173
#
# Velocity S-wave (km/s) = 3.81242 4.52053 4.18149
# Velocity P-wave (km/s) = 6.59115 8.56529 7.64223
#
# Compressibility (1/GPa) = 0.02218512
#
# Stress axis : x y z
#
# Youngs Moduli (GPa) = 96.17885 70.04253 29.04820
#
# Poissons Ratio (x) = 0.44551 0.16091
# Poissons Ratio (y) = 0.61176 0.19047
# Poissons Ratio (z) = 0.53279 0.45928
#
# Static dielectric constant tensor:
#      x y z
#    x 3.533040 0.000000 0.000000 
#    y 0.000000 3.576080 0.000000 
#    z 0.000000 0.000000 3.395670 
# 
# 
# High freq. dielectric constant tensor:
#      x y z
#    x 1.739670 0.000000 0.000000 
#    y 0.000000 1.740730 0.000000 
#    z 0.000000 0.000000 1.725390 
# 
# From -- ./inp_files/1999.got.cif
#   From: 2010.03.12/outbox.cif.g09.slc.cpg/sg57_1_cif.got.tgz:1999.got - 2010.04.16 15:48:40.
