data_PCOD8233711
_publ_section_title
;
Structure prediction by ZEFSAII (Michael W. Deem and Ramdas Pophale) SiO2 
 PCOD8233711
Probable space group: P B C M
;
_chemical_formula_sum "Si O2"
_cell_formula_units_Z 48
_cell_length_a 14.374385
_cell_length_b 16.936448
_cell_length_c 9.510094
_cell_angle_alpha 90.000000
_cell_angle_beta 90.000000
_cell_angle_gamma 90.000000
_cell_volume 2315.242123
_symmetry_space_group_name_H-M "P B C M"
_symmetry_group_IT_number 57
_symmetry_cell_setting 'orthorhombic'
loop_
_space_group_symop_operation_xyz
x,y,z
-x,-y,1/2+z
x,1/2-y,-z
-x,1/2+y,1/2-z
-x,-y,-z
x,y,1/2-z
-x,1/2+y,z
x,1/2-y,1/2+z
loop_
_atom_site_type_symbol
_atom_site_label
_atom_site_fract_x
_atom_site_fract_y
_atom_site_fract_z
Si Si1 0.297756 0.114199 0.581169
Si Si2 0.068550 0.012507 0.750000
Si Si3 0.797775 0.449588 0.537278
Si Si4 0.479480 0.081099 0.079762
Si Si5 0.657847 0.179498 0.402187
Si Si6 0.115917 0.586990 0.750000
Si Si7 0.945024 0.810269 0.250000
Si Si8 0.160430 0.250000 0.000000
O O1 0.310125 0.129679 0.750000
O O2 0.393062 0.124949 0.494478
O O3 0.225523 0.173373 0.506988
O O4 0.266032 0.026059 0.548447
O O5 0.108646 0.103704 0.750000
O O6 0.956726 0.013275 0.750000
O O7 0.103837 0.966513 0.887456
O O8 0.743161 0.380554 0.613927
O O9 0.816223 0.420614 0.380573
O O10 0.466510 0.069466 0.250000
O O11 0.566138 0.136401 0.042523
O O12 0.500000 0.000000 0.000000
O O13 0.689159 0.250000 0.500000
O O14 0.637581 0.216184 0.250000
O O15 0.056227 0.669455 0.750000
O O16 0.913469 0.754169 0.375208
#
# Coordination Sequence:
#
# PCOD8233711 Si02
#       8
#     8   4   8   8   8   4   4   4
#     4  12  24  43  70 102 141 183 231 287 343 419
#     4  10  20  46  67  99 126 174 225 287 347 404
#     4  12  21  45  74  97 132 179 233 279 341 418
#     4  11  25  43  70 105 137 182 230 284 343 408
#     4  11  26  46  68  96 139 186 231 282 339 401
#     4  10  26  41  68 109 128 170 232 292 345 418
#     4  10  24  45  65  98 142 174 223 285 352 416
#     4  12  22  44  70  98 142 180 220 284 360 414
#
# _framework density 20.732173
#
# number of rings (size 3 to 8) (size 9 to 14) (size 15 to 20)
#    0.500    0.333    5.833    1.000    4.667    1.333 
#    1.500    0.833    0.000    0.000    0.000    0.000 
#    0.000    0.000    0.000    0.000    0.000    0.000 
#
# Total GULP energy -594880.279370 kJ/mol
# GULP energy per Si atom -12393.339154 kJ/mol
# Density = 2.068499 g / cm^3
# Si number density = 20.732173 Si / 1000 Ang^3
#
#
#
# Elastic Constant Matrix: (Units=GPa)
#
#
# Indices 1 2 3 4 5 6 
#
# 1 62.4177 13.9214 31.8170 0.0000 0.0000 0.0000
# 2 13.9214 98.1909 41.8366 0.0000 0.0000 0.0000
# 3 31.8170 41.8366 142.2231 0.0000 0.0000 0.0000
# 4 0.0000 0.0000 0.0000 30.9045 0.0000 0.0000
# 5 0.0000 0.0000 0.0000 0.0000 41.9204 0.0000
# 6 0.0000 0.0000 0.0000 0.0000 0.0000 18.3884
#
#
#
# Elastic Compliance Matrix: (Units=1/GPa)
#
#
# Indices 1 2 3 4 5 6 
#
# 1 0.018163 -0.000965 -0.003779 0.000000 0.000000 0.000000
# 2 -0.000965 0.011695 -0.003224 0.000000 0.000000 0.000000
# 3 -0.003779 -0.003224 0.008825 0.000000 0.000000 0.000000
# 4 0.000000 0.000000 0.000000 0.032358 0.000000 0.000000
# 5 0.000000 0.000000 0.000000 0.000000 0.023855 0.000000
# 6 0.000000 0.000000 0.000000 0.000000 0.000000 0.054382
#
#
# Mechanical properties :
#
#
# Convention : Reuss Voigt Hill
#
# Bulk Modulus (GPa) = 43.96431 53.10909 48.53670
# Shear Modulus (GPa) = 28.93579 32.59310 30.76444
#
# Velocity S-wave (km/s) = 3.73995 3.96928 3.85632
# Velocity P-wave (km/s) = 6.31677 6.83222 6.57954
#
# Compressibility (1/GPa) = 0.02274572
#
# Stress axis : x y z
#
# Youngs Moduli (GPa) = 55.05751 85.50785 113.31203
#
# Poissons Ratio (x) = 0.08250 0.42826
# Poissons Ratio (y) = 0.05312 0.36536
# Poissons Ratio (z) = 0.20809 0.27571
#
# Static dielectric constant tensor:
#      x y z
#    x 3.801690 0.000000 0.000000 
#    y 0.000000 3.672400 0.000000 
#    z 0.000000 0.000000 3.690470 
# 
# 
# High freq. dielectric constant tensor:
#      x y z
#    x 1.818250 0.000000 0.000000 
#    y 0.000000 1.799210 0.000000 
#    z 0.000000 0.000000 1.822860 
# 
# From -- ./inp_files/4793.got.cif
#   From: 2010.03.12/outbox.cif.g09.slc.cpg/sg57_3_cif.got.tgz:4793.got - 2010.04.16 15:48:40.
