data_PCOD8233008
_publ_section_title
;
Structure prediction by ZEFSAII (Michael W. Deem and Ramdas Pophale) SiO2 
 PCOD8233008
Probable space group: P B C M
;
_chemical_formula_sum "Si O2"
_cell_formula_units_Z 48
_cell_length_a 29.955727
_cell_length_b 9.540726
_cell_length_c 8.861693
_cell_angle_alpha 90.000000
_cell_angle_beta 90.000000
_cell_angle_gamma 90.000000
_cell_volume 2532.666396
_symmetry_space_group_name_H-M "P B C M"
_symmetry_group_IT_number 57
_symmetry_cell_setting 'orthorhombic'
loop_
_space_group_symop_operation_xyz
x,y,z
-x,-y,1/2+z
x,1/2-y,-z
-x,1/2+y,1/2-z
-x,-y,-z
x,y,1/2-z
-x,1/2+y,z
x,1/2-y,1/2+z
loop_
_atom_site_type_symbol
_atom_site_label
_atom_site_fract_x
_atom_site_fract_y
_atom_site_fract_z
Si Si1 0.716587 0.395831 0.571025
Si Si2 0.614669 0.391604 0.574881
Si Si3 0.786216 0.901605 0.570814
Si Si4 0.864531 0.395782 0.425824
Si Si5 0.537510 0.903024 0.428448
Si Si6 0.965120 0.397202 0.427730
O O1 0.733792 0.250000 0.500000
O O2 0.723685 0.391829 0.750000
O O3 0.665273 0.421955 0.523943
O O4 0.743294 0.523153 0.498446
O O5 0.595673 0.250000 0.500000
O O6 0.612226 0.360903 0.750000
O O7 0.584965 0.525811 0.531179
O O8 0.790239 0.750000 0.500000
O O9 0.781052 0.891760 0.750000
O O10 0.830787 0.983975 0.521049
O O11 0.850480 0.250000 0.500000
O O12 0.860839 0.368948 0.250000
O O13 0.914634 0.442800 0.470671
O O14 0.536280 0.750000 0.500000
O O15 0.529838 0.891131 0.250000
O O16 0.500000 0.000000 0.500000
O O17 0.976299 0.250000 0.500000
O O18 0.972202 0.390123 0.250000
O O19 0.000000 0.500000 0.500000
#
# Coordination Sequence:
#
# PCOD8233008 Si02
#       6
#     8   8   8   8   8   8
#     4  10  20  37  59  84 112 146 184 224 269 324
#     4   9  20  37  58  83 112 144 182 224 271 323
#     4  11  23  38  55  80 111 145 182 226 275 324
#     4   9  20  37  57  79 106 140 181 222 268 323
#     4  11  23  39  58  83 113 148 186 228 275 326
#     4  10  20  36  56  81 110 143 180 222 269 322
#
# _framework density 18.952356999999999
#
# number of rings (size 3 to 8) (size 9 to 14) (size 15 to 20)
#    0.000    2.000    0.000    3.000    0.000    8.000 
#    0.000    3.333    0.000    0.000    0.000    0.000 
#    0.000    0.000    0.000    0.000    0.000    0.000 
#
# Total GULP energy -595309.915728 kJ/mol
# GULP energy per Si atom -12402.289911 kJ/mol
# Density = 1.890922 g / cm^3
# Si number density = 18.952357 Si / 1000 Ang^3
#
#
#
# Elastic Constant Matrix: (Units=GPa)
#
#
# Indices 1 2 3 4 5 6 
#
# 1 120.1860 98.8029 58.2287 0.0000 0.0000 0.0000
# 2 98.8029 178.9797 71.8606 0.0000 0.0000 0.0000
# 3 58.2287 71.8606 86.5496 0.0000 0.0000 0.0000
# 4 0.0000 0.0000 0.0000 40.8595 0.0000 0.0000
# 5 0.0000 0.0000 0.0000 0.0000 27.6662 0.0000
# 6 0.0000 0.0000 0.0000 0.0000 0.0000 36.9883
#
#
#
# Elastic Compliance Matrix: (Units=1/GPa)
#
#
# Indices 1 2 3 4 5 6 
#
# 1 0.016758 -0.007087 -0.005390 0.000000 0.000000 0.000000
# 2 -0.007087 0.011378 -0.004679 0.000000 0.000000 0.000000
# 3 -0.005390 -0.004679 0.019066 0.000000 0.000000 0.000000
# 4 0.000000 0.000000 0.000000 0.024474 0.000000 0.000000
# 5 0.000000 0.000000 0.000000 0.000000 0.036145 0.000000
# 6 0.000000 0.000000 0.000000 0.000000 0.000000 0.027036
#
#
# Mechanical properties :
#
#
# Convention : Reuss Voigt Hill
#
# Bulk Modulus (GPa) = 77.58546 93.72216 85.65381
# Shear Modulus (GPa) = 28.82423 31.55768 30.19096
#
# Velocity S-wave (km/s) = 3.90407 4.08500 3.99556
# Velocity P-wave (km/s) = 7.83252 8.47398 8.15956
#
# Compressibility (1/GPa) = 0.01288901
#
# Stress axis : x y z
#
# Youngs Moduli (GPa) = 59.67360 87.88888 52.45030
#
# Poissons Ratio (x) = 0.62284 0.28273
# Poissons Ratio (y) = 0.42289 0.24543
# Poissons Ratio (z) = 0.32166 0.41125
#
# Static dielectric constant tensor:
#      x y z
#    x 3.913240 0.000000 0.000000 
#    y 0.000000 1.346650 0.000000 
#    z 0.000000 0.000000 3.570880 
# 
# 
# High freq. dielectric constant tensor:
#      x y z
#    x 1.749190 0.000000 0.000000 
#    y 0.000000 1.737340 0.000000 
#    z 0.000000 0.000000 1.746590 
# 
# From -- ./inp_files/9966.got.cif
#   From: 2010.03.12/outbox.cif.g09.slc.cpg/sg57_5_cif.got.tgz:9966.got - 2010.04.16 15:48:40.
