data_PCOD8233946
_publ_section_title
;
Structure prediction by ZEFSAII (Michael W. Deem and Ramdas Pophale) SiO2 
 PCOD8233946
Probable space group: P B C M
;
_chemical_formula_sum "Si O2"
_cell_formula_units_Z 64
_cell_length_a 29.189647
_cell_length_b 5.319549
_cell_length_c 18.830183
_cell_angle_alpha 90.000000
_cell_angle_beta 90.000000
_cell_angle_gamma 90.000000
_cell_volume 2923.870929
_symmetry_space_group_name_H-M "P B C M"
_symmetry_group_IT_number 57
_symmetry_cell_setting 'orthorhombic'
loop_
_space_group_symop_operation_xyz
x,y,z
-x,-y,1/2+z
x,1/2-y,-z
-x,1/2+y,1/2-z
-x,-y,-z
x,y,1/2-z
-x,1/2+y,z
x,1/2-y,1/2+z
loop_
_atom_site_type_symbol
_atom_site_label
_atom_site_fract_x
_atom_site_fract_y
_atom_site_fract_z
Si Si1 0.114091 0.283838 0.172259
Si Si2 0.747516 0.692407 0.925927
Si Si3 0.022272 0.466505 0.832275
Si Si4 0.838923 0.095384 0.430339
Si Si5 0.796967 0.471542 0.327678
Si Si6 0.669737 0.560840 0.830063
Si Si7 0.386680 0.554865 0.830595
Si Si8 0.474559 0.780571 0.083852
O O1 0.101126 0.409860 0.250000
O O2 0.076911 0.066489 0.155971
O O3 0.115757 0.457982 0.101440
O O4 0.165608 0.188540 0.180248
O O5 0.795791 0.574965 0.951631
O O6 0.714375 0.519270 0.879154
O O7 0.755819 0.941399 0.878700
O O8 0.721594 0.750000 0.000000
O O9 0.009142 0.480158 0.750000
O O10 0.004619 0.727146 0.867114
O O11 0.854021 0.250000 0.500000
O O12 0.822492 0.240211 0.361254
O O13 0.777148 0.399480 0.250000
O O14 0.685631 0.622471 0.750000
O O15 0.646236 0.292699 0.833847
O O16 0.638099 0.796143 0.856469
O O17 0.404916 0.516159 0.750000
O O18 0.427374 0.627067 0.882972
O O19 0.489822 0.500692 0.108769
O O20 0.468652 0.750000 0.000000
#
# Coordination Sequence:
#
# PCOD8233946 Si02
#       8
#     8   8   8   8   8   8   8   8
#     4   9  20  35  55  86 116 150 195 242 301 362
#     4  11  23  39  57  85 118 154 201 248 301 364
#     4   9  18  32  54  84 118 151 189 243 298 353
#     4  11  22  37  59  83 115 153 198 252 300 358
#     4  10  21  37  59  84 113 149 194 247 297 355
#     4  10  23  40  60  86 121 161 203 251 300 359
#     4  10  22  40  60  88 121 157 204 250 300 360
#     4  10  21  37  60  89 122 156 198 249 304 362
#
# _framework density 21.888788999999999
#
# number of rings (size 3 to 8) (size 9 to 14) (size 15 to 20)
#    0.000    2.000    1.250    1.500    3.500    3.000 
#    0.000    0.000    0.000    0.750    0.000    0.000 
#    0.000    0.000    0.000    0.000    0.000    0.000 
#
# Total GULP energy -792849.551625 kJ/mol
# GULP energy per Si atom -12388.274244 kJ/mol
# Density = 2.183897 g / cm^3
# Si number density = 21.888789 Si / 1000 Ang^3
#
#
#
# Elastic Constant Matrix: (Units=GPa)
#
#
# Indices 1 2 3 4 5 6 
#
# 1 48.0350 -7.9743 10.7499 0.0000 0.0000 0.0000
# 2 -7.9743 84.9690 10.7564 0.0000 0.0000 0.0000
# 3 10.7499 10.7564 88.7630 0.0000 0.0000 0.0000
# 4 0.0000 0.0000 0.0000 22.4888 0.0000 0.0000
# 5 0.0000 0.0000 0.0000 0.0000 56.9618 0.0000
# 6 0.0000 0.0000 0.0000 0.0000 0.0000 16.5022
#
#
#
# Elastic Compliance Matrix: (Units=1/GPa)
#
#
# Indices 1 2 3 4 5 6 
#
# 1 0.021880 0.002426 -0.002944 0.000000 0.000000 0.000000
# 2 0.002426 0.012221 -0.001775 0.000000 0.000000 0.000000
# 3 -0.002944 -0.001775 0.011838 0.000000 0.000000 0.000000
# 4 0.000000 0.000000 0.000000 0.044467 0.000000 0.000000
# 5 0.000000 0.000000 0.000000 0.000000 0.017556 0.000000
# 6 0.000000 0.000000 0.000000 0.000000 0.000000 0.060598
#
#
# Mechanical properties :
#
#
# Convention : Reuss Voigt Hill
#
# Bulk Modulus (GPa) = 24.18173 27.64788 25.91481
# Shear Modulus (GPa) = 26.74824 33.07291 29.91058
#
# Velocity S-wave (km/s) = 3.49951 3.89131 3.70060
# Velocity P-wave (km/s) = 5.23453 5.73134 5.48856
#
# Compressibility (1/GPa) = 0.04135353
#
# Stress axis : x y z
#
# Youngs Moduli (GPa) = 45.70445 81.82397 84.47696
#
# Poissons Ratio (x) = -0.19851 0.24868
# Poissons Ratio (y) = -0.11088 0.14993
# Poissons Ratio (z) = 0.13454 0.14522
#
# Static dielectric constant tensor:
#      x y z
#    x 3.812670 0.000000 0.000000 
#    y 0.000000 4.321270 0.000000 
#    z 0.000000 0.000000 4.034620 
# 
# 
# High freq. dielectric constant tensor:
#      x y z
#    x 1.841940 0.000000 0.000000 
#    y 0.000000 1.865560 0.000000 
#    z 0.000000 0.000000 1.849210 
# 
# From -- ./inp_files/23193.got.cif
#   From: 2010.03.12/outbox.cif.g09.slc.cpg/sg57_12_cif.got.tgz:23193.got - 2010.04.16 15:48:40.
