data_PCOD8233277
_publ_section_title
;
Structure prediction by ZEFSAII (Michael W. Deem and Ramdas Pophale) SiO2 
 PCOD8233277
Probable space group: P B C M
;
_chemical_formula_sum "Si O2"
_cell_formula_units_Z 48
_cell_length_a 15.001360
_cell_length_b 17.657484
_cell_length_c 8.698315
_cell_angle_alpha 90.000000
_cell_angle_beta 90.000000
_cell_angle_gamma 90.000000
_cell_volume 2304.064252
_symmetry_space_group_name_H-M "P B C M"
_symmetry_group_IT_number 57
_symmetry_cell_setting 'orthorhombic'
loop_
_space_group_symop_operation_xyz
x,y,z
-x,-y,1/2+z
x,1/2-y,-z
-x,1/2+y,1/2-z
-x,-y,-z
x,y,1/2-z
-x,1/2+y,z
x,1/2-y,1/2+z
loop_
_atom_site_type_symbol
_atom_site_label
_atom_site_fract_x
_atom_site_fract_y
_atom_site_fract_z
Si Si1 0.611784 0.415497 0.430386
Si Si2 0.896999 0.674383 0.418640
Si Si3 0.217724 0.834829 0.933356
Si Si4 0.732088 0.668574 0.930319
Si Si5 0.427176 0.085593 0.070596
Si Si6 0.055771 0.564871 0.083119
O O1 0.627520 0.404133 0.250000
O O2 0.686050 0.368054 0.520014
O O3 0.611549 0.503860 0.479586
O O4 0.513799 0.386735 0.477531
O O5 0.928800 0.750000 0.500000
O O6 0.854743 0.690998 0.250000
O O7 0.823806 0.625480 0.520814
O O8 0.987575 0.631641 0.396416
O O9 0.211446 0.828754 0.750000
O O10 0.143515 0.895956 0.996090
O O11 0.204462 0.750000 0.000000
O O12 0.712003 0.664106 0.750000
O O13 0.757650 0.750000 0.000000
O O14 0.647724 0.644705 0.027620
O O15 0.450157 0.087021 0.250000
O O16 0.084838 0.532989 0.250000
O O17 0.000000 0.500000 0.000000
#
# Coordination Sequence:
#
# PCOD8233277 Si02
#       6
#     8   8   8   8   8   8
#     4  10  22  40  63  91 121 160 203 249 306 363
#     4  10  20  37  58  84 117 155 198 244 298 356
#     4  11  24  43  65  93 126 165 211 259 312 371
#     4  11  22  36  57  86 119 156 198 244 297 356
#     4  10  21  39  62  89 124 160 201 252 304 362
#     4  10  24  41  61  90 122 158 204 253 304 363
#
# _framework density 20.832754000000001
#
# number of rings (size 3 to 8) (size 9 to 14) (size 15 to 20)
#    0.000    1.667    0.000    5.000    2.333    5.333 
#    0.000    3.333    0.000    0.000    0.000    0.000 
#    0.000    0.000    0.000    0.000    0.000    0.000 
#
# Total GULP energy -594697.863124 kJ/mol
# GULP energy per Si atom -12389.538815 kJ/mol
# Density = 2.078534 g / cm^3
# Si number density = 20.832754 Si / 1000 Ang^3
#
#
#
# Elastic Constant Matrix: (Units=GPa)
#
#
# Indices 1 2 3 4 5 6 
#
# 1 107.0311 36.1020 24.3134 0.0000 0.0000 0.0000
# 2 36.1020 70.1962 35.8425 0.0000 0.0000 0.0000
# 3 24.3134 35.8425 81.3571 0.0000 0.0000 0.0000
# 4 0.0000 0.0000 0.0000 27.6519 0.0000 0.0000
# 5 0.0000 0.0000 0.0000 0.0000 33.2737 0.0000
# 6 0.0000 0.0000 0.0000 0.0000 0.0000 30.0076
#
#
#
# Elastic Compliance Matrix: (Units=1/GPa)
#
#
# Indices 1 2 3 4 5 6 
#
# 1 0.011375 -0.005308 -0.001061 0.000000 0.000000 0.000000
# 2 -0.005308 0.020858 -0.007603 0.000000 0.000000 0.000000
# 3 -0.001061 -0.007603 0.015958 0.000000 0.000000 0.000000
# 4 0.000000 0.000000 0.000000 0.036164 0.000000 0.000000
# 5 0.000000 0.000000 0.000000 0.000000 0.030054 0.000000
# 6 0.000000 0.000000 0.000000 0.000000 0.000000 0.033325
#
#
# Mechanical properties :
#
#
# Convention : Reuss Voigt Hill
#
# Bulk Modulus (GPa) = 49.39026 50.12224 49.75625
# Shear Modulus (GPa) = 27.40849 29.00840 28.20845
#
# Velocity S-wave (km/s) = 3.63112 3.73559 3.68372
# Velocity P-wave (km/s) = 6.42958 6.53588 6.48295
#
# Compressibility (1/GPa) = 0.02024691
#
# Stress axis : x y z
#
# Youngs Moduli (GPa) = 87.91560 47.94351 62.66500
#
# Poissons Ratio (x) = 0.25450 0.06646
# Poissons Ratio (y) = 0.46669 0.47642
# Poissons Ratio (z) = 0.09324 0.36450
#
# Static dielectric constant tensor:
#      x y z
#    x 3.966480 0.000000 0.000000 
#    y 0.000000 -0.242400 0.000000 
#    z 0.000000 0.000000 4.196690 
# 
# 
# High freq. dielectric constant tensor:
#      x y z
#    x 1.836830 0.000000 0.000000 
#    y 0.000000 1.801940 0.000000 
#    z 0.000000 0.000000 1.822250 
# 
# From -- ./inp_files/4709.got.cif
#   From: 2010.03.12/outbox.cif.g09.slc.cpg/sg57_3_cif.got.tgz:4709.got - 2010.04.16 15:48:40.
