data_PCOD8233465
_publ_section_title
;
Structure prediction by ZEFSAII (Michael W. Deem and Ramdas Pophale) SiO2 
 PCOD8233465
Probable space group: P B C M
;
_chemical_formula_sum "Si O2"
_cell_formula_units_Z 48
_cell_length_a 14.740010
_cell_length_b 8.964255
_cell_length_c 15.956154
_cell_angle_alpha 90.000000
_cell_angle_beta 90.000000
_cell_angle_gamma 90.000000
_cell_volume 2108.337821
_symmetry_space_group_name_H-M "P B C M"
_symmetry_group_IT_number 57
_symmetry_cell_setting 'orthorhombic'
loop_
_space_group_symop_operation_xyz
x,y,z
-x,-y,1/2+z
x,1/2-y,-z
-x,1/2+y,1/2-z
-x,-y,-z
x,y,1/2-z
-x,1/2+y,z
x,1/2-y,1/2+z
loop_
_atom_site_type_symbol
_atom_site_label
_atom_site_fract_x
_atom_site_fract_y
_atom_site_fract_z
Si Si1 0.381575 0.176059 0.913397
Si Si2 0.516192 0.733465 0.250000
Si Si3 0.944768 0.015281 0.844925
Si Si4 0.111951 0.833216 0.850197
Si Si5 0.758524 0.582264 0.385178
Si Si6 0.631352 0.448199 0.250000
Si Si7 0.280755 0.597197 0.458231
O O1 0.448480 0.192790 0.835869
O O2 0.285543 0.254200 0.890005
O O3 0.366512 0.998006 0.924191
O O4 0.420038 0.250000 0.000000
O O5 0.543266 0.559472 0.250000
O O6 0.408755 0.778512 0.250000
O O7 0.971490 0.048212 0.750000
O O8 0.915312 0.170902 0.887160
O O9 0.859379 0.900900 0.847611
O O10 0.034799 0.944800 0.886295
O O11 0.117540 0.831469 0.750000
O O12 0.210551 0.872959 0.883922
O O13 0.694014 0.473456 0.330663
O O14 0.769450 0.508384 0.475411
O O15 0.316672 0.750000 0.500000
#
# Coordination Sequence:
#
# PCOD8233465 Si02
#       7
#     8   4   8   8   8   4   8
#     4   9  22  41  65  95 134 170 212 260 326 398
#     4  10  22  44  70 103 129 164 218 261 327 398
#     4  10  20  38  58  85 123 165 212 266 317 368
#     4  10  23  38  57  87 126 162 222 269 316 379
#     4  10  20  40  63  86 126 169 206 256 322 385
#     4  10  22  42  68  97 127 166 210 261 315 396
#     4  11  22  39  58  92 128 163 216 264 318 372
#
# _framework density 22.766748
#
# number of rings (size 3 to 8) (size 9 to 14) (size 15 to 20)
#    0.000    2.000    2.500    0.000    3.500    2.000 
#    0.000    8.333    0.000    0.000    0.000    0.000 
#    0.000    0.000    0.000    0.000    0.000    0.000 
#
# Total GULP energy -594975.992251 kJ/mol
# GULP energy per Si atom -12395.333172 kJ/mol
# Density = 2.271493 g / cm^3
# Si number density = 22.766748 Si / 1000 Ang^3
#
#
#
# Elastic Constant Matrix: (Units=GPa)
#
#
# Indices 1 2 3 4 5 6 
#
# 1 48.0993 9.1559 20.8593 0.0000 0.0000 0.0000
# 2 9.1559 65.3724 9.3774 0.0000 0.0000 0.0000
# 3 20.8593 9.3774 81.2938 0.0000 0.0000 0.0000
# 4 0.0000 0.0000 0.0000 26.9901 0.0000 0.0000
# 5 0.0000 0.0000 0.0000 0.0000 9.0107 0.0000
# 6 0.0000 0.0000 0.0000 0.0000 0.0000 34.4334
#
#
#
# Elastic Compliance Matrix: (Units=1/GPa)
#
#
# Indices 1 2 3 4 5 6 
#
# 1 0.023788 -0.002497 -0.005816 0.000000 0.000000 0.000000
# 2 -0.002497 0.015817 -0.001184 0.000000 0.000000 0.000000
# 3 -0.005816 -0.001184 0.013930 0.000000 0.000000 0.000000
# 4 0.000000 0.000000 0.000000 0.037051 0.000000 0.000000
# 5 0.000000 0.000000 0.000000 0.000000 0.110979 0.000000
# 6 0.000000 0.000000 0.000000 0.000000 0.000000 0.029042
#
#
# Mechanical properties :
#
#
# Convention : Reuss Voigt Hill
#
# Bulk Modulus (GPa) = 28.95133 30.39452 29.67293
# Shear Modulus (GPa) = 19.14883 24.44503 21.79693
#
# Velocity S-wave (km/s) = 2.90330 3.28032 3.09755
# Velocity P-wave (km/s) = 4.89724 5.26561 5.08476
#
# Compressibility (1/GPa) = 0.03454072
#
# Stress axis : x y z
#
# Youngs Moduli (GPa) = 42.03839 63.22489 71.78831
#
# Poissons Ratio (x) = 0.15790 0.41750
# Poissons Ratio (y) = 0.10499 0.08497
# Poissons Ratio (z) = 0.24448 0.07484
#
# Static dielectric constant tensor:
#      x y z
#    x 3.820390 0.000000 0.000000 
#    y 0.000000 4.295160 0.000000 
#    z 0.000000 0.000000 4.116260 
# 
# 
# High freq. dielectric constant tensor:
#      x y z
#    x 1.879140 0.000000 0.000000 
#    y 0.000000 1.895220 0.000000 
#    z 0.000000 0.000000 1.900070 
# 
# From -- ./inp_files/22540.got.cif
#   From: 2010.03.12/outbox.cif.g09.slc.cpg/sg57_12_cif.got.tgz:22540.got - 2010.04.16 15:48:40.
