data_PCOD8233526
_publ_section_title
;
Structure prediction by ZEFSAII (Michael W. Deem and Ramdas Pophale) SiO2 
 PCOD8233526
Probable space group: P B C M
;
_chemical_formula_sum "Si O2"
_cell_formula_units_Z 48
_cell_length_a 9.345876
_cell_length_b 30.315562
_cell_length_c 8.534690
_cell_angle_alpha 90.000000
_cell_angle_beta 90.000000
_cell_angle_gamma 90.000000
_cell_volume 2418.095169
_symmetry_space_group_name_H-M "P B C M"
_symmetry_group_IT_number 57
_symmetry_cell_setting 'orthorhombic'
loop_
_space_group_symop_operation_xyz
x,y,z
-x,-y,1/2+z
x,1/2-y,-z
-x,1/2+y,1/2-z
-x,-y,-z
x,y,1/2-z
-x,1/2+y,z
x,1/2-y,1/2+z
loop_
_atom_site_type_symbol
_atom_site_label
_atom_site_fract_x
_atom_site_fract_y
_atom_site_fract_z
Si Si1 0.161726 0.378338 0.432248
Si Si2 0.668731 0.796852 0.935979
Si Si3 0.851987 0.123667 0.433039
Si Si4 0.658908 0.051360 0.569084
Si Si5 0.343299 0.703795 0.065529
Si Si6 0.641692 0.950312 0.931578
O O1 0.188494 0.386095 0.250000
O O2 0.233176 0.333244 0.485792
O O3 0.225798 0.419399 0.527119
O O4 0.994518 0.376048 0.466054
O O5 0.685054 0.798962 0.750000
O O6 0.505481 0.804937 0.991353
O O7 0.723141 0.750000 0.000000
O O8 0.888539 0.128193 0.250000
O O9 0.767065 0.078512 0.461437
O O10 0.756025 0.164300 0.495333
O O11 0.689807 0.061730 0.750000
O O12 0.496023 0.064735 0.530535
O O13 0.685355 0.000242 0.527649
O O14 0.339297 0.706448 0.250000
O O15 0.284188 0.750000 0.000000
O O16 0.601450 0.945481 0.750000
#
# Coordination Sequence:
#
# PCOD8233526 Si02
#       6
#     8   8   8   8   8   8
#     4  12  25  39  57  84 117 155 197 241 291 345
#     4  10  20  38  62  88 116 148 190 238 290 347
#     4  11  23  39  58  83 118 157 193 235 291 349
#     4  10  21  38  62  90 116 147 191 239 287 344
#     4   9  20  37  60  86 111 144 186 232 281 336
#     4  10  21  39  62  87 116 151 191 237 289 345
#
# _framework density 19.850334
#
# number of rings (size 3 to 8) (size 9 to 14) (size 15 to 20)
#    0.000    1.667    0.000    4.500    0.000    6.667 
#    0.000    1.667    0.000    0.000    0.000    0.000 
#    0.000    0.000    0.000    0.000    0.000    0.000 
#
# Total GULP energy -595502.449189 kJ/mol
# GULP energy per Si atom -12406.301025 kJ/mol
# Density = 1.980515 g / cm^3
# Si number density = 19.850334 Si / 1000 Ang^3
#
#
#
# Elastic Constant Matrix: (Units=GPa)
#
#
# Indices 1 2 3 4 5 6 
#
# 1 101.7681 69.1833 11.7741 0.0000 0.0000 0.0000
# 2 69.1833 129.2299 27.1187 0.0000 0.0000 0.0000
# 3 11.7741 27.1187 41.5272 0.0000 0.0000 0.0000
# 4 0.0000 0.0000 0.0000 34.6174 0.0000 0.0000
# 5 0.0000 0.0000 0.0000 0.0000 32.0613 0.0000
# 6 0.0000 0.0000 0.0000 0.0000 0.0000 8.9105
#
#
#
# Elastic Compliance Matrix: (Units=1/GPa)
#
#
# Indices 1 2 3 4 5 6 
#
# 1 0.015499 -0.008546 0.001187 0.000000 0.000000 0.000000
# 2 -0.008546 0.013680 -0.006510 0.000000 0.000000 0.000000
# 3 0.001187 -0.006510 0.027995 0.000000 0.000000 0.000000
# 4 0.000000 0.000000 0.000000 0.028887 0.000000 0.000000
# 5 0.000000 0.000000 0.000000 0.000000 0.031190 0.000000
# 6 0.000000 0.000000 0.000000 0.000000 0.000000 0.112227
#
#
# Mechanical properties :
#
#
# Convention : Reuss Voigt Hill
#
# Bulk Modulus (GPa) = 33.97384 54.29751 44.13568
# Shear Modulus (GPa) = 18.72448 26.08109 22.40278
#
# Velocity S-wave (km/s) = 3.07462 3.62869 3.36309
# Velocity P-wave (km/s) = 5.45496 6.70592 6.11252
#
# Compressibility (1/GPa) = 0.02943441
#
# Stress axis : x y z
#
# Youngs Moduli (GPa) = 64.52064 73.10154 35.72005
#
# Poissons Ratio (x) = 0.62475 -0.04239
# Poissons Ratio (y) = 0.55142 0.23254
# Poissons Ratio (z) = -0.07657 0.47590
#
# Static dielectric constant tensor:
#      x y z
#    x 3.591540 0.000000 0.000000 
#    y 0.000000 3.823700 0.000000 
#    z 0.000000 0.000000 3.596320 
# 
# 
# High freq. dielectric constant tensor:
#      x y z
#    x 1.768470 0.000000 0.000000 
#    y 0.000000 1.786830 0.000000 
#    z 0.000000 0.000000 1.781080 
# 
# From -- ./inp_files/2016.got.cif
#   From: 2010.03.12/outbox.cif.g09.slc.cpg/sg57_2_cif.got.tgz:2016.got - 2010.04.16 15:48:40.
