data_PCOD8233886
_publ_section_title
;
Structure prediction by ZEFSAII (Michael W. Deem and Ramdas Pophale) SiO2 
 PCOD8233886
Probable space group: P B C M
;
_chemical_formula_sum "Si O2"
_cell_formula_units_Z 56
_cell_length_a 14.506663
_cell_length_b 20.972537
_cell_length_c 9.357478
_cell_angle_alpha 90.000000
_cell_angle_beta 90.000000
_cell_angle_gamma 90.000000
_cell_volume 2846.933391
_symmetry_space_group_name_H-M "P B C M"
_symmetry_group_IT_number 57
_symmetry_cell_setting 'orthorhombic'
loop_
_space_group_symop_operation_xyz
x,y,z
-x,-y,1/2+z
x,1/2-y,-z
-x,1/2+y,1/2-z
-x,-y,-z
x,y,1/2-z
-x,1/2+y,z
x,1/2-y,1/2+z
loop_
_atom_site_type_symbol
_atom_site_label
_atom_site_fract_x
_atom_site_fract_y
_atom_site_fract_z
Si Si1 0.231036 0.809394 0.916788
Si Si2 0.372375 0.622408 0.586916
Si Si3 0.255029 0.376597 0.080930
Si Si4 0.244701 0.996047 0.090348
Si Si5 0.931671 0.813137 0.415119
Si Si6 0.106158 0.892463 0.410132
Si Si7 0.557237 0.686289 0.584548
O O1 0.236915 0.797010 0.750000
O O2 0.188017 0.750000 0.000000
O O3 0.331440 0.824617 0.980380
O O4 0.162024 0.865366 0.956235
O O5 0.346056 0.640242 0.750000
O O6 0.327514 0.553735 0.551007
O O7 0.482391 0.628973 0.563993
O O8 0.254426 0.384099 0.250000
O O9 0.167699 0.335520 0.027697
O O10 0.346181 0.340769 0.025778
O O11 0.251097 0.447211 0.019972
O O12 0.262220 0.022106 0.250000
O O13 0.140262 0.966087 0.083657
O O14 0.964489 0.750000 0.500000
O O15 0.927538 0.793357 0.250000
O O16 0.999482 0.874478 0.437281
O O17 0.133733 0.866713 0.250000
O O18 0.529607 0.750000 0.500000
O O19 0.565318 0.705318 0.750000
#
# Coordination Sequence:
#
# PCOD8233886 Si02
#       7
#     8   8   8   8   8   8   8
#     4  11  20  30  48  76 108 141 177 219 269 324
#     4   9  19  36  55  77 108 142 177 222 273 322
#     4  10  22  38  55  79 112 146 183 229 272 314
#     4   9  19  36  56  79 108 143 182 222 271 328
#     4  10  21  37  57  81 110 144 182 227 275 321
#     4   9  19  36  55  77 108 142 177 222 273 322
#     4  10  21  37  57  81 110 144 182 227 275 321
#
# _framework density 19.670286999999998
#
# number of rings (size 3 to 8) (size 9 to 14) (size 15 to 20)
#    0.000    2.286    0.000    3.429    0.000    8.000 
#    0.000    0.000    0.000    0.000    0.000    0.000 
#    0.000    0.000    0.000    0.000    0.000    0.000 
#
# Total GULP energy -693847.355999 kJ/mol
# GULP energy per Si atom -12390.131357 kJ/mol
# Density = 1.962552 g / cm^3
# Si number density = 19.670287 Si / 1000 Ang^3
#
#
#
# Elastic Constant Matrix: (Units=GPa)
#
#
# Indices 1 2 3 4 5 6 
#
# 1 123.6725 30.1522 19.5809 0.0000 0.0000 0.0000
# 2 30.1522 82.2179 31.4911 0.0000 0.0000 0.0000
# 3 19.5809 31.4911 79.6573 0.0000 0.0000 0.0000
# 4 0.0000 0.0000 0.0000 34.8235 0.0000 0.0000
# 5 0.0000 0.0000 0.0000 0.0000 16.4842 0.0000
# 6 0.0000 0.0000 0.0000 0.0000 0.0000 20.9046
#
#
#
# Elastic Compliance Matrix: (Units=1/GPa)
#
#
# Indices 1 2 3 4 5 6 
#
# 1 0.008956 -0.002877 -0.001064 0.000000 0.000000 0.000000
# 2 -0.002877 0.015257 -0.005325 0.000000 0.000000 0.000000
# 3 -0.001064 -0.005325 0.014920 0.000000 0.000000 0.000000
# 4 0.000000 0.000000 0.000000 0.028716 0.000000 0.000000
# 5 0.000000 0.000000 0.000000 0.000000 0.060664 0.000000
# 6 0.000000 0.000000 0.000000 0.000000 0.000000 0.047836
#
#
# Mechanical properties :
#
#
# Convention : Reuss Voigt Hill
#
# Bulk Modulus (GPa) = 48.53816 49.77734 49.15775
# Shear Modulus (GPa) = 24.78335 28.06403 26.42369
#
# Velocity S-wave (km/s) = 3.55341 3.78130 3.66912
# Velocity P-wave (km/s) = 6.44710 6.66521 6.55706
#
# Compressibility (1/GPa) = 0.02060235
#
# Stress axis : x y z
#
# Youngs Moduli (GPa) = 111.66026 65.54274 67.02274
#
# Poissons Ratio (x) = 0.18855 0.07132
# Poissons Ratio (y) = 0.32122 0.35686
# Poissons Ratio (z) = 0.11882 0.34898
#
# Static dielectric constant tensor:
#      x y z
#    x 3.834260 0.000000 0.000000 
#    y 0.000000 3.387820 0.000000 
#    z 0.000000 0.000000 3.539170 
# 
# 
# High freq. dielectric constant tensor:
#      x y z
#    x 1.770700 0.000000 0.000000 
#    y 0.000000 1.747850 0.000000 
#    z 0.000000 0.000000 1.760170 
# 
# From -- ./inp_files/5212.got.cif
#   From: 2010.03.12/outbox.cif.g09.slc.cpg/sg57_3_cif.got.tgz:5212.got - 2010.04.16 15:48:40.
