data_PCOD8233373
_publ_section_title
;
Structure prediction by ZEFSAII (Michael W. Deem and Ramdas Pophale) SiO2 
 PCOD8233373
Probable space group: P B C M
;
_chemical_formula_sum "Si O2"
_cell_formula_units_Z 48
_cell_length_a 11.608672
_cell_length_b 25.449917
_cell_length_c 8.664148
_cell_angle_alpha 90.000000
_cell_angle_beta 90.000000
_cell_angle_gamma 90.000000
_cell_volume 2559.733623
_symmetry_space_group_name_H-M "P B C M"
_symmetry_group_IT_number 57
_symmetry_cell_setting 'orthorhombic'
loop_
_space_group_symop_operation_xyz
x,y,z
-x,-y,1/2+z
x,1/2-y,-z
-x,1/2+y,1/2-z
-x,-y,-z
x,y,1/2-z
-x,1/2+y,z
x,1/2-y,1/2+z
loop_
_atom_site_type_symbol
_atom_site_label
_atom_site_fract_x
_atom_site_fract_y
_atom_site_fract_z
Si Si1 0.874187 0.694820 0.568764
Si Si2 0.732644 0.595431 0.567180
Si Si3 0.861696 0.194159 0.932782
Si Si4 0.125685 0.499831 0.569345
Si Si5 0.505974 0.557485 0.428095
Si Si6 0.251818 0.595215 0.428172
O O1 0.831859 0.750000 0.500000
O O2 0.861827 0.699394 0.750000
O O3 0.793942 0.648130 0.503375
O O4 0.005743 0.682207 0.522231
O O5 0.734523 0.594516 0.750000
O O6 0.799321 0.544772 0.509106
O O7 0.602030 0.593461 0.508737
O O8 0.842463 0.192284 0.750000
O O9 0.824375 0.250000 0.000000
O O10 0.779717 0.153297 0.018250
O O11 0.119153 0.489534 0.750000
O O12 0.183012 0.555667 0.537047
O O13 0.000000 0.500000 0.500000
O O14 0.500000 0.500000 0.500000
O O15 0.538180 0.550569 0.250000
O O16 0.387301 0.587895 0.452593
O O17 0.217433 0.585921 0.250000
#
# Coordination Sequence:
#
# PCOD8233373 Si02
#       6
#     8   8   8   8   8   8
#     4   9  20  37  59  86 116 151 189 236 290 347
#     4  11  22  38  59  86 119 153 196 243 291 352
#     4  10  20  37  61  88 119 155 195 241 297 356
#     4  12  24  37  57  85 118 153 191 239 298 355
#     4  11  23  39  60  84 115 157 200 243 294 351
#     4  11  23  39  59  85 117 153 198 246 292 352
#
# _framework density 18.751950999999998
#
# number of rings (size 3 to 8) (size 9 to 14) (size 15 to 20)
#    0.000    1.333    1.667    4.500    0.000    5.333 
#    0.000    0.833    0.000    2.000    0.000    0.000 
#    0.000    0.000    0.000    0.000    0.000    0.000 
#
# Total GULP energy -595452.319043 kJ/mol
# GULP energy per Si atom -12405.256647 kJ/mol
# Density = 1.870927 g / cm^3
# Si number density = 18.751951 Si / 1000 Ang^3
#
#
#
# Elastic Constant Matrix: (Units=GPa)
#
#
# Indices 1 2 3 4 5 6 
#
# 1 110.1008 63.6203 43.3837 0.0000 0.0000 0.0000
# 2 63.6203 138.8500 32.6362 0.0000 0.0000 0.0000
# 3 43.3837 32.6362 76.3169 0.0000 0.0000 0.0000
# 4 0.0000 0.0000 0.0000 34.1915 0.0000 0.0000
# 5 0.0000 0.0000 0.0000 0.0000 29.2100 0.0000
# 6 0.0000 0.0000 0.0000 0.0000 0.0000 11.9840
#
#
#
# Elastic Compliance Matrix: (Units=1/GPa)
#
#
# Indices 1 2 3 4 5 6 
#
# 1 0.014456 -0.005216 -0.005987 0.000000 0.000000 0.000000
# 2 -0.005216 0.009889 -0.001264 0.000000 0.000000 0.000000
# 3 -0.005987 -0.001264 0.017047 0.000000 0.000000 0.000000
# 4 0.000000 0.000000 0.000000 0.029247 0.000000 0.000000
# 5 0.000000 0.000000 0.000000 0.000000 0.034235 0.000000
# 6 0.000000 0.000000 0.000000 0.000000 0.000000 0.083445
#
#
# Mechanical properties :
#
#
# Convention : Reuss Voigt Hill
#
# Bulk Modulus (GPa) = 60.76050 67.17203 63.96627
# Shear Modulus (GPa) = 22.85835 27.45228 25.15531
#
# Velocity S-wave (km/s) = 3.49518 3.83034 3.66659
# Velocity P-wave (km/s) = 6.98291 7.44722 7.21880
#
# Compressibility (1/GPa) = 0.01645806
#
# Stress axis : x y z
#
# Youngs Moduli (GPa) = 69.17598 101.12083 58.66126
#
# Poissons Ratio (x) = 0.52749 0.35120
# Poissons Ratio (y) = 0.36085 0.07413
# Poissons Ratio (z) = 0.41415 0.12778
#
# Static dielectric constant tensor:
#      x y z
#    x 3.586510 0.000000 0.000000 
#    y 0.000000 3.576720 0.000000 
#    z 0.000000 0.000000 3.473580 
# 
# 
# High freq. dielectric constant tensor:
#      x y z
#    x 1.729930 0.000000 0.000000 
#    y 0.000000 1.732130 0.000000 
#    z 0.000000 0.000000 1.742130 
# 
# From -- ./inp_files/3141.got.cif
#   From: 2010.03.12/outbox.cif.g09.slc.cpg/sg57_2_cif.got.tgz:3141.got - 2010.04.16 15:48:40.
