data_PCOD8233962
_publ_section_title
;
Structure prediction by ZEFSAII (Michael W. Deem and Ramdas Pophale) SiO2 
 PCOD8233962
Probable space group: P B C M
;
_chemical_formula_sum "Si O2"
_cell_formula_units_Z 40
_cell_length_a 25.472926
_cell_length_b 9.169756
_cell_length_c 8.647696
_cell_angle_alpha 90.000000
_cell_angle_beta 90.000000
_cell_angle_gamma 90.000000
_cell_volume 2019.933294
_symmetry_space_group_name_H-M "P B C M"
_symmetry_group_IT_number 57
_symmetry_cell_setting 'orthorhombic'
loop_
_space_group_symop_operation_xyz
x,y,z
-x,-y,1/2+z
x,1/2-y,-z
-x,1/2+y,1/2-z
-x,-y,-z
x,y,1/2-z
-x,1/2+y,z
x,1/2-y,1/2+z
loop_
_atom_site_type_symbol
_atom_site_label
_atom_site_fract_x
_atom_site_fract_y
_atom_site_fract_z
Si Si1 0.952522 0.909335 0.067500
Si Si2 0.256608 0.904616 0.430008
Si Si3 0.853208 0.093603 0.432231
Si Si4 0.642428 0.910221 0.931212
Si Si5 0.548245 0.410952 0.566803
O O1 0.958162 0.904058 0.250000
O O2 0.897565 0.980322 0.015587
O O3 0.954892 0.750000 0.000000
O O4 0.000000 0.000000 0.000000
O O5 0.274567 0.750000 0.500000
O O6 0.247503 0.879600 0.250000
O O7 0.202597 0.961861 0.504054
O O8 0.299930 0.026682 0.463681
O O9 0.868364 0.250000 0.500000
O O10 0.849518 0.107873 0.250000
O O11 0.628945 0.906883 0.750000
O O12 0.638750 0.750000 0.000000
O O13 0.602022 0.013486 0.018373
O O14 0.546606 0.250000 0.500000
O O15 0.500000 0.500000 0.500000
O O16 0.543960 0.404178 0.750000
#
# Coordination Sequence:
#
# PCOD8233962 Si02
#       5
#     8   8   8   8   8
#     4  11  24  40  60  86 116 153 194 241 293 350
#     4  10  21  37  60  87 117 154 196 241 292 348
#     4  10  21  37  59  86 116 151 193 239 291 348
#     4  11  24  41  61  89 122 159 201 246 296 350
#     4  12  25  43  66  92 123 159 199 245 296 352
#
# _framework density 19.802633
#
# number of rings (size 3 to 8) (size 9 to 14) (size 15 to 20)
#    0.000    1.200    0.000    7.200    0.000   10.400 
#    0.000    4.000    0.000    0.000    0.000    0.000 
#    0.000    0.000    0.000    0.000    0.000    0.000 
#
# Total GULP energy -496209.310947 kJ/mol
# GULP energy per Si atom -12405.232774 kJ/mol
# Density = 1.975756 g / cm^3
# Si number density = 19.802633 Si / 1000 Ang^3
#
#
#
# Elastic Constant Matrix: (Units=GPa)
#
#
# Indices 1 2 3 4 5 6 
#
# 1 139.5970 92.4504 74.8129 0.0000 0.0000 0.0000
# 2 92.4504 170.5194 69.2790 0.0000 0.0000 0.0000
# 3 74.8129 69.2790 139.5273 0.0000 0.0000 0.0000
# 4 0.0000 0.0000 0.0000 38.6203 0.0000 0.0000
# 5 0.0000 0.0000 0.0000 0.0000 32.9098 0.0000
# 6 0.0000 0.0000 0.0000 0.0000 0.0000 40.4229
#
#
#
# Elastic Compliance Matrix: (Units=1/GPa)
#
#
# Indices 1 2 3 4 5 6 
#
# 1 0.012985 -0.005275 -0.004343 0.000000 0.000000 0.000000
# 2 -0.005275 0.009490 -0.001883 0.000000 0.000000 0.000000
# 3 -0.004343 -0.001883 0.010431 0.000000 0.000000 0.000000
# 4 0.000000 0.000000 0.000000 0.025893 0.000000 0.000000
# 5 0.000000 0.000000 0.000000 0.000000 0.030386 0.000000
# 6 0.000000 0.000000 0.000000 0.000000 0.000000 0.024738
#
#
# Mechanical properties :
#
#
# Convention : Reuss Voigt Hill
#
# Bulk Modulus (GPa) = 100.98943 102.52537 101.75740
# Shear Modulus (GPa) = 35.65659 36.59736 36.12698
#
# Velocity S-wave (km/s) = 4.24795 4.30362 4.27588
# Velocity P-wave (km/s) = 8.66999 8.75105 8.71062
#
# Compressibility (1/GPa) = 0.00990203
#
# Stress axis : x y z
#
# Youngs Moduli (GPa) = 77.01406 105.37653 95.87077
#
# Poissons Ratio (x) = 0.55591 0.41635
# Poissons Ratio (y) = 0.40629 0.18055
# Poissons Ratio (z) = 0.33446 0.19845
#
# Static dielectric constant tensor:
#      x y z
#    x 3.943170 0.000000 0.000000 
#    y 0.000000 3.643400 0.000000 
#    z 0.000000 0.000000 3.806670 
# 
# 
# High freq. dielectric constant tensor:
#      x y z
#    x 1.790860 0.000000 0.000000 
#    y 0.000000 1.779430 0.000000 
#    z 0.000000 0.000000 1.793200 
# 
# From -- ./inp_files/8927.got.cif
#   From: 2010.03.12/outbox.cif.g09.slc.cpg/sg57_5_cif.got.tgz:8927.got - 2010.04.16 15:48:40.
