data_PCOD8233116
_publ_section_title
;
Structure prediction by ZEFSAII (Michael W. Deem and Ramdas Pophale) SiO2 
 PCOD8233116
Probable space group: P B C M
;
_chemical_formula_sum "Si O2"
_cell_formula_units_Z 64
_cell_length_a 21.387665
_cell_length_b 17.840874
_cell_length_c 8.562779
_cell_angle_alpha 90.000000
_cell_angle_beta 90.000000
_cell_angle_gamma 90.000000
_cell_volume 3267.339284
_symmetry_space_group_name_H-M "P B C M"
_symmetry_group_IT_number 57
_symmetry_cell_setting 'orthorhombic'
loop_
_space_group_symop_operation_xyz
x,y,z
-x,-y,1/2+z
x,1/2-y,-z
-x,1/2+y,1/2-z
-x,-y,-z
x,y,1/2-z
-x,1/2+y,z
x,1/2-y,1/2+z
loop_
_atom_site_type_symbol
_atom_site_label
_atom_site_fract_x
_atom_site_fract_y
_atom_site_fract_z
Si Si1 0.191787 0.955021 0.067850
Si Si2 0.605350 0.078932 0.068461
Si Si3 0.505212 0.669924 0.566946
Si Si4 0.936137 0.970450 0.568110
Si Si5 0.253319 0.095996 0.932625
Si Si6 0.126815 0.329701 0.066282
Si Si7 0.730365 0.332276 0.566685
Si Si8 0.381535 0.083153 0.068343
O O1 0.205655 0.967623 0.250000
O O2 0.119111 0.970503 0.029067
O O3 0.209613 0.871062 0.015172
O O4 0.235568 0.010144 0.967963
O O5 0.589161 0.090768 0.250000
O O6 0.669008 0.120569 0.022248
O O7 0.550058 0.111459 0.963401
O O8 0.610500 0.991139 0.034533
O O9 0.484300 0.750000 0.500000
O O10 0.518706 0.675113 0.750000
O O11 0.567219 0.644078 0.477793
O O12 0.943710 0.958598 0.750000
O O13 0.922475 0.890019 0.494014
O O14 0.000000 0.000000 0.500000
O O15 0.267319 0.104275 0.750000
O O16 0.196817 0.149209 0.989725
O O17 0.314242 0.119658 0.030255
O O18 0.123456 0.328278 0.250000
O O19 0.106951 0.250000 0.000000
O O20 0.721848 0.250000 0.500000
O O21 0.742015 0.328592 0.750000
O O22 0.386929 0.063133 0.250000
#
# Coordination Sequence:
#
# PCOD8233116 Si02
#       8
#     8   8   8   8   8   8   8   8
#     4  10  20  36  59  86 118 152 194 240 288 348
#     4  11  23  41  63  88 117 152 198 246 297 357
#     4  12  26  44  62  83 115 153 197 248 303 361
#     4  10  21  38  62  91 122 161 204 247 292 349
#     4  10  20  36  58  86 118 154 195 241 294 350
#     4  10  21  37  60  89 124 161 200 248 298 351
#     4  11  23  37  59  87 120 155 194 243 298 353
#     4  12  24  39  62  89 118 155 198 246 298 355
#
# _framework density 19.587803000000001
#
# number of rings (size 3 to 8) (size 9 to 14) (size 15 to 20)
#    0.000    1.250    1.250    5.250    0.000    6.000 
#    0.000    1.875    0.000    3.000    0.000    0.000 
#    0.000    0.000    0.000    0.000    0.000    0.000 
#
# Total GULP energy -794017.417291 kJ/mol
# GULP energy per Si atom -12406.522145 kJ/mol
# Density = 1.954322 g / cm^3
# Si number density = 19.587803 Si / 1000 Ang^3
#
#
#
# Elastic Constant Matrix: (Units=GPa)
#
#
# Indices 1 2 3 4 5 6 
#
# 1 117.9115 39.5831 39.8532 0.0000 0.0000 0.0000
# 2 39.5831 88.2058 28.7524 0.0000 0.0000 0.0000
# 3 39.8532 28.7524 76.6433 0.0000 0.0000 0.0000
# 4 0.0000 0.0000 0.0000 34.2031 0.0000 0.0000
# 5 0.0000 0.0000 0.0000 0.0000 34.0890 0.0000
# 6 0.0000 0.0000 0.0000 0.0000 0.0000 20.2418
#
#
#
# Elastic Compliance Matrix: (Units=1/GPa)
#
#
# Indices 1 2 3 4 5 6 
#
# 1 0.011192 -0.003561 -0.004484 0.000000 0.000000 0.000000
# 2 -0.003561 0.014050 -0.003419 0.000000 0.000000 0.000000
# 3 -0.004484 -0.003419 0.016662 0.000000 0.000000 0.000000
# 4 0.000000 0.000000 0.000000 0.029237 0.000000 0.000000
# 5 0.000000 0.000000 0.000000 0.000000 0.029335 0.000000
# 6 0.000000 0.000000 0.000000 0.000000 0.000000 0.049403
#
#
# Mechanical properties :
#
#
# Convention : Reuss Voigt Hill
#
# Bulk Modulus (GPa) = 52.69897 55.45977 54.07937
# Shear Modulus (GPa) = 27.91266 29.34490 28.62878
#
# Velocity S-wave (km/s) = 3.77902 3.87476 3.82719
# Velocity P-wave (km/s) = 6.78260 6.95652 6.87011
#
# Compressibility (1/GPa) = 0.01897570
#
# Stress axis : x y z
#
# Youngs Moduli (GPa) = 89.35137 71.17642 60.01846
#
# Poissons Ratio (x) = 0.25345 0.26910
# Poissons Ratio (y) = 0.31817 0.20521
# Poissons Ratio (z) = 0.40062 0.24336
#
# Static dielectric constant tensor:
#      x y z
#    x 3.617080 0.000000 0.000000 
#    y 0.000000 3.617450 0.000000 
#    z 0.000000 0.000000 3.625390 
# 
# 
# High freq. dielectric constant tensor:
#      x y z
#    x 1.761810 0.000000 0.000000 
#    y 0.000000 1.759030 0.000000 
#    z 0.000000 0.000000 1.778770 
# 
# From -- ./inp_files/8510.got.cif
#   From: 2010.03.12/outbox.cif.g09.slc.cpg/sg57_5_cif.got.tgz:8510.got - 2010.04.16 15:48:40.
