data_PCOD8233222
_publ_section_title
;
Structure prediction by ZEFSAII (Michael W. Deem and Ramdas Pophale) SiO2 
 PCOD8233222
Probable space group: P B C M
;
_chemical_formula_sum "Si O2"
_cell_formula_units_Z 64
_cell_length_a 23.783640
_cell_length_b 15.022558
_cell_length_c 8.854890
_cell_angle_alpha 90.000000
_cell_angle_beta 90.000000
_cell_angle_gamma 90.000000
_cell_volume 3163.773489
_symmetry_space_group_name_H-M "P B C M"
_symmetry_group_IT_number 57
_symmetry_cell_setting 'orthorhombic'
loop_
_space_group_symop_operation_xyz
x,y,z
-x,-y,1/2+z
x,1/2-y,-z
-x,1/2+y,1/2-z
-x,-y,-z
x,y,1/2-z
-x,1/2+y,z
x,1/2-y,1/2+z
loop_
_atom_site_type_symbol
_atom_site_label
_atom_site_fract_x
_atom_site_fract_y
_atom_site_fract_z
Si Si1 0.499198 0.341964 0.930511
Si Si2 0.077024 0.480256 0.924685
Si Si3 0.605302 0.908317 0.079225
Si Si4 0.379691 0.611277 0.080483
Si Si5 0.206529 0.497555 0.924650
Si Si6 0.739563 0.338300 0.928705
Si Si7 0.007081 0.848979 0.428208
Si Si8 0.712663 0.838346 0.572145
O O1 0.498495 0.344240 0.750000
O O2 0.561556 0.361213 0.998717
O O3 0.477484 0.250000 0.000000
O O4 0.454628 0.413018 0.993760
O O5 0.061783 0.465395 0.750000
O O6 0.142763 0.470601 0.956383
O O7 0.056696 0.580315 0.972709
O O8 0.049433 0.398855 0.017099
O O9 0.597334 0.872866 0.250000
O O10 0.629779 0.006631 0.078865
O O11 0.649742 0.847793 0.991917
O O12 0.383400 0.647926 0.250000
O O13 0.323929 0.651364 0.002096
O O14 0.216446 0.521630 0.750000
O O15 0.246909 0.418189 0.977273
O O16 0.220259 0.581992 0.025749
O O17 0.737542 0.332282 0.750000
O O18 0.766335 0.250000 0.000000
O O19 0.015700 0.750000 0.500000
O O20 0.004166 0.833640 0.250000
O O21 0.739491 0.750000 0.500000
O O22 0.709062 0.828587 0.750000
#
# Coordination Sequence:
#
# PCOD8233222 Si02
#       8
#     8   8   8   8   8   8   8   8
#     4  11  22  37  54  79 109 141 183 232 290 353
#     4   9  20  39  61  88 124 161 202 250 295 346
#     4  11  21  38  59  81 109 143 186 237 294 354
#     4   9  20  37  58  81 109 143 186 237 291 352
#     4  10  22  41  62  88 121 157 200 249 296 346
#     4  11  22  39  61  87 118 156 198 245 297 354
#     4  10  20  36  61  91 125 164 203 244 294 346
#     4  11  23  39  60  85 114 152 196 242 295 354
#
# _framework density 20.229008
#
# number of rings (size 3 to 8) (size 9 to 14) (size 15 to 20)
#    0.000    1.750    1.250    3.000    0.000    2.500 
#    0.000    6.250    0.000    0.000    0.000    0.000 
#    0.000    0.000    0.000    0.000    0.000    0.000 
#
# Total GULP energy -793476.683971 kJ/mol
# GULP energy per Si atom -12398.073187 kJ/mol
# Density = 2.018297 g / cm^3
# Si number density = 20.229008 Si / 1000 Ang^3
#
#
#
# Elastic Constant Matrix: (Units=GPa)
#
#
# Indices 1 2 3 4 5 6 
#
# 1 82.4960 18.5947 28.1081 0.0000 0.0000 0.0000
# 2 18.5947 105.2469 39.2191 0.0000 0.0000 0.0000
# 3 28.1081 39.2191 79.4346 0.0000 0.0000 0.0000
# 4 0.0000 0.0000 0.0000 33.8238 0.0000 0.0000
# 5 0.0000 0.0000 0.0000 0.0000 26.0945 0.0000
# 6 0.0000 0.0000 0.0000 0.0000 0.0000 10.7614
#
#
#
# Elastic Compliance Matrix: (Units=1/GPa)
#
#
# Indices 1 2 3 4 5 6 
#
# 1 0.013833 -0.000760 -0.004520 0.000000 0.000000 0.000000
# 2 -0.000760 0.011685 -0.005501 0.000000 0.000000 0.000000
# 3 -0.004520 -0.005501 0.016904 0.000000 0.000000 0.000000
# 4 0.000000 0.000000 0.000000 0.029565 0.000000 0.000000
# 5 0.000000 0.000000 0.000000 0.000000 0.038322 0.000000
# 6 0.000000 0.000000 0.000000 0.000000 0.000000 0.092925
#
#
# Mechanical properties :
#
#
# Convention : Reuss Voigt Hill
#
# Bulk Modulus (GPa) = 47.93312 48.78013 48.35663
# Shear Modulus (GPa) = 21.57507 26.21966 23.89737
#
# Velocity S-wave (km/s) = 3.26934 3.60410 3.44079
# Velocity P-wave (km/s) = 6.16426 6.44094 6.30412
#
# Compressibility (1/GPa) = 0.02086240
#
# Stress axis : x y z
#
# Youngs Moduli (GPa) = 72.29083 85.57670 59.15726
#
# Poissons Ratio (x) = 0.06502 0.26738
# Poissons Ratio (y) = 0.05492 0.32540
# Poissons Ratio (z) = 0.32674 0.47072
#
# Static dielectric constant tensor:
#      x y z
#    x 3.692170 0.000000 0.000000 
#    y 0.000000 3.729410 0.000000 
#    z 0.000000 0.000000 3.587470 
# 
# 
# High freq. dielectric constant tensor:
#      x y z
#    x 1.788290 0.000000 0.000000 
#    y 0.000000 1.797770 0.000000 
#    z 0.000000 0.000000 1.782100 
# 
# From -- ./inp_files/9364.got.cif
#   From: 2010.03.12/outbox.cif.g09.slc.cpg/sg57_5_cif.got.tgz:9364.got - 2010.04.16 15:48:40.
