data_PCOD8233632
_publ_section_title
;
Structure prediction by ZEFSAII (Michael W. Deem and Ramdas Pophale) SiO2 
 PCOD8233632
Probable space group: P B C M
;
_chemical_formula_sum "Si O2"
_cell_formula_units_Z 40
_cell_length_a 7.549802
_cell_length_b 19.001520
_cell_length_c 13.865551
_cell_angle_alpha 90.000000
_cell_angle_beta 90.000000
_cell_angle_gamma 90.000000
_cell_volume 1989.120246
_symmetry_space_group_name_H-M "P B C M"
_symmetry_group_IT_number 57
_symmetry_cell_setting 'orthorhombic'
loop_
_space_group_symop_operation_xyz
x,y,z
-x,-y,1/2+z
x,1/2-y,-z
-x,1/2+y,1/2-z
-x,-y,-z
x,y,1/2-z
-x,1/2+y,z
x,1/2-y,1/2+z
loop_
_atom_site_type_symbol
_atom_site_label
_atom_site_fract_x
_atom_site_fract_y
_atom_site_fract_z
Si Si1 0.627448 0.329565 0.517419
Si Si2 0.851932 0.542107 0.642086
Si Si3 0.299644 0.083547 0.051657
Si Si4 0.932475 0.118292 0.139073
Si Si5 0.739960 0.066037 0.860850
O O1 0.568496 0.250000 0.500000
O O2 0.469037 0.368470 0.574329
O O3 0.805459 0.328740 0.581699
O O4 0.657843 0.367875 0.415606
O O5 0.784447 0.560249 0.750000
O O6 0.724288 0.577997 0.564303
O O7 0.851015 0.458861 0.624259
O O8 0.049566 0.570091 0.626210
O O9 0.130975 0.121476 0.098785
O O10 0.334323 0.006880 0.096413
O O11 0.938301 0.140969 0.250000
O O12 0.682913 0.070159 0.750000
#
# Coordination Sequence:
#
# PCOD8233632 Si02
#       5
#     8   8   8   8   8
#     4  12  26  40  60  89 131 170 205 247 308 381
#     4   9  17  34  66  96 117 150 204 262 311 360
#     4  11  20  40  65  94 121 159 209 262 308 361
#     4  10  21  40  65  90 120 156 202 259 312 361
#     4  10  20  39  65  93 121 156 209 267 313 361
#
# _framework density 20.109393000000001
#
# number of rings (size 3 to 8) (size 9 to 14) (size 15 to 20)
#    0.000    1.600    4.000    3.600    0.000    4.000 
#    0.000    0.000    0.000    0.000    0.000    0.000 
#    0.000    0.000    0.000    0.000    0.000    0.000 
#
# Total GULP energy -496166.617447 kJ/mol
# GULP energy per Si atom -12404.165436 kJ/mol
# Density = 2.006362 g / cm^3
# Si number density = 20.109393 Si / 1000 Ang^3
#
#
#
# Elastic Constant Matrix: (Units=GPa)
#
#
# Indices 1 2 3 4 5 6 
#
# 1 67.1008 46.3375 39.9472 0.0000 0.0000 0.0000
# 2 46.3375 93.2413 43.1139 0.0000 0.0000 0.0000
# 3 39.9472 43.1139 135.8605 0.0000 0.0000 0.0000
# 4 0.0000 0.0000 0.0000 9.6539 0.0000 0.0000
# 5 0.0000 0.0000 0.0000 0.0000 14.0805 0.0000
# 6 0.0000 0.0000 0.0000 0.0000 0.0000 15.1402
#
#
#
# Elastic Compliance Matrix: (Units=1/GPa)
#
#
# Indices 1 2 3 4 5 6 
#
# 1 0.024323 -0.010291 -0.003886 0.000000 0.000000 0.000000
# 2 -0.010291 0.016923 -0.002345 0.000000 0.000000 0.000000
# 3 -0.003886 -0.002345 0.009247 0.000000 0.000000 0.000000
# 4 0.000000 0.000000 0.000000 0.103585 0.000000 0.000000
# 5 0.000000 0.000000 0.000000 0.000000 0.071020 0.000000
# 6 0.000000 0.000000 0.000000 0.000000 0.000000 0.066050
#
#
# Mechanical properties :
#
#
# Convention : Reuss Voigt Hill
#
# Bulk Modulus (GPa) = 57.30517 61.66667 59.48592
# Shear Modulus (GPa) = 15.15121 18.89519 17.02320
#
# Velocity S-wave (km/s) = 2.74786 3.06865 2.91267
# Velocity P-wave (km/s) = 6.21500 6.57933 6.39976
#
# Compressibility (1/GPa) = 0.01745043
#
# Stress axis : x y z
#
# Youngs Moduli (GPa) = 41.11369 59.09098 108.14171
#
# Poissons Ratio (x) = 0.60809 0.42024
# Poissons Ratio (y) = 0.42309 0.25355
# Poissons Ratio (z) = 0.15977 0.13854
#
# Static dielectric constant tensor:
#      x y z
#    x 3.620770 0.000000 0.000000 
#    y 0.000000 3.229130 0.000000 
#    z 0.000000 0.000000 3.838140 
# 
# 
# High freq. dielectric constant tensor:
#      x y z
#    x 1.791050 0.000000 0.000000 
#    y 0.000000 1.740710 0.000000 
#    z 0.000000 0.000000 1.798240 
# 
# From -- ./inp_files/15900.got.cif
#   From: 2010.03.12/outbox.cif.g09.slc.cpg/sg57_8_cif.got.tgz:15900.got - 2010.04.16 15:48:40.
