data_PCOD8233855
_publ_section_title
;
Structure prediction by ZEFSAII (Michael W. Deem and Ramdas Pophale) SiO2 
 PCOD8233855
Probable space group: P B C M
;
_chemical_formula_sum "Si O2"
_cell_formula_units_Z 56
_cell_length_a 14.170345
_cell_length_b 21.599544
_cell_length_c 9.883493
_cell_angle_alpha 90.000000
_cell_angle_beta 90.000000
_cell_angle_gamma 90.000000
_cell_volume 3025.070257
_symmetry_space_group_name_H-M "P B C M"
_symmetry_group_IT_number 57
_symmetry_cell_setting 'orthorhombic'
loop_
_space_group_symop_operation_xyz
x,y,z
-x,-y,1/2+z
x,1/2-y,-z
-x,1/2+y,1/2-z
-x,-y,-z
x,y,1/2-z
-x,1/2+y,z
x,1/2-y,1/2+z
loop_
_atom_site_type_symbol
_atom_site_label
_atom_site_fract_x
_atom_site_fract_y
_atom_site_fract_z
Si Si1 0.300247 0.697527 0.094429
Si Si2 0.391878 0.571354 0.469662
Si Si3 0.080203 0.194408 0.906782
Si Si4 0.132780 0.839879 0.403691
Si Si5 0.208568 0.420723 0.408895
Si Si6 0.208466 0.529675 0.898626
Si Si7 0.586324 0.935574 0.103599
O O1 0.285298 0.720218 0.250000
O O2 0.358209 0.633479 0.105484
O O3 0.352613 0.750000 0.000000
O O4 0.200302 0.688850 0.017987
O O5 0.315864 0.555366 0.586147
O O6 0.399756 0.509934 0.378480
O O7 0.497677 0.585436 0.517014
O O8 0.095261 0.211530 0.750000
O O9 0.142761 0.135858 0.948450
O O10 0.972138 0.180454 0.940423
O O11 0.116311 0.250000 0.000000
O O12 0.160681 0.818823 0.250000
O O13 0.135728 0.913972 0.411854
O O14 0.204136 0.436544 0.250000
O O15 0.174470 0.481035 0.489692
O O16 0.316682 0.406371 0.454976
O O17 0.202246 0.499215 0.750000
O O18 0.567410 0.907184 0.250000
#
# Coordination Sequence:
#
# PCOD8233855 Si02
#       7
#     8   8   8   8   8   8   8
#     4  11  22  35  52  76 107 139 170 205 249 305
#     4   9  18  31  50  76 105 134 167 206 252 302
#     4  10  21  37  54  72  98 134 175 216 255 298
#     4   9  19  35  54  77 104 133 167 208 254 303
#     4   9  19  34  51  74 104 135 169 211 257 301
#     4   9  17  30  50  77 106 132 162 205 255 306
#     4   9  16  30  53  76  99 131 169 208 252 300
#
# _framework density 18.511968
#
# number of rings (size 3 to 8) (size 9 to 14) (size 15 to 20)
#    0.000    2.571    0.000    1.714    0.000    8.000 
#    0.000    1.429    0.000    1.714    0.000    0.000 
#    0.000    0.000    0.000    0.000    0.000    0.000 
#
# Total GULP energy -693889.980503 kJ/mol
# GULP energy per Si atom -12390.892509 kJ/mol
# Density = 1.846983 g / cm^3
# Si number density = 18.511968 Si / 1000 Ang^3
#
#
#
# Elastic Constant Matrix: (Units=GPa)
#
#
# Indices 1 2 3 4 5 6 
#
# 1 62.1083 37.4456 22.9563 0.0000 0.0000 0.0000
# 2 37.4456 88.7515 42.9862 0.0000 0.0000 0.0000
# 3 22.9563 42.9862 99.2025 0.0000 0.0000 0.0000
# 4 0.0000 0.0000 0.0000 28.4402 0.0000 0.0000
# 5 0.0000 0.0000 0.0000 0.0000 13.6947 0.0000
# 6 0.0000 0.0000 0.0000 0.0000 0.0000 24.0286
#
#
#
# Elastic Compliance Matrix: (Units=1/GPa)
#
#
# Indices 1 2 3 4 5 6 
#
# 1 0.021733 -0.008522 -0.001336 0.000000 0.000000 0.000000
# 2 -0.008522 0.017602 -0.005655 0.000000 0.000000 0.000000
# 3 -0.001336 -0.005655 0.012840 0.000000 0.000000 0.000000
# 4 0.000000 0.000000 0.000000 0.035162 0.000000 0.000000
# 5 0.000000 0.000000 0.000000 0.000000 0.073021 0.000000
# 6 0.000000 0.000000 0.000000 0.000000 0.000000 0.041617
#
#
# Mechanical properties :
#
#
# Convention : Reuss Voigt Hill
#
# Bulk Modulus (GPa) = 47.28652 50.75982 49.02317
# Shear Modulus (GPa) = 20.82886 23.01097 21.91991
#
# Velocity S-wave (km/s) = 3.35797 3.52949 3.44480
# Velocity P-wave (km/s) = 6.37447 6.63998 6.50858
#
# Compressibility (1/GPa) = 0.02114767
#
# Stress axis : x y z
#
# Youngs Moduli (GPa) = 46.01306 56.81142 77.88083
#
# Poissons Ratio (x) = 0.48416 0.10408
# Poissons Ratio (y) = 0.39213 0.44043
# Poissons Ratio (z) = 0.06149 0.32128
#
# Static dielectric constant tensor:
#      x y z
#    x 3.346670 0.000000 0.000000 
#    y 0.000000 3.376190 0.000000 
#    z 0.000000 0.000000 3.360230 
# 
# 
# High freq. dielectric constant tensor:
#      x y z
#    x 1.708040 0.000000 0.000000 
#    y 0.000000 1.707810 0.000000 
#    z 0.000000 0.000000 1.716160 
# 
# From -- ./inp_files/5205.got.cif
#   From: 2010.03.12/outbox.cif.g09.slc.cpg/sg57_3_cif.got.tgz:5205.got - 2010.04.16 15:48:40.
