data_PCOD8233390
_publ_section_title
;
Structure prediction by ZEFSAII (Michael W. Deem and Ramdas Pophale) SiO2 
 PCOD8233390
Probable space group: P B C M
;
_chemical_formula_sum "Si O2"
_cell_formula_units_Z 48
_cell_length_a 9.164675
_cell_length_b 13.942084
_cell_length_c 17.856064
_cell_angle_alpha 90.000000
_cell_angle_beta 90.000000
_cell_angle_gamma 90.000000
_cell_volume 2281.552662
_symmetry_space_group_name_H-M "P B C M"
_symmetry_group_IT_number 57
_symmetry_cell_setting 'orthorhombic'
loop_
_space_group_symop_operation_xyz
x,y,z
-x,-y,1/2+z
x,1/2-y,-z
-x,1/2+y,1/2-z
-x,-y,-z
x,y,1/2-z
-x,1/2+y,z
x,1/2-y,1/2+z
loop_
_atom_site_type_symbol
_atom_site_label
_atom_site_fract_x
_atom_site_fract_y
_atom_site_fract_z
Si Si1 0.708627 0.622298 0.664829
Si Si2 0.128451 0.902508 0.049719
Si Si3 0.585928 0.707895 0.422773
Si Si4 0.896191 0.615416 0.071657
Si Si5 0.614041 0.046540 0.443398
Si Si6 0.015927 0.723026 0.665783
O O1 0.666473 0.596365 0.750000
O O2 0.604788 0.710343 0.639652
O O3 0.683646 0.530318 0.612644
O O4 0.876507 0.653276 0.659481
O O5 0.144898 0.821613 0.114208
O O6 0.113450 0.003672 0.092659
O O7 0.260230 0.902541 0.991507
O O8 0.980734 0.873471 0.006484
O O9 0.523179 0.750000 0.500000
O O10 0.737211 0.656735 0.443558
O O11 0.469359 0.628202 0.394850
O O12 0.976317 0.669783 0.139398
O O13 0.500000 0.000000 0.500000
O O14 0.074434 0.730438 0.750000
#
# Coordination Sequence:
#
# PCOD8233390 Si02
#       6
#     8   8   8   8   8   8
#     4  10  22  42  65  91 126 168 213 264 320 373
#     4  11  21  37  64  92 119 161 209 259 309 364
#     4  11  20  37  64  88 121 162 212 254 307 380
#     4  10  20  37  62  89 116 158 210 254 305 372
#     4  12  23  39  63  96 127 167 213 261 304 374
#     4  10  22  40  63  91 125 164 208 264 320 372
#
# _framework density 21.038305000000001
#
# number of rings (size 3 to 8) (size 9 to 14) (size 15 to 20)
#    0.000    1.333    3.333    4.500    0.000    2.667 
#    0.000    1.667    0.000    0.000    0.000    0.000 
#    0.000    0.000    0.000    0.000    0.000    0.000 
#
# Total GULP energy -595239.560231 kJ/mol
# GULP energy per Si atom -12400.824171 kJ/mol
# Density = 2.099042 g / cm^3
# Si number density = 21.038305 Si / 1000 Ang^3
#
#
#
# Elastic Constant Matrix: (Units=GPa)
#
#
# Indices 1 2 3 4 5 6 
#
# 1 68.5564 48.3317 32.9047 0.0000 0.0000 0.0000
# 2 48.3317 99.1606 46.3111 0.0000 0.0000 0.0000
# 3 32.9047 46.3111 113.8662 0.0000 0.0000 0.0000
# 4 0.0000 0.0000 0.0000 30.7801 0.0000 0.0000
# 5 0.0000 0.0000 0.0000 0.0000 17.6705 0.0000
# 6 0.0000 0.0000 0.0000 0.0000 0.0000 37.7659
#
#
#
# Elastic Compliance Matrix: (Units=1/GPa)
#
#
# Indices 1 2 3 4 5 6 
#
# 1 0.022809 -0.009924 -0.002555 0.000000 0.000000 0.000000
# 2 -0.009924 0.016767 -0.003952 0.000000 0.000000 0.000000
# 3 -0.002555 -0.003952 0.011128 0.000000 0.000000 0.000000
# 4 0.000000 0.000000 0.000000 0.032489 0.000000 0.000000
# 5 0.000000 0.000000 0.000000 0.000000 0.056592 0.000000
# 6 0.000000 0.000000 0.000000 0.000000 0.000000 0.026479
#
#
# Mechanical properties :
#
#
# Convention : Reuss Voigt Hill
#
# Bulk Modulus (GPa) = 56.04547 59.63091 57.83819
# Shear Modulus (GPa) = 24.38158 27.51233 25.94696
#
# Velocity S-wave (km/s) = 3.40798 3.62017 3.51568
# Velocity P-wave (km/s) = 6.49487 6.77346 6.63562
#
# Compressibility (1/GPa) = 0.01784266
#
# Stress axis : x y z
#
# Youngs Moduli (GPa) = 43.84176 59.63986 89.86507
#
# Poissons Ratio (x) = 0.59187 0.22961
# Poissons Ratio (y) = 0.43509 0.35512
# Poissons Ratio (z) = 0.11202 0.23568
#
# Static dielectric constant tensor:
#      x y z
#    x 3.793140 0.000000 0.000000 
#    y 0.000000 4.222010 0.000000 
#    z 0.000000 0.000000 3.666860 
# 
# 
# High freq. dielectric constant tensor:
#      x y z
#    x 1.812820 0.000000 0.000000 
#    y 0.000000 1.839340 0.000000 
#    z 0.000000 0.000000 1.803070 
# 
# From -- ./inp_files/20911.got.cif
#   From: 2010.03.12/outbox.cif.g09.slc.cpg/sg57_11_cif.got.tgz:20911.got - 2010.04.16 15:48:40.
