data_PCOD8233718
_publ_section_title
;
Structure prediction by ZEFSAII (Michael W. Deem and Ramdas Pophale) SiO2 
 PCOD8233718
Probable space group: P B C M
;
_chemical_formula_sum "Si O2"
_cell_formula_units_Z 48
_cell_length_a 9.916412
_cell_length_b 17.897926
_cell_length_c 13.613317
_cell_angle_alpha 90.000000
_cell_angle_beta 90.000000
_cell_angle_gamma 90.000000
_cell_volume 2416.135175
_symmetry_space_group_name_H-M "P B C M"
_symmetry_group_IT_number 57
_symmetry_cell_setting 'orthorhombic'
loop_
_space_group_symop_operation_xyz
x,y,z
-x,-y,1/2+z
x,1/2-y,-z
-x,1/2+y,1/2-z
-x,-y,-z
x,y,1/2-z
-x,1/2+y,z
x,1/2-y,1/2+z
loop_
_atom_site_type_symbol
_atom_site_label
_atom_site_fract_x
_atom_site_fract_y
_atom_site_fract_z
Si Si1 0.999871 0.173504 0.457328
Si Si2 0.212484 0.413581 0.250000
Si Si3 0.805463 0.447406 0.458634
Si Si4 0.740735 0.611289 0.535312
Si Si5 0.351933 0.572608 0.250000
Si Si6 0.464056 0.918529 0.537142
Si Si7 0.924239 0.474606 0.250000
Si Si8 0.935807 0.134121 0.250000
O O1 0.938448 0.250000 0.500000
O O2 0.930214 0.097800 0.496522
O O3 0.981647 0.182135 0.342030
O O4 0.157533 0.167160 0.481788
O O5 0.257356 0.370595 0.151619
O O6 0.290337 0.491105 0.250000
O O7 0.049566 0.418026 0.250000
O O8 0.787024 0.524880 0.518078
O O9 0.672531 0.396171 0.478430
O O10 0.828205 0.462311 0.343815
O O11 0.592779 0.631638 0.492492
O O12 0.444166 0.585700 0.345604
O O13 0.225951 0.628686 0.250000
O O14 0.500000 0.000000 0.500000
O O15 0.985249 0.556513 0.250000
#
# Coordination Sequence:
#
# PCOD8233718 Si02
#       8
#     8   4   8   8   4   8   4   4
#     4  12  25  41  63  92 125 164 215 257 304 375
#     4  11  18  30  58  86 125 156 187 253 329 349
#     4  11  20  38  60  94 118 160 208 258 301 365
#     4  11  22  38  59  91 125 160 202 258 314 369
#     4  11  18  34  60  91 125 161 199 257 318 368
#     4  10  21  33  58  92 126 154 203 257 314 369
#     4  11  20  31  67  93 122 155 213 257 315 362
#     4  11  22  39  67  92 118 174 205 259 318 367
#
# _framework density 19.866437000000001
#
# number of rings (size 3 to 8) (size 9 to 14) (size 15 to 20)
#    0.000    1.000    8.333    1.500    0.000    5.333 
#    0.000    0.833    0.000    0.000    0.000    0.000 
#    0.000    0.000    0.000    0.000    0.000    0.000 
#
# Total GULP energy -595104.688891 kJ/mol
# GULP energy per Si atom -12398.014352 kJ/mol
# Density = 1.982122 g / cm^3
# Si number density = 19.866437 Si / 1000 Ang^3
#
#
#
# Elastic Constant Matrix: (Units=GPa)
#
#
# Indices 1 2 3 4 5 6 
#
# 1 123.9018 10.4882 70.1518 0.0000 0.0000 0.0000
# 2 10.4882 37.8887 25.6412 0.0000 0.0000 0.0000
# 3 70.1518 25.6412 212.6379 0.0000 0.0000 0.0000
# 4 0.0000 0.0000 0.0000 5.3946 0.0000 0.0000
# 5 0.0000 0.0000 0.0000 0.0000 29.5186 0.0000
# 6 0.0000 0.0000 0.0000 0.0000 0.0000 8.8697
#
#
#
# Elastic Compliance Matrix: (Units=1/GPa)
#
#
# Indices 1 2 3 4 5 6 
#
# 1 0.009936 -0.000579 -0.003208 0.000000 0.000000 0.000000
# 2 -0.000579 0.028772 -0.003278 0.000000 0.000000 0.000000
# 3 -0.003208 -0.003278 0.006157 0.000000 0.000000 0.000000
# 4 0.000000 0.000000 0.000000 0.185370 0.000000 0.000000
# 5 0.000000 0.000000 0.000000 0.000000 0.033877 0.000000
# 6 0.000000 0.000000 0.000000 0.000000 0.000000 0.112743
#
#
# Mechanical properties :
#
#
# Convention : Reuss Voigt Hill
#
# Bulk Modulus (GPa) = 32.53820 65.22120 48.87970
# Shear Modulus (GPa) = 12.46163 26.63306 19.54735
#
# Velocity S-wave (km/s) = 2.50725 3.66540 3.14018
# Velocity P-wave (km/s) = 4.97954 7.12844 6.14860
#
# Compressibility (1/GPa) = 0.03073311
#
# Stress axis : x y z
#
# Youngs Moduli (GPa) = 100.63963 34.75588 162.42704
#
# Poissons Ratio (x) = 0.02014 0.52111
# Poissons Ratio (y) = 0.05831 0.53250
# Poissons Ratio (z) = 0.32288 0.11394
#
# Static dielectric constant tensor:
#      x y z
#    x 4.551200 0.000000 0.000000 
#    y 0.000000 3.063280 0.000000 
#    z 0.000000 0.000000 3.856700 
# 
# 
# High freq. dielectric constant tensor:
#      x y z
#    x 1.786250 0.000000 0.000000 
#    y 0.000000 1.715940 0.000000 
#    z 0.000000 0.000000 1.792650 
# 
# From -- ./inp_files/16611.got.cif
#   From: 2010.03.12/outbox.cif.g09.slc.cpg/sg57_9_cif.got.tgz:16611.got - 2010.04.16 15:48:40.
