data_PCOD8233788
_publ_section_title
;
Structure prediction by ZEFSAII (Michael W. Deem and Ramdas Pophale) SiO2 
 PCOD8233788
Probable space group: P B C M
;
_chemical_formula_sum "Si O2"
_cell_formula_units_Z 64
_cell_length_a 17.642305
_cell_length_b 22.432896
_cell_length_c 8.927313
_cell_angle_alpha 90.000000
_cell_angle_beta 90.000000
_cell_angle_gamma 90.000000
_cell_volume 3533.144751
_symmetry_space_group_name_H-M "P B C M"
_symmetry_group_IT_number 57
_symmetry_cell_setting 'orthorhombic'
loop_
_space_group_symop_operation_xyz
x,y,z
-x,-y,1/2+z
x,1/2-y,-z
-x,1/2+y,1/2-z
-x,-y,-z
x,y,1/2-z
-x,1/2+y,z
x,1/2-y,1/2+z
loop_
_atom_site_type_symbol
_atom_site_label
_atom_site_fract_x
_atom_site_fract_y
_atom_site_fract_z
Si Si1 0.153018 0.581092 0.573344
Si Si2 0.424803 0.521851 0.078858
Si Si3 0.990579 0.937991 0.423386
Si Si4 0.328683 0.405358 0.079540
Si Si5 0.748799 0.310190 0.077324
Si Si6 0.828038 0.953117 0.425906
Si Si7 0.585659 0.357384 0.076129
Si Si8 0.566169 0.811683 0.927339
O O1 0.165711 0.574643 0.750000
O O2 0.206972 0.632957 0.507502
O O3 0.174504 0.517538 0.503603
O O4 0.065157 0.600924 0.534143
O O5 0.443367 0.539376 0.250000
O O6 0.361989 0.471381 0.069638
O O7 0.500000 0.500000 0.000000
O O8 0.393166 0.578521 0.990458
O O9 0.992841 0.951327 0.250000
O O10 0.905480 0.915430 0.466120
O O11 0.000000 0.000000 0.500000
O O12 0.334801 0.381118 0.250000
O O13 0.241768 0.411136 0.023819
O O14 0.372593 0.361607 0.968962
O O15 0.770374 0.304974 0.250000
O O16 0.658815 0.316250 0.054076
O O17 0.777303 0.250000 0.000000
O O18 0.820993 0.965802 0.250000
O O19 0.562971 0.364109 0.250000
O O20 0.516282 0.328476 0.988275
O O21 0.561642 0.804928 0.750000
O O22 0.593195 0.750000 0.000000
#
# Coordination Sequence:
#
# PCOD8233788 Si02
#       8
#     8   8   8   8   8   8   8   8
#     4   9  17  31  50  75 106 138 169 207 255 306
#     4  11  21  33  52  77 106 138 171 212 260 311
#     4   8  14  26  47  74 104 133 162 196 242 298
#     4  10  21  36  53  76 107 137 171 212 256 305
#     4  10  22  36  51  72 100 137 177 217 257 302
#     4   9  17  30  51  80 107 135 168 207 255 307
#     4  11  22  37  55  76 104 134 172 217 259 309
#     4  12  25  40  58  75  96 130 173 216 261 308
#
# _framework density 18.114173000000001
#
# number of rings (size 3 to 8) (size 9 to 14) (size 15 to 20)
#    0.000    2.000    1.250    3.000    0.000    3.500 
#    0.000    0.000    0.000    0.750    0.000    1.750 
#    0.000    0.000    0.000    0.000    0.000    0.000 
#
# Total GULP energy -793202.300263 kJ/mol
# GULP energy per Si atom -12393.785942 kJ/mol
# Density = 1.807294 g / cm^3
# Si number density = 18.114173 Si / 1000 Ang^3
#
#
#
# Elastic Constant Matrix: (Units=GPa)
#
#
# Indices 1 2 3 4 5 6 
#
# 1 126.1981 31.2261 39.5236 0.0000 0.0000 0.0000
# 2 31.2261 79.6681 36.1984 0.0000 0.0000 0.0000
# 3 39.5236 36.1984 80.9039 0.0000 0.0000 0.0000
# 4 0.0000 0.0000 0.0000 29.6888 0.0000 0.0000
# 5 0.0000 0.0000 0.0000 0.0000 17.5832 0.0000
# 6 0.0000 0.0000 0.0000 0.0000 0.0000 15.9953
#
#
#
# Elastic Compliance Matrix: (Units=1/GPa)
#
#
# Indices 1 2 3 4 5 6 
#
# 1 0.009615 -0.002052 -0.003779 0.000000 0.000000 0.000000
# 2 -0.002052 0.016193 -0.006243 0.000000 0.000000 0.000000
# 3 -0.003779 -0.006243 0.017000 0.000000 0.000000 0.000000
# 4 0.000000 0.000000 0.000000 0.033683 0.000000 0.000000
# 5 0.000000 0.000000 0.000000 0.000000 0.056873 0.000000
# 6 0.000000 0.000000 0.000000 0.000000 0.000000 0.062518
#
#
# Mechanical properties :
#
#
# Convention : Reuss Voigt Hill
#
# Bulk Modulus (GPa) = 53.58936 55.62956 54.60946
# Shear Modulus (GPa) = 22.09952 24.64157 23.37055
#
# Velocity S-wave (km/s) = 3.49666 3.69229 3.59580
# Velocity P-wave (km/s) = 6.77869 6.99675 6.88858
#
# Compressibility (1/GPa) = 0.01866042
#
# Stress axis : x y z
#
# Youngs Moduli (GPa) = 104.00046 61.75634 58.82397
#
# Poissons Ratio (x) = 0.12669 0.22232
# Poissons Ratio (y) = 0.21336 0.36723
# Poissons Ratio (z) = 0.39306 0.38553
#
# Static dielectric constant tensor:
#      x y z
#    x 4.018820 0.000000 0.000000 
#    y 0.000000 3.066030 0.000000 
#    z 0.000000 0.000000 3.238910 
# 
# 
# High freq. dielectric constant tensor:
#      x y z
#    x 1.715130 0.000000 0.000000 
#    y 0.000000 1.673710 0.000000 
#    z 0.000000 0.000000 1.703520 
# 
# From -- ./inp_files/7291.got.cif
#   From: 2010.03.12/outbox.cif.g09.slc.cpg/sg57_4_cif.got.tgz:7291.got - 2010.04.16 15:48:40.
