data_PCOD8233966
_publ_section_title
;
Structure prediction by ZEFSAII (Michael W. Deem and Ramdas Pophale) SiO2 
 PCOD8233966
Probable space group: P B C M
;
_chemical_formula_sum "Si O2"
_cell_formula_units_Z 48
_cell_length_a 28.930190
_cell_length_b 8.734638
_cell_length_c 9.108529
_cell_angle_alpha 90.000000
_cell_angle_beta 90.000000
_cell_angle_gamma 90.000000
_cell_volume 2301.677339
_symmetry_space_group_name_H-M "P B C M"
_symmetry_group_IT_number 57
_symmetry_cell_setting 'orthorhombic'
loop_
_space_group_symop_operation_xyz
x,y,z
-x,-y,1/2+z
x,1/2-y,-z
-x,1/2+y,1/2-z
-x,-y,-z
x,y,1/2-z
-x,1/2+y,z
x,1/2-y,1/2+z
loop_
_atom_site_type_symbol
_atom_site_label
_atom_site_fract_x
_atom_site_fract_y
_atom_site_fract_z
Si Si1 0.461352 0.406972 0.917640
Si Si2 0.808643 0.406141 0.416876
Si Si3 0.034957 0.568270 0.750000
Si Si4 0.062349 0.575058 0.250000
Si Si5 0.899458 0.931392 0.977552
Si Si6 0.721563 0.414220 0.926375
Si Si7 0.641230 0.589162 0.419688
O O1 0.476954 0.381762 0.750000
O O2 0.410438 0.484219 0.924844
O O3 0.456993 0.250000 0.000000
O O4 0.500000 0.500000 0.000000
O O5 0.823208 0.250000 0.500000
O O6 0.792177 0.367948 0.250000
O O7 0.851512 0.522041 0.401862
O O8 0.767879 0.495442 0.509157
O O9 0.046250 0.748977 0.750000
O O10 0.055541 0.481165 0.611579
O O11 0.980148 0.544297 0.750000
O O12 0.096932 0.535258 0.379827
O O13 0.900826 0.750000 0.000000
O O14 0.720133 0.413512 0.750000
O O15 0.726841 0.250000 0.000000
O O16 0.674512 0.481808 0.988421
O O17 0.642393 0.750000 0.500000
O O18 0.657239 0.606671 0.250000
#
# Coordination Sequence:
#
# PCOD8233966 Si02
#       7
#     8   8   4   4   8   8   8
#     4  10  21  37  59  86 120 162 209 262 320 383
#     4  11  23  42  66  92 125 163 209 255 315 381
#     4  12  24  48  64 102 122 174 212 256 321 372
#     4  12  26  42  74  90 136 166 212 262 309 384
#     4  12  26  43  65  97 131 166 210 262 316 376
#     4  11  23  40  64  94 126 165 211 259 316 377
#     4  10  21  39  61  88 123 164 210 262 321 382
#
# _framework density 20.854357
#
# number of rings (size 3 to 8) (size 9 to 14) (size 15 to 20)
#    0.000    1.000    0.833    7.500    2.333    3.333 
#    0.000    1.667    0.000    0.000    0.000    0.000 
#    0.000    0.000    0.000    0.000    0.000    0.000 
#
# Total GULP energy -594931.292726 kJ/mol
# GULP energy per Si atom -12394.401932 kJ/mol
# Density = 2.080689 g / cm^3
# Si number density = 20.854357 Si / 1000 Ang^3
#
#
#
# Elastic Constant Matrix: (Units=GPa)
#
#
# Indices 1 2 3 4 5 6 
#
# 1 112.4425 27.2127 48.8088 0.0000 0.0000 0.0000
# 2 27.2127 87.3998 28.8628 0.0000 0.0000 0.0000
# 3 48.8088 28.8628 184.8041 0.0000 0.0000 0.0000
# 4 0.0000 0.0000 0.0000 33.0916 0.0000 0.0000
# 5 0.0000 0.0000 0.0000 0.0000 39.4937 0.0000
# 6 0.0000 0.0000 0.0000 0.0000 0.0000 37.3434
#
#
#
# Elastic Compliance Matrix: (Units=1/GPa)
#
#
# Indices 1 2 3 4 5 6 
#
# 1 0.010535 -0.002490 -0.002394 0.000000 0.000000 0.000000
# 2 -0.002490 0.012652 -0.001318 0.000000 0.000000 0.000000
# 3 -0.002394 -0.001318 0.006249 0.000000 0.000000 0.000000
# 4 0.000000 0.000000 0.000000 0.030219 0.000000 0.000000
# 5 0.000000 0.000000 0.000000 0.000000 0.025321 0.000000
# 6 0.000000 0.000000 0.000000 0.000000 0.000000 0.026778
#
#
# Mechanical properties :
#
#
# Convention : Reuss Voigt Hill
#
# Bulk Modulus (GPa) = 58.70965 66.04612 62.37788
# Shear Modulus (GPa) = 38.51018 40.63654 39.57336
#
# Velocity S-wave (km/s) = 4.30190 4.41907 4.36088
# Velocity P-wave (km/s) = 7.27245 7.60109 7.43858
#
# Compressibility (1/GPa) = 0.01703298
#
# Stress axis : x y z
#
# Youngs Moduli (GPa) = 94.92194 79.03710 160.01996
#
# Poissons Ratio (x) = 0.19678 0.38302
# Poissons Ratio (y) = 0.23633 0.21098
# Poissons Ratio (z) = 0.22720 0.10421
#
# Static dielectric constant tensor:
#      x y z
#    x 4.657780 0.000000 0.000000 
#    y 0.000000 3.655180 0.000000 
#    z 0.000000 0.000000 4.011880 
# 
# 
# High freq. dielectric constant tensor:
#      x y z
#    x 1.834000 0.000000 0.000000 
#    y 0.000000 1.795910 0.000000 
#    z 0.000000 0.000000 1.842510 
# 
# From -- ./inp_files/10196.got.cif
#   From: 2010.03.12/outbox.cif.g09.slc.cpg/sg57_6_cif.got.tgz:10196.got - 2010.04.16 15:48:40.
