data_PCOD8233956
_publ_section_title
;
Structure prediction by ZEFSAII (Michael W. Deem and Ramdas Pophale) SiO2 
 PCOD8233956
Probable space group: P B C M
;
_chemical_formula_sum "Si O2"
_cell_formula_units_Z 48
_cell_length_a 30.364572
_cell_length_b 9.442588
_cell_length_c 8.481636
_cell_angle_alpha 90.000000
_cell_angle_beta 90.000000
_cell_angle_gamma 90.000000
_cell_volume 2431.855888
_symmetry_space_group_name_H-M "P B C M"
_symmetry_group_IT_number 57
_symmetry_cell_setting 'orthorhombic'
loop_
_space_group_symop_operation_xyz
x,y,z
-x,-y,1/2+z
x,1/2-y,-z
-x,1/2+y,1/2-z
-x,-y,-z
x,y,1/2-z
-x,1/2+y,z
x,1/2-y,1/2+z
loop_
_atom_site_type_symbol
_atom_site_label
_atom_site_fract_x
_atom_site_fract_y
_atom_site_fract_z
Si Si1 0.363668 0.404936 0.562826
Si Si2 0.209430 0.092435 0.064086
Si Si3 0.288336 0.591447 0.436214
Si Si4 0.132224 0.904678 0.564226
Si Si5 0.961499 0.095729 0.936171
Si Si6 0.536701 0.600278 0.434345
O O1 0.349981 0.250000 0.500000
O O2 0.356070 0.409906 0.750000
O O3 0.335585 0.525172 0.476426
O O4 0.413817 0.440984 0.513548
O O5 0.202162 0.096321 0.250000
O O6 0.215707 0.250000 0.000000
O O7 0.252323 0.002476 0.023971
O O8 0.167621 0.021184 0.982610
O O9 0.285908 0.750000 0.500000
O O10 0.279697 0.590631 0.250000
O O11 0.145691 0.750000 0.500000
O O12 0.128653 0.892075 0.750000
O O13 0.085726 0.958358 0.496594
O O14 0.961300 0.095555 0.750000
O O15 0.971280 0.250000 0.000000
O O16 0.000000 0.000000 0.000000
O O17 0.523278 0.750000 0.500000
O O18 0.500000 0.500000 0.500000
O O19 0.533861 0.603193 0.250000
#
# Coordination Sequence:
#
# PCOD8233956 Si02
#       6
#     8   8   8   8   8   8
#     4  10  21  39  61  87 117 154 195 241 292 348
#     4  12  25  43  64  90 121 156 196 242 292 349
#     4  12  25  42  63  89 119 155 195 241 291 347
#     4  11  22  40  63  90 121 158 199 244 295 351
#     4  11  22  39  61  89 121 159 201 247 298 352
#     4  10  21  37  59  85 117 154 196 241 292 347
#
# _framework density 19.738009999999999
#
# number of rings (size 3 to 8) (size 9 to 14) (size 15 to 20)
#    0.000    1.000    0.000    9.000    0.000    3.333 
#    0.000    3.333    0.000    0.000    0.000    0.000 
#    0.000    0.000    0.000    0.000    0.000    0.000 
#
# Total GULP energy -595392.569944 kJ/mol
# GULP energy per Si atom -12404.011874 kJ/mol
# Density = 1.969309 g / cm^3
# Si number density = 19.738010 Si / 1000 Ang^3
#
#
#
# Elastic Constant Matrix: (Units=GPa)
#
#
# Indices 1 2 3 4 5 6 
#
# 1 127.8611 79.9630 28.1926 0.0000 0.0000 0.0000
# 2 79.9630 124.7457 30.7435 0.0000 0.0000 0.0000
# 3 28.1926 30.7435 122.9170 0.0000 0.0000 0.0000
# 4 0.0000 0.0000 0.0000 39.8897 0.0000 0.0000
# 5 0.0000 0.0000 0.0000 0.0000 38.6021 0.0000
# 6 0.0000 0.0000 0.0000 0.0000 0.0000 40.9403
#
#
#
# Elastic Compliance Matrix: (Units=1/GPa)
#
#
# Indices 1 2 3 4 5 6 
#
# 1 0.013161 -0.008198 -0.000968 0.000000 0.000000 0.000000
# 2 -0.008198 0.013649 -0.001534 0.000000 0.000000 0.000000
# 3 -0.000968 -0.001534 0.008741 0.000000 0.000000 0.000000
# 4 0.000000 0.000000 0.000000 0.025069 0.000000 0.000000
# 5 0.000000 0.000000 0.000000 0.000000 0.025905 0.000000
# 6 0.000000 0.000000 0.000000 0.000000 0.000000 0.024426
#
#
# Mechanical properties :
#
#
# Convention : Reuss Voigt Hill
#
# Bulk Modulus (GPa) = 70.66036 72.59134 71.62585
# Shear Modulus (GPa) = 36.47796 39.66139 38.06967
#
# Velocity S-wave (km/s) = 4.30363 4.48749 4.39652
# Velocity P-wave (km/s) = 7.78279 7.98169 7.88286
#
# Compressibility (1/GPa) = 0.01415221
#
# Stress axis : x y z
#
# Youngs Moduli (GPa) = 75.97990 73.26449 114.40026
#
# Poissons Ratio (x) = 0.60062 0.11077
# Poissons Ratio (y) = 0.62288 0.17544
# Poissons Ratio (z) = 0.07357 0.11236
#
# Static dielectric constant tensor:
#      x y z
#    x 3.865550 0.000000 0.000000 
#    y 0.000000 6.797730 0.000000 
#    z 0.000000 0.000000 3.852860 
# 
# 
# High freq. dielectric constant tensor:
#      x y z
#    x 1.786150 0.000000 0.000000 
#    y 0.000000 1.772780 0.000000 
#    z 0.000000 0.000000 1.794510 
# 
# From -- ./inp_files/9995.got.cif
#   From: 2010.03.12/outbox.cif.g09.slc.cpg/sg57_5_cif.got.tgz:9995.got - 2010.04.16 15:48:40.
