data_PCOD8233699
_publ_section_title
;
Structure prediction by ZEFSAII (Michael W. Deem and Ramdas Pophale) SiO2 
 PCOD8233699
Probable space group: P B C M
;
_chemical_formula_sum "Si O2"
_cell_formula_units_Z 40
_cell_length_a 8.443290
_cell_length_b 15.803438
_cell_length_c 14.054971
_cell_angle_alpha 90.000000
_cell_angle_beta 90.000000
_cell_angle_gamma 90.000000
_cell_volume 1875.397086
_symmetry_space_group_name_H-M "P B C M"
_symmetry_group_IT_number 57
_symmetry_cell_setting 'orthorhombic'
loop_
_space_group_symop_operation_xyz
x,y,z
-x,-y,1/2+z
x,1/2-y,-z
-x,1/2+y,1/2-z
-x,-y,-z
x,y,1/2-z
-x,1/2+y,z
x,1/2-y,1/2+z
loop_
_atom_site_type_symbol
_atom_site_label
_atom_site_fract_x
_atom_site_fract_y
_atom_site_fract_z
Si Si1 0.332264 0.142831 0.143215
Si Si2 0.118659 0.207073 0.597982
Si Si3 0.655095 0.129726 0.465592
Si Si4 0.825819 0.962080 0.495617
Si Si5 0.225709 0.722217 0.644803
O O1 0.384428 0.117051 0.250000
O O2 0.249493 0.234938 0.149339
O O3 0.477340 0.145851 0.069567
O O4 0.212902 0.072164 0.101776
O O5 0.066073 0.250000 0.500000
O O6 0.189829 0.113975 0.580116
O O7 0.957551 0.196213 0.657220
O O8 0.769864 0.182113 0.395554
O O9 0.675477 0.161225 0.574470
O O10 0.699629 0.031452 0.460702
O O11 0.000000 0.000000 0.500000
O O12 0.304042 0.717747 0.750000
#
# Coordination Sequence:
#
# PCOD8233699 Si02
#       5
#     8   8   8   8   8
#     4  11  25  44  68 100 138 183 225 272 342 416
#     4  10  20  41  68  94 129 177 223 276 332 395
#     4  11  23  43  66  99 140 172 219 285 340 398
#     4  11  22  43  70  95 135 184 222 283 342 387
#     4  11  22  40  68  96 129 178 226 269 333 402
#
# _framework density 21.328816
#
# number of rings (size 3 to 8) (size 9 to 14) (size 15 to 20)
#    0.000    1.200    4.000    3.000    8.400    0.800 
#    0.000    5.000    0.000    1.200    0.000    0.000 
#    0.000    0.000    0.000    0.000    0.000    0.000 
#
# Total GULP energy -495971.077608 kJ/mol
# GULP energy per Si atom -12399.276940 kJ/mol
# Density = 2.128027 g / cm^3
# Si number density = 21.328816 Si / 1000 Ang^3
#
#
#
# Elastic Constant Matrix: (Units=GPa)
#
#
# Indices 1 2 3 4 5 6 
#
# 1 117.8216 47.9636 48.1891 0.0000 0.0000 0.0000
# 2 47.9636 153.4428 51.5853 0.0000 0.0000 0.0000
# 3 48.1891 51.5853 155.9534 0.0000 0.0000 0.0000
# 4 0.0000 0.0000 0.0000 15.1069 0.0000 0.0000
# 5 0.0000 0.0000 0.0000 0.0000 21.1606 0.0000
# 6 0.0000 0.0000 0.0000 0.0000 0.0000 32.8870
#
#
#
# Elastic Compliance Matrix: (Units=1/GPa)
#
#
# Indices 1 2 3 4 5 6 
#
# 1 0.010481 -0.002461 -0.002425 0.000000 0.000000 0.000000
# 2 -0.002461 0.007910 -0.001856 0.000000 0.000000 0.000000
# 3 -0.002425 -0.001856 0.007775 0.000000 0.000000 0.000000
# 4 0.000000 0.000000 0.000000 0.066195 0.000000 0.000000
# 5 0.000000 0.000000 0.000000 0.000000 0.047258 0.000000
# 6 0.000000 0.000000 0.000000 0.000000 0.000000 0.030407
#
#
# Mechanical properties :
#
#
# Convention : Reuss Voigt Hill
#
# Bulk Modulus (GPa) = 78.84424 80.29931 79.57177
# Shear Modulus (GPa) = 26.63295 32.46288 29.54791
#
# Velocity S-wave (km/s) = 3.53751 3.90554 3.72607
# Velocity P-wave (km/s) = 7.33018 7.62021 7.47660
#
# Compressibility (1/GPa) = 0.01268323
#
# Stress axis : x y z
#
# Youngs Moduli (GPa) = 95.41170 126.41644 128.61272
#
# Poissons Ratio (x) = 0.31112 0.31182
# Poissons Ratio (y) = 0.23481 0.23872
# Poissons Ratio (z) = 0.23133 0.23464
#
# Static dielectric constant tensor:
#      x y z
#    x 3.795870 0.000000 0.000000 
#    y 0.000000 4.189540 0.000000 
#    z 0.000000 0.000000 3.737390 
# 
# 
# High freq. dielectric constant tensor:
#      x y z
#    x 1.839030 0.000000 0.000000 
#    y 0.000000 1.836200 0.000000 
#    z 0.000000 0.000000 1.825020 
# 
# From -- ./inp_files/15915.got.cif
#   From: 2010.03.12/outbox.cif.g09.slc.cpg/sg57_8_cif.got.tgz:15915.got - 2010.04.16 15:48:40.
