data_PCOD8233295
_publ_section_title
;
Structure prediction by ZEFSAII (Michael W. Deem and Ramdas Pophale) SiO2 
 PCOD8233295
Probable space group: P B C M
;
_chemical_formula_sum "Si O2"
_cell_formula_units_Z 64
_cell_length_a 6.681890
_cell_length_b 28.119410
_cell_length_c 16.754365
_cell_angle_alpha 90.000000
_cell_angle_beta 90.000000
_cell_angle_gamma 90.000000
_cell_volume 3147.991118
_symmetry_space_group_name_H-M "P B C M"
_symmetry_group_IT_number 57
_symmetry_cell_setting 'orthorhombic'
loop_
_space_group_symop_operation_xyz
x,y,z
-x,-y,1/2+z
x,1/2-y,-z
-x,1/2+y,1/2-z
-x,-y,-z
x,y,1/2-z
-x,1/2+y,z
x,1/2-y,1/2+z
loop_
_atom_site_type_symbol
_atom_site_label
_atom_site_fract_x
_atom_site_fract_y
_atom_site_fract_z
Si Si1 0.836881 0.917457 0.159750
Si Si2 0.246541 0.587953 0.926664
Si Si3 0.385514 0.591402 0.401076
Si Si4 0.540979 0.265390 0.660333
Si Si5 0.465459 0.489898 0.092737
Si Si6 0.567917 0.663023 0.609263
Si Si7 0.107430 0.831380 0.660240
Si Si8 0.286191 0.334239 0.561105
O O1 0.889337 0.933417 0.250000
O O2 0.734623 0.960101 0.110723
O O3 0.697959 0.870707 0.166582
O O4 0.029734 0.903821 0.108802
O O5 0.347921 0.543112 0.879725
O O6 0.367038 0.636549 0.916303
O O7 0.247349 0.579252 0.021897
O O8 0.448787 0.540613 0.361598
O O9 0.257935 0.623570 0.340860
O O10 0.593506 0.617276 0.422289
O O11 0.493557 0.282056 0.750000
O O12 0.513867 0.209102 0.654578
O O13 0.766069 0.283523 0.638799
O O14 0.381912 0.288748 0.602373
O O15 0.500000 0.500000 0.000000
O O16 0.707900 0.675733 0.533317
O O17 0.017011 0.827938 0.750000
O O18 0.938917 0.838944 0.593580
#
# Coordination Sequence:
#
# PCOD8233295 Si02
#       8
#     8   8   8   8   8   8   8   8
#     4  11  23  37  57  88 120 149 189 241 292 343
#     4   9  20  37  58  83 113 148 190 238 285 335
#     4   9  19  36  58  82 110 148 193 233 277 337
#     4  10  21  37  57  83 116 150 186 233 287 339
#     4   9  20  38  59  82 113 153 194 235 281 338
#     4  10  21  39  60  82 113 156 196 234 283 343
#     4  10  21  36  56  83 115 148 184 233 288 339
#     4  10  20  37  59  84 113 148 193 238 278 332
#
# _framework density 20.330425999999999
#
# number of rings (size 3 to 8) (size 9 to 14) (size 15 to 20)
#    0.000    2.250    0.000    2.625    0.000    7.500 
#    0.000    5.000    0.000    0.000    0.000    0.000 
#    0.000    0.000    0.000    0.000    0.000    0.000 
#
# Total GULP energy -793279.912630 kJ/mol
# GULP energy per Si atom -12394.998635 kJ/mol
# Density = 2.028415 g / cm^3
# Si number density = 20.330426 Si / 1000 Ang^3
#
#
#
# Elastic Constant Matrix: (Units=GPa)
#
#
# Indices 1 2 3 4 5 6 
#
# 1 84.3284 35.0204 22.0938 0.0000 0.0000 0.0000
# 2 35.0204 126.9048 19.2798 0.0000 0.0000 0.0000
# 3 22.0938 19.2798 69.0272 0.0000 0.0000 0.0000
# 4 0.0000 0.0000 0.0000 23.0856 0.0000 0.0000
# 5 0.0000 0.0000 0.0000 0.0000 20.2310 0.0000
# 6 0.0000 0.0000 0.0000 0.0000 0.0000 18.4520
#
#
#
# Elastic Compliance Matrix: (Units=1/GPa)
#
#
# Indices 1 2 3 4 5 6 
#
# 1 0.014203 -0.003372 -0.003604 0.000000 0.000000 0.000000
# 2 -0.003372 0.009030 -0.001443 0.000000 0.000000 0.000000
# 3 -0.003604 -0.001443 0.016044 0.000000 0.000000 0.000000
# 4 0.000000 0.000000 0.000000 0.043317 0.000000 0.000000
# 5 0.000000 0.000000 0.000000 0.000000 0.049429 0.000000
# 6 0.000000 0.000000 0.000000 0.000000 0.000000 0.054195
#
#
# Mechanical properties :
#
#
# Convention : Reuss Voigt Hill
#
# Bulk Modulus (GPa) = 44.56627 48.11648 46.34137
# Shear Modulus (GPa) = 23.74911 25.94482 24.84696
#
# Velocity S-wave (km/s) = 3.42154 3.57621 3.49973
# Velocity P-wave (km/s) = 6.13007 6.38522 6.25894
#
# Compressibility (1/GPa) = 0.02243849
#
# Stress axis : x y z
#
# Youngs Moduli (GPa) = 70.40772 110.74673 62.33005
#
# Poissons Ratio (x) = 0.37342 0.22465
# Poissons Ratio (y) = 0.23741 0.08993
# Poissons Ratio (z) = 0.25376 0.15978
#
# Static dielectric constant tensor:
#      x y z
#    x 3.527220 0.000000 0.000000 
#    y 0.000000 3.940200 0.000000 
#    z 0.000000 0.000000 3.551420 
# 
# 
# High freq. dielectric constant tensor:
#      x y z
#    x 1.782780 0.000000 0.000000 
#    y 0.000000 1.801990 0.000000 
#    z 0.000000 0.000000 1.782970 
# 
# From -- ./inp_files/20345.got.cif
#   From: 2010.03.12/outbox.cif.g09.slc.cpg/sg57_11_cif.got.tgz:20345.got - 2010.04.16 15:48:40.
