data_PCOD8233688
_publ_section_title
;
Structure prediction by ZEFSAII (Michael W. Deem and Ramdas Pophale) SiO2 
 PCOD8233688
Probable space group: P B C M
;
_chemical_formula_sum "Si O2"
_cell_formula_units_Z 32
_cell_length_a 10.614307
_cell_length_b 9.296726
_cell_length_c 13.943595
_cell_angle_alpha 90.000000
_cell_angle_beta 90.000000
_cell_angle_gamma 90.000000
_cell_volume 1375.930304
_symmetry_space_group_name_H-M "P B C M"
_symmetry_group_IT_number 57
_symmetry_cell_setting 'orthorhombic'
loop_
_space_group_symop_operation_xyz
x,y,z
-x,-y,1/2+z
x,1/2-y,-z
-x,1/2+y,1/2-z
-x,-y,-z
x,y,1/2-z
-x,1/2+y,z
x,1/2-y,1/2+z
loop_
_atom_site_type_symbol
_atom_site_label
_atom_site_fract_x
_atom_site_fract_y
_atom_site_fract_z
Si Si1 0.928726 0.678768 0.250000
Si Si2 0.490717 0.214469 0.641240
Si Si3 0.652753 0.458062 0.926509
Si Si4 0.165162 0.496030 0.250000
Si Si5 0.753158 0.634300 0.081392
O O1 0.917853 0.850965 0.250000
O O2 0.867299 0.610262 0.154410
O O3 0.074756 0.634576 0.250000
O O4 0.529489 0.177609 0.750000
O O5 0.605424 0.296002 0.588348
O O6 0.366541 0.312893 0.642310
O O7 0.466543 0.069514 0.580188
O O8 0.747188 0.504344 0.842507
O O9 0.722173 0.481902 0.028650
O O10 0.789525 0.750000 0.000000
#
# Coordination Sequence:
#
# PCOD8233688 Si02
#       5
#     4   8   8   4   8
#     4  12  24  47  69  87 129 178 219 274 312 360
#     4  11  18  37  67  95 133 166 199 262 326 389
#     4  11  22  40  66  99 132 167 209 261 327 392
#     4  12  24  45  67  93 125 174 223 266 318 368
#     4  10  20  40  69  91 129 171 206 255 332 376
#
# _framework density 23.256993000000001
#
# number of rings (size 3 to 8) (size 9 to 14) (size 15 to 20)
#    0.000    1.000    8.750    0.750    0.000    1.000 
#    4.500    0.000    0.000    0.000    0.000    0.000 
#    0.000    0.000    0.000    0.000    0.000    0.000 
#
# Total GULP energy -396897.378584 kJ/mol
# GULP energy per Si atom -12403.043081 kJ/mol
# Density = 2.320406 g / cm^3
# Si number density = 23.256993 Si / 1000 Ang^3
#
#
#
# Elastic Constant Matrix: (Units=GPa)
#
#
# Indices 1 2 3 4 5 6 
#
# 1 54.1361 39.1788 14.2761 0.0000 0.0000 0.0000
# 2 39.1788 87.0227 28.3314 0.0000 0.0000 0.0000
# 3 14.2761 28.3314 122.5132 0.0000 0.0000 0.0000
# 4 0.0000 0.0000 0.0000 25.9003 0.0000 0.0000
# 5 0.0000 0.0000 0.0000 0.0000 5.1881 0.0000
# 6 0.0000 0.0000 0.0000 0.0000 0.0000 40.4944
#
#
#
# Elastic Compliance Matrix: (Units=1/GPa)
#
#
# Indices 1 2 3 4 5 6 
#
# 1 0.027415 -0.012223 -0.000368 0.000000 0.000000 0.000000
# 2 -0.012223 0.017876 -0.002710 0.000000 0.000000 0.000000
# 3 -0.000368 -0.002710 0.008832 0.000000 0.000000 0.000000
# 4 0.000000 0.000000 0.000000 0.038610 0.000000 0.000000
# 5 0.000000 0.000000 0.000000 0.000000 0.192749 0.000000
# 6 0.000000 0.000000 0.000000 0.000000 0.000000 0.024695
#
#
# Mechanical properties :
#
#
# Convention : Reuss Voigt Hill
#
# Bulk Modulus (GPa) = 42.51321 47.47164 44.99242
# Shear Modulus (GPa) = 14.34236 26.44226 20.39231
#
# Velocity S-wave (km/s) = 2.48602 3.37554 2.96434
# Velocity P-wave (km/s) = 5.15362 5.97063 5.57711
#
# Compressibility (1/GPa) = 0.02352210
#
# Stress axis : x y z
#
# Youngs Moduli (GPa) = 36.47687 55.94031 113.22615
#
# Poissons Ratio (x) = 0.68374 0.04167
# Poissons Ratio (y) = 0.44584 0.30680
# Poissons Ratio (z) = 0.01343 0.15158
#
# Static dielectric constant tensor:
#      x y z
#    x 3.863090 0.000000 0.000000 
#    y 0.000000 4.094060 0.000000 
#    z 0.000000 0.000000 4.367370 
# 
# 
# High freq. dielectric constant tensor:
#      x y z
#    x 1.882780 0.000000 0.000000 
#    y 0.000000 1.908550 0.000000 
#    z 0.000000 0.000000 1.944960 
# 
# From -- ./inp_files/15605.got.cif
#   From: 2010.03.12/outbox.cif.g09.slc.cpg/sg57_8_cif.got.tgz:15605.got - 2010.04.16 15:48:40.
