data_PCOD8233676
_publ_section_title
;
Structure prediction by ZEFSAII (Michael W. Deem and Ramdas Pophale) SiO2 
 PCOD8233676
Probable space group: P B C M
;
_chemical_formula_sum "Si O2"
_cell_formula_units_Z 64
_cell_length_a 12.054892
_cell_length_b 14.558851
_cell_length_c 16.892842
_cell_angle_alpha 90.000000
_cell_angle_beta 90.000000
_cell_angle_gamma 90.000000
_cell_volume 2964.784595
_symmetry_space_group_name_H-M "P B C M"
_symmetry_group_IT_number 57
_symmetry_cell_setting 'orthorhombic'
loop_
_space_group_symop_operation_xyz
x,y,z
-x,-y,1/2+z
x,1/2-y,-z
-x,1/2+y,1/2-z
-x,-y,-z
x,y,1/2-z
-x,1/2+y,z
x,1/2-y,1/2+z
loop_
_atom_site_type_symbol
_atom_site_label
_atom_site_fract_x
_atom_site_fract_y
_atom_site_fract_z
Si Si1 0.503210 0.998799 0.406669
Si Si2 0.280022 0.924894 0.841928
Si Si3 0.939385 0.083228 0.838575
Si Si4 0.899896 0.606594 0.418947
Si Si5 0.899309 0.216525 0.341566
Si Si6 0.165362 0.094912 0.903022
Si Si7 0.329546 0.372553 0.658793
Si Si8 0.383363 0.325386 0.158211
O O1 0.593626 0.070284 0.371815
O O2 0.384946 0.035979 0.377066
O O3 0.500000 0.000000 0.500000
O O4 0.524253 0.893631 0.378487
O O5 0.275888 0.955600 0.750000
O O6 0.223309 0.826188 0.853928
O O7 0.209994 0.991763 0.897972
O O8 0.902408 0.055120 0.750000
O O9 0.880764 0.177607 0.866677
O O10 0.070163 0.106403 0.837557
O O11 0.912167 0.000702 0.897634
O O12 0.889531 0.615921 0.512697
O O13 0.788738 0.646684 0.380683
O O14 0.006136 0.665443 0.392140
O O15 0.936450 0.208702 0.250000
O O16 0.266159 0.162672 0.885389
O O17 0.307924 0.391205 0.750000
O O18 0.409614 0.282859 0.646359
O O19 0.371723 0.351211 0.250000
#
# Coordination Sequence:
#
# PCOD8233676 Si02
#       8
#     8   8   8   8   8   8   8   8
#     4  11  23  41  66  93 127 160 208 266 325 370
#     4  10  20  40  66  87 117 167 218 257 297 371
#     4  11  22  38  59  87 124 167 210 254 307 369
#     4  12  24  39  59  95 134 162 198 263 328 367
#     4  10  22  39  62  89 121 168 216 251 301 375
#     4  11  21  36  61  91 123 164 207 256 309 368
#     4  11  23  41  66  94 127 166 209 262 320 374
#     4  10  22  42  69  95 119 166 224 258 300 377
#
# _framework density 21.586729999999999
#
# number of rings (size 3 to 8) (size 9 to 14) (size 15 to 20)
#    0.000    1.250    1.250    6.750    0.000    5.500 
#    2.250    0.000    5.500    0.000    0.000    0.000 
#    0.000    0.000    0.000    0.000    0.000    0.000 
#
# Total GULP energy -793435.798165 kJ/mol
# GULP energy per Si atom -12397.434346 kJ/mol
# Density = 2.153760 g / cm^3
# Si number density = 21.586730 Si / 1000 Ang^3
#
#
#
# Elastic Constant Matrix: (Units=GPa)
#
#
# Indices 1 2 3 4 5 6 
#
# 1 50.9733 12.3503 17.5767 0.0000 0.0000 0.0000
# 2 12.3503 98.4472 27.4050 0.0000 0.0000 0.0000
# 3 17.5767 27.4050 110.1898 0.0000 0.0000 0.0000
# 4 0.0000 0.0000 0.0000 8.9223 0.0000 0.0000
# 5 0.0000 0.0000 0.0000 0.0000 36.1677 0.0000
# 6 0.0000 0.0000 0.0000 0.0000 0.0000 24.6026
#
#
#
# Elastic Compliance Matrix: (Units=1/GPa)
#
#
# Indices 1 2 3 4 5 6 
#
# 1 0.021064 -0.001834 -0.002904 0.000000 0.000000 0.000000
# 2 -0.001834 0.011073 -0.002461 0.000000 0.000000 0.000000
# 3 -0.002904 -0.002461 0.010151 0.000000 0.000000 0.000000
# 4 0.000000 0.000000 0.000000 0.112079 0.000000 0.000000
# 5 0.000000 0.000000 0.000000 0.000000 0.027649 0.000000
# 6 0.000000 0.000000 0.000000 0.000000 0.000000 0.040646
#
#
# Mechanical properties :
#
#
# Convention : Reuss Voigt Hill
#
# Bulk Modulus (GPa) = 35.85667 41.58604 38.72136
# Shear Modulus (GPa) = 20.29578 27.42372 23.85975
#
# Velocity S-wave (km/s) = 3.06959 3.56813 3.32821
# Velocity P-wave (km/s) = 5.40460 6.02344 5.72239
#
# Compressibility (1/GPa) = 0.02788881
#
# Stress axis : x y z
#
# Youngs Moduli (GPa) = 47.47480 90.30975 98.51629
#
# Poissons Ratio (x) = 0.16564 0.28607
# Poissons Ratio (y) = 0.08708 0.24249
# Poissons Ratio (z) = 0.13786 0.22229
#
# Static dielectric constant tensor:
#      x y z
#    x 3.816460 0.000000 0.000000 
#    y 0.000000 3.988040 0.000000 
#    z 0.000000 0.000000 3.855170 
# 
# 
# High freq. dielectric constant tensor:
#      x y z
#    x 1.833690 0.000000 0.000000 
#    y 0.000000 1.854410 0.000000 
#    z 0.000000 0.000000 1.850840 
# 
# From -- ./inp_files/21996.got.cif
#   From: 2010.03.12/outbox.cif.g09.slc.cpg/sg57_11_cif.got.tgz:21996.got - 2010.04.16 15:48:40.
