data_PCOD8233558
_publ_section_title
;
Structure prediction by ZEFSAII (Michael W. Deem and Ramdas Pophale) SiO2 
 PCOD8233558
Probable space group: P B C M
;
_chemical_formula_sum "Si O2"
_cell_formula_units_Z 56
_cell_length_a 11.225627
_cell_length_b 15.611229
_cell_length_c 13.938194
_cell_angle_alpha 90.000000
_cell_angle_beta 90.000000
_cell_angle_gamma 90.000000
_cell_volume 2442.610429
_symmetry_space_group_name_H-M "P B C M"
_symmetry_group_IT_number 57
_symmetry_cell_setting 'orthorhombic'
loop_
_space_group_symop_operation_xyz
x,y,z
-x,-y,1/2+z
x,1/2-y,-z
-x,1/2+y,1/2-z
-x,-y,-z
x,y,1/2-z
-x,1/2+y,z
x,1/2-y,1/2+z
loop_
_atom_site_type_symbol
_atom_site_label
_atom_site_fract_x
_atom_site_fract_y
_atom_site_fract_z
Si Si1 0.142660 0.919886 0.356123
Si Si2 0.585049 0.115396 0.638218
Si Si3 0.751361 0.825706 0.645790
Si Si4 0.046335 0.301848 0.092632
Si Si5 0.513403 0.293951 0.639597
Si Si6 0.820193 0.543287 0.510815
Si Si7 0.605704 0.475937 0.634586
O O1 0.126054 0.961501 0.250000
O O2 0.281169 0.912310 0.381710
O O3 0.076133 0.826829 0.352928
O O4 0.098034 0.979720 0.444679
O O5 0.558868 0.126758 0.750000
O O6 0.566682 0.208864 0.588772
O O7 0.493708 0.043914 0.599226
O O8 0.751570 0.871510 0.750000
O O9 0.858667 0.756648 0.647855
O O10 0.627720 0.777616 0.629244
O O11 0.753551 0.896530 0.564952
O O12 0.099544 0.396115 0.076116
O O13 0.006409 0.250000 0.000000
O O14 0.552358 0.298800 0.750000
O O15 0.561435 0.383176 0.594988
O O16 0.730237 0.494506 0.581804
O O17 0.623233 0.478311 0.750000
#
# Coordination Sequence:
#
# PCOD8233558 Si02
#       7
#     8   8   8   8   8   8   8
#     4  11  23  40  61  84 118 161 200 246 307 366
#     4   9  19  36  58  86 120 158 202 249 300 364
#     4  10  20  38  64  89 118 156 198 247 302 360
#     4  10  23  41  60  85 116 154 207 258 299 355
#     4   9  18  34  58  89 122 157 200 247 298 364
#     4  11  23  39  60  91 122 152 199 253 302 367
#     4  10  21  38  61  91 128 165 201 251 315 375
#
# _framework density 22.926293000000001
#
# number of rings (size 3 to 8) (size 9 to 14) (size 15 to 20)
#    0.000    2.000    0.000    3.000    0.000    8.000 
#    0.000    1.429    0.000    4.286    0.000    0.000 
#    0.000    0.000    0.000    0.000    0.000    0.000 
#
# Total GULP energy -693891.277177 kJ/mol
# GULP energy per Si atom -12390.915664 kJ/mol
# Density = 2.287411 g / cm^3
# Si number density = 22.926293 Si / 1000 Ang^3
#
#
#
# Elastic Constant Matrix: (Units=GPa)
#
#
# Indices 1 2 3 4 5 6 
#
# 1 52.2157 26.7527 21.4342 0.0000 0.0000 0.0000
# 2 26.7527 142.2694 25.1166 0.0000 0.0000 0.0000
# 3 21.4342 25.1166 66.9833 0.0000 0.0000 0.0000
# 4 0.0000 0.0000 0.0000 9.7012 0.0000 0.0000
# 5 0.0000 0.0000 0.0000 0.0000 20.7654 0.0000
# 6 0.0000 0.0000 0.0000 0.0000 0.0000 40.4339
#
#
#
# Elastic Compliance Matrix: (Units=1/GPa)
#
#
# Indices 1 2 3 4 5 6 
#
# 1 0.023408 -0.003298 -0.006254 0.000000 0.000000 0.000000
# 2 -0.003298 0.007992 -0.001941 0.000000 0.000000 0.000000
# 3 -0.006254 -0.001941 0.017658 0.000000 0.000000 0.000000
# 4 0.000000 0.000000 0.000000 0.103080 0.000000 0.000000
# 5 0.000000 0.000000 0.000000 0.000000 0.048157 0.000000
# 6 0.000000 0.000000 0.000000 0.000000 0.000000 0.024732
#
#
# Mechanical properties :
#
#
# Convention : Reuss Voigt Hill
#
# Bulk Modulus (GPa) = 38.35512 45.34171 41.84842
# Shear Modulus (GPa) = 19.47776 26.72444 23.10110
#
# Velocity S-wave (km/s) = 2.91792 3.41789 3.17775
# Velocity P-wave (km/s) = 5.30268 5.94946 5.63536
#
# Compressibility (1/GPa) = 0.02607214
#
# Stress axis : x y z
#
# Youngs Moduli (GPa) = 42.72039 125.12886 56.63069
#
# Poissons Ratio (x) = 0.41263 0.35416
# Poissons Ratio (y) = 0.14088 0.10994
# Poissons Ratio (z) = 0.26717 0.24293
#
# Static dielectric constant tensor:
#      x y z
#    x 3.954600 0.000000 0.000000 
#    y 0.000000 4.422120 0.000000 
#    z 0.000000 0.000000 4.217950 
# 
# 
# High freq. dielectric constant tensor:
#      x y z
#    x 1.895140 0.000000 0.000000 
#    y 0.000000 1.910700 0.000000 
#    z 0.000000 0.000000 1.910300 
# 
# From -- ./inp_files/17720.got.cif
#   From: 2010.03.12/outbox.cif.g09.slc.cpg/sg57_9_cif.got.tgz:17720.got - 2010.04.16 15:48:40.
