data_PCOD8233216
_publ_section_title
;
Structure prediction by ZEFSAII (Michael W. Deem and Ramdas Pophale) SiO2 
 PCOD8233216
Probable space group: P B C M
;
_chemical_formula_sum "Si O2"
_cell_formula_units_Z 64
_cell_length_a 14.534153
_cell_length_b 24.966010
_cell_length_c 8.827384
_cell_angle_alpha 90.000000
_cell_angle_beta 90.000000
_cell_angle_gamma 90.000000
_cell_volume 3203.102873
_symmetry_space_group_name_H-M "P B C M"
_symmetry_group_IT_number 57
_symmetry_cell_setting 'orthorhombic'
loop_
_space_group_symop_operation_xyz
x,y,z
-x,-y,1/2+z
x,1/2-y,-z
-x,1/2+y,1/2-z
-x,-y,-z
x,y,1/2-z
-x,1/2+y,z
x,1/2-y,1/2+z
loop_
_atom_site_type_symbol
_atom_site_label
_atom_site_fract_x
_atom_site_fract_y
_atom_site_fract_z
Si Si1 0.711484 0.517615 0.921243
Si Si2 0.709900 0.805393 0.570788
Si Si3 0.681552 0.196326 0.924560
Si Si4 0.540015 0.552864 0.428270
Si Si5 0.158236 0.110715 0.920835
Si Si6 0.774619 0.412234 0.070396
Si Si7 0.519164 0.840034 0.074054
Si Si8 0.021636 0.942849 0.428172
O O1 0.672530 0.512847 0.750000
O O2 0.807214 0.549083 0.924125
O O3 0.646732 0.554884 0.025347
O O4 0.716602 0.458693 0.990350
O O5 0.745805 0.750000 0.500000
O O6 0.703952 0.800602 0.750000
O O7 0.784035 0.850794 0.529569
O O8 0.607078 0.816249 0.511329
O O9 0.706111 0.199744 0.750000
O O10 0.734317 0.144177 0.990314
O O11 0.571443 0.195568 0.950659
O O12 0.721345 0.250000 0.000000
O O13 0.500000 0.500000 0.500000
O O14 0.526606 0.554682 0.250000
O O15 0.490086 0.603082 0.504319
O O16 0.165716 0.133834 0.750000
O O17 0.052637 0.103249 0.974624
O O18 0.761041 0.418029 0.250000
O O19 0.880475 0.418887 0.020102
O O20 0.544932 0.846050 0.250000
O O21 0.019308 0.952175 0.250000
O O22 0.000000 0.000000 0.500000
#
# Coordination Sequence:
#
# PCOD8233216 Si02
#       8
#     8   8   8   8   8   8   8   8
#     4  11  21  35  58  87 123 159 196 244 299 355
#     4  12  25  41  63  89 119 160 206 253 306 363
#     4  10  23  41  61  85 115 155 199 245 295 346
#     4  12  24  37  55  83 120 162 204 245 302 362
#     4  10  21  38  59  87 124 159 196 247 301 356
#     4  10  21  38  61  90 123 159 199 246 303 364
#     4  11  22  39  61  87 120 156 201 251 297 358
#     4  10  20  36  61  90 123 158 196 245 299 359
#
# _framework density 19.980626000000001
#
# number of rings (size 3 to 8) (size 9 to 14) (size 15 to 20)
#    0.000    1.250    2.500    4.125    0.000    4.500 
#    0.000    0.625    0.000    1.500    0.000    0.000 
#    0.000    0.000    0.000    0.000    0.000    0.000 
#
# Total GULP energy -793573.228028 kJ/mol
# GULP energy per Si atom -12399.581688 kJ/mol
# Density = 1.993515 g / cm^3
# Si number density = 19.980626 Si / 1000 Ang^3
#
#
#
# Elastic Constant Matrix: (Units=GPa)
#
#
# Indices 1 2 3 4 5 6 
#
# 1 72.2286 25.0771 33.3379 0.0000 0.0000 0.0000
# 2 25.0771 126.4202 49.7350 0.0000 0.0000 0.0000
# 3 33.3379 49.7350 103.6345 0.0000 0.0000 0.0000
# 4 0.0000 0.0000 0.0000 37.5148 0.0000 0.0000
# 5 0.0000 0.0000 0.0000 0.0000 21.1462 0.0000
# 6 0.0000 0.0000 0.0000 0.0000 0.0000 21.2275
#
#
#
# Elastic Compliance Matrix: (Units=1/GPa)
#
#
# Indices 1 2 3 4 5 6 
#
# 1 0.016474 -0.001458 -0.004600 0.000000 0.000000 0.000000
# 2 -0.001458 0.009880 -0.004272 0.000000 0.000000 0.000000
# 3 -0.004600 -0.004272 0.013179 0.000000 0.000000 0.000000
# 4 0.000000 0.000000 0.000000 0.026656 0.000000 0.000000
# 5 0.000000 0.000000 0.000000 0.000000 0.047290 0.000000
# 6 0.000000 0.000000 0.000000 0.000000 0.000000 0.047109
#
#
# Mechanical properties :
#
#
# Convention : Reuss Voigt Hill
#
# Bulk Modulus (GPa) = 52.98610 57.62037 55.30324
# Shear Modulus (GPa) = 26.66090 28.91992 27.79041
#
# Velocity S-wave (km/s) = 3.65682 3.80860 3.73348
# Velocity P-wave (km/s) = 6.66379 6.94559 6.80615
#
# Compressibility (1/GPa) = 0.01887287
#
# Stress axis : x y z
#
# Youngs Moduli (GPa) = 60.70057 101.21209 75.87620
#
# Poissons Ratio (x) = 0.14760 0.34901
# Poissons Ratio (y) = 0.08852 0.32418
# Poissons Ratio (z) = 0.27921 0.43243
#
# Static dielectric constant tensor:
#      x y z
#    x 3.959290 0.000000 0.000000 
#    y 0.000000 3.714570 0.000000 
#    z 0.000000 0.000000 3.801970 
# 
# 
# High freq. dielectric constant tensor:
#      x y z
#    x 1.778920 0.000000 0.000000 
#    y 0.000000 1.779860 0.000000 
#    z 0.000000 0.000000 1.778270 
# 
# From -- ./inp_files/5561.got.cif
#   From: 2010.03.12/outbox.cif.g09.slc.cpg/sg57_3_cif.got.tgz:5561.got - 2010.04.16 15:48:40.
