data_PCOD8233054
_publ_section_title
;
Structure prediction by ZEFSAII (Michael W. Deem and Ramdas Pophale) SiO2 
 PCOD8233054
Probable space group: P B C M
;
_chemical_formula_sum "Si O2"
_cell_formula_units_Z 40
_cell_length_a 12.828524
_cell_length_b 18.073673
_cell_length_c 8.677626
_cell_angle_alpha 90.000000
_cell_angle_beta 90.000000
_cell_angle_gamma 90.000000
_cell_volume 2011.981763
_symmetry_space_group_name_H-M "P B C M"
_symmetry_group_IT_number 57
_symmetry_cell_setting 'orthorhombic'
loop_
_space_group_symop_operation_xyz
x,y,z
-x,-y,1/2+z
x,1/2-y,-z
-x,1/2+y,1/2-z
-x,-y,-z
x,y,1/2-z
-x,1/2+y,z
x,1/2-y,1/2+z
loop_
_atom_site_type_symbol
_atom_site_label
_atom_site_fract_x
_atom_site_fract_y
_atom_site_fract_z
Si Si1 0.395234 0.585184 0.079572
Si Si2 0.809196 0.909942 0.569478
Si Si3 0.833966 0.430942 0.567492
Si Si4 0.598513 0.590536 0.579923
Si Si5 0.005211 0.327255 0.068035
O O1 0.409564 0.617986 0.250000
O O2 0.278690 0.603294 0.018947
O O3 0.406903 0.497382 0.083868
O O4 0.485873 0.621311 0.975438
O O5 0.820997 0.925479 0.750000
O O6 0.691188 0.883744 0.533024
O O7 0.885888 0.845270 0.515182
O O8 0.839259 0.982849 0.474093
O O9 0.853415 0.422743 0.750000
O O10 0.920972 0.389590 0.470475
O O11 0.620386 0.622418 0.750000
O O12 0.021342 0.322185 0.250000
O O13 0.964078 0.250000 0.000000
#
# Coordination Sequence:
#
# PCOD8233054 Si02
#       5
#     8   8   8   8   8
#     4   8  15  27  46  74 108 141 173 213 262 314
#     4  11  21  35  56  82 111 144 182 223 268 317
#     4  10  20  36  57  83 112 143 181 223 267 316
#     4   9  16  27  46  75 109 141 175 217 265 314
#     4  12  25  41  58  78 106 141 181 224 273 325
#
# _framework density 19.880896
#
# number of rings (size 3 to 8) (size 9 to 14) (size 15 to 20)
#    0.000    2.000    0.000    6.600    0.000    5.600 
#    0.000    0.000    0.000    1.200    0.000    2.800 
#    0.000    0.000    0.000    0.000    0.000    0.000 
#
# Total GULP energy -495946.846750 kJ/mol
# GULP energy per Si atom -12398.671169 kJ/mol
# Density = 1.983565 g / cm^3
# Si number density = 19.880896 Si / 1000 Ang^3
#
#
#
# Elastic Constant Matrix: (Units=GPa)
#
#
# Indices 1 2 3 4 5 6 
#
# 1 114.9196 10.8369 46.0814 0.0000 0.0000 0.0000
# 2 10.8369 27.3069 10.5641 0.0000 0.0000 0.0000
# 3 46.0814 10.5641 106.3652 0.0000 0.0000 0.0000
# 4 0.0000 0.0000 0.0000 22.5626 0.0000 0.0000
# 5 0.0000 0.0000 0.0000 0.0000 38.2082 0.0000
# 6 0.0000 0.0000 0.0000 0.0000 0.0000 3.4346
#
#
#
# Elastic Compliance Matrix: (Units=1/GPa)
#
#
# Indices 1 2 3 4 5 6 
#
# 1 0.010699 -0.002551 -0.004382 0.000000 0.000000 0.000000
# 2 -0.002551 0.038692 -0.002738 0.000000 0.000000 0.000000
# 3 -0.004382 -0.002738 0.011572 0.000000 0.000000 0.000000
# 4 0.000000 0.000000 0.000000 0.044321 0.000000 0.000000
# 5 0.000000 0.000000 0.000000 0.000000 0.026172 0.000000
# 6 0.000000 0.000000 0.000000 0.000000 0.000000 0.291154
#
#
# Mechanical properties :
#
#
# Convention : Reuss Voigt Hill
#
# Bulk Modulus (GPa) = 24.02555 42.61738 33.32146
# Shear Modulus (GPa) = 10.96908 24.91503 17.94205
#
# Velocity S-wave (km/s) = 2.35146 3.54392 3.00738
# Velocity P-wave (km/s) = 4.41401 6.18294 5.37179
#
# Compressibility (1/GPa) = 0.04162236
#
# Stress axis : x y z
#
# Youngs Moduli (GPa) = 93.46299 25.84492 86.41598
#
# Poissons Ratio (x) = 0.06593 0.37868
# Poissons Ratio (y) = 0.23841 0.23658
# Poissons Ratio (z) = 0.40956 0.07076
#
# Static dielectric constant tensor:
#      x y z
#    x 4.021370 0.000000 0.000000 
#    y 0.000000 3.095120 0.000000 
#    z 0.000000 0.000000 3.751070 
# 
# 
# High freq. dielectric constant tensor:
#      x y z
#    x 1.796060 0.000000 0.000000 
#    y 0.000000 1.713570 0.000000 
#    z 0.000000 0.000000 1.785990 
# 
# From -- ./inp_files/2653.got.cif
#   From: 2010.03.12/outbox.cif.g09.slc.cpg/sg57_2_cif.got.tgz:2653.got - 2010.04.16 15:48:40.
