data_PCOD8233605
_publ_section_title
;
Structure prediction by ZEFSAII (Michael W. Deem and Ramdas Pophale) SiO2 
 PCOD8233605
Probable space group: P B C M
;
_chemical_formula_sum "Si O2"
_cell_formula_units_Z 40
_cell_length_a 8.487281
_cell_length_b 8.808952
_cell_length_c 26.576653
_cell_angle_alpha 90.000000
_cell_angle_beta 90.000000
_cell_angle_gamma 90.000000
_cell_volume 1986.978239
_symmetry_space_group_name_H-M "P B C M"
_symmetry_group_IT_number 57
_symmetry_cell_setting 'orthorhombic'
loop_
_space_group_symop_operation_xyz
x,y,z
-x,-y,1/2+z
x,1/2-y,-z
-x,1/2+y,1/2-z
-x,-y,-z
x,y,1/2-z
-x,1/2+y,z
x,1/2-y,1/2+z
loop_
_atom_site_type_symbol
_atom_site_label
_atom_site_fract_x
_atom_site_fract_y
_atom_site_fract_z
Si Si1 0.198172 0.727597 0.942956
Si Si2 0.680664 0.701858 0.645399
Si Si3 0.088222 0.416046 0.901898
Si Si4 0.620445 0.130596 0.358755
Si Si5 0.898000 0.012077 0.193493
O O1 0.146340 0.555135 0.935150
O O2 0.346675 0.766763 0.907656
O O3 0.058317 0.843518 0.930307
O O4 0.251985 0.750000 0.000000
O O5 0.604185 0.545712 0.623839
O O6 0.540352 0.808117 0.667038
O O7 0.810894 0.653114 0.687632
O O8 0.771472 0.793432 0.601735
O O9 0.041294 0.475316 0.845911
O O10 0.766074 0.142176 0.318904
O O11 0.962447 0.030924 0.250000
#
# Coordination Sequence:
#
# PCOD8233605 Si02
#       5
#     8   8   8   8   8
#     4  11  21  38  61  89 120 161 205 245 306 358
#     4  10  20  39  62  82 125 155 198 243 308 343
#     4  11  20  39  60  88 122 158 195 258 290 355
#     4   9  21  39  57  86 121 155 197 252 293 354
#     4   9  21  37  59  86 118 155 201 241 302 361
#
# _framework density 20.131069
#
# number of rings (size 3 to 8) (size 9 to 14) (size 15 to 20)
#    1.200    0.800    2.000    1.800    0.000    1.600 
#    0.000    5.000    0.000    0.000    0.000    0.000 
#    0.000    0.000    0.000    0.000    0.000    0.000 
#
# Total GULP energy -495641.678719 kJ/mol
# GULP energy per Si atom -12391.041968 kJ/mol
# Density = 2.008525 g / cm^3
# Si number density = 20.131069 Si / 1000 Ang^3
#
#
#
# Elastic Constant Matrix: (Units=GPa)
#
#
# Indices 1 2 3 4 5 6 
#
# 1 37.9988 14.6557 -14.1268 0.0000 0.0000 0.0000
# 2 14.6557 98.5211 12.7015 0.0000 0.0000 0.0000
# 3 -14.1268 12.7015 81.7765 0.0000 0.0000 0.0000
# 4 0.0000 0.0000 0.0000 21.7968 0.0000 0.0000
# 5 0.0000 0.0000 0.0000 0.0000 14.5684 0.0000
# 6 0.0000 0.0000 0.0000 0.0000 0.0000 36.7406
#
#
#
# Elastic Compliance Matrix: (Units=1/GPa)
#
#
# Indices 1 2 3 4 5 6 
#
# 1 0.030658 -0.005351 0.006127 0.000000 0.000000 0.000000
# 2 -0.005351 0.011291 -0.002678 0.000000 0.000000 0.000000
# 3 0.006127 -0.002678 0.013703 0.000000 0.000000 0.000000
# 4 0.000000 0.000000 0.000000 0.045878 0.000000 0.000000
# 5 0.000000 0.000000 0.000000 0.000000 0.068642 0.000000
# 6 0.000000 0.000000 0.000000 0.000000 0.000000 0.027218
#
#
# Mechanical properties :
#
#
# Convention : Reuss Voigt Hill
#
# Bulk Modulus (GPa) = 19.28656 27.19524 23.24090
# Shear Modulus (GPa) = 22.88576 28.29220 25.58898
#
# Velocity S-wave (km/s) = 3.37536 3.75293 3.56914
# Velocity P-wave (km/s) = 4.97916 5.68487 5.34368
#
# Compressibility (1/GPa) = 0.05184958
#
# Stress axis : x y z
#
# Youngs Moduli (GPa) = 32.61772 88.56373 72.97730
#
# Poissons Ratio (x) = 0.47387 -0.44715
# Poissons Ratio (y) = 0.17452 0.19544
# Poissons Ratio (z) = -0.19986 0.23718
#
# Static dielectric constant tensor:
#      x y z
#    x 3.569530 0.000000 0.000000 
#    y 0.000000 3.725870 0.000000 
#    z 0.000000 0.000000 3.217570 
# 
# 
# High freq. dielectric constant tensor:
#      x y z
#    x 1.780250 0.000000 0.000000 
#    y 0.000000 1.795240 0.000000 
#    z 0.000000 0.000000 1.742910 
# 
# From -- ./inp_files/28242.got.cif
#   From: 2010.03.12/outbox.cif.g09.slc.cpg/sg57_15_cif.got.tgz:28242.got - 2010.04.16 15:48:40.
