data_PCOD8233982
_publ_section_title
;
Structure prediction by ZEFSAII (Michael W. Deem and Ramdas Pophale) SiO2 
 PCOD8233982
Probable space group: P B C M
;
_chemical_formula_sum "Si O2"
_cell_formula_units_Z 64
_cell_length_a 12.191799
_cell_length_b 28.992838
_cell_length_c 8.849248
_cell_angle_alpha 90.000000
_cell_angle_beta 90.000000
_cell_angle_gamma 90.000000
_cell_volume 3127.986639
_symmetry_space_group_name_H-M "P B C M"
_symmetry_group_IT_number 57
_symmetry_cell_setting 'orthorhombic'
loop_
_space_group_symop_operation_xyz
x,y,z
-x,-y,1/2+z
x,1/2-y,-z
-x,1/2+y,1/2-z
-x,-y,-z
x,y,1/2-z
-x,1/2+y,z
x,1/2-y,1/2+z
loop_
_atom_site_type_symbol
_atom_site_label
_atom_site_fract_x
_atom_site_fract_y
_atom_site_fract_z
Si Si1 0.722945 0.297253 0.571689
Si Si2 0.067146 0.297733 0.072359
Si Si3 0.323924 0.487952 0.078117
Si Si4 0.500409 0.931760 0.920691
Si Si5 0.116621 0.632055 0.927928
Si Si6 0.104715 0.974730 0.429749
Si Si7 0.309960 0.295992 0.075535
Si Si8 0.529119 0.341087 0.425204
O O1 0.771114 0.250000 0.500000
O O2 0.732584 0.293485 0.750000
O O3 0.784352 0.342939 0.513460
O O4 0.597133 0.303213 0.519293
O O5 0.062194 0.290563 0.250000
O O6 0.993438 0.340996 0.023388
O O7 0.189757 0.309815 0.012860
O O8 0.024215 0.250000 0.000000
O O9 0.294070 0.473848 0.250000
O O10 0.410941 0.528639 0.076449
O O11 0.383057 0.445498 0.994441
O O12 0.213892 0.500957 0.990409
O O13 0.523595 0.915340 0.750000
O O14 0.442859 0.891947 0.017730
O O15 0.139318 0.635225 0.750000
O O16 0.105448 0.578997 0.979867
O O17 0.099978 0.979302 0.250000
O O18 0.000000 0.000000 0.500000
O O19 0.298546 0.285032 0.250000
O O20 0.399233 0.335282 0.043794
O O21 0.354964 0.250000 0.000000
O O22 0.560011 0.335631 0.250000
#
# Coordination Sequence:
#
# PCOD8233982 Si02
#       8
#     8   8   8   8   8   8   8   8
#     4  12  25  40  60  87 122 161 202 249 299 356
#     4   9  18  35  57  82 111 144 186 234 286 344
#     4  10  21  39  61  84 114 151 192 239 293 352
#     4  10  21  37  60  89 117 149 190 239 293 349
#     4  10  22  40  62  87 117 154 196 244 298 360
#     4  11  24  41  62  88 120 158 201 251 308 370
#     4   9  19  34  53  77 107 145 184 225 274 328
#     4  11  22  36  56  84 118 154 193 236 286 346
#
# _framework density 20.460445
#
# number of rings (size 3 to 8) (size 9 to 14) (size 15 to 20)
#    0.000    1.750    0.000    4.125    0.000    9.000 
#    0.000    2.500    0.000    0.000    0.000    0.000 
#    0.000    0.000    0.000    0.000    0.000    0.000 
#
# Total GULP energy -793623.467453 kJ/mol
# GULP energy per Si atom -12400.366679 kJ/mol
# Density = 2.041388 g / cm^3
# Si number density = 20.460445 Si / 1000 Ang^3
#
#
#
# Elastic Constant Matrix: (Units=GPa)
#
#
# Indices 1 2 3 4 5 6 
#
# 1 105.7270 41.8828 48.6881 0.0000 0.0000 0.0000
# 2 41.8828 94.9271 40.9266 0.0000 0.0000 0.0000
# 3 48.6881 40.9266 90.4662 0.0000 0.0000 0.0000
# 4 0.0000 0.0000 0.0000 32.0180 0.0000 0.0000
# 5 0.0000 0.0000 0.0000 0.0000 32.1840 0.0000
# 6 0.0000 0.0000 0.0000 0.0000 0.0000 8.5781
#
#
#
# Elastic Compliance Matrix: (Units=1/GPa)
#
#
# Indices 1 2 3 4 5 6 
#
# 1 0.013447 -0.003494 -0.005656 0.000000 0.000000 0.000000
# 2 -0.003494 0.013995 -0.004451 0.000000 0.000000 0.000000
# 3 -0.005656 -0.004451 0.016112 0.000000 0.000000 0.000000
# 4 0.000000 0.000000 0.000000 0.031232 0.000000 0.000000
# 5 0.000000 0.000000 0.000000 0.000000 0.031071 0.000000
# 6 0.000000 0.000000 0.000000 0.000000 0.000000 0.116576
#
#
# Mechanical properties :
#
#
# Convention : Reuss Voigt Hill
#
# Bulk Modulus (GPa) = 61.15825 61.56835 61.36330
# Shear Modulus (GPa) = 19.60112 25.19753 22.39932
#
# Velocity S-wave (km/s) = 3.09852 3.51311 3.31231
# Velocity P-wave (km/s) = 6.53888 6.82735 6.68467
#
# Compressibility (1/GPa) = 0.01635102
#
# Stress axis : x y z
#
# Youngs Moduli (GPa) = 74.36363 71.45400 62.06742
#
# Poissons Ratio (x) = 0.24969 0.35108
# Poissons Ratio (y) = 0.25986 0.27624
# Poissons Ratio (z) = 0.42063 0.31801
#
# Static dielectric constant tensor:
#      x y z
#    x 3.966090 0.000000 0.000000 
#    y 0.000000 0.022470 0.000000 
#    z 0.000000 0.000000 3.757280 
# 
# 
# High freq. dielectric constant tensor:
#      x y z
#    x 1.809680 0.000000 0.000000 
#    y 0.000000 1.795530 0.000000 
#    z 0.000000 0.000000 1.801380 
# 
# From -- ./inp_files/3773.got.cif
#   From: 2010.03.12/outbox.cif.g09.slc.cpg/sg57_2_cif.got.tgz:3773.got - 2010.04.16 15:48:40.
