data_PCOD8233907
_publ_section_title
;
Structure prediction by ZEFSAII (Michael W. Deem and Ramdas Pophale) SiO2 
 PCOD8233907
Probable space group: P B C M
;
_chemical_formula_sum "Si O2"
_cell_formula_units_Z 64
_cell_length_a 14.226944
_cell_length_b 25.720075
_cell_length_c 8.929452
_cell_angle_alpha 90.000000
_cell_angle_beta 90.000000
_cell_angle_gamma 90.000000
_cell_volume 3267.447813
_symmetry_space_group_name_H-M "P B C M"
_symmetry_group_IT_number 57
_symmetry_cell_setting 'orthorhombic'
loop_
_space_group_symop_operation_xyz
x,y,z
-x,-y,1/2+z
x,1/2-y,-z
-x,1/2+y,1/2-z
-x,-y,-z
x,y,1/2-z
-x,1/2+y,z
x,1/2-y,1/2+z
loop_
_atom_site_type_symbol
_atom_site_label
_atom_site_fract_x
_atom_site_fract_y
_atom_site_fract_z
Si Si1 0.377847 0.601339 0.576466
Si Si2 0.705200 0.000802 0.424233
Si Si3 0.696275 0.695369 0.073641
Si Si4 0.907531 0.803545 0.925946
Si Si5 0.725758 0.305176 0.571669
Si Si6 0.911195 0.139253 0.427372
Si Si7 0.596914 0.601428 0.577370
Si Si8 0.910737 0.024265 0.423081
O O1 0.353129 0.610165 0.750000
O O2 0.325397 0.550361 0.518851
O O3 0.348633 0.652091 0.483534
O O4 0.487710 0.591618 0.552152
O O5 0.683720 0.012308 0.250000
O O6 0.816468 0.990771 0.450132
O O7 0.651309 0.949665 0.481210
O O8 0.686062 0.701915 0.250000
O O9 0.802621 0.679189 0.026593
O O10 0.667686 0.750000 0.000000
O O11 0.626774 0.651029 0.018294
O O12 0.913781 0.795796 0.750000
O O13 0.985016 0.844484 0.983741
O O14 0.936013 0.750000 0.000000
O O15 0.699619 0.250000 0.500000
O O16 0.719259 0.300904 0.750000
O O17 0.829661 0.322149 0.514416
O O18 0.906074 0.139297 0.250000
O O19 0.891953 0.081715 0.490026
O O20 0.622019 0.612153 0.750000
O O21 0.936301 0.028411 0.250000
O O22 0.000000 0.000000 0.500000
#
# Coordination Sequence:
#
# PCOD8233907 Si02
#       8
#     8   8   8   8   8   8   8   8
#     4  11  23  40  61  88 117 150 195 247 297 349
#     4  10  21  41  64  86 118 157 193 239 296 349
#     4  10  21  37  59  85 116 153 191 237 290 343
#     4   9  18  33  53  79 109 143 183 227 274 329
#     4  11  22  39  62  88 120 159 199 245 299 357
#     4   9  18  35  57  80 115 153 188 232 284 342
#     4  10  23  40  61  87 116 150 194 244 294 352
#     4  10  21  37  57  85 119 156 190 230 287 343
#
# _framework density 19.587154000000002
#
# number of rings (size 3 to 8) (size 9 to 14) (size 15 to 20)
#    0.000    2.000    1.250    1.875    1.750    3.000 
#    0.000    1.250    0.000    0.000    0.000    0.000 
#    0.000    0.000    0.000    0.000    0.000    0.000 
#
# Total GULP energy -793667.427596 kJ/mol
# GULP energy per Si atom -12401.053556 kJ/mol
# Density = 1.954257 g / cm^3
# Si number density = 19.587154 Si / 1000 Ang^3
#
#
#
# Elastic Constant Matrix: (Units=GPa)
#
#
# Indices 1 2 3 4 5 6 
#
# 1 100.3183 51.2623 37.9857 0.0000 0.0000 0.0000
# 2 51.2623 126.9363 45.3139 0.0000 0.0000 0.0000
# 3 37.9857 45.3139 65.0131 0.0000 0.0000 0.0000
# 4 0.0000 0.0000 0.0000 35.0343 0.0000 0.0000
# 5 0.0000 0.0000 0.0000 0.0000 27.5598 0.0000
# 6 0.0000 0.0000 0.0000 0.0000 0.0000 36.0877
#
#
#
# Elastic Compliance Matrix: (Units=1/GPa)
#
#
# Indices 1 2 3 4 5 6 
#
# 1 0.013951 -0.003626 -0.005624 0.000000 0.000000 0.000000
# 2 -0.003626 0.011430 -0.005848 0.000000 0.000000 0.000000
# 3 -0.005624 -0.005848 0.022743 0.000000 0.000000 0.000000
# 4 0.000000 0.000000 0.000000 0.028543 0.000000 0.000000
# 5 0.000000 0.000000 0.000000 0.000000 0.036285 0.000000
# 6 0.000000 0.000000 0.000000 0.000000 0.000000 0.027710
#
#
# Mechanical properties :
#
#
# Convention : Reuss Voigt Hill
#
# Bulk Modulus (GPa) = 55.77758 62.37683 59.07721
# Shear Modulus (GPa) = 28.27511 30.25008 29.26260
#
# Velocity S-wave (km/s) = 3.80353 3.93413 3.86938
# Velocity P-wave (km/s) = 6.91575 7.24923 7.08446
#
# Compressibility (1/GPa) = 0.01792835
#
# Stress axis : x y z
#
# Youngs Moduli (GPa) = 71.68096 87.48878 43.96928
#
# Poissons Ratio (x) = 0.31727 0.24726
# Poissons Ratio (y) = 0.25994 0.25713
# Poissons Ratio (z) = 0.40310 0.51162
#
# Static dielectric constant tensor:
#      x y z
#    x 3.744810 0.000000 0.000000 
#    y 0.000000 3.548570 0.000000 
#    z 0.000000 0.000000 3.439910 
# 
# 
# High freq. dielectric constant tensor:
#      x y z
#    x 1.774210 0.000000 0.000000 
#    y 0.000000 1.766450 0.000000 
#    z 0.000000 0.000000 1.749560 
# 
# From -- ./inp_files/5647.got.cif
#   From: 2010.03.12/outbox.cif.g09.slc.cpg/sg57_3_cif.got.tgz:5647.got - 2010.04.16 15:48:40.
