data_PCOD8233431
_publ_section_title
;
Structure prediction by ZEFSAII (Michael W. Deem and Ramdas Pophale) SiO2 
 PCOD8233431
Probable space group: P B C M
;
_chemical_formula_sum "Si O2"
_cell_formula_units_Z 64
_cell_length_a 11.929651
_cell_length_b 31.236750
_cell_length_c 8.806345
_cell_angle_alpha 90.000000
_cell_angle_beta 90.000000
_cell_angle_gamma 90.000000
_cell_volume 3281.627451
_symmetry_space_group_name_H-M "P B C M"
_symmetry_group_IT_number 57
_symmetry_cell_setting 'orthorhombic'
loop_
_space_group_symop_operation_xyz
x,y,z
-x,-y,1/2+z
x,1/2-y,-z
-x,1/2+y,1/2-z
-x,-y,-z
x,y,1/2-z
-x,1/2+y,z
x,1/2-y,1/2+z
loop_
_atom_site_type_symbol
_atom_site_label
_atom_site_fract_x
_atom_site_fract_y
_atom_site_fract_z
Si Si1 0.018534 0.453335 0.571337
Si Si2 0.625901 0.104779 0.075891
Si Si3 0.752977 0.553643 0.572490
Si Si4 0.004018 0.705991 0.928542
Si Si5 0.875435 0.127510 0.423206
Si Si6 0.249853 0.293391 0.070873
Si Si7 0.385992 0.515932 0.928211
Si Si8 0.409088 0.368855 0.072369
O O1 0.025704 0.459888 0.750000
O O2 0.132901 0.432099 0.509223
O O3 0.000000 0.500000 0.500000
O O4 0.920574 0.419568 0.526907
O O5 0.609362 0.089509 0.250000
O O6 0.741717 0.130093 0.057838
O O7 0.628205 0.065655 0.959761
O O8 0.522769 0.134801 0.024919
O O9 0.777610 0.549658 0.750000
O O10 0.718234 0.507786 0.506172
O O11 0.652987 0.586518 0.538325
O O12 0.009886 0.711304 0.750000
O O13 0.876843 0.698261 0.985789
O O14 0.051915 0.750000 0.000000
O O15 0.076148 0.665101 0.974345
O O16 0.911656 0.136025 0.250000
O O17 0.253276 0.289735 0.250000
O O18 0.327685 0.331696 0.013361
O O19 0.298265 0.250000 0.000000
O O20 0.387025 0.506930 0.750000
O O21 0.500000 0.500000 0.000000
O O22 0.437035 0.364297 0.250000
#
# Coordination Sequence:
#
# PCOD8233431 Si02
#       8
#     8   8   8   8   8   8   8   8
#     4  11  23  39  59  84 118 158 200 249 303 359
#     4  11  23  39  59  83 115 155 199 245 291 343
#     4  11  22  37  58  84 115 149 191 244 293 344
#     4  10  20  37  64  93 119 151 190 240 298 360
#     4  10  23  41  59  84 119 158 201 250 299 353
#     4   9  19  36  58  87 117 146 181 227 286 345
#     4  12  23  37  57  83 114 153 198 242 291 344
#     4  10  21  37  57  82 114 149 188 234 284 342
#
# _framework density 19.502517999999998
#
# number of rings (size 3 to 8) (size 9 to 14) (size 15 to 20)
#    0.000    1.500    1.250    4.125    0.000    5.500 
#    0.000    0.625    0.000    1.500    0.000    0.000 
#    0.000    0.000    0.000    0.000    0.000    0.000 
#
# Total GULP energy -793835.196551 kJ/mol
# GULP energy per Si atom -12403.674946 kJ/mol
# Density = 1.945813 g / cm^3
# Si number density = 19.502518 Si / 1000 Ang^3
#
#
#
# Elastic Constant Matrix: (Units=GPa)
#
#
# Indices 1 2 3 4 5 6 
#
# 1 108.9174 41.0596 45.6788 0.0000 0.0000 0.0000
# 2 41.0596 112.4743 43.5393 0.0000 0.0000 0.0000
# 3 45.6788 43.5393 78.7423 0.0000 0.0000 0.0000
# 4 0.0000 0.0000 0.0000 34.6168 0.0000 0.0000
# 5 0.0000 0.0000 0.0000 0.0000 34.5978 0.0000
# 6 0.0000 0.0000 0.0000 0.0000 0.0000 26.1454
#
#
#
# Elastic Compliance Matrix: (Units=1/GPa)
#
#
# Indices 1 2 3 4 5 6 
#
# 1 0.012564 -0.002246 -0.006046 0.000000 0.000000 0.000000
# 2 -0.002246 0.011714 -0.005174 0.000000 0.000000 0.000000
# 3 -0.006046 -0.005174 0.019068 0.000000 0.000000 0.000000
# 4 0.000000 0.000000 0.000000 0.028888 0.000000 0.000000
# 5 0.000000 0.000000 0.000000 0.000000 0.028904 0.000000
# 6 0.000000 0.000000 0.000000 0.000000 0.000000 0.038248
#
#
# Mechanical properties :
#
#
# Convention : Reuss Voigt Hill
#
# Bulk Modulus (GPa) = 60.92812 62.29884 61.61348
# Shear Modulus (GPa) = 29.10558 30.39574 29.75066
#
# Velocity S-wave (km/s) = 3.86735 3.95214 3.90997
# Velocity P-wave (km/s) = 7.15897 7.26906 7.21422
#
# Compressibility (1/GPa) = 0.01641278
#
# Stress axis : x y z
#
# Youngs Moduli (GPa) = 79.59405 85.37013 52.44346
#
# Poissons Ratio (x) = 0.19173 0.31710
# Poissons Ratio (y) = 0.17876 0.27135
# Poissons Ratio (z) = 0.48126 0.44171
#
# Static dielectric constant tensor:
#      x y z
#    x 3.729940 0.000000 0.000000 
#    y 0.000000 3.565310 0.000000 
#    z 0.000000 0.000000 3.745770 
# 
# 
# High freq. dielectric constant tensor:
#      x y z
#    x 1.763430 0.000000 0.000000 
#    y 0.000000 1.751940 0.000000 
#    z 0.000000 0.000000 1.764360 
# 
# From -- ./inp_files/3785.got.cif
#   From: 2010.03.12/outbox.cif.g09.slc.cpg/sg57_2_cif.got.tgz:3785.got - 2010.04.16 15:48:40.
