data_PCOD8233709
_publ_section_title
;
Structure prediction by ZEFSAII (Michael W. Deem and Ramdas Pophale) SiO2 
 PCOD8233709
Probable space group: P B C M
;
_chemical_formula_sum "Si O2"
_cell_formula_units_Z 48
_cell_length_a 8.869331
_cell_length_b 18.472967
_cell_length_c 14.369626
_cell_angle_alpha 90.000000
_cell_angle_beta 90.000000
_cell_angle_gamma 90.000000
_cell_volume 2354.360605
_symmetry_space_group_name_H-M "P B C M"
_symmetry_group_IT_number 57
_symmetry_cell_setting 'orthorhombic'
loop_
_space_group_symop_operation_xyz
x,y,z
-x,-y,1/2+z
x,1/2-y,-z
-x,1/2+y,1/2-z
-x,-y,-z
x,y,1/2-z
-x,1/2+y,z
x,1/2-y,1/2+z
loop_
_atom_site_type_symbol
_atom_site_label
_atom_site_fract_x
_atom_site_fract_y
_atom_site_fract_z
Si Si1 0.059730 0.984779 0.750000
Si Si2 0.823122 0.905058 0.651772
Si Si3 0.534424 0.927720 0.946923
Si Si4 0.362840 0.900110 0.750000
Si Si5 0.045865 0.156622 0.750000
Si Si6 0.202902 0.247145 0.895437
Si Si7 0.724383 0.230884 0.750000
Si Si8 0.463982 0.702182 0.577196
O O1 0.030218 0.070450 0.750000
O O2 0.233579 0.961505 0.750000
O O3 0.979976 0.950769 0.656645
O O4 0.736789 0.920203 0.750000
O O5 0.715167 0.927846 0.567812
O O6 0.859829 0.819861 0.650804
O O7 0.453355 0.912467 0.847372
O O8 0.500424 0.872613 0.028935
O O9 0.500000 0.000000 0.000000
O O10 0.294863 0.818314 0.750000
O O11 0.138411 0.177546 0.842353
O O12 0.894255 0.203583 0.750000
O O13 0.384882 0.244914 0.890677
O O14 0.142721 0.250000 0.000000
O O15 0.646583 0.192393 0.837295
O O16 0.378079 0.750000 0.500000
#
# Coordination Sequence:
#
# PCOD8233709 Si02
#       8
#     4   8   8   4   4   8   4   8
#     4  10  27  42  66  93 135 183 214 258 344 385
#     4  10  20  45  67  88 133 180 212 259 332 393
#     4  12  26  41  72 104 134 170 221 271 341 391
#     4  12  23  47  68  94 139 179 212 272 336 403
#     4  12  27  44  62 101 133 171 222 276 318 387
#     4  11  21  41  73  97 122 170 233 267 310 390
#     4  12  25  43  68  96 145 165 214 284 338 379
#     4  11  23  42  71 107 123 167 226 276 321 392
#
# _framework density 20.387701
#
# number of rings (size 3 to 8) (size 9 to 14) (size 15 to 20)
#    0.500    0.333    6.667    1.500    4.667    1.333 
#    3.000    1.667    0.000    0.000    0.000    0.000 
#    0.000    0.000    0.000    0.000    0.000    0.000 
#
# Total GULP energy -594646.092913 kJ/mol
# GULP energy per Si atom -12388.460269 kJ/mol
# Density = 2.034130 g / cm^3
# Si number density = 20.387701 Si / 1000 Ang^3
#
#
#
# Elastic Constant Matrix: (Units=GPa)
#
#
# Indices 1 2 3 4 5 6 
#
# 1 74.4328 19.2071 34.5445 0.0000 0.0000 0.0000
# 2 19.2071 104.3120 18.6858 0.0000 0.0000 0.0000
# 3 34.5445 18.6858 113.2869 0.0000 0.0000 0.0000
# 4 0.0000 0.0000 0.0000 37.7014 0.0000 0.0000
# 5 0.0000 0.0000 0.0000 0.0000 -3.1088 0.0000
# 6 0.0000 0.0000 0.0000 0.0000 0.0000 28.7832
#
#
#
# Elastic Compliance Matrix: (Units=1/GPa)
#
#
# Indices 1 2 3 4 5 6 
#
# 1 0.016104 -0.002149 -0.004556 0.000000 0.000000 0.000000
# 2 -0.002149 0.010165 -0.001021 0.000000 0.000000 0.000000
# 3 -0.004556 -0.001021 0.010385 0.000000 0.000000 0.000000
# 4 0.000000 0.000000 0.000000 0.026524 0.000000 0.000000
# 5 0.000000 0.000000 0.000000 0.000000 -0.321671 0.000000
# 6 0.000000 0.000000 0.000000 0.000000 0.000000 0.034742
#
#
# Mechanical properties :
#
#
# Convention : Reuss Voigt Hill
#
# Bulk Modulus (GPa) = 47.16743 48.54517 47.85630
# Shear Modulus (GPa) = -24.84716 27.31478 1.23381
#
# Velocity S-wave (km/s) = -3.49482 3.66425 0.77877
# Velocity P-wave (km/s) = 2.62686 6.46259 4.93282
#
# Compressibility (1/GPa) = 0.02120107
#
# Stress axis : x y z
#
# Youngs Moduli (GPa) = 62.09635 98.37384 96.29362
#
# Poissons Ratio (x) = 0.21142 0.43872
# Poissons Ratio (y) = 0.13345 0.09835
# Poissons Ratio (z) = 0.28292 0.10048
#
# Static dielectric constant tensor:
#      x y z
#    x 3.577250 0.000000 0.000000 
#    y 0.000000 3.601410 0.000000 
#    z 0.000000 0.000000 4.094940 
# 
# 
# High freq. dielectric constant tensor:
#      x y z
#    x 1.782270 0.000000 0.000000 
#    y 0.000000 1.802560 0.000000 
#    z 0.000000 0.000000 1.806500 
# 
# From -- ./inp_files/16431.got.cif
#   From: 2010.03.12/outbox.cif.g09.slc.cpg/sg57_9_cif.got.tgz:16431.got - 2010.04.16 15:48:40.
