data_PCOD8233820
_publ_section_title
;
Structure prediction by ZEFSAII (Michael W. Deem and Ramdas Pophale) SiO2 
 PCOD8233820
Probable space group: P B C M
;
_chemical_formula_sum "Si O2"
_cell_formula_units_Z 64
_cell_length_a 9.088078
_cell_length_b 20.350281
_cell_length_c 17.440584
_cell_angle_alpha 90.000000
_cell_angle_beta 90.000000
_cell_angle_gamma 90.000000
_cell_volume 3225.547780
_symmetry_space_group_name_H-M "P B C M"
_symmetry_group_IT_number 57
_symmetry_cell_setting 'orthorhombic'
loop_
_space_group_symop_operation_xyz
x,y,z
-x,-y,1/2+z
x,1/2-y,-z
-x,1/2+y,1/2-z
-x,-y,-z
x,y,1/2-z
-x,1/2+y,z
x,1/2-y,1/2+z
loop_
_atom_site_type_symbol
_atom_site_label
_atom_site_fract_x
_atom_site_fract_y
_atom_site_fract_z
Si Si1 0.911358 0.630621 0.098588
Si Si2 0.083579 0.382224 0.078284
Si Si3 0.101676 0.756070 0.410233
Si Si4 0.925773 0.011165 0.337199
Si Si5 0.576674 0.616972 0.915006
Si Si6 0.583037 0.263468 0.159919
Si Si7 0.407910 0.982794 0.838969
Si Si8 0.571667 0.861402 0.906642
O O1 0.003678 0.695337 0.117878
O O2 0.964655 0.571647 0.151998
O O3 0.741809 0.644991 0.114974
O O4 0.934118 0.608578 0.011796
O O5 0.019845 0.448769 0.114363
O O6 0.252113 0.369616 0.102750
O O7 0.989768 0.321309 0.108109
O O8 0.141535 0.750000 0.500000
O O9 0.245642 0.758472 0.358833
O O10 0.929399 0.988285 0.250000
O O11 0.761059 0.032572 0.361468
O O12 0.478411 0.666445 0.866077
O O13 0.532434 0.543646 0.889032
O O14 0.541962 0.624101 0.004468
O O15 0.558237 0.253591 0.250000
O O16 0.499765 0.207792 0.112766
O O17 0.423277 0.001200 0.750000
O O18 0.502406 0.918718 0.856082
#
# Coordination Sequence:
#
# PCOD8233820 Si02
#       8
#     8   8   8   8   8   8   8   8
#     4  10  21  37  60  86 112 145 190 237 280 331
#     4   9  20  39  62  85 111 145 189 236 283 334
#     4  10  21  39  61  84 111 146 187 235 285 339
#     4  10  21  36  56  82 116 153 186 225 281 340
#     4  10  21  40  63  86 113 151 194 236 284 340
#     4  12  25  39  57  85 118 152 189 236 288 340
#     4  10  21  38  58  85 119 153 188 232 286 341
#     4  11  22  38  61  87 114 151 195 237 281 337
#
# _framework density 19.841591999999999
#
# number of rings (size 3 to 8) (size 9 to 14) (size 15 to 20)
#    0.000    1.750    0.000    4.125    0.000    7.500 
#    0.000    1.250    0.000    0.000    0.000    0.000 
#    0.000    0.000    0.000    0.000    0.000    0.000 
#
# Total GULP energy -793982.060785 kJ/mol
# GULP energy per Si atom -12405.969700 kJ/mol
# Density = 1.979643 g / cm^3
# Si number density = 19.841592 Si / 1000 Ang^3
#
#
#
# Elastic Constant Matrix: (Units=GPa)
#
#
# Indices 1 2 3 4 5 6 
#
# 1 85.2883 38.5820 20.6782 0.0000 0.0000 0.0000
# 2 38.5820 102.9876 13.1900 0.0000 0.0000 0.0000
# 3 20.6782 13.1900 53.8355 0.0000 0.0000 0.0000
# 4 0.0000 0.0000 0.0000 23.0647 0.0000 0.0000
# 5 0.0000 0.0000 0.0000 0.0000 26.7840 0.0000
# 6 0.0000 0.0000 0.0000 0.0000 0.0000 38.8010
#
#
#
# Elastic Compliance Matrix: (Units=1/GPa)
#
#
# Indices 1 2 3 4 5 6 
#
# 1 0.015132 -0.005084 -0.004567 0.000000 0.000000 0.000000
# 2 -0.005084 0.011733 -0.000922 0.000000 0.000000 0.000000
# 3 -0.004567 -0.000922 0.020555 0.000000 0.000000 0.000000
# 4 0.000000 0.000000 0.000000 0.043356 0.000000 0.000000
# 5 0.000000 0.000000 0.000000 0.000000 0.037336 0.000000
# 6 0.000000 0.000000 0.000000 0.000000 0.000000 0.025773
#
#
# Mechanical properties :
#
#
# Convention : Reuss Voigt Hill
#
# Bulk Modulus (GPa) = 38.05927 43.00128 40.53028
# Shear Modulus (GPa) = 27.20540 29.04068 28.12304
#
# Velocity S-wave (km/s) = 3.70689 3.82989 3.76889
# Velocity P-wave (km/s) = 6.12737 6.42470 6.27779
#
# Compressibility (1/GPa) = 0.02627481
#
# Stress axis : x y z
#
# Youngs Moduli (GPa) = 66.08531 85.23284 48.65005
#
# Poissons Ratio (x) = 0.43332 0.22216
# Poissons Ratio (y) = 0.33598 0.04484
# Poissons Ratio (z) = 0.30178 0.07857
#
# Static dielectric constant tensor:
#      x y z
#    x 3.656660 0.000000 0.000000 
#    y 0.000000 3.681340 0.000000 
#    z 0.000000 0.000000 3.552080 
# 
# 
# High freq. dielectric constant tensor:
#      x y z
#    x 1.775950 0.000000 0.000000 
#    y 0.000000 1.786520 0.000000 
#    z 0.000000 0.000000 1.773980 
# 
# From -- ./inp_files/21433.got.cif
#   From: 2010.03.12/outbox.cif.g09.slc.cpg/sg57_11_cif.got.tgz:21433.got - 2010.04.16 15:48:40.
