data_PCOD8233517
_publ_section_title
;
Structure prediction by ZEFSAII (Michael W. Deem and Ramdas Pophale) SiO2 
 PCOD8233517
Probable space group: P B C M
;
_chemical_formula_sum "Si O2"
_cell_formula_units_Z 64
_cell_length_a 7.902420
_cell_length_b 21.821085
_cell_length_c 18.127661
_cell_angle_alpha 90.000000
_cell_angle_beta 90.000000
_cell_angle_gamma 90.000000
_cell_volume 3125.922597
_symmetry_space_group_name_H-M "P B C M"
_symmetry_group_IT_number 57
_symmetry_cell_setting 'orthorhombic'
loop_
_space_group_symop_operation_xyz
x,y,z
-x,-y,1/2+z
x,1/2-y,-z
-x,1/2+y,1/2-z
-x,-y,-z
x,y,1/2-z
-x,1/2+y,z
x,1/2-y,1/2+z
loop_
_atom_site_type_symbol
_atom_site_label
_atom_site_fract_x
_atom_site_fract_y
_atom_site_fract_z
Si Si1 0.190665 0.180490 0.337360
Si Si2 0.119451 0.604893 0.103483
Si Si3 0.584301 0.185195 0.334108
Si Si4 0.140477 0.471322 0.164579
Si Si5 0.264854 0.817401 0.169223
Si Si6 0.411723 0.123732 0.669398
Si Si7 0.762323 0.788401 0.067197
Si Si8 0.037126 0.619240 0.941364
O O1 0.167387 0.186776 0.250000
O O2 0.390009 0.169131 0.358243
O O3 0.134797 0.243722 0.376880
O O4 0.062353 0.128529 0.366879
O O5 0.277288 0.649076 0.118400
O O6 0.155993 0.541369 0.143334
O O7 0.122351 0.593572 0.015274
O O8 0.608809 0.164568 0.250000
O O9 0.621653 0.257020 0.344543
O O10 0.085855 0.465031 0.250000
O O11 0.324949 0.440859 0.149095
O O12 0.003240 0.436676 0.113827
O O13 0.174314 0.811939 0.250000
O O14 0.385070 0.878469 0.171371
O O15 0.139486 0.828558 0.102373
O O16 0.341300 0.144105 0.750000
O O17 0.381687 0.177692 0.611762
O O18 0.876825 0.841648 0.031876
O O19 0.681281 0.750000 0.000000
#
# Coordination Sequence:
#
# PCOD8233517 Si02
#       8
#     8   8   8   8   8   8   8   8
#     4  11  22  39  64  92 127 169 211 257 309 377
#     4  12  24  43  61  93 131 169 204 260 317 374
#     4  10  22  39  63  96 127 166 212 254 311 379
#     4  10  22  43  67  86 115 167 218 259 307 366
#     4  10  20  38  61  89 123 157 205 262 311 370
#     4   9  19  38  63  87 116 157 207 258 305 359
#     4  11  20  35  56  88 123 159 200 248 315 374
#     4  11  24  38  60  92 126 160 209 258 314 376
#
# _framework density 20.473955
#
# number of rings (size 3 to 8) (size 9 to 14) (size 15 to 20)
#    0.000    1.500    2.500    3.000    0.000    3.500 
#    2.250    0.625    0.000    0.000    0.000    0.000 
#    0.000    0.000    0.000    0.000    0.000    0.000 
#
# Total GULP energy -792983.854779 kJ/mol
# GULP energy per Si atom -12390.372731 kJ/mol
# Density = 2.042736 g / cm^3
# Si number density = 20.473955 Si / 1000 Ang^3
#
#
#
# Elastic Constant Matrix: (Units=GPa)
#
#
# Indices 1 2 3 4 5 6 
#
# 1 67.9478 27.1847 20.6169 0.0000 0.0000 0.0000
# 2 27.1847 74.1604 33.0087 0.0000 0.0000 0.0000
# 3 20.6169 33.0087 114.8722 0.0000 0.0000 0.0000
# 4 0.0000 0.0000 0.0000 34.2625 0.0000 0.0000
# 5 0.0000 0.0000 0.0000 0.0000 12.7119 0.0000
# 6 0.0000 0.0000 0.0000 0.0000 0.0000 25.0984
#
#
#
# Elastic Compliance Matrix: (Units=1/GPa)
#
#
# Indices 1 2 3 4 5 6 
#
# 1 0.017465 -0.005741 -0.001485 0.000000 0.000000 0.000000
# 2 -0.005741 0.017349 -0.003955 0.000000 0.000000 0.000000
# 3 -0.001485 -0.003955 0.010108 0.000000 0.000000 0.000000
# 4 0.000000 0.000000 0.000000 0.029186 0.000000 0.000000
# 5 0.000000 0.000000 0.000000 0.000000 0.078666 0.000000
# 6 0.000000 0.000000 0.000000 0.000000 0.000000 0.039843
#
#
# Mechanical properties :
#
#
# Convention : Reuss Voigt Hill
#
# Bulk Modulus (GPa) = 44.32537 46.51123 45.41830
# Shear Modulus (GPa) = 22.47197 26.15926 24.31561
#
# Velocity S-wave (km/s) = 3.31658 3.57835 3.44995
# Velocity P-wave (km/s) = 6.03017 6.31184 6.17261
#
# Compressibility (1/GPa) = 0.02256045
#
# Stress axis : x y z
#
# Youngs Moduli (GPa) = 57.25877 57.64000 98.92903
#
# Poissons Ratio (x) = 0.33091 0.14689
# Poissons Ratio (y) = 0.32872 0.39125
# Poissons Ratio (z) = 0.08502 0.22796
#
# Static dielectric constant tensor:
#      x y z
#    x 3.639290 0.000000 0.000000 
#    y 0.000000 3.536490 0.000000 
#    z 0.000000 0.000000 3.838800 
# 
# 
# High freq. dielectric constant tensor:
#      x y z
#    x 1.789610 0.000000 0.000000 
#    y 0.000000 1.783590 0.000000 
#    z 0.000000 0.000000 1.814830 
# 
# From -- ./inp_files/21440.got.cif
#   From: 2010.03.12/outbox.cif.g09.slc.cpg/sg57_11_cif.got.tgz:21440.got - 2010.04.16 15:48:40.
