data_PCOD8233732
_publ_section_title
;
Structure prediction by ZEFSAII (Michael W. Deem and Ramdas Pophale) SiO2 
 PCOD8233732
Probable space group: P B C M
;
_chemical_formula_sum "Si O2"
_cell_formula_units_Z 40
_cell_length_a 12.371289
_cell_length_b 9.618375
_cell_length_c 17.277240
_cell_angle_alpha 90.000000
_cell_angle_beta 90.000000
_cell_angle_gamma 90.000000
_cell_volume 2055.848104
_symmetry_space_group_name_H-M "P B C M"
_symmetry_group_IT_number 57
_symmetry_cell_setting 'orthorhombic'
loop_
_space_group_symop_operation_xyz
x,y,z
-x,-y,1/2+z
x,1/2-y,-z
-x,1/2+y,1/2-z
-x,-y,-z
x,y,1/2-z
-x,1/2+y,z
x,1/2-y,1/2+z
loop_
_atom_site_type_symbol
_atom_site_label
_atom_site_fract_x
_atom_site_fract_y
_atom_site_fract_z
Si Si1 0.806148 0.948692 0.444885
Si Si2 0.740980 0.085046 0.663755
Si Si3 0.858960 0.837227 0.605196
Si Si4 0.395555 0.590352 0.516247
Si Si5 0.906112 0.325605 0.659307
O O1 0.870296 0.923876 0.525120
O O2 0.782562 0.797912 0.406781
O O3 0.696165 0.032772 0.459047
O O4 0.879406 0.034722 0.386286
O O5 0.697470 0.117756 0.750000
O O6 0.640098 0.075844 0.605696
O O7 0.824463 0.203137 0.635246
O O8 0.803578 0.938082 0.667468
O O9 0.973729 0.781032 0.634952
O O10 0.422096 0.750000 0.500000
O O11 0.500000 0.500000 0.500000
O O12 0.899824 0.357003 0.750000
#
# Coordination Sequence:
#
# PCOD8233732 Si02
#       5
#     8   8   8   8   8
#     4  10  22  39  58  89 121 161 203 255 300 362
#     4  10  22  40  61  91 129 159 198 254 304 356
#     4  10  21  34  60  90 127 162 209 235 295 364
#     4  11  24  43  70  88 115 154 206 256 310 363
#     4  11  21  36  58  88 127 169 202 244 303 360
#
# _framework density 19.456689000000001
#
# number of rings (size 3 to 8) (size 9 to 14) (size 15 to 20)
#    0.000    1.600    2.000    2.400    5.600    8.000 
#    0.000    2.000    0.000    0.000    0.000    0.000 
#    0.000    0.000    0.000    0.000    0.000    0.000 
#
# Total GULP energy -496045.087242 kJ/mol
# GULP energy per Si atom -12401.127181 kJ/mol
# Density = 1.941241 g / cm^3
# Si number density = 19.456689 Si / 1000 Ang^3
#
#
#
# Elastic Constant Matrix: (Units=GPa)
#
#
# Indices 1 2 3 4 5 6 
#
# 1 104.5345 47.8584 48.5546 0.0000 0.0000 0.0000
# 2 47.8584 138.1596 48.8110 0.0000 0.0000 0.0000
# 3 48.5546 48.8110 88.0624 0.0000 0.0000 0.0000
# 4 0.0000 0.0000 0.0000 21.5099 0.0000 0.0000
# 5 0.0000 0.0000 0.0000 0.0000 24.7169 0.0000
# 6 0.0000 0.0000 0.0000 0.0000 0.0000 39.6317
#
#
#
# Elastic Compliance Matrix: (Units=1/GPa)
#
#
# Indices 1 2 3 4 5 6 
#
# 1 0.013547 -0.002554 -0.006054 0.000000 0.000000 0.000000
# 2 -0.002554 0.009482 -0.003847 0.000000 0.000000 0.000000
# 3 -0.006054 -0.003847 0.016826 0.000000 0.000000 0.000000
# 4 0.000000 0.000000 0.000000 0.046490 0.000000 0.000000
# 5 0.000000 0.000000 0.000000 0.000000 0.040458 0.000000
# 6 0.000000 0.000000 0.000000 0.000000 0.000000 0.025232
#
#
# Mechanical properties :
#
#
# Convention : Reuss Voigt Hill
#
# Bulk Modulus (GPa) = 66.91346 69.02269 67.96808
# Shear Modulus (GPa) = 27.48327 29.54053 28.51190
#
# Velocity S-wave (km/s) = 3.76245 3.90073 3.83221
# Velocity P-wave (km/s) = 7.30345 7.47259 7.38850
#
# Compressibility (1/GPa) = 0.01494468
#
# Stress axis : x y z
#
# Youngs Moduli (GPa) = 73.81444 105.46301 59.43143
#
# Poissons Ratio (x) = 0.26935 0.35980
# Poissons Ratio (y) = 0.18852 0.22866
# Poissons Ratio (z) = 0.44687 0.40577
#
# Static dielectric constant tensor:
#      x y z
#    x 3.303060 0.000000 0.000000 
#    y 0.000000 3.726120 0.000000 
#    z 0.000000 0.000000 3.568030 
# 
# 
# High freq. dielectric constant tensor:
#      x y z
#    x 1.728970 0.000000 0.000000 
#    y 0.000000 1.778350 0.000000 
#    z 0.000000 0.000000 1.760130 
# 
# From -- ./inp_files/21574.got.cif
#   From: 2010.03.12/outbox.cif.g09.slc.cpg/sg57_11_cif.got.tgz:21574.got - 2010.04.16 15:48:40.
