data_PCOD8233835
_publ_section_title
;
Structure prediction by ZEFSAII (Michael W. Deem and Ramdas Pophale) SiO2 
 PCOD8233835
Probable space group: P B C M
;
_chemical_formula_sum "Si O2"
_cell_formula_units_Z 64
_cell_length_a 24.224121
_cell_length_b 9.283886
_cell_length_c 14.093076
_cell_angle_alpha 90.000000
_cell_angle_beta 90.000000
_cell_angle_gamma 90.000000
_cell_volume 3169.447921
_symmetry_space_group_name_H-M "P B C M"
_symmetry_group_IT_number 57
_symmetry_cell_setting 'orthorhombic'
loop_
_space_group_symop_operation_xyz
x,y,z
-x,-y,1/2+z
x,1/2-y,-z
-x,1/2+y,1/2-z
-x,-y,-z
x,y,1/2-z
-x,1/2+y,z
x,1/2-y,1/2+z
loop_
_atom_site_type_symbol
_atom_site_label
_atom_site_fract_x
_atom_site_fract_y
_atom_site_fract_z
Si Si1 0.943774 0.915770 0.511006
Si Si2 0.240535 0.645062 0.143565
Si Si3 0.636353 0.589119 0.475906
Si Si4 0.844372 0.625612 0.359993
Si Si5 0.431056 0.008200 0.858983
Si Si6 0.465688 0.171347 0.141718
Si Si7 0.744235 0.454164 0.059412
Si Si8 0.862978 0.951878 0.146660
O O1 0.958798 0.750000 0.500000
O O2 0.904931 0.930566 0.605036
O O3 0.910406 0.987270 0.425989
O O4 0.000000 0.000000 0.500000
O O5 0.266594 0.617757 0.250000
O O6 0.241853 0.814127 0.120931
O O7 0.178615 0.585394 0.144925
O O8 0.267975 0.566510 0.053581
O O9 0.655885 0.750000 0.500000
O O10 0.622854 0.501257 0.573520
O O11 0.580169 0.585645 0.416531
O O12 0.684989 0.520082 0.411143
O O13 0.837557 0.582420 0.250000
O O14 0.795822 0.558558 0.423772
O O15 0.836186 0.796185 0.377342
O O16 0.410991 0.995500 0.750000
O O17 0.462671 0.158868 0.877754
O O18 0.473155 0.881049 0.886787
O O19 0.454145 0.131547 0.250000
O O20 0.890543 0.940111 0.250000
#
# Coordination Sequence:
#
# PCOD8233835 Si02
#       8
#     8   8   8   8   8   8   8   8
#     4  10  21  36  57  86 122 154 198 247 295 353
#     4  10  22  40  58  82 115 152 192 239 295 353
#     4  10  22  36  57  85 116 151 193 239 288 351
#     4  10  21  38  62  88 116 157 204 247 294 355
#     4   9  18  36  58  82 111 147 190 237 290 348
#     4   9  18  35  57  81 110 147 190 237 288 345
#     4  11  23  38  60  86 118 156 194 243 295 355
#     4   9  19  38  63  85 113 154 199 245 295 352
#
# _framework density 20.192791
#
# number of rings (size 3 to 8) (size 9 to 14) (size 15 to 20)
#    0.000    2.250    1.250    0.750    1.750    3.000 
#    4.500    0.000    0.000    0.000    0.000    0.000 
#    0.000    0.000    0.000    0.000    0.000    0.000 
#
# Total GULP energy -792981.397356 kJ/mol
# GULP energy per Si atom -12390.334334 kJ/mol
# Density = 2.014683 g / cm^3
# Si number density = 20.192791 Si / 1000 Ang^3
#
#
#
# Elastic Constant Matrix: (Units=GPa)
#
#
# Indices 1 2 3 4 5 6 
#
# 1 98.8699 45.0026 30.7107 0.0000 0.0000 0.0000
# 2 45.0026 67.0321 30.6740 0.0000 0.0000 0.0000
# 3 30.7107 30.6740 92.2406 0.0000 0.0000 0.0000
# 4 0.0000 0.0000 0.0000 25.9204 0.0000 0.0000
# 5 0.0000 0.0000 0.0000 0.0000 17.3446 0.0000
# 6 0.0000 0.0000 0.0000 0.0000 0.0000 27.4629
#
#
#
# Elastic Compliance Matrix: (Units=1/GPa)
#
#
# Indices 1 2 3 4 5 6 
#
# 1 0.014848 -0.009089 -0.001921 0.000000 0.000000 0.000000
# 2 -0.009089 0.023160 -0.004675 0.000000 0.000000 0.000000
# 3 -0.001921 -0.004675 0.013036 0.000000 0.000000 0.000000
# 4 0.000000 0.000000 0.000000 0.038580 0.000000 0.000000
# 5 0.000000 0.000000 0.000000 0.000000 0.057655 0.000000
# 6 0.000000 0.000000 0.000000 0.000000 0.000000 0.036413
#
#
# Mechanical properties :
#
#
# Convention : Reuss Voigt Hill
#
# Bulk Modulus (GPa) = 50.83345 52.32413 51.57879
# Shear Modulus (GPa) = 22.56112 24.26261 23.41186
#
# Velocity S-wave (km/s) = 3.34621 3.47010 3.40872
# Velocity P-wave (km/s) = 6.33705 6.48259 6.41023
#
# Compressibility (1/GPa) = 0.01967209
#
# Stress axis : x y z
#
# Youngs Moduli (GPa) = 67.34803 43.17784 76.71327
#
# Poissons Ratio (x) = 0.39246 0.14736
# Poissons Ratio (y) = 0.61216 0.35867
# Poissons Ratio (z) = 0.12937 0.20188
#
# Static dielectric constant tensor:
#      x y z
#    x 3.497240 0.000000 0.000000 
#    y 0.000000 3.642430 0.000000 
#    z 0.000000 0.000000 4.131900 
# 
# 
# High freq. dielectric constant tensor:
#      x y z
#    x 1.770620 0.000000 0.000000 
#    y 0.000000 1.780650 0.000000 
#    z 0.000000 0.000000 1.804260 
# 
# From -- ./inp_files/19534.got.cif
#   From: 2010.03.12/outbox.cif.g09.slc.cpg/sg57_10_cif.got.tgz:19534.got - 2010.04.16 15:48:40.
