data_PCOD8233044
_publ_section_title
;
Structure prediction by ZEFSAII (Michael W. Deem and Ramdas Pophale) SiO2 
 PCOD8233044
Probable space group: P B C M
;
_chemical_formula_sum "Si O2"
_cell_formula_units_Z 64
_cell_length_a 25.940247
_cell_length_b 14.901303
_cell_length_c 8.706346
_cell_angle_alpha 90.000000
_cell_angle_beta 90.000000
_cell_angle_gamma 90.000000
_cell_volume 3365.381285
_symmetry_space_group_name_H-M "P B C M"
_symmetry_group_IT_number 57
_symmetry_cell_setting 'orthorhombic'
loop_
_space_group_symop_operation_xyz
x,y,z
-x,-y,1/2+z
x,1/2-y,-z
-x,1/2+y,1/2-z
-x,-y,-z
x,y,1/2-z
-x,1/2+y,z
x,1/2-y,1/2+z
loop_
_atom_site_type_symbol
_atom_site_label
_atom_site_fract_x
_atom_site_fract_y
_atom_site_fract_z
Si Si1 0.239474 0.343265 0.069772
Si Si2 0.495268 0.649499 0.431258
Si Si3 0.246679 0.653699 0.568062
Si Si4 0.869968 0.155270 0.930405
Si Si5 0.425028 0.503590 0.569283
Si Si6 0.943589 0.999348 0.568229
Si Si7 0.122856 0.155303 0.568074
Si Si8 0.686324 0.499927 0.568107
O O1 0.242126 0.333092 0.250000
O O2 0.181406 0.367725 0.018399
O O3 0.277357 0.419807 0.009661
O O4 0.258393 0.250000 0.000000
O O5 0.500055 0.750000 0.500000
O O6 0.490970 0.660805 0.250000
O O7 0.445266 0.595489 0.491063
O O8 0.543618 0.586333 0.479171
O O9 0.259074 0.750000 0.500000
O O10 0.255576 0.651853 0.750000
O O11 0.188129 0.626060 0.523482
O O12 0.287012 0.590976 0.483420
O O13 0.874026 0.164678 0.750000
O O14 0.910500 0.083275 0.995026
O O15 0.885564 0.250000 0.000000
O O16 0.428202 0.518655 0.750000
O O17 0.367382 0.486933 0.516008
O O18 0.946956 0.001414 0.750000
O O19 0.915514 0.911243 0.513275
O O20 0.000000 0.000000 0.500000
O O21 0.106691 0.250000 0.500000
O O22 0.115410 0.153133 0.750000
O O23 0.678160 0.500503 0.750000
#
# Coordination Sequence:
#
# PCOD8233044 Si02
#       8
#     8   8   8   8   8   8   8   8
#     4   9  20  36  56  82 112 146 185 226 271 326
#     4  10  21  39  63  86 111 146 187 232 279 327
#     4  10  20  36  57  82 110 143 182 224 271 327
#     4   9  20  37  58  81 107 140 180 224 272 326
#     4  10  22  39  58  84 115 148 188 230 274 325
#     4  11  23  38  55  80 110 142 181 227 278 332
#     4  10  20  37  59  82 108 143 184 227 275 328
#     4  11  22  36  55  83 118 151 183 226 274 321
#
# _framework density 19.017161999999999
#
# number of rings (size 3 to 8) (size 9 to 14) (size 15 to 20)
#    0.000    2.000    0.000    3.000    0.000    6.000 
#    0.000    6.250    0.000    0.000    0.000    0.000 
#    0.000    0.000    0.000    0.000    0.000    0.000 
#
# Total GULP energy -793671.558023 kJ/mol
# GULP energy per Si atom -12401.118094 kJ/mol
# Density = 1.897388 g / cm^3
# Si number density = 19.017162 Si / 1000 Ang^3
#
#
#
# Elastic Constant Matrix: (Units=GPa)
#
#
# Indices 1 2 3 4 5 6 
#
# 1 122.7733 76.8468 27.1449 0.0000 0.0000 0.0000
# 2 76.8468 137.9291 37.5531 0.0000 0.0000 0.0000
# 3 27.1449 37.5531 43.4121 0.0000 0.0000 0.0000
# 4 0.0000 0.0000 0.0000 36.3421 0.0000 0.0000
# 5 0.0000 0.0000 0.0000 0.0000 35.5576 0.0000
# 6 0.0000 0.0000 0.0000 0.0000 0.0000 56.7223
#
#
#
# Elastic Compliance Matrix: (Units=1/GPa)
#
#
# Indices 1 2 3 4 5 6 
#
# 1 0.012692 -0.006423 -0.002380 0.000000 0.000000 0.000000
# 2 -0.006423 0.012735 -0.006999 0.000000 0.000000 0.000000
# 3 -0.002380 -0.006999 0.030578 0.000000 0.000000 0.000000
# 4 0.000000 0.000000 0.000000 0.027516 0.000000 0.000000
# 5 0.000000 0.000000 0.000000 0.000000 0.028123 0.000000
# 6 0.000000 0.000000 0.000000 0.000000 0.000000 0.017630
#
#
# Mechanical properties :
#
#
# Convention : Reuss Voigt Hill
#
# Bulk Modulus (GPa) = 40.98461 65.24492 53.11476
# Shear Modulus (GPa) = 29.58384 36.56237 33.07310
#
# Velocity S-wave (km/s) = 3.94844 4.38950 4.17480
# Velocity P-wave (km/s) = 6.51038 7.75069 7.15745
#
# Compressibility (1/GPa) = 0.02439940
#
# Stress axis : x y z
#
# Youngs Moduli (GPa) = 78.79165 78.52669 32.70349
#
# Poissons Ratio (x) = 0.50440 0.07782
# Poissons Ratio (y) = 0.50610 0.22891
# Poissons Ratio (z) = 0.18749 0.54965
#
# Static dielectric constant tensor:
#      x y z
#    x 3.594490 0.000000 0.000000 
#    y 0.000000 3.617210 0.000000 
#    z 0.000000 0.000000 3.514310 
# 
# 
# High freq. dielectric constant tensor:
#      x y z
#    x 1.741300 0.000000 0.000000 
#    y 0.000000 1.749240 0.000000 
#    z 0.000000 0.000000 1.747720 
# 
# From -- ./inp_files/9297.got.cif
#   From: 2010.03.12/outbox.cif.g09.slc.cpg/sg57_5_cif.got.tgz:9297.got - 2010.04.16 15:48:40.
