data_PCOD8233589
_publ_section_title
;
Structure prediction by ZEFSAII (Michael W. Deem and Ramdas Pophale) SiO2 
 PCOD8233589
Probable space group: P B C M
;
_chemical_formula_sum "Si O2"
_cell_formula_units_Z 52
_cell_length_a 7.859964
_cell_length_b 21.763513
_cell_length_c 14.234607
_cell_angle_alpha 90.000000
_cell_angle_beta 90.000000
_cell_angle_gamma 90.000000
_cell_volume 2434.977976
_symmetry_space_group_name_H-M "P B C M"
_symmetry_group_IT_number 57
_symmetry_cell_setting 'orthorhombic'
loop_
_space_group_symop_operation_xyz
x,y,z
-x,-y,1/2+z
x,1/2-y,-z
-x,1/2+y,1/2-z
-x,-y,-z
x,y,1/2-z
-x,1/2+y,z
x,1/2-y,1/2+z
loop_
_atom_site_type_symbol
_atom_site_label
_atom_site_fract_x
_atom_site_fract_y
_atom_site_fract_z
Si Si1 0.939570 0.079569 0.750000
Si Si2 0.844702 0.623920 0.059784
Si Si3 0.068389 0.443769 0.750000
Si Si4 0.434995 0.829179 0.138103
Si Si5 0.742051 0.989750 0.250000
Si Si6 0.759366 0.751909 0.641294
Si Si7 0.415188 0.449911 0.064706
Si Si8 0.919705 0.329164 0.086507
O O1 0.887377 0.114947 0.842720
O O2 0.145242 0.072947 0.750000
O O3 0.850204 0.012326 0.750000
O O4 0.872454 0.591112 0.157970
O O5 0.741908 0.686947 0.078663
O O6 0.747001 0.579929 0.987517
O O7 0.026425 0.642472 0.013791
O O8 0.862774 0.449842 0.750000
O O9 0.408944 0.832805 0.250000
O O10 0.602685 0.790861 0.112676
O O11 0.454732 0.897141 0.095331
O O12 0.268885 0.798188 0.087038
O O13 0.633126 0.989313 0.343932
O O14 0.753342 0.770247 0.750000
O O15 0.938264 0.718471 0.621192
O O16 0.500000 0.500000 0.000000
#
# Coordination Sequence:
#
# PCOD8233589 Si02
#       8
#     4   8   4   8   4   8   8   8
#     4  10  20  38  72  99 135 173 235 292 340 427
#     4  12  25  47  69 101 145 190 232 301 364 417
#     4  10  26  40  68  99 138 188 233 283 364 418
#     4  11  24  43  73 106 137 185 239 292 355 427
#     4  10  22  46  66  98 147 185 234 293 346 437
#     4  11  23  48  73  99 146 186 237 298 360 421
#     4  12  27  42  71 102 144 189 234 294 364 431
#     4  12  23  42  75 106 130 185 243 290 345 434
#
# _framework density 21.355428
#
# number of rings (size 3 to 8) (size 9 to 14) (size 15 to 20)
#    0.462    0.308    6.154    0.462    4.308    1.846 
#    5.538    0.000    0.000    0.000    0.000    0.000 
#    0.000    0.000    0.000    0.000    0.000    0.000 
#
# Total GULP energy -644628.273556 kJ/mol
# GULP energy per Si atom -12396.697568 kJ/mol
# Density = 2.130682 g / cm^3
# Si number density = 21.355428 Si / 1000 Ang^3
#
#
#
# Elastic Constant Matrix: (Units=GPa)
#
#
# Indices 1 2 3 4 5 6 
#
# 1 131.0136 40.0168 33.6368 0.0000 0.0000 0.0000
# 2 40.0168 114.6210 46.7295 0.0000 0.0000 0.0000
# 3 33.6368 46.7295 131.8740 0.0000 0.0000 0.0000
# 4 0.0000 0.0000 0.0000 23.1173 0.0000 0.0000
# 5 0.0000 0.0000 0.0000 0.0000 25.2343 0.0000
# 6 0.0000 0.0000 0.0000 0.0000 0.0000 18.0879
#
#
#
# Elastic Compliance Matrix: (Units=1/GPa)
#
#
# Indices 1 2 3 4 5 6 
#
# 1 0.008743 -0.002505 -0.001342 0.000000 0.000000 0.000000
# 2 -0.002505 0.010915 -0.003229 0.000000 0.000000 0.000000
# 3 -0.001342 -0.003229 0.009070 0.000000 0.000000 0.000000
# 4 0.000000 0.000000 0.000000 0.043258 0.000000 0.000000
# 5 0.000000 0.000000 0.000000 0.000000 0.039629 0.000000
# 6 0.000000 0.000000 0.000000 0.000000 0.000000 0.055286
#
#
# Mechanical properties :
#
#
# Convention : Reuss Voigt Hill
#
# Bulk Modulus (GPa) = 68.61047 68.69721 68.65384
# Shear Modulus (GPa) = 26.89473 30.42959 28.66216
#
# Velocity S-wave (km/s) = 3.55263 3.77889 3.66751
# Velocity P-wave (km/s) = 7.00185 7.16089 7.08182
#
# Compressibility (1/GPa) = 0.01457504
#
# Stress axis : x y z
#
# Youngs Moduli (GPa) = 114.38319 91.61420 110.25925
#
# Poissons Ratio (x) = 0.22949 0.14800
# Poissons Ratio (y) = 0.28653 0.35602
# Poissons Ratio (z) = 0.15354 0.29581
#
# Static dielectric constant tensor:
#      x y z
#    x 4.057670 0.000000 0.000000 
#    y 0.000000 3.851540 0.000000 
#    z 0.000000 0.000000 3.995070 
# 
# 
# High freq. dielectric constant tensor:
#      x y z
#    x 1.835290 0.000000 0.000000 
#    y 0.000000 1.829600 0.000000 
#    z 0.000000 0.000000 1.854960 
# 
# From -- ./inp_files/16680.got.cif
#   From: 2010.03.12/outbox.cif.g09.slc.cpg/sg57_9_cif.got.tgz:16680.got - 2010.04.16 15:48:40.
