data_PCOD8233184
_publ_section_title
;
Structure prediction by ZEFSAII (Michael W. Deem and Ramdas Pophale) SiO2 
 PCOD8233184
Probable space group: P B C M
;
_chemical_formula_sum "Si O2"
_cell_formula_units_Z 44
_cell_length_a 14.493216
_cell_length_b 10.576372
_cell_length_c 13.802270
_cell_angle_alpha 90.000000
_cell_angle_beta 90.000000
_cell_angle_gamma 90.000000
_cell_volume 2115.689844
_symmetry_space_group_name_H-M "P B C M"
_symmetry_group_IT_number 57
_symmetry_cell_setting 'orthorhombic'
loop_
_space_group_symop_operation_xyz
x,y,z
-x,-y,1/2+z
x,1/2-y,-z
-x,1/2+y,1/2-z
-x,-y,-z
x,y,1/2-z
-x,1/2+y,z
x,1/2-y,1/2+z
loop_
_atom_site_type_symbol
_atom_site_label
_atom_site_fract_x
_atom_site_fract_y
_atom_site_fract_z
Si Si1 0.224110 0.422259 0.357687
Si Si2 0.056347 0.750000 0.000000
Si Si3 0.610101 0.119566 0.945239
Si Si4 0.901824 0.816166 0.639156
Si Si5 0.412855 0.130236 0.570387
Si Si6 0.196590 0.949471 0.055998
O O1 0.205415 0.478618 0.250000
O O2 0.149366 0.315050 0.382346
O O3 0.327652 0.362267 0.355059
O O4 0.213683 0.527794 0.440610
O O5 0.117927 0.655934 0.935553
O O6 0.993427 0.671639 0.074738
O O7 0.515958 0.131254 0.879936
O O8 0.623107 0.250000 0.000000
O O9 0.708175 0.096569 0.891579
O O10 0.595943 0.002041 0.015979
O O11 0.931920 0.828628 0.750000
O O12 0.831546 0.926469 0.612901
O O13 0.404406 0.250000 0.500000
#
# Coordination Sequence:
#
# PCOD8233184 Si02
#       6
#     8   4   8   8   8   8
#     4  10  20  36  60  89 122 160 202 247 297 359
#     4  12  24  40  62  88 118 162 204 248 316 370
#     4   9  17  32  57  87 117 154 199 244 303 360
#     4  11  24  40  61  89 117 155 205 255 303 362
#     4   9  17  31  58  87 115 158 202 242 293 359
#     4  11  21  40  62  86 119 158 199 252 310 365
#
# _framework density 20.796999
#
# number of rings (size 3 to 8) (size 9 to 14) (size 15 to 20)
#    0.000    1.818    2.727    2.727    0.000    1.455 
#    0.000    0.909    0.000   31.636    0.000    0.000 
#    0.000    0.000    0.000    0.000    0.000    0.000 
#
# Total GULP energy -545097.346452 kJ/mol
# GULP energy per Si atom -12388.576056 kJ/mol
# Density = 2.074966 g / cm^3
# Si number density = 20.796999 Si / 1000 Ang^3
#
#
#
# Elastic Constant Matrix: (Units=GPa)
#
#
# Indices 1 2 3 4 5 6 
#
# 1 143.7415 8.4001 11.9904 0.0000 0.0000 0.0000
# 2 8.4001 85.5018 9.0556 0.0000 0.0000 0.0000
# 3 11.9904 9.0556 36.7324 0.0000 0.0000 0.0000
# 4 0.0000 0.0000 0.0000 14.5136 0.0000 0.0000
# 5 0.0000 0.0000 0.0000 0.0000 6.2758 0.0000
# 6 0.0000 0.0000 0.0000 0.0000 0.0000 34.3962
#
#
#
# Elastic Compliance Matrix: (Units=1/GPa)
#
#
# Indices 1 2 3 4 5 6 
#
# 1 0.007170 -0.000469 -0.002225 0.000000 0.000000 0.000000
# 2 -0.000469 0.012040 -0.002815 0.000000 0.000000 0.000000
# 3 -0.002225 -0.002815 0.028644 0.000000 0.000000 0.000000
# 4 0.000000 0.000000 0.000000 0.068901 0.000000 0.000000
# 5 0.000000 0.000000 0.000000 0.000000 0.159342 0.000000
# 6 0.000000 0.000000 0.000000 0.000000 0.000000 0.029073
#
#
# Mechanical properties :
#
#
# Convention : Reuss Voigt Hill
#
# Bulk Modulus (GPa) = 27.14709 36.09644 31.62177
# Shear Modulus (GPa) = 15.22224 26.80576 21.01400
#
# Velocity S-wave (km/s) = 2.70838 3.59405 3.18218
# Velocity P-wave (km/s) = 4.78144 5.88364 5.36094
#
# Compressibility (1/GPa) = 0.03683636
#
# Stress axis : x y z
#
# Youngs Moduli (GPa) = 139.47159 83.05736 34.91105
#
# Poissons Ratio (x) = 0.03893 0.07767
# Poissons Ratio (y) = 0.06538 0.09828
# Poissons Ratio (z) = 0.31031 0.23382
#
# Static dielectric constant tensor:
#      x y z
#    x 4.661590 0.000000 0.000000 
#    y 0.000000 3.698460 0.000000 
#    z 0.000000 0.000000 3.282980 
# 
# 
# High freq. dielectric constant tensor:
#      x y z
#    x 1.851350 0.000000 0.000000 
#    y 0.000000 1.818210 0.000000 
#    z 0.000000 0.000000 1.755330 
# 
# From -- ./inp_files/18349.got.cif
#   From: 2010.03.12/outbox.cif.g09.slc.cpg/sg57_10_cif.got.tgz:18349.got - 2010.04.16 15:48:40.
