data_PCOD8233026
_publ_section_title
;
Structure prediction by ZEFSAII (Michael W. Deem and Ramdas Pophale) SiO2 
 PCOD8233026
Probable space group: P B C M
;
_chemical_formula_sum "Si O2"
_cell_formula_units_Z 48
_cell_length_a 27.880471
_cell_length_b 9.813166
_cell_length_c 9.231257
_cell_angle_alpha 90.000000
_cell_angle_beta 90.000000
_cell_angle_gamma 90.000000
_cell_volume 2525.632129
_symmetry_space_group_name_H-M "P B C M"
_symmetry_group_IT_number 57
_symmetry_cell_setting 'orthorhombic'
loop_
_space_group_symop_operation_xyz
x,y,z
-x,-y,1/2+z
x,1/2-y,-z
-x,1/2+y,1/2-z
-x,-y,-z
x,y,1/2-z
-x,1/2+y,z
x,1/2-y,1/2+z
loop_
_atom_site_type_symbol
_atom_site_label
_atom_site_fract_x
_atom_site_fract_y
_atom_site_fract_z
Si Si1 0.890849 0.401267 0.523379
Si Si2 0.358277 0.884943 0.083774
Si Si3 0.968919 0.336576 0.750000
Si Si4 0.187005 0.383646 0.084674
Si Si5 0.531781 0.389859 0.079452
Si Si6 0.717473 0.890167 0.923452
Si Si7 0.944411 0.467263 0.250000
O O1 0.868427 0.250000 0.500000
O O2 0.939738 0.385891 0.611949
O O3 0.851813 0.496599 0.598011
O O4 0.907182 0.476816 0.379942
O O5 0.350013 0.850017 0.250000
O O6 0.412865 0.929737 0.054229
O O7 0.323879 0.005381 0.032053
O O8 0.343631 0.750000 0.000000
O O9 0.975191 0.172792 0.750000
O O10 0.021291 0.402305 0.750000
O O11 0.201414 0.343701 0.250000
O O12 0.167130 0.250000 0.000000
O O13 0.232494 0.439814 0.994255
O O14 0.519297 0.379897 0.250000
O O15 0.519600 0.250000 0.000000
O O16 0.500000 0.500000 0.000000
O O17 0.722370 0.874777 0.750000
O O18 0.702620 0.750000 0.000000
#
# Coordination Sequence:
#
# PCOD8233026 Si02
#       7
#     8   8   4   8   8   8   4
#     4  10  22  39  58  83 114 147 183 226 273 324
#     4   9  20  37  57  83 114 149 191 237 283 339
#     4  10  20  40  54  86 110 148 180 228 265 328
#     4  11  23  39  59  84 113 144 185 229 277 332
#     4  10  20  36  56  82 116 153 196 242 291 343
#     4  10  21  38  58  83 113 145 185 230 280 334
#     4  10  22  34  62  80 116 142 184 220 275 318
#
# _framework density 19.005143
#
# number of rings (size 3 to 8) (size 9 to 14) (size 15 to 20)
#    0.000    2.000    0.833    3.000    2.333    4.667 
#    0.000    3.333    0.000    0.000    0.000    0.000 
#    0.000    0.000    0.000    0.000    0.000    0.000 
#
# Total GULP energy -595096.810968 kJ/mol
# GULP energy per Si atom -12397.850229 kJ/mol
# Density = 1.896189 g / cm^3
# Si number density = 19.005143 Si / 1000 Ang^3
#
#
#
# Elastic Constant Matrix: (Units=GPa)
#
#
# Indices 1 2 3 4 5 6 
#
# 1 80.5489 65.1992 32.7790 0.0000 0.0000 0.0000
# 2 65.1992 98.0267 36.4980 0.0000 0.0000 0.0000
# 3 32.7790 36.4980 117.3974 0.0000 0.0000 0.0000
# 4 0.0000 0.0000 0.0000 34.1161 0.0000 0.0000
# 5 0.0000 0.0000 0.0000 0.0000 28.0327 0.0000
# 6 0.0000 0.0000 0.0000 0.0000 0.0000 45.4675
#
#
#
# Elastic Compliance Matrix: (Units=1/GPa)
#
#
# Indices 1 2 3 4 5 6 
#
# 1 0.027407 -0.017393 -0.002245 0.000000 0.000000 0.000000
# 2 -0.017393 0.022575 -0.002162 0.000000 0.000000 0.000000
# 3 -0.002245 -0.002162 0.009817 0.000000 0.000000 0.000000
# 4 0.000000 0.000000 0.000000 0.029312 0.000000 0.000000
# 5 0.000000 0.000000 0.000000 0.000000 0.035673 0.000000
# 6 0.000000 0.000000 0.000000 0.000000 0.000000 0.021994
#
#
# Mechanical properties :
#
#
# Convention : Reuss Voigt Hill
#
# Bulk Modulus (GPa) = 61.73320 62.76949 62.25135
# Shear Modulus (GPa) = 25.53941 32.28972 28.91457
#
# Velocity S-wave (km/s) = 3.66979 4.12636 3.90475
# Velocity P-wave (km/s) = 7.10699 7.47006 7.29079
#
# Compressibility (1/GPa) = 0.01619874
#
# Stress axis : x y z
#
# Youngs Moduli (GPa) = 36.48718 44.29763 101.86359
#
# Poissons Ratio (x) = 0.77046 0.22869
# Poissons Ratio (y) = 0.63462 0.22022
# Poissons Ratio (z) = 0.08192 0.09577
#
# Static dielectric constant tensor:
#      x y z
#    x 3.383110 0.000000 0.000000 
#    y 0.000000 3.492930 0.000000 
#    z 0.000000 0.000000 3.713220 
# 
# 
# High freq. dielectric constant tensor:
#      x y z
#    x 1.730370 0.000000 0.000000 
#    y 0.000000 1.737950 0.000000 
#    z 0.000000 0.000000 1.760030 
# 
# From -- ./inp_files/10113.got.cif
#   From: 2010.03.12/outbox.cif.g09.slc.cpg/sg57_6_cif.got.tgz:10113.got - 2010.04.16 15:48:40.
