data_PCOD8233748
_publ_section_title
;
Structure prediction by ZEFSAII (Michael W. Deem and Ramdas Pophale) SiO2 
 PCOD8233748
Probable space group: P B C M
;
_chemical_formula_sum "Si O2"
_cell_formula_units_Z 48
_cell_length_a 11.310520
_cell_length_b 9.179801
_cell_length_c 23.897836
_cell_angle_alpha 90.000000
_cell_angle_beta 90.000000
_cell_angle_gamma 90.000000
_cell_volume 2481.272231
_symmetry_space_group_name_H-M "P B C M"
_symmetry_group_IT_number 57
_symmetry_cell_setting 'orthorhombic'
loop_
_space_group_symop_operation_xyz
x,y,z
-x,-y,1/2+z
x,1/2-y,-z
-x,1/2+y,1/2-z
-x,-y,-z
x,y,1/2-z
-x,1/2+y,z
x,1/2-y,1/2+z
loop_
_atom_site_type_symbol
_atom_site_label
_atom_site_fract_x
_atom_site_fract_y
_atom_site_fract_z
Si Si1 0.285396 0.655313 0.395656
Si Si2 0.906249 0.664263 0.184250
Si Si3 0.858080 0.993870 0.185091
Si Si4 0.742274 0.012186 0.601751
Si Si5 0.470008 0.376158 0.957724
Si Si6 0.119495 0.584539 0.494075
O O1 0.265574 0.551513 0.341790
O O2 0.264191 0.821693 0.377130
O O3 0.413159 0.663105 0.423264
O O4 0.190232 0.577049 0.436255
O O5 0.879107 0.642438 0.250000
O O6 0.896802 0.832529 0.165295
O O7 0.811815 0.573951 0.149156
O O8 0.037217 0.606845 0.169604
O O9 0.831926 0.989940 0.250000
O O10 0.799335 0.015181 0.541075
O O11 0.620456 0.925831 0.590648
O O12 0.424749 0.250000 0.000000
O O13 0.500000 0.500000 0.000000
O O14 0.083652 0.750000 0.500000
O O15 0.000000 0.500000 0.500000
#
# Coordination Sequence:
#
# PCOD8233748 Si02
#       6
#     8   8   8   8   8   8
#     4  11  22  39  59  85 120 156 202 248 298 362
#     4  10  22  40  62  90 121 157 201 249 305 365
#     4  10  22  40  63  90 122 159 200 250 307 365
#     4  11  23  38  60  87 118 160 201 248 301 358
#     4  12  23  42  62  87 121 163 202 245 299 360
#     4  10  21  35  51  81 118 147 187 238 292 355
#
# _framework density 19.344915
#
# number of rings (size 3 to 8) (size 9 to 14) (size 15 to 20)
#    0.000    1.333    3.333    2.500    2.333    6.667 
#    0.000    0.833    0.000    0.000    0.000    0.000 
#    0.000    0.000    0.000    0.000    0.000    0.000 
#
# Total GULP energy -594784.926451 kJ/mol
# GULP energy per Si atom -12391.352634 kJ/mol
# Density = 1.930089 g / cm^3
# Si number density = 19.344915 Si / 1000 Ang^3
#
#
#
# Elastic Constant Matrix: (Units=GPa)
#
#
# Indices 1 2 3 4 5 6 
#
# 1 68.9127 33.0775 26.7887 0.0000 0.0000 0.0000
# 2 33.0775 114.9753 50.2489 0.0000 0.0000 0.0000
# 3 26.7887 50.2489 60.4092 0.0000 0.0000 0.0000
# 4 0.0000 0.0000 0.0000 39.8361 0.0000 0.0000
# 5 0.0000 0.0000 0.0000 0.0000 39.6810 0.0000
# 6 0.0000 0.0000 0.0000 0.0000 0.0000 33.9057
#
#
#
# Elastic Compliance Matrix: (Units=1/GPa)
#
#
# Indices 1 2 3 4 5 6 
#
# 1 0.018037 -0.002661 -0.005786 0.000000 0.000000 0.000000
# 2 -0.002661 0.014058 -0.010514 0.000000 0.000000 0.000000
# 3 -0.005786 -0.010514 0.027865 0.000000 0.000000 0.000000
# 4 0.000000 0.000000 0.000000 0.025103 0.000000 0.000000
# 5 0.000000 0.000000 0.000000 0.000000 0.025201 0.000000
# 6 0.000000 0.000000 0.000000 0.000000 0.000000 0.029494
#
#
# Mechanical properties :
#
#
# Convention : Reuss Voigt Hill
#
# Bulk Modulus (GPa) = 45.37155 51.61415 48.49285
# Shear Modulus (GPa) = 27.02363 31.63002 29.32682
#
# Velocity S-wave (km/s) = 3.74162 4.04797 3.89780
# Velocity P-wave (km/s) = 6.49393 6.97044 6.73640
#
# Compressibility (1/GPa) = 0.02204024
#
# Stress axis : x y z
#
# Youngs Moduli (GPa) = 55.44084 71.13485 35.88784
#
# Poissons Ratio (x) = 0.18927 0.20763
# Poissons Ratio (y) = 0.14751 0.37731
# Poissons Ratio (z) = 0.32075 0.74788
#
# Static dielectric constant tensor:
#      x y z
#    x 3.405500 0.000000 0.000000 
#    y 0.000000 3.248450 0.000000 
#    z 0.000000 0.000000 3.383470 
# 
# 
# High freq. dielectric constant tensor:
#      x y z
#    x 1.744510 0.000000 0.000000 
#    y 0.000000 1.772850 0.000000 
#    z 0.000000 0.000000 1.751130 
# 
# From -- ./inp_files/27085.got.cif
#   From: 2010.03.12/outbox.cif.g09.slc.cpg/sg57_14_cif.got.tgz:27085.got - 2010.04.16 15:48:40.
