data_PCOD8233174
_publ_section_title
;
Structure prediction by ZEFSAII (Michael W. Deem and Ramdas Pophale) SiO2 
 PCOD8233174
Probable space group: P B C M
;
_chemical_formula_sum "Si O2"
_cell_formula_units_Z 40
_cell_length_a 12.544397
_cell_length_b 18.230389
_cell_length_c 8.722543
_cell_angle_alpha 90.000000
_cell_angle_beta 90.000000
_cell_angle_gamma 90.000000
_cell_volume 1994.751704
_symmetry_space_group_name_H-M "P B C M"
_symmetry_group_IT_number 57
_symmetry_cell_setting 'orthorhombic'
loop_
_space_group_symop_operation_xyz
x,y,z
-x,-y,1/2+z
x,1/2-y,-z
-x,1/2+y,1/2-z
-x,-y,-z
x,y,1/2-z
-x,1/2+y,z
x,1/2-y,1/2+z
loop_
_atom_site_type_symbol
_atom_site_label
_atom_site_fract_x
_atom_site_fract_y
_atom_site_fract_z
Si Si1 0.817447 0.670494 0.930358
Si Si2 0.389144 0.910854 0.072492
Si Si3 0.793783 0.171800 0.069312
Si Si4 0.369909 0.434858 0.428877
Si Si5 0.978785 0.420807 0.068011
O O1 0.815003 0.678222 0.750000
O O2 0.717053 0.622952 0.987185
O O3 0.926002 0.632369 0.985569
O O4 0.808483 0.750000 0.000000
O O5 0.362409 0.898775 0.250000
O O6 0.514215 0.900487 0.038011
O O7 0.327058 0.849450 0.975050
O O8 0.351603 0.991695 0.024860
O O9 0.807487 0.175520 0.250000
O O10 0.825466 0.250000 0.000000
O O11 0.869371 0.109469 0.000175
O O12 0.356161 0.454535 0.250000
O O13 0.970607 0.426030 0.250000
O O14 0.000000 0.500000 0.000000
#
# Coordination Sequence:
#
# PCOD8233174 Si02
#       5
#     8   8   8   8   8
#     4  10  22  38  57  83 116 150 185 230 283 339
#     4  10  20  36  60  88 117 152 195 240 289 348
#     4  12  25  41  60  84 118 156 197 247 299 351
#     4   9  19  37  59  86 119 153 192 238 287 343
#     4  11  23  40  63  90 118 151 192 237 289 350
#
# _framework density 20.052622
#
# number of rings (size 3 to 8) (size 9 to 14) (size 15 to 20)
#    0.000    1.600    0.000    4.800    0.000    7.200 
#    0.000    2.000    0.000    0.000    0.000    0.000 
#    0.000    0.000    0.000    0.000    0.000    0.000 
#
# Total GULP energy -496245.511787 kJ/mol
# GULP energy per Si atom -12406.137795 kJ/mol
# Density = 2.000698 g / cm^3
# Si number density = 20.052622 Si / 1000 Ang^3
#
#
#
# Elastic Constant Matrix: (Units=GPa)
#
#
# Indices 1 2 3 4 5 6 
#
# 1 90.8772 26.8163 34.4849 0.0000 0.0000 0.0000
# 2 26.8163 79.5685 36.7826 0.0000 0.0000 0.0000
# 3 34.4849 36.7826 86.8938 0.0000 0.0000 0.0000
# 4 0.0000 0.0000 0.0000 41.8624 0.0000 0.0000
# 5 0.0000 0.0000 0.0000 0.0000 27.4143 0.0000
# 6 0.0000 0.0000 0.0000 0.0000 0.0000 35.0469
#
#
#
# Elastic Compliance Matrix: (Units=1/GPa)
#
#
# Indices 1 2 3 4 5 6 
#
# 1 0.013359 -0.002550 -0.004222 0.000000 0.000000 0.000000
# 2 -0.002550 0.016112 -0.005808 0.000000 0.000000 0.000000
# 3 -0.004222 -0.005808 0.015642 0.000000 0.000000 0.000000
# 4 0.000000 0.000000 0.000000 0.023888 0.000000 0.000000
# 5 0.000000 0.000000 0.000000 0.000000 0.036477 0.000000
# 6 0.000000 0.000000 0.000000 0.000000 0.000000 0.028533
#
#
# Mechanical properties :
#
#
# Convention : Reuss Voigt Hill
#
# Bulk Modulus (GPa) = 50.11984 50.38967 50.25476
# Shear Modulus (GPa) = 30.15253 31.48176 30.81715
#
# Velocity S-wave (km/s) = 3.88193 3.96657 3.92447
# Velocity P-wave (km/s) = 6.71870 6.79422 6.75657
#
# Compressibility (1/GPa) = 0.01995218
#
# Stress axis : x y z
#
# Youngs Moduli (GPa) = 74.85863 62.06413 63.92856
#
# Poissons Ratio (x) = 0.15829 0.26990
# Poissons Ratio (y) = 0.19092 0.37131
# Poissons Ratio (z) = 0.31604 0.36048
#
# Static dielectric constant tensor:
#      x y z
#    x 3.146900 0.000000 0.000000 
#    y 0.000000 3.552480 0.000000 
#    z 0.000000 0.000000 3.640000 
# 
# 
# High freq. dielectric constant tensor:
#      x y z
#    x 1.798440 0.000000 0.000000 
#    y 0.000000 1.785000 0.000000 
#    z 0.000000 0.000000 1.785340 
# 
# From -- ./inp_files/2650.got.cif
#   From: 2010.03.12/outbox.cif.g09.slc.cpg/sg57_2_cif.got.tgz:2650.got - 2010.04.16 15:48:40.
