data_PCOD8233402
_publ_section_title
;
Structure prediction by ZEFSAII (Michael W. Deem and Ramdas Pophale) SiO2 
 PCOD8233402
Probable space group: P B C M
;
_chemical_formula_sum "Si O2"
_cell_formula_units_Z 48
_cell_length_a 29.121944
_cell_length_b 8.655629
_cell_length_c 9.436203
_cell_angle_alpha 90.000000
_cell_angle_beta 90.000000
_cell_angle_gamma 90.000000
_cell_volume 2378.571829
_symmetry_space_group_name_H-M "P B C M"
_symmetry_group_IT_number 57
_symmetry_cell_setting 'orthorhombic'
loop_
_space_group_symop_operation_xyz
x,y,z
-x,-y,1/2+z
x,1/2-y,-z
-x,1/2+y,1/2-z
-x,-y,-z
x,y,1/2-z
-x,1/2+y,z
x,1/2-y,1/2+z
loop_
_atom_site_type_symbol
_atom_site_label
_atom_site_fract_x
_atom_site_fract_y
_atom_site_fract_z
Si Si1 0.559655 0.427982 0.750000
Si Si2 0.798808 0.912275 0.581902
Si Si3 0.601415 0.564966 0.484026
Si Si4 0.538546 0.067134 0.750000
Si Si5 0.872575 0.101727 0.412782
Si Si6 0.963223 0.903825 0.412779
Si Si7 0.698097 0.898028 0.592619
O O1 0.593060 0.469261 0.623497
O O2 0.545774 0.249920 0.750000
O O3 0.515587 0.538517 0.750000
O O4 0.803432 0.750000 0.500000
O O5 0.811575 0.893762 0.750000
O O6 0.746973 0.981712 0.563403
O O7 0.830773 0.033447 0.502861
O O8 0.599909 0.750000 0.500000
O O9 0.560294 0.515329 0.383853
O O10 0.651600 0.503050 0.431068
O O11 0.889583 0.250000 0.500000
O O12 0.857688 0.140704 0.250000
O O13 0.914568 0.985617 0.408938
O O14 0.955308 0.750000 0.500000
O O15 0.980086 0.873684 0.250000
O O16 0.000000 0.000000 0.500000
O O17 0.693211 0.750000 0.500000
O O18 0.698881 0.833056 0.750000
#
# Coordination Sequence:
#
# PCOD8233402 Si02
#       7
#     4   8   8   4   8   8   8
#     4  12  26  40  62  90 118 160 200 246 309 360
#     4  10  20  37  62  92 122 159 205 255 306 368
#     4  11  22  40  64  91 120 156 201 249 302 366
#     4  12  24  44  62  86 124 156 198 250 301 370
#     4  11  24  41  61  89 125 168 212 261 316 372
#     4  11  24  41  64  93 127 165 211 260 316 376
#     4   9  19  35  61  91 121 154 198 248 298 358
#
# _framework density 20.180178000000002
#
# number of rings (size 3 to 8) (size 9 to 14) (size 15 to 20)
#    0.000    1.333    0.833    5.000    3.500    6.000 
#    0.000    1.667    0.000    0.000    0.000    0.000 
#    0.000    0.000    0.000    0.000    0.000    0.000 
#
# Total GULP energy -594846.568966 kJ/mol
# GULP energy per Si atom -12392.636853 kJ/mol
# Density = 2.013425 g / cm^3
# Si number density = 20.180178 Si / 1000 Ang^3
#
#
#
# Elastic Constant Matrix: (Units=GPa)
#
#
# Indices 1 2 3 4 5 6 
#
# 1 96.5671 20.9602 37.2305 0.0000 0.0000 0.0000
# 2 20.9602 100.0769 40.4817 0.0000 0.0000 0.0000
# 3 37.2305 40.4817 151.2600 0.0000 0.0000 0.0000
# 4 0.0000 0.0000 0.0000 37.2021 0.0000 0.0000
# 5 0.0000 0.0000 0.0000 0.0000 35.3709 0.0000
# 6 0.0000 0.0000 0.0000 0.0000 0.0000 31.5231
#
#
#
# Elastic Compliance Matrix: (Units=1/GPa)
#
#
# Indices 1 2 3 4 5 6 
#
# 1 0.011621 -0.001432 -0.002477 0.000000 0.000000 0.000000
# 2 -0.001432 0.011382 -0.002694 0.000000 0.000000 0.000000
# 3 -0.002477 -0.002694 0.007942 0.000000 0.000000 0.000000
# 4 0.000000 0.000000 0.000000 0.026880 0.000000 0.000000
# 5 0.000000 0.000000 0.000000 0.000000 0.028272 0.000000
# 6 0.000000 0.000000 0.000000 0.000000 0.000000 0.031723
#
#
# Mechanical properties :
#
#
# Convention : Reuss Voigt Hill
#
# Bulk Modulus (GPa) = 56.37193 60.58321 58.47757
# Shear Modulus (GPa) = 36.51275 37.43466 36.97371
#
# Velocity S-wave (km/s) = 4.25825 4.31167 4.28504
# Velocity P-wave (km/s) = 7.22301 7.40767 7.31592
#
# Compressibility (1/GPa) = 0.01773933
#
# Stress axis : x y z
#
# Youngs Moduli (GPa) = 86.04840 87.85936 125.91656
#
# Poissons Ratio (x) = 0.12581 0.31192
# Poissons Ratio (y) = 0.12322 0.33918
# Poissons Ratio (z) = 0.21316 0.23666
#
# Static dielectric constant tensor:
#      x y z
#    x 4.250510 0.000000 0.000000 
#    y 0.000000 3.200970 0.000000 
#    z 0.000000 0.000000 4.009690 
# 
# 
# High freq. dielectric constant tensor:
#      x y z
#    x 1.808150 0.000000 0.000000 
#    y 0.000000 1.764730 0.000000 
#    z 0.000000 0.000000 1.814170 
# 
# From -- ./inp_files/10108.got.cif
#   From: 2010.03.12/outbox.cif.g09.slc.cpg/sg57_6_cif.got.tgz:10108.got - 2010.04.16 15:48:40.
