data_PCOD8233776
_publ_section_title
;
Structure prediction by ZEFSAII (Michael W. Deem and Ramdas Pophale) SiO2 
 PCOD8233776
Probable space group: P B C M
;
_chemical_formula_sum "Si O2"
_cell_formula_units_Z 48
_cell_length_a 11.924921
_cell_length_b 11.896448
_cell_length_c 16.478502
_cell_angle_alpha 90.000000
_cell_angle_beta 90.000000
_cell_angle_gamma 90.000000
_cell_volume 2337.709546
_symmetry_space_group_name_H-M "P B C M"
_symmetry_group_IT_number 57
_symmetry_cell_setting 'orthorhombic'
loop_
_space_group_symop_operation_xyz
x,y,z
-x,-y,1/2+z
x,1/2-y,-z
-x,1/2+y,1/2-z
-x,-y,-z
x,y,1/2-z
-x,1/2+y,z
x,1/2-y,1/2+z
loop_
_atom_site_type_symbol
_atom_site_label
_atom_site_fract_x
_atom_site_fract_y
_atom_site_fract_z
Si Si1 0.170351 0.377172 0.846860
Si Si2 0.405310 0.980542 0.608282
Si Si3 0.214932 0.130281 0.656373
Si Si4 0.281195 0.731297 0.157988
Si Si5 0.082088 0.579495 0.153721
Si Si6 0.649683 0.458248 0.079331
O O1 0.185177 0.388937 0.750000
O O2 0.199232 0.253570 0.881693
O O3 0.249272 0.463972 0.892354
O O4 0.044086 0.403227 0.875397
O O5 0.372089 0.868946 0.657242
O O6 0.369338 0.965629 0.515724
O O7 0.342209 0.089636 0.643823
O O8 0.536350 0.001478 0.623371
O O9 0.185235 0.143282 0.750000
O O10 0.130037 0.038017 0.617249
O O11 0.270609 0.776981 0.250000
O O12 0.161516 0.683140 0.125772
O O13 0.321293 0.830239 0.099908
O O14 0.090848 0.573489 0.250000
#
# Coordination Sequence:
#
# PCOD8233776 Si02
#       6
#     8   8   8   8   8   8
#     4  10  21  35  59  93 119 149 199 245 284 343
#     4  10  23  42  58  81 120 159 193 236 298 350
#     4   9  19  37  60  83 115 155 193 241 291 339
#     4  10  21  39  64  88 114 150 195 244 292 345
#     4   8  17  35  59  86 118 152 188 239 299 342
#     4  11  24  38  60  86 117 158 195 238 290 353
#
# _framework density 20.532919
#
# number of rings (size 3 to 8) (size 9 to 14) (size 15 to 20)
#    0.000    2.333    0.000    2.500    4.667    3.333 
#    0.000    3.333    7.333    0.000    0.000    0.000 
#    0.000    0.000    0.000    0.000    0.000    0.000 
#
# Total GULP energy -595163.889796 kJ/mol
# GULP energy per Si atom -12399.247704 kJ/mol
# Density = 2.048619 g / cm^3
# Si number density = 20.532919 Si / 1000 Ang^3
#
#
#
# Elastic Constant Matrix: (Units=GPa)
#
#
# Indices 1 2 3 4 5 6 
#
# 1 156.7712 63.6138 12.5953 0.0000 0.0000 0.0000
# 2 63.6138 99.6147 17.2655 0.0000 0.0000 0.0000
# 3 12.5953 17.2655 27.7235 0.0000 0.0000 0.0000
# 4 0.0000 0.0000 0.0000 -18.0521 0.0000 0.0000
# 5 0.0000 0.0000 0.0000 0.0000 22.8610 0.0000
# 6 0.0000 0.0000 0.0000 0.0000 0.0000 26.1913
#
#
#
# Elastic Compliance Matrix: (Units=1/GPa)
#
#
# Indices 1 2 3 4 5 6 
#
# 1 0.008617 -0.005408 -0.000547 0.000000 0.000000 0.000000
# 2 -0.005408 0.014648 -0.006665 0.000000 0.000000 0.000000
# 3 -0.000547 -0.006665 0.040470 0.000000 0.000000 0.000000
# 4 0.000000 0.000000 0.000000 -0.055395 0.000000 0.000000
# 5 0.000000 0.000000 0.000000 0.000000 0.043743 0.000000
# 6 0.000000 0.000000 0.000000 0.000000 0.000000 0.038181
#
#
# Mechanical properties :
#
#
# Convention : Reuss Voigt Hill
#
# Bulk Modulus (GPa) = 25.97787 52.33984 39.15886
# Shear Modulus (GPa) = 38.96077 18.90903 28.93490
#
# Velocity S-wave (km/s) = 4.36073 3.03795 3.75800
# Velocity P-wave (km/s) = 6.16716 6.15236 6.15977
#
# Compressibility (1/GPa) = 0.03849430
#
# Stress axis : x y z
#
# Youngs Moduli (GPa) = 116.04790 68.27097 24.70974
#
# Poissons Ratio (x) = 0.36922 0.01351
# Poissons Ratio (y) = 0.62760 0.16469
# Poissons Ratio (z) = 0.06346 0.45504
#
# Static dielectric constant tensor:
#      x y z
#    x 3.913190 0.000000 0.000000 
#    y 0.000000 3.855340 0.000000 
#    z 0.000000 0.000000 3.445960 
# 
# 
# High freq. dielectric constant tensor:
#      x y z
#    x 1.808040 0.000000 0.000000 
#    y 0.000000 1.811420 0.000000 
#    z 0.000000 0.000000 1.778860 
# 
# From -- ./inp_files/21786.got.cif
#   From: 2010.03.12/outbox.cif.g09.slc.cpg/sg57_11_cif.got.tgz:21786.got - 2010.04.16 15:48:40.
