data_PCOD8233905
_publ_section_title
;
Structure prediction by ZEFSAII (Michael W. Deem and Ramdas Pophale) SiO2 
 PCOD8233905
Probable space group: P B C M
;
_chemical_formula_sum "Si O2"
_cell_formula_units_Z 40
_cell_length_a 21.436220
_cell_length_b 5.144086
_cell_length_c 16.088662
_cell_angle_alpha 90.000000
_cell_angle_beta 90.000000
_cell_angle_gamma 90.000000
_cell_volume 1774.092885
_symmetry_space_group_name_H-M "P B C M"
_symmetry_group_IT_number 57
_symmetry_cell_setting 'orthorhombic'
loop_
_space_group_symop_operation_xyz
x,y,z
-x,-y,1/2+z
x,1/2-y,-z
-x,1/2+y,1/2-z
-x,-y,-z
x,y,1/2-z
-x,1/2+y,z
x,1/2-y,1/2+z
loop_
_atom_site_type_symbol
_atom_site_label
_atom_site_fract_x
_atom_site_fract_y
_atom_site_fract_z
Si Si1 0.754532 0.243235 0.097598
Si Si2 0.381285 0.842070 0.658557
Si Si3 0.032407 0.193961 0.346542
Si Si4 0.457878 0.750000 0.500000
Si Si5 0.456934 0.197137 0.750000
Si Si6 0.170483 0.254101 0.597593
O O1 0.692054 0.156492 0.143634
O O2 0.779646 0.525615 0.125092
O O3 0.805099 0.028303 0.124493
O O4 0.741143 0.250000 0.000000
O O5 0.392293 0.702926 0.750000
O O6 0.415644 0.707728 0.581804
O O7 0.412382 0.134221 0.669049
O O8 0.015830 0.193942 0.250000
O O9 0.106257 0.187036 0.357151
O O10 0.000480 0.444958 0.389104
O O11 0.500000 0.500000 0.500000
O O12 0.512952 0.978690 0.750000
O O13 0.158547 0.250000 0.500000
#
# Coordination Sequence:
#
# PCOD8233905 Si02
#       6
#     8   8   8   4   4   8
#     4  10  21  41  57  87 121 158 201 252 307 362
#     4  10  24  43  66  95 125 168 211 261 314 382
#     4  10  21  37  57  85 119 155 196 247 301 358
#     4  12  26  44  68  94 128 168 206 262 324 372
#     4  10  22  40  60  88 122 152 200 254 298 368
#     4  10  22  37  62  86 120 159 201 250 301 362
#
# _framework density 22.546735999999999
#
# number of rings (size 3 to 8) (size 9 to 14) (size 15 to 20)
#    0.600    1.200    1.000    2.400    0.000    5.600 
#    0.000    0.000    0.000    0.000    0.000    0.000 
#    0.000    0.000    0.000    0.000    0.000    0.000 
#
# Total GULP energy -495597.264362 kJ/mol
# GULP energy per Si atom -12389.931609 kJ/mol
# Density = 2.249542 g / cm^3
# Si number density = 22.546736 Si / 1000 Ang^3
#
#
#
# Elastic Constant Matrix: (Units=GPa)
#
#
# Indices 1 2 3 4 5 6 
#
# 1 133.9984 41.7223 35.5859 0.0000 0.0000 0.0000
# 2 41.7223 124.7769 22.6053 0.0000 0.0000 0.0000
# 3 35.5859 22.6053 84.8727 0.0000 0.0000 0.0000
# 4 0.0000 0.0000 0.0000 7.3683 0.0000 0.0000
# 5 0.0000 0.0000 0.0000 0.0000 41.6061 0.0000
# 6 0.0000 0.0000 0.0000 0.0000 0.0000 22.8355
#
#
#
# Elastic Compliance Matrix: (Units=1/GPa)
#
#
# Indices 1 2 3 4 5 6 
#
# 1 0.009064 -0.002461 -0.003145 0.000000 0.000000 0.000000
# 2 -0.002461 0.009089 -0.001389 0.000000 0.000000 0.000000
# 3 -0.003145 -0.001389 0.013471 0.000000 0.000000 0.000000
# 4 0.000000 0.000000 0.000000 0.135717 0.000000 0.000000
# 5 0.000000 0.000000 0.000000 0.000000 0.024035 0.000000
# 6 0.000000 0.000000 0.000000 0.000000 0.000000 0.043792
#
#
# Mechanical properties :
#
#
# Convention : Reuss Voigt Hill
#
# Bulk Modulus (GPa) = 56.70832 60.38612 58.54722
# Shear Modulus (GPa) = 19.60509 30.61092 25.10801
#
# Velocity S-wave (km/s) = 2.95198 3.68865 3.34068
# Velocity P-wave (km/s) = 6.06836 6.70688 6.39559
#
# Compressibility (1/GPa) = 0.01763410
#
# Stress axis : x y z
#
# Youngs Moduli (GPa) = 110.32286 110.02494 74.23390
#
# Poissons Ratio (x) = 0.27078 0.23347
# Poissons Ratio (y) = 0.27152 0.10310
# Poissons Ratio (z) = 0.34697 0.15281
#
# Static dielectric constant tensor:
#      x y z
#    x 4.017150 0.000000 0.000000 
#    y 0.000000 4.196320 0.000000 
#    z 0.000000 0.000000 4.070460 
# 
# 
# High freq. dielectric constant tensor:
#      x y z
#    x 1.902270 0.000000 0.000000 
#    y 0.000000 1.886970 0.000000 
#    z 0.000000 0.000000 1.875620 
# 
# From -- ./inp_files/22991.got.cif
#   From: 2010.03.12/outbox.cif.g09.slc.cpg/sg57_12_cif.got.tgz:22991.got - 2010.04.16 15:48:40.
