data_PCOD8233209
_publ_section_title
;
Structure prediction by ZEFSAII (Michael W. Deem and Ramdas Pophale) SiO2 
 PCOD8233209
Probable space group: P B C M
;
_chemical_formula_sum "Si O2"
_cell_formula_units_Z 64
_cell_length_a 9.061566
_cell_length_b 24.151376
_cell_length_c 14.994349
_cell_angle_alpha 90.000000
_cell_angle_beta 90.000000
_cell_angle_gamma 90.000000
_cell_volume 3281.502597
_symmetry_space_group_name_H-M "P B C M"
_symmetry_group_IT_number 57
_symmetry_cell_setting 'orthorhombic'
loop_
_space_group_symop_operation_xyz
x,y,z
-x,-y,1/2+z
x,1/2-y,-z
-x,1/2+y,1/2-z
-x,-y,-z
x,y,1/2-z
-x,1/2+y,z
x,1/2-y,1/2+z
loop_
_atom_site_type_symbol
_atom_site_label
_atom_site_fract_x
_atom_site_fract_y
_atom_site_fract_z
Si Si1 0.892429 0.260078 0.346752
Si Si2 0.835312 0.698745 0.941547
Si Si3 0.866670 0.045352 0.350137
Si Si4 0.387480 0.381819 0.356302
Si Si5 0.832707 0.010834 0.651326
Si Si6 0.268589 0.869952 0.390832
Si Si7 0.334709 0.485026 0.022662
Si Si8 0.087674 0.848771 0.554304
O O1 0.884362 0.232818 0.250000
O O2 0.781831 0.311958 0.348737
O O3 0.854140 0.211531 0.415759
O O4 0.058184 0.280162 0.363610
O O5 0.696951 0.671917 0.891913
O O6 0.774717 0.750000 0.000000
O O7 0.931101 0.656623 0.003063
O O8 0.803382 0.042611 0.250000
O O9 0.932743 0.106962 0.366692
O O10 0.737423 0.034543 0.420877
O O11 0.994169 0.999822 0.364764
O O12 0.363247 0.391258 0.250000
O O13 0.557724 0.374778 0.378917
O O14 0.321284 0.431910 0.413978
O O15 0.787257 0.987604 0.750000
O O16 0.807325 0.076778 0.654170
O O17 0.744598 0.978731 0.573462
O O18 0.220115 0.871145 0.493204
O O19 0.500000 0.500000 0.000000
#
# Coordination Sequence:
#
# PCOD8233209 Si02
#       8
#     8   8   8   8   8   8   8   8
#     4  10  20  36  61  88 115 152 198 249 303 363
#     4   9  21  37  59  87 120 156 196 246 302 358
#     4  11  23  38  61  90 117 157 204 247 303 370
#     4  12  24  39  60  89 123 161 204 251 302 364
#     4  11  23  39  61  87 120 159 203 254 304 361
#     4  11  22  38  57  85 120 155 201 250 304 355
#     4  12  24  40  58  86 124 161 199 251 305 363
#     4  10  20  40  60  85 118 156 196 251 306 361
#
# _framework density 19.503260000000001
#
# number of rings (size 3 to 8) (size 9 to 14) (size 15 to 20)
#    0.000    1.250    2.500    4.500    3.500    1.500 
#    0.000    0.000    0.000    0.750    0.000    0.000 
#    0.000    0.000    0.000    0.000    0.000    0.000 
#
# Total GULP energy -793278.415271 kJ/mol
# GULP energy per Si atom -12394.975239 kJ/mol
# Density = 1.945887 g / cm^3
# Si number density = 19.503260 Si / 1000 Ang^3
#
#
#
# Elastic Constant Matrix: (Units=GPa)
#
#
# Indices 1 2 3 4 5 6 
#
# 1 83.9467 52.3713 57.4519 0.0000 0.0000 0.0000
# 2 52.3713 101.7913 46.1858 0.0000 0.0000 0.0000
# 3 57.4519 46.1858 137.7099 0.0000 0.0000 0.0000
# 4 0.0000 0.0000 0.0000 23.0868 0.0000 0.0000
# 5 0.0000 0.0000 0.0000 0.0000 10.0595 0.0000
# 6 0.0000 0.0000 0.0000 0.0000 0.0000 23.6525
#
#
#
# Elastic Compliance Matrix: (Units=1/GPa)
#
#
# Indices 1 2 3 4 5 6 
#
# 1 0.021150 -0.008113 -0.006103 0.000000 0.000000 0.000000
# 2 -0.008113 0.014699 -0.001545 0.000000 0.000000 0.000000
# 3 -0.006103 -0.001545 0.010326 0.000000 0.000000 0.000000
# 4 0.000000 0.000000 0.000000 0.043315 0.000000 0.000000
# 5 0.000000 0.000000 0.000000 0.000000 0.099409 0.000000
# 6 0.000000 0.000000 0.000000 0.000000 0.000000 0.042279
#
#
# Mechanical properties :
#
#
# Convention : Reuss Voigt Hill
#
# Bulk Modulus (GPa) = 68.24244 70.60731 69.42488
# Shear Modulus (GPa) = 18.68569 22.52233 20.60401
#
# Velocity S-wave (km/s) = 3.09865 3.40192 3.25382
# Velocity P-wave (km/s) = 6.91870 7.19112 7.05622
#
# Compressibility (1/GPa) = 0.01465364
#
# Stress axis : x y z
#
# Youngs Moduli (GPa) = 47.28073 68.03137 96.84266
#
# Poissons Ratio (x) = 0.55191 0.59102
# Poissons Ratio (y) = 0.38357 0.14965
# Poissons Ratio (z) = 0.28855 0.10513
#
# Static dielectric constant tensor:
#      x y z
#    x 3.363680 0.000000 0.000000 
#    y 0.000000 3.760520 0.000000 
#    z 0.000000 0.000000 3.938780 
# 
# 
# High freq. dielectric constant tensor:
#      x y z
#    x 1.742730 0.000000 0.000000 
#    y 0.000000 1.763500 0.000000 
#    z 0.000000 0.000000 1.777610 
# 
# From -- ./inp_files/16940.got.cif
#   From: 2010.03.12/outbox.cif.g09.slc.cpg/sg57_9_cif.got.tgz:16940.got - 2010.04.16 15:48:40.
