data_PCOD8233532
_publ_section_title
;
Structure prediction by ZEFSAII (Michael W. Deem and Ramdas Pophale) SiO2 
 PCOD8233532
Probable space group: P B C M
;
_chemical_formula_sum "Si O2"
_cell_formula_units_Z 48
_cell_length_a 18.842665
_cell_length_b 15.228025
_cell_length_c 8.479884
_cell_angle_alpha 90.000000
_cell_angle_beta 90.000000
_cell_angle_gamma 90.000000
_cell_volume 2433.188860
_symmetry_space_group_name_H-M "P B C M"
_symmetry_group_IT_number 57
_symmetry_cell_setting 'orthorhombic'
loop_
_space_group_symop_operation_xyz
x,y,z
-x,-y,1/2+z
x,1/2-y,-z
-x,1/2+y,1/2-z
-x,-y,-z
x,y,1/2-z
-x,1/2+y,z
x,1/2-y,1/2+z
loop_
_atom_site_type_symbol
_atom_site_label
_atom_site_fract_x
_atom_site_fract_y
_atom_site_fract_z
Si Si1 0.921318 0.994730 0.435769
Si Si2 0.165547 0.844071 0.437200
Si Si3 0.421271 0.497306 0.563597
Si Si4 0.327915 0.842579 0.435766
Si Si5 0.175285 0.345066 0.564384
Si Si6 0.326263 0.346388 0.436041
O O1 0.920890 0.978239 0.250000
O O2 0.885862 0.912869 0.523057
O O3 0.881033 0.083891 0.475960
O O4 0.000000 0.000000 0.500000
O O5 0.139225 0.750000 0.500000
O O6 0.155323 0.850772 0.250000
O O7 0.246981 0.859442 0.489011
O O8 0.500000 0.500000 0.500000
O O9 0.422138 0.500649 0.750000
O O10 0.376950 0.579956 0.494930
O O11 0.385829 0.408028 0.507772
O O12 0.356462 0.750000 0.500000
O O13 0.332827 0.839661 0.250000
O O14 0.153080 0.250000 0.500000
O O15 0.186767 0.339018 0.750000
O O16 0.248442 0.378908 0.487773
O O17 0.341447 0.250000 0.500000
O O18 0.331768 0.347116 0.250000
#
# Coordination Sequence:
#
# PCOD8233532 Si02
#       6
#     8   8   8   8   8   8
#     4  12  25  41  60  87 120 158 198 241 293 351
#     4  10  20  38  62  89 117 151 193 242 293 348
#     4  11  23  39  57  84 120 159 198 243 296 353
#     4   9  20  37  60  85 113 147 189 237 287 339
#     4  11  22  40  64  91 120 154 195 244 295 351
#     4  11  22  39  63  90 117 153 197 245 296 352
#
# _framework density 19.7272
#
# number of rings (size 3 to 8) (size 9 to 14) (size 15 to 20)
#    0.000    1.333    0.000    7.500    0.000    4.667 
#    0.000    5.000    0.000    0.000    0.000    0.000 
#    0.000    0.000    0.000    0.000    0.000    0.000 
#
# Total GULP energy -595458.641725 kJ/mol
# GULP energy per Si atom -12405.388369 kJ/mol
# Density = 1.968230 g / cm^3
# Si number density = 19.727200 Si / 1000 Ang^3
#
#
#
# Elastic Constant Matrix: (Units=GPa)
#
#
# Indices 1 2 3 4 5 6 
#
# 1 124.6033 75.8804 1.3881 0.0000 0.0000 0.0000
# 2 75.8804 119.1003 10.7201 0.0000 0.0000 0.0000
# 3 1.3881 10.7201 25.6531 0.0000 0.0000 0.0000
# 4 0.0000 0.0000 0.0000 37.8463 0.0000 0.0000
# 5 0.0000 0.0000 0.0000 0.0000 33.1095 0.0000
# 6 0.0000 0.0000 0.0000 0.0000 0.0000 -0.1983
#
#
#
# Elastic Compliance Matrix: (Units=1/GPa)
#
#
# Indices 1 2 3 4 5 6 
#
# 1 0.013323 -0.008752 0.002937 0.000000 0.000000 0.000000
# 2 -0.008752 0.014474 -0.005575 0.000000 0.000000 0.000000
# 3 0.002937 -0.005575 0.041152 0.000000 0.000000 0.000000
# 4 0.000000 0.000000 0.000000 0.026423 0.000000 0.000000
# 5 0.000000 0.000000 0.000000 0.000000 0.030203 0.000000
# 6 0.000000 0.000000 0.000000 0.000000 0.000000 -5.042503
#
#
# Mechanical properties :
#
#
# Convention : Reuss Voigt Hill
#
# Bulk Modulus (GPa) = 21.66011 49.48156 35.57083
# Shear Modulus (GPa) = -1.02485 26.24270 12.60892
#
# Velocity S-wave (km/s) = -0.72155 3.65126 2.53091
# Velocity P-wave (km/s) = 3.21084 6.55080 5.15860
#
# Compressibility (1/GPa) = 0.04616783
#
# Stress axis : x y z
#
# Youngs Moduli (GPa) = 75.05941 69.08755 24.29991
#
# Poissons Ratio (x) = 0.60468 -0.07136
# Poissons Ratio (y) = 0.65695 0.13547
# Poissons Ratio (z) = -0.22042 0.38517
#
# Static dielectric constant tensor:
#      x y z
#    x 3.666440 0.000000 0.000000 
#    y 0.000000 3.822670 0.000000 
#    z 0.000000 0.000000 3.724800 
# 
# 
# High freq. dielectric constant tensor:
#      x y z
#    x 1.768190 0.000000 0.000000 
#    y 0.000000 1.784570 0.000000 
#    z 0.000000 0.000000 1.783650 
# 
# From -- ./inp_files/6471.got.cif
#   From: 2010.03.12/outbox.cif.g09.slc.cpg/sg57_4_cif.got.tgz:6471.got - 2010.04.16 15:48:40.
