data_PCOD8233343
_publ_section_title
;
Structure prediction by ZEFSAII (Michael W. Deem and Ramdas Pophale) SiO2 
 PCOD8233343
Probable space group: P B C M
;
_chemical_formula_sum "Si O2"
_cell_formula_units_Z 56
_cell_length_a 9.370923
_cell_length_b 16.538193
_cell_length_c 18.860167
_cell_angle_alpha 90.000000
_cell_angle_beta 90.000000
_cell_angle_gamma 90.000000
_cell_volume 2922.913473
_symmetry_space_group_name_H-M "P B C M"
_symmetry_group_IT_number 57
_symmetry_cell_setting 'orthorhombic'
loop_
_space_group_symop_operation_xyz
x,y,z
-x,-y,1/2+z
x,1/2-y,-z
-x,1/2+y,1/2-z
-x,-y,-z
x,y,1/2-z
-x,1/2+y,z
x,1/2-y,1/2+z
loop_
_atom_site_type_symbol
_atom_site_label
_atom_site_fract_x
_atom_site_fract_y
_atom_site_fract_z
Si Si1 0.457223 0.658198 0.169720
Si Si2 0.303362 0.548492 0.628080
Si Si3 0.854189 0.455326 0.982952
Si Si4 0.225944 0.368070 0.829097
Si Si5 0.422351 0.993656 0.925052
Si Si6 0.778041 0.284118 0.327509
Si Si7 0.989641 0.296563 0.929171
O O1 0.421940 0.626123 0.250000
O O2 0.624620 0.679218 0.165580
O O3 0.420910 0.595328 0.108271
O O4 0.367445 0.738171 0.151519
O O5 0.233964 0.566909 0.552320
O O6 0.247329 0.463365 0.657201
O O7 0.478618 0.549565 0.625455
O O8 0.255275 0.620767 0.678282
O O9 0.747659 0.512989 0.935032
O O10 0.886725 0.372159 0.943161
O O11 0.000000 0.500000 0.000000
O O12 0.160516 0.358104 0.750000
O O13 0.127228 0.328484 0.888138
O O14 0.500000 0.000000 0.000000
O O15 0.830438 0.255720 0.250000
O O16 0.904284 0.267653 0.382252
O O17 0.039687 0.250000 0.000000
#
# Coordination Sequence:
#
# PCOD8233343 Si02
#       7
#     8   8   8   8   8   8   8
#     4   9  19  37  60  84 115 153 196 244 296 355
#     4  10  20  37  60  89 116 152 200 246 294 349
#     4  11  20  37  58  82 120 153 196 242 290 354
#     4  10  21  40  62  85 118 160 199 238 297 367
#     4   9  19  35  59  85 113 151 193 243 294 354
#     4  11  22  38  61  88 118 156 201 250 300 356
#     4  12  23  38  59  88 121 158 199 248 302 354
#
# _framework density 19.158965999999999
#
# number of rings (size 3 to 8) (size 9 to 14) (size 15 to 20)
#    0.000    1.714    4.286    0.857    0.000    0.571 
#    2.571    0.714    0.000    0.000    0.000    0.000 
#    0.000    0.000    0.000    0.000    0.000    0.000 
#
# Total GULP energy -693833.941247 kJ/mol
# GULP energy per Si atom -12389.891808 kJ/mol
# Density = 1.911536 g / cm^3
# Si number density = 19.158966 Si / 1000 Ang^3
#
#
#
# Elastic Constant Matrix: (Units=GPa)
#
#
# Indices 1 2 3 4 5 6 
#
# 1 132.0892 46.9344 52.8142 0.0000 0.0000 0.0000
# 2 46.9344 86.5569 37.1454 0.0000 0.0000 0.0000
# 3 52.8142 37.1454 105.6308 0.0000 0.0000 0.0000
# 4 0.0000 0.0000 0.0000 28.4958 0.0000 0.0000
# 5 0.0000 0.0000 0.0000 0.0000 19.3701 0.0000
# 6 0.0000 0.0000 0.0000 0.0000 0.0000 28.4921
#
#
#
# Elastic Compliance Matrix: (Units=1/GPa)
#
#
# Indices 1 2 3 4 5 6 
#
# 1 0.010555 -0.004073 -0.003845 0.000000 0.000000 0.000000
# 2 -0.004073 0.015178 -0.003301 0.000000 0.000000 0.000000
# 3 -0.003845 -0.003301 0.012550 0.000000 0.000000 0.000000
# 4 0.000000 0.000000 0.000000 0.035093 0.000000 0.000000
# 5 0.000000 0.000000 0.000000 0.000000 0.051626 0.000000
# 6 0.000000 0.000000 0.000000 0.000000 0.000000 0.035097
#
#
# Mechanical properties :
#
#
# Convention : Reuss Voigt Hill
#
# Bulk Modulus (GPa) = 63.11074 66.45166 64.78120
# Shear Modulus (GPa) = 26.62107 27.76379 27.19243
#
# Velocity S-wave (km/s) = 3.73162 3.81087 3.77145
# Velocity P-wave (km/s) = 7.18184 7.35686 7.26987
#
# Compressibility (1/GPa) = 0.01584516
#
# Stress axis : x y z
#
# Youngs Moduli (GPa) = 94.73760 65.88305 79.67978
#
# Poissons Ratio (x) = 0.26837 0.30638
# Poissons Ratio (y) = 0.38591 0.26301
# Poissons Ratio (z) = 0.36428 0.21747
#
# Static dielectric constant tensor:
#      x y z
#    x 3.745140 0.000000 0.000000 
#    y 0.000000 3.346860 0.000000 
#    z 0.000000 0.000000 3.678750 
# 
# 
# High freq. dielectric constant tensor:
#      x y z
#    x 1.750340 0.000000 0.000000 
#    y 0.000000 1.723070 0.000000 
#    z 0.000000 0.000000 1.754870 
# 
# From -- ./inp_files/24427.got.cif
#   From: 2010.03.12/outbox.cif.g09.slc.cpg/sg57_13_cif.got.tgz:24427.got - 2010.04.16 15:48:40.
