data_PCOD8233818
_publ_section_title
;
Structure prediction by ZEFSAII (Michael W. Deem and Ramdas Pophale) SiO2 
 PCOD8233818
Probable space group: P B C M
;
_chemical_formula_sum "Si O2"
_cell_formula_units_Z 48
_cell_length_a 9.825561
_cell_length_b 30.129398
_cell_length_c 8.773629
_cell_angle_alpha 90.000000
_cell_angle_beta 90.000000
_cell_angle_gamma 90.000000
_cell_volume 2597.329670
_symmetry_space_group_name_H-M "P B C M"
_symmetry_group_IT_number 57
_symmetry_cell_setting 'orthorhombic'
loop_
_space_group_symop_operation_xyz
x,y,z
-x,-y,1/2+z
x,1/2-y,-z
-x,1/2+y,1/2-z
-x,-y,-z
x,y,1/2-z
-x,1/2+y,z
x,1/2-y,1/2+z
loop_
_atom_site_type_symbol
_atom_site_label
_atom_site_fract_x
_atom_site_fract_y
_atom_site_fract_z
Si Si1 0.408399 0.795455 0.072716
Si Si2 0.390776 0.032213 0.427866
Si Si3 0.097456 0.796482 0.430653
Si Si4 0.100691 0.035433 0.930647
Si Si5 0.908681 0.629150 0.429492
Si Si6 0.402628 0.365986 0.576106
O O1 0.416096 0.787950 0.250000
O O2 0.253721 0.805305 0.021775
O O3 0.463748 0.750000 0.000000
O O4 0.501872 0.836707 0.029564
O O5 0.370335 0.021959 0.250000
O O6 0.250612 0.023281 0.513263
O O7 0.439337 0.082694 0.452715
O O8 0.500000 0.000000 0.500000
O O9 0.047701 0.750000 0.500000
O O10 0.075745 0.796521 0.250000
O O11 0.008639 0.834013 0.508103
O O12 0.095199 0.033821 0.750000
O O13 0.053899 0.083581 0.987544
O O14 0.000000 0.000000 0.000000
O O15 0.927946 0.622179 0.250000
O O16 0.754079 0.643115 0.467258
O O17 0.430815 0.352612 0.750000
#
# Coordination Sequence:
#
# PCOD8233818 Si02
#       6
#     8   8   8   8   8   8
#     4  10  21  36  56  80 108 141 180 223 269 321
#     4  10  21  38  58  83 114 148 186 229 276 330
#     4  10  21  37  56  81 110 144 184 227 274 326
#     4  11  22  38  59  83 112 147 186 231 279 331
#     4  10  21  38  58  82 111 144 182 227 276 330
#     4   9  20  37  56  79 109 142 179 221 268 320
#
# _framework density 18.480518
#
# number of rings (size 3 to 8) (size 9 to 14) (size 15 to 20)
#    0.000    2.000    0.000    4.500    0.000    8.000 
#    0.000    3.333    0.000    0.000    0.000    0.000 
#    0.000    0.000    0.000    0.000    0.000    0.000 
#
# Total GULP energy -595377.095343 kJ/mol
# GULP energy per Si atom -12403.689486 kJ/mol
# Density = 1.843846 g / cm^3
# Si number density = 18.480518 Si / 1000 Ang^3
#
#
#
# Elastic Constant Matrix: (Units=GPa)
#
#
# Indices 1 2 3 4 5 6 
#
# 1 98.2192 91.2008 58.0370 0.0000 0.0000 0.0000
# 2 91.2008 137.0761 69.5569 0.0000 0.0000 0.0000
# 3 58.0370 69.5569 122.2123 0.0000 0.0000 0.0000
# 4 0.0000 0.0000 0.0000 40.0423 0.0000 0.0000
# 5 0.0000 0.0000 0.0000 0.0000 35.6610 0.0000
# 6 0.0000 0.0000 0.0000 0.0000 0.0000 40.9021
#
#
#
# Elastic Compliance Matrix: (Units=1/GPa)
#
#
# Indices 1 2 3 4 5 6 
#
# 1 0.027817 -0.016598 -0.003763 0.000000 0.000000 0.000000
# 2 -0.016598 0.020161 -0.003593 0.000000 0.000000 0.000000
# 3 -0.003763 -0.003593 0.012014 0.000000 0.000000 0.000000
# 4 0.000000 0.000000 0.000000 0.024974 0.000000 0.000000
# 5 0.000000 0.000000 0.000000 0.000000 0.028042 0.000000
# 6 0.000000 0.000000 0.000000 0.000000 0.000000 0.024449
#
#
# Mechanical properties :
#
#
# Convention : Reuss Voigt Hill
#
# Bulk Modulus (GPa) = 82.74700 88.34412 85.54556
# Shear Modulus (GPa) = 26.40030 32.56860 29.48445
#
# Velocity S-wave (km/s) = 3.78371 4.20255 3.99862
# Velocity P-wave (km/s) = 7.99757 8.45318 8.22853
#
# Compressibility (1/GPa) = 0.01208503
#
# Stress axis : x y z
#
# Youngs Moduli (GPa) = 35.94971 49.60024 83.23369
#
# Poissons Ratio (x) = 0.82325 0.31323
# Poissons Ratio (y) = 0.59668 0.29903
# Poissons Ratio (z) = 0.13529 0.17820
#
# Static dielectric constant tensor:
#      x y z
#    x 3.472010 0.000000 0.000000 
#    y 0.000000 3.440930 0.000000 
#    z 0.000000 0.000000 3.533910 
# 
# 
# High freq. dielectric constant tensor:
#      x y z
#    x 1.717520 0.000000 0.000000 
#    y 0.000000 1.724280 0.000000 
#    z 0.000000 0.000000 1.733560 
# 
# From -- ./inp_files/2031.got.cif
#   From: 2010.03.12/outbox.cif.g09.slc.cpg/sg57_2_cif.got.tgz:2031.got - 2010.04.16 15:48:40.
