data_PCOD8233457
_publ_section_title
;
Structure prediction by ZEFSAII (Michael W. Deem and Ramdas Pophale) SiO2 
 PCOD8233457
Probable space group: P B C M
;
_chemical_formula_sum "Si O2"
_cell_formula_units_Z 48
_cell_length_a 27.250015
_cell_length_b 8.673919
_cell_length_c 9.980137
_cell_angle_alpha 90.000000
_cell_angle_beta 90.000000
_cell_angle_gamma 90.000000
_cell_volume 2358.949322
_symmetry_space_group_name_H-M "P B C M"
_symmetry_group_IT_number 57
_symmetry_cell_setting 'orthorhombic'
loop_
_space_group_symop_operation_xyz
x,y,z
-x,-y,1/2+z
x,1/2-y,-z
-x,1/2+y,1/2-z
-x,-y,-z
x,y,1/2-z
-x,1/2+y,z
x,1/2-y,1/2+z
loop_
_atom_site_type_symbol
_atom_site_label
_atom_site_fract_x
_atom_site_fract_y
_atom_site_fract_z
Si Si1 0.609711 0.572664 0.521492
Si Si2 0.959760 0.080674 0.250000
Si Si3 0.297079 0.888562 0.900920
Si Si4 0.790786 0.892661 0.403782
Si Si5 0.538111 0.873611 0.250000
Si Si6 0.899139 0.569425 0.517929
Si Si7 0.435378 0.480736 0.750000
Si Si8 0.935631 0.440792 0.250000
O O1 0.622722 0.750000 0.500000
O O2 0.656976 0.501967 0.591113
O O3 0.562708 0.553130 0.618003
O O4 0.597787 0.488663 0.380960
O O5 0.950458 0.262568 0.250000
O O6 0.938543 0.002120 0.382237
O O7 0.017698 0.053194 0.250000
O O8 0.292577 0.825317 0.750000
O O9 0.247418 0.975135 0.942869
O O10 0.306038 0.750000 0.000000
O O11 0.780731 0.750000 0.500000
O O12 0.783708 0.839165 0.250000
O O13 0.845161 0.959463 0.423537
O O14 0.543985 0.691035 0.250000
O O15 0.480367 0.901882 0.250000
O O16 0.910326 0.750000 0.500000
O O17 0.902439 0.479808 0.378023
#
# Coordination Sequence:
#
# PCOD8233457 Si02
#       8
#     8   4   8   8   4   8   4   4
#     4  10  21  40  62  88 120 166 209 255 307 369
#     4  12  24  44  63  96 133 172 223 268 324 386
#     4  11  25  43  63  94 129 163 206 261 313 369
#     4  10  23  44  70  97 127 165 209 256 311 381
#     4  10  20  38  57  88 121 160 203 260 304 370
#     4  11  23  43  67  97 129 170 217 269 321 382
#     4  10  22  34  61  88 121 158 207 248 314 370
#     4  12  26  40  67  94 131 178 217 270 326 380
#
# _framework density 20.348042
#
# number of rings (size 3 to 8) (size 9 to 14) (size 15 to 20)
#    0.000    1.333    1.667    3.500    4.667    3.333 
#    0.000    0.000    0.000    0.000    0.000    0.000 
#    0.000    0.000    0.000    0.000    0.000    0.000 
#
# Total GULP energy -595500.511169 kJ/mol
# GULP energy per Si atom -12406.260649 kJ/mol
# Density = 2.030173 g / cm^3
# Si number density = 20.348042 Si / 1000 Ang^3
#
#
#
# Elastic Constant Matrix: (Units=GPa)
#
#
# Indices 1 2 3 4 5 6 
#
# 1 73.0331 26.2785 13.9353 0.0000 0.0000 0.0000
# 2 26.2785 79.6037 23.3459 0.0000 0.0000 0.0000
# 3 13.9353 23.3459 112.2616 0.0000 0.0000 0.0000
# 4 0.0000 0.0000 0.0000 33.2024 0.0000 0.0000
# 5 0.0000 0.0000 0.0000 0.0000 20.7061 0.0000
# 6 0.0000 0.0000 0.0000 0.0000 0.0000 28.5970
#
#
#
# Elastic Compliance Matrix: (Units=1/GPa)
#
#
# Indices 1 2 3 4 5 6 
#
# 1 0.015627 -0.004888 -0.000923 0.000000 0.000000 0.000000
# 2 -0.004888 0.014907 -0.002493 0.000000 0.000000 0.000000
# 3 -0.000923 -0.002493 0.009541 0.000000 0.000000 0.000000
# 4 0.000000 0.000000 0.000000 0.030118 0.000000 0.000000
# 5 0.000000 0.000000 0.000000 0.000000 0.048295 0.000000
# 6 0.000000 0.000000 0.000000 0.000000 0.000000 0.034969
#
#
# Mechanical properties :
#
#
# Convention : Reuss Voigt Hill
#
# Bulk Modulus (GPa) = 42.61495 43.55754 43.08625
# Shear Modulus (GPa) = 28.10745 29.92368 29.01556
#
# Velocity S-wave (km/s) = 3.72066 3.83899 3.78029
# Velocity P-wave (km/s) = 6.28063 6.41118 6.34624
#
# Compressibility (1/GPa) = 0.02346594
#
# Stress axis : x y z
#
# Youngs Moduli (GPa) = 63.99012 67.08218 104.81197
#
# Poissons Ratio (x) = 0.32790 0.09678
# Poissons Ratio (y) = 0.31279 0.26133
# Poissons Ratio (z) = 0.05909 0.16726
#
# Static dielectric constant tensor:
#      x y z
#    x 3.714080 0.000000 0.000000 
#    y 0.000000 3.532110 0.000000 
#    z 0.000000 0.000000 3.929740 
# 
# 
# High freq. dielectric constant tensor:
#      x y z
#    x 1.802420 0.000000 0.000000 
#    y 0.000000 1.786750 0.000000 
#    z 0.000000 0.000000 1.815990 
# 
# From -- ./inp_files/10211.got.cif
#   From: 2010.03.12/outbox.cif.g09.slc.cpg/sg57_6_cif.got.tgz:10211.got - 2010.04.16 15:48:40.
