data_PCOD8233239
_publ_section_title
;
Structure prediction by ZEFSAII (Michael W. Deem and Ramdas Pophale) SiO2 
 PCOD8233239
Probable space group: P B C M
;
_chemical_formula_sum "Si O2"
_cell_formula_units_Z 32
_cell_length_a 10.248084
_cell_length_b 9.767078
_cell_length_c 16.684123
_cell_angle_alpha 90.000000
_cell_angle_beta 90.000000
_cell_angle_gamma 90.000000
_cell_volume 1669.977868
_symmetry_space_group_name_H-M "P B C M"
_symmetry_group_IT_number 57
_symmetry_cell_setting 'orthorhombic'
loop_
_space_group_symop_operation_xyz
x,y,z
-x,-y,1/2+z
x,1/2-y,-z
-x,1/2+y,1/2-z
-x,-y,-z
x,y,1/2-z
-x,1/2+y,z
x,1/2-y,1/2+z
loop_
_atom_site_type_symbol
_atom_site_label
_atom_site_fract_x
_atom_site_fract_y
_atom_site_fract_z
Si Si1 0.618995 0.132995 0.439064
Si Si2 0.120041 0.732693 0.404450
Si Si3 0.335498 0.385989 0.949563
Si Si4 0.901366 0.966010 0.656239
O O1 0.578663 0.250000 0.500000
O O2 0.731445 0.187918 0.378646
O O3 0.475678 0.100294 0.402290
O O4 0.680222 0.005512 0.485693
O O5 0.116930 0.750000 0.500000
O O6 0.025722 0.611461 0.378913
O O7 0.082057 0.873179 0.361389
O O8 0.227675 0.401393 0.881609
O O9 0.309879 0.250000 0.000000
O O10 0.893700 0.940902 0.750000
#
# Coordination Sequence:
#
# PCOD8233239 Si02
#       4
#     8   8   8   8
#     4   9  18  37  64  91 111 145 209 245 286 337
#     4  11  22  41  64  88 113 164 207 245 286 355
#     4  10  20  36  65  92 114 151 199 248 286 356
#     4  12  25  40  57  89 128 157 193 250 306 350
#
# _framework density 19.161932
#
# number of rings (size 3 to 8) (size 9 to 14) (size 15 to 20)
#    0.000    1.500    5.000    2.250    3.500    0.000 
#    0.000    2.500    0.000    0.000    0.000    0.000 
#    0.000    0.000    0.000    0.000    0.000    0.000 
#
# Total GULP energy -396585.696013 kJ/mol
# GULP energy per Si atom -12393.303000 kJ/mol
# Density = 1.911832 g / cm^3
# Si number density = 19.161932 Si / 1000 Ang^3
#
#
#
# Elastic Constant Matrix: (Units=GPa)
#
#
# Indices 1 2 3 4 5 6 
#
# 1 157.0832 35.4076 27.0928 0.0000 0.0000 0.0000
# 2 35.4076 112.2253 11.5710 0.0000 0.0000 0.0000
# 3 27.0928 11.5710 47.5102 0.0000 0.0000 0.0000
# 4 0.0000 0.0000 0.0000 22.9447 0.0000 0.0000
# 5 0.0000 0.0000 0.0000 0.0000 -2.5550 0.0000
# 6 0.0000 0.0000 0.0000 0.0000 0.0000 38.2792
#
#
#
# Elastic Compliance Matrix: (Units=1/GPa)
#
#
# Indices 1 2 3 4 5 6 
#
# 1 0.007460 -0.001964 -0.003776 0.000000 0.000000 0.000000
# 2 -0.001964 0.009657 -0.001232 0.000000 0.000000 0.000000
# 3 -0.003776 -0.001232 0.023501 0.000000 0.000000 0.000000
# 4 0.000000 0.000000 0.000000 0.043583 0.000000 0.000000
# 5 0.000000 0.000000 0.000000 0.000000 -0.391393 0.000000
# 6 0.000000 0.000000 0.000000 0.000000 0.000000 0.026124
#
#
# Mechanical properties :
#
#
# Convention : Reuss Voigt Hill
#
# Bulk Modulus (GPa) = 37.48851 51.66240 44.57545
# Shear Modulus (GPa) = -19.36246 27.91695 4.27725
#
# Velocity S-wave (km/s) = -3.18223 3.82107 1.49566
# Velocity P-wave (km/s) = 2.47071 6.81813 5.12793
#
# Compressibility (1/GPa) = 0.02667484
#
# Stress axis : x y z
#
# Youngs Moduli (GPa) = 134.04740 103.54722 42.55102
#
# Poissons Ratio (x) = 0.20341 0.16066
# Poissons Ratio (y) = 0.26332 0.05242
# Poissons Ratio (z) = 0.50612 0.12755
#
# Static dielectric constant tensor:
#      x y z
#    x 4.011400 0.000000 0.000000 
#    y 0.000000 3.650620 0.000000 
#    z 0.000000 0.000000 3.057660 
# 
# 
# High freq. dielectric constant tensor:
#      x y z
#    x 1.773510 0.000000 0.000000 
#    y 0.000000 1.770850 0.000000 
#    z 0.000000 0.000000 1.689570 
# 
# From -- ./inp_files/17177.got.cif
#   From: 2010.03.12/outbox.cif.g09.slc.cpg/sg57_9_cif.got.tgz:17177.got - 2010.04.16 15:48:40.
