data_PCOD8233912
_publ_section_title
;
Structure prediction by ZEFSAII (Michael W. Deem and Ramdas Pophale) SiO2 
 PCOD8233912
Probable space group: P B C M
;
_chemical_formula_sum "Si O2"
_cell_formula_units_Z 48
_cell_length_a 30.830467
_cell_length_b 9.489787
_cell_length_c 8.791296
_cell_angle_alpha 90.000000
_cell_angle_beta 90.000000
_cell_angle_gamma 90.000000
_cell_volume 2572.109602
_symmetry_space_group_name_H-M "P B C M"
_symmetry_group_IT_number 57
_symmetry_cell_setting 'orthorhombic'
loop_
_space_group_symop_operation_xyz
x,y,z
-x,-y,1/2+z
x,1/2-y,-z
-x,1/2+y,1/2-z
-x,-y,-z
x,y,1/2-z
-x,1/2+y,z
x,1/2-y,1/2+z
loop_
_atom_site_type_symbol
_atom_site_label
_atom_site_fract_x
_atom_site_fract_y
_atom_site_fract_z
Si Si1 0.296827 0.904748 0.069976
Si Si2 0.367606 0.401464 0.073618
Si Si3 0.788032 0.402760 0.571604
Si Si4 0.037723 0.405584 0.068873
Si Si5 0.533989 0.601196 0.924364
Si Si6 0.883552 0.402091 0.573009
O O1 0.296149 0.895878 0.250000
O O2 0.299940 0.750000 0.000000
O O3 0.252385 0.982010 0.010171
O O4 0.338363 0.989424 0.016172
O O5 0.354202 0.394321 0.250000
O O6 0.416987 0.454569 0.054027
O O7 0.360813 0.250000 0.000000
O O8 0.789531 0.250000 0.500000
O O9 0.778359 0.395325 0.750000
O O10 0.835649 0.467449 0.536973
O O11 0.032850 0.396126 0.250000
O O12 0.082453 0.480583 0.017818
O O13 0.036148 0.250000 0.000000
O O14 0.000000 0.500000 0.000000
O O15 0.521707 0.617001 0.750000
O O16 0.528402 0.750000 0.000000
O O17 0.500000 0.500000 0.000000
O O18 0.892471 0.250000 0.500000
O O19 0.888705 0.373220 0.750000
#
# Coordination Sequence:
#
# PCOD8233912 Si02
#       6
#     8   8   8   8   8   8
#     4  11  21  34  54  81 110 143 182 226 268 313
#     4  10  21  38  57  79 107 142 179 219 267 322
#     4   9  16  30  51  76 106 139 175 220 267 316
#     4  11  23  39  57  81 110 143 181 223 269 319
#     4  10  21  37  58  81 108 140 177 219 267 319
#     4   9  19  34  55  80 107 139 177 219 267 319
#
# _framework density 18.661725000000001
#
# number of rings (size 3 to 8) (size 9 to 14) (size 15 to 20)
#    0.000    2.000    0.000    5.000    0.000    6.000 
#    0.000    0.833    0.000    2.000    0.000    0.000 
#    0.000    0.000    0.000    0.000    0.000    0.000 
#
# Total GULP energy -594989.829637 kJ/mol
# GULP energy per Si atom -12395.621451 kJ/mol
# Density = 1.861925 g / cm^3
# Si number density = 18.661725 Si / 1000 Ang^3
#
#
#
# Elastic Constant Matrix: (Units=GPa)
#
#
# Indices 1 2 3 4 5 6 
#
# 1 156.7925 72.7139 84.4103 0.0000 0.0000 0.0000
# 2 72.7139 88.3469 56.4117 0.0000 0.0000 0.0000
# 3 84.4103 56.4117 144.8989 0.0000 0.0000 0.0000
# 4 0.0000 0.0000 0.0000 32.2993 0.0000 0.0000
# 5 0.0000 0.0000 0.0000 0.0000 32.7944 0.0000
# 6 0.0000 0.0000 0.0000 0.0000 0.0000 31.8300
#
#
#
# Elastic Compliance Matrix: (Units=1/GPa)
#
#
# Indices 1 2 3 4 5 6 
#
# 1 0.011948 -0.007172 -0.004168 0.000000 0.000000 0.000000
# 2 -0.007172 0.019369 -0.003363 0.000000 0.000000 0.000000
# 3 -0.004168 -0.003363 0.010638 0.000000 0.000000 0.000000
# 4 0.000000 0.000000 0.000000 0.030960 0.000000 0.000000
# 5 0.000000 0.000000 0.000000 0.000000 0.030493 0.000000
# 6 0.000000 0.000000 0.000000 0.000000 0.000000 0.031417
#
#
# Mechanical properties :
#
#
# Convention : Reuss Voigt Hill
#
# Bulk Modulus (GPa) = 79.68123 90.79002 85.23563
# Shear Modulus (GPa) = 29.68854 31.15157 30.42005
#
# Velocity S-wave (km/s) = 3.99291 4.09011 4.04180
# Velocity P-wave (km/s) = 8.00301 8.42979 8.21917
#
# Compressibility (1/GPa) = 0.01255001
#
# Stress axis : x y z
#
# Youngs Moduli (GPa) = 83.69641 51.62791 93.99882
#
# Poissons Ratio (x) = 0.37030 0.39177
# Poissons Ratio (y) = 0.60031 0.31607
# Poissons Ratio (z) = 0.34884 0.17360
#
# Static dielectric constant tensor:
#      x y z
#    x 4.427020 0.000000 0.000000 
#    y 0.000000 3.235410 0.000000 
#    z 0.000000 0.000000 3.676790 
# 
# 
# High freq. dielectric constant tensor:
#      x y z
#    x 1.748370 0.000000 0.000000 
#    y 0.000000 1.695960 0.000000 
#    z 0.000000 0.000000 1.742510 
# 
# From -- ./inp_files/10026.got.cif
#   From: 2010.03.12/outbox.cif.g09.slc.cpg/sg57_6_cif.got.tgz:10026.got - 2010.04.16 15:48:40.
