data_PCOD8233783
_publ_section_title
;
Structure prediction by ZEFSAII (Michael W. Deem and Ramdas Pophale) SiO2 
 PCOD8233783
Probable space group: P B C M
;
_chemical_formula_sum "Si O2"
_cell_formula_units_Z 64
_cell_length_a 21.741341
_cell_length_b 19.420708
_cell_length_c 8.845215
_cell_angle_alpha 90.000000
_cell_angle_beta 90.000000
_cell_angle_gamma 90.000000
_cell_volume 3734.734899
_symmetry_space_group_name_H-M "P B C M"
_symmetry_group_IT_number 57
_symmetry_cell_setting 'orthorhombic'
loop_
_space_group_symop_operation_xyz
x,y,z
-x,-y,1/2+z
x,1/2-y,-z
-x,1/2+y,1/2-z
-x,-y,-z
x,y,1/2-z
-x,1/2+y,z
x,1/2-y,1/2+z
loop_
_atom_site_type_symbol
_atom_site_label
_atom_site_fract_x
_atom_site_fract_y
_atom_site_fract_z
Si Si1 0.696328 0.549249 0.569614
Si Si2 0.979605 0.317502 0.574715
Si Si3 0.626733 0.824000 0.930107
Si Si4 0.939684 0.466419 0.928149
Si Si5 0.117733 0.317748 0.572906
Si Si6 0.174735 0.459630 0.570916
Si Si7 0.414872 0.537679 0.083291
Si Si8 0.516132 0.605765 0.917372
O O1 0.694567 0.559961 0.750000
O O2 0.676038 0.620712 0.491814
O O3 0.762033 0.523362 0.512291
O O4 0.651200 0.486711 0.519665
O O5 0.948821 0.250000 0.500000
O O6 0.983577 0.302550 0.750000
O O7 0.939823 0.384825 0.539886
O O8 0.048608 0.329122 0.509757
O O9 0.631410 0.820830 0.750000
O O10 0.643454 0.750000 0.000000
O O11 0.557428 0.845142 0.977349
O O12 0.939146 0.482912 0.750000
O O13 0.878421 0.491641 0.008762
O O14 0.000000 0.500000 0.000000
O O15 0.147902 0.250000 0.500000
O O16 0.116740 0.308263 0.750000
O O17 0.158986 0.381783 0.525266
O O18 0.180613 0.469929 0.750000
O O19 0.407757 0.569676 0.250000
O O20 0.455887 0.469665 0.091658
O O21 0.446798 0.596821 0.981792
O O22 0.512797 0.638847 0.750000
#
# Coordination Sequence:
#
# PCOD8233783 Si02
#       8
#     8   8   8   8   8   8   8   8
#     4  10  21  36  51  71  99 134 175 214 256 304
#     4   9  18  33  51  74 100 126 160 202 253 311
#     4  11  21  34  51  72 102 140 178 215 253 296
#     4  11  21  35  54  77 104 133 168 216 270 322
#     4   9  18  32  47  67  95 127 165 207 249 303
#     4  11  22  36  51  73 103 136 177 219 263 319
#     4   8  15  28  46  68  95 124 158 201 246 293
#     4   9  16  27  46  72  98 125 161 203 246 291
#
# _framework density 17.136423000000001
#
# number of rings (size 3 to 8) (size 9 to 14) (size 15 to 20)
#    0.000    2.250    1.250    3.375    0.000    6.000 
#    0.000    1.250    0.000    0.000    0.000    0.875 
#    0.000    4.000    0.000    0.000    0.000    0.000 
#
# Total GULP energy -793395.413086 kJ/mol
# GULP energy per Si atom -12396.803329 kJ/mol
# Density = 1.709742 g / cm^3
# Si number density = 17.136423 Si / 1000 Ang^3
#
#
#
# Elastic Constant Matrix: (Units=GPa)
#
#
# Indices 1 2 3 4 5 6 
#
# 1 117.0444 40.4549 41.8832 0.0000 0.0000 0.0000
# 2 40.4549 54.0285 32.7061 0.0000 0.0000 0.0000
# 3 41.8832 32.7061 85.7928 0.0000 0.0000 0.0000
# 4 0.0000 0.0000 0.0000 27.0939 0.0000 0.0000
# 5 0.0000 0.0000 0.0000 0.0000 27.6329 0.0000
# 6 0.0000 0.0000 0.0000 0.0000 0.0000 13.5887
#
#
#
# Elastic Compliance Matrix: (Units=1/GPa)
#
#
# Indices 1 2 3 4 5 6 
#
# 1 0.012170 -0.007171 -0.003208 0.000000 0.000000 0.000000
# 2 -0.007171 0.028287 -0.007283 0.000000 0.000000 0.000000
# 3 -0.003208 -0.007283 0.015998 0.000000 0.000000 0.000000
# 4 0.000000 0.000000 0.000000 0.036909 0.000000 0.000000
# 5 0.000000 0.000000 0.000000 0.000000 0.036189 0.000000
# 6 0.000000 0.000000 0.000000 0.000000 0.000000 0.073590
#
#
# Mechanical properties :
#
#
# Convention : Reuss Voigt Hill
#
# Bulk Modulus (GPa) = 47.32037 54.10600 50.71319
# Shear Modulus (GPa) = 20.36580 23.11786 21.74183
#
# Velocity S-wave (km/s) = 3.45113 3.67692 3.56582
# Velocity P-wave (km/s) = 6.59957 7.04759 6.82726
#
# Compressibility (1/GPa) = 0.02113255
#
# Stress axis : x y z
#
# Youngs Moduli (GPa) = 82.16861 35.35237 62.50677
#
# Poissons Ratio (x) = 0.25351 0.20050
# Poissons Ratio (y) = 0.58922 0.45522
# Poissons Ratio (z) = 0.26357 0.25746
#
# Static dielectric constant tensor:
#      x y z
#    x 3.192820 0.000000 0.000000 
#    y 0.000000 2.586420 0.000000 
#    z 0.000000 0.000000 3.435210 
# 
# 
# High freq. dielectric constant tensor:
#      x y z
#    x 1.643720 0.000000 0.000000 
#    y 0.000000 1.637830 0.000000 
#    z 0.000000 0.000000 1.673040 
# 
# From -- ./inp_files/8749.got.cif
#   From: 2010.03.12/outbox.cif.g09.slc.cpg/sg57_5_cif.got.tgz:8749.got - 2010.04.16 15:48:40.
