data_PCOD8233061
_publ_section_title
;
Structure prediction by ZEFSAII (Michael W. Deem and Ramdas Pophale) SiO2 
 PCOD8233061
Probable space group: P B C M
;
_chemical_formula_sum "Si O2"
_cell_formula_units_Z 40
_cell_length_a 6.901719
_cell_length_b 19.261059
_cell_length_c 14.254490
_cell_angle_alpha 90.000000
_cell_angle_beta 90.000000
_cell_angle_gamma 90.000000
_cell_volume 1894.912316
_symmetry_space_group_name_H-M "P B C M"
_symmetry_group_IT_number 57
_symmetry_cell_setting 'orthorhombic'
loop_
_space_group_symop_operation_xyz
x,y,z
-x,-y,1/2+z
x,1/2-y,-z
-x,1/2+y,1/2-z
-x,-y,-z
x,y,1/2-z
-x,1/2+y,z
x,1/2-y,1/2+z
loop_
_atom_site_type_symbol
_atom_site_label
_atom_site_fract_x
_atom_site_fract_y
_atom_site_fract_z
Si Si1 0.324455 0.883713 0.450135
Si Si2 0.940849 0.277806 0.141936
Si Si3 0.028037 0.987771 0.392902
Si Si4 0.721049 0.875439 0.145577
Si Si5 0.854233 0.377097 0.646698
O O1 0.551906 0.883400 0.430371
O O2 0.295179 0.895923 0.562498
O O3 0.230321 0.810277 0.420915
O O4 0.228599 0.944553 0.384831
O O5 0.895702 0.295181 0.250000
O O6 0.146752 0.310789 0.112626
O O7 0.955812 0.195890 0.122897
O O8 0.850823 0.944289 0.350511
O O9 0.023250 0.063921 0.345356
O O10 0.000000 0.000000 0.500000
O O11 0.635542 0.862482 0.250000
O O12 0.751182 0.372601 0.750000
#
# Coordination Sequence:
#
# PCOD8233061 Si02
#       5
#     8   8   8   8   8
#     4  10  20  37  61  85 113 153 195 235 283 344
#     4   9  19  37  59  84 115 150 191 238 287 340
#     4   9  20  37  57  81 114 152 191 235 285 338
#     4  10  20  36  61  88 113 148 195 239 282 341
#     4  10  20  36  57  83 118 154 187 234 291 339
#
# _framework density 21.109157
#
# number of rings (size 3 to 8) (size 9 to 14) (size 15 to 20)
#    0.000    2.400    0.000    1.800    0.000    5.600 
#    0.000   14.000    0.000   26.400    0.000    0.000 
#    0.000    0.000    0.000    0.000    0.000    0.000 
#
# Total GULP energy -495657.676153 kJ/mol
# GULP energy per Si atom -12391.441904 kJ/mol
# Density = 2.106111 g / cm^3
# Si number density = 21.109157 Si / 1000 Ang^3
#
#
#
# Elastic Constant Matrix: (Units=GPa)
#
#
# Indices 1 2 3 4 5 6 
#
# 1 80.1253 18.0940 24.6136 0.0000 0.0000 0.0000
# 2 18.0940 133.3452 7.5278 0.0000 0.0000 0.0000
# 3 24.6136 7.5278 98.0534 0.0000 0.0000 0.0000
# 4 0.0000 0.0000 0.0000 30.6119 0.0000 0.0000
# 5 0.0000 0.0000 0.0000 0.0000 27.9039 0.0000
# 6 0.0000 0.0000 0.0000 0.0000 0.0000 7.6786
#
#
#
# Elastic Compliance Matrix: (Units=1/GPa)
#
#
# Indices 1 2 3 4 5 6 
#
# 1 0.013895 -0.001696 -0.003358 0.000000 0.000000 0.000000
# 2 -0.001696 0.007739 -0.000168 0.000000 0.000000 0.000000
# 3 -0.003358 -0.000168 0.011054 0.000000 0.000000 0.000000
# 4 0.000000 0.000000 0.000000 0.032667 0.000000 0.000000
# 5 0.000000 0.000000 0.000000 0.000000 0.035837 0.000000
# 6 0.000000 0.000000 0.000000 0.000000 0.000000 0.130232
#
#
# Mechanical properties :
#
#
# Convention : Reuss Voigt Hill
#
# Bulk Modulus (GPa) = 44.95581 45.77719 45.36650
# Shear Modulus (GPa) = 20.05752 30.65812 25.35782
#
# Velocity S-wave (km/s) = 3.08584 3.81512 3.46970
# Velocity P-wave (km/s) = 5.83435 6.41404 6.13105
#
# Compressibility (1/GPa) = 0.02224407
#
# Stress axis : x y z
#
# Youngs Moduli (GPa) = 71.96900 129.21631 90.46234
#
# Poissons Ratio (x) = 0.21914 0.30375
# Poissons Ratio (y) = 0.12205 0.01524
# Poissons Ratio (z) = 0.24165 0.02176
#
# Static dielectric constant tensor:
#      x y z
#    x 3.437660 0.000000 0.000000 
#    y 0.000000 4.434750 0.000000 
#    z 0.000000 0.000000 4.324910 
# 
# 
# High freq. dielectric constant tensor:
#      x y z
#    x 1.775510 0.000000 0.000000 
#    y 0.000000 1.841660 0.000000 
#    z 0.000000 0.000000 1.842730 
# 
# From -- ./inp_files/20122.got.cif
#   From: 2010.03.12/outbox.cif.g09.slc.cpg/sg57_11_cif.got.tgz:20122.got - 2010.04.16 15:48:40.
