data_PCOD8233119
_publ_section_title
;
Structure prediction by ZEFSAII (Michael W. Deem and Ramdas Pophale) SiO2 
 PCOD8233119
Probable space group: P B C M
;
_chemical_formula_sum "Si O2"
_cell_formula_units_Z 56
_cell_length_a 15.473659
_cell_length_b 9.273575
_cell_length_c 18.882577
_cell_angle_alpha 90.000000
_cell_angle_beta 90.000000
_cell_angle_gamma 90.000000
_cell_volume 2709.576861
_symmetry_space_group_name_H-M "P B C M"
_symmetry_group_IT_number 57
_symmetry_cell_setting 'orthorhombic'
loop_
_space_group_symop_operation_xyz
x,y,z
-x,-y,1/2+z
x,1/2-y,-z
-x,1/2+y,1/2-z
-x,-y,-z
x,y,1/2-z
-x,1/2+y,z
x,1/2-y,1/2+z
loop_
_atom_site_type_symbol
_atom_site_label
_atom_site_fract_x
_atom_site_fract_y
_atom_site_fract_z
Si Si1 0.976085 0.914139 0.396510
Si Si2 0.591410 0.632090 0.050544
Si Si3 0.284224 0.461713 0.669104
Si Si4 0.602550 0.133551 0.448245
Si Si5 0.102690 0.357422 0.832012
Si Si6 0.883532 0.317020 0.565849
Si Si7 0.268962 0.701833 0.331413
O O1 0.913281 0.809677 0.351782
O O2 0.039645 0.802831 0.434729
O O3 0.918590 0.018429 0.448160
O O4 0.024992 0.033502 0.349503
O O5 0.642284 0.612966 0.123152
O O6 0.494581 0.677550 0.075338
O O7 0.635078 0.750000 0.000000
O O8 0.593926 0.500876 0.997988
O O9 0.294931 0.408553 0.750000
O O10 0.192336 0.415038 0.634722
O O11 0.295908 0.632603 0.665248
O O12 0.646168 0.250000 0.500000
O O13 0.662684 0.111045 0.378734
O O14 0.116285 0.366173 0.750000
O O15 0.827726 0.250000 0.500000
O O16 0.827945 0.317900 0.637766
O O17 0.269189 0.645913 0.250000
#
# Coordination Sequence:
#
# PCOD8233119 Si02
#       7
#     8   8   8   8   8   8   8
#     4  10  22  38  58  87 119 159 209 255 308 364
#     4  10  22  39  64  95 120 158 203 250 306 369
#     4  10  21  39  60  89 127 164 205 253 312 370
#     4  10  20  40  66  90 121 155 201 247 299 366
#     4  10  20  36  58  86 121 161 201 249 306 368
#     4  11  23  40  62  88 122 162 206 259 309 365
#     4  11  23  39  63  93 123 161 208 253 309 373
#
# _framework density 20.667432999999999
#
# number of rings (size 3 to 8) (size 9 to 14) (size 15 to 20)
#    0.000    1.714    2.857    1.286    0.000    4.571 
#    0.000    2.857    0.000    0.000    0.000    0.000 
#    0.000    0.000    0.000    0.000    0.000    0.000 
#
# Total GULP energy -693797.044947 kJ/mol
# GULP energy per Si atom -12389.232945 kJ/mol
# Density = 2.062039 g / cm^3
# Si number density = 20.667433 Si / 1000 Ang^3
#
#
#
# Elastic Constant Matrix: (Units=GPa)
#
#
# Indices 1 2 3 4 5 6 
#
# 1 88.3357 17.9450 45.9915 0.0000 0.0000 0.0000
# 2 17.9450 91.6564 19.5930 0.0000 0.0000 0.0000
# 3 45.9915 19.5930 101.9122 0.0000 0.0000 0.0000
# 4 0.0000 0.0000 0.0000 30.4583 0.0000 0.0000
# 5 0.0000 0.0000 0.0000 0.0000 35.3477 0.0000
# 6 0.0000 0.0000 0.0000 0.0000 0.0000 1.7503
#
#
#
# Elastic Compliance Matrix: (Units=1/GPa)
#
#
# Indices 1 2 3 4 5 6 
#
# 1 0.015007 -0.001554 -0.006473 0.000000 0.000000 0.000000
# 2 -0.001554 0.011539 -0.001517 0.000000 0.000000 0.000000
# 3 -0.006473 -0.001517 0.013025 0.000000 0.000000 0.000000
# 4 0.000000 0.000000 0.000000 0.032832 0.000000 0.000000
# 5 0.000000 0.000000 0.000000 0.000000 0.028290 0.000000
# 6 0.000000 0.000000 0.000000 0.000000 0.000000 0.571319
#
#
# Mechanical properties :
#
#
# Convention : Reuss Voigt Hill
#
# Bulk Modulus (GPa) = 48.82460 49.88480 49.35470
# Shear Modulus (GPa) = 7.16406 26.73625 16.95016
#
# Velocity S-wave (km/s) = 1.86383 3.60062 2.86691
# Velocity P-wave (km/s) = 5.32044 6.44013 5.90688
#
# Compressibility (1/GPa) = 0.02048148
#
# Stress axis : x y z
#
# Youngs Moduli (GPa) = 66.63754 86.66347 76.77320
#
# Poissons Ratio (x) = 0.13470 0.49699
# Poissons Ratio (y) = 0.10357 0.11646
# Poissons Ratio (z) = 0.43137 0.13147
#
# Static dielectric constant tensor:
#      x y z
#    x 3.918190 0.000000 0.000000 
#    y 0.000000 3.922760 0.000000 
#    z 0.000000 0.000000 3.726340 
# 
# 
# High freq. dielectric constant tensor:
#      x y z
#    x 1.804140 0.000000 0.000000 
#    y 0.000000 1.811280 0.000000 
#    z 0.000000 0.000000 1.804520 
# 
# From -- ./inp_files/25408.got.cif
#   From: 2010.03.12/outbox.cif.g09.slc.cpg/sg57_13_cif.got.tgz:25408.got - 2010.04.16 15:48:40.
