data_PCOD8233900
_publ_section_title
;
Structure prediction by ZEFSAII (Michael W. Deem and Ramdas Pophale) SiO2 
 PCOD8233900
Probable space group: P B C M
;
_chemical_formula_sum "Si O2"
_cell_formula_units_Z 48
_cell_length_a 14.955429
_cell_length_b 19.360105
_cell_length_c 8.811061
_cell_angle_alpha 90.000000
_cell_angle_beta 90.000000
_cell_angle_gamma 90.000000
_cell_volume 2551.142934
_symmetry_space_group_name_H-M "P B C M"
_symmetry_group_IT_number 57
_symmetry_cell_setting 'orthorhombic'
loop_
_space_group_symop_operation_xyz
x,y,z
-x,-y,1/2+z
x,1/2-y,-z
-x,1/2+y,1/2-z
-x,-y,-z
x,y,1/2-z
-x,1/2+y,z
x,1/2-y,1/2+z
loop_
_atom_site_type_symbol
_atom_site_label
_atom_site_fract_x
_atom_site_fract_y
_atom_site_fract_z
Si Si1 0.066877 0.321373 0.427980
Si Si2 0.228115 0.087858 0.569874
Si Si3 0.607133 0.823907 0.073547
Si Si4 0.863407 0.177171 0.570306
Si Si5 0.733818 0.434498 0.569262
Si Si6 0.543961 0.067113 0.927834
O O1 0.099514 0.250000 0.500000
O O2 0.074888 0.311572 0.250000
O O3 0.132557 0.382214 0.484994
O O4 0.965804 0.339444 0.475678
O O5 0.235215 0.086084 0.750000
O O6 0.307651 0.135521 0.503770
O O7 0.239050 0.010296 0.508279
O O8 0.622847 0.812530 0.250000
O O9 0.518500 0.867495 0.040613
O O10 0.595573 0.750000 0.000000
O O11 0.833460 0.250000 0.500000
O O12 0.849458 0.179601 0.750000
O O13 0.805085 0.117859 0.497246
O O14 0.733386 0.430225 0.750000
O O15 0.636865 0.414947 0.507348
O O16 0.557736 0.053924 0.750000
O O17 0.500000 0.000000 0.000000
#
# Coordination Sequence:
#
# PCOD8233900 Si02
#       6
#     8   8   8   8   8   8
#     4   9  18  34  57  81 113 151 189 234 284 338
#     4   9  18  35  56  82 116 151 184 228 286 341
#     4  10  21  37  57  84 115 147 186 231 281 337
#     4  10  21  38  58  84 113 148 193 240 286 339
#     4  11  22  38  60  84 114 153 190 235 292 344
#     4  11  22  39  60  83 114 152 194 238 286 344
#
# _framework density 18.815094999999999
#
# number of rings (size 3 to 8) (size 9 to 14) (size 15 to 20)
#    0.000    2.000    1.667    2.000    0.000    3.333 
#    0.000    3.333    0.000    0.000    0.000    0.000 
#    0.000    0.000    0.000    0.000    0.000    0.000 
#
# Total GULP energy -595290.570825 kJ/mol
# GULP energy per Si atom -12401.886892 kJ/mol
# Density = 1.877227 g / cm^3
# Si number density = 18.815095 Si / 1000 Ang^3
#
#
#
# Elastic Constant Matrix: (Units=GPa)
#
#
# Indices 1 2 3 4 5 6 
#
# 1 132.7306 87.4441 47.3337 0.0000 0.0000 0.0000
# 2 87.4441 168.3344 56.7316 0.0000 0.0000 0.0000
# 3 47.3337 56.7316 64.4645 0.0000 0.0000 0.0000
# 4 0.0000 0.0000 0.0000 33.1816 0.0000 0.0000
# 5 0.0000 0.0000 0.0000 0.0000 26.6484 0.0000
# 6 0.0000 0.0000 0.0000 0.0000 0.0000 48.4053
#
#
#
# Elastic Compliance Matrix: (Units=1/GPa)
#
#
# Indices 1 2 3 4 5 6 
#
# 1 0.012458 -0.004818 -0.004908 0.000000 0.000000 0.000000
# 2 -0.004818 0.010308 -0.005534 0.000000 0.000000 0.000000
# 3 -0.004908 -0.005534 0.023987 0.000000 0.000000 0.000000
# 4 0.000000 0.000000 0.000000 0.030137 0.000000 0.000000
# 5 0.000000 0.000000 0.000000 0.000000 0.037526 0.000000
# 6 0.000000 0.000000 0.000000 0.000000 0.000000 0.020659
#
#
# Mechanical properties :
#
#
# Convention : Reuss Voigt Hill
#
# Bulk Modulus (GPa) = 61.60148 83.17201 72.38674
# Shear Modulus (GPa) = 29.23883 33.24841 31.24362
#
# Velocity S-wave (km/s) = 3.94637 4.20827 4.07942
# Velocity P-wave (km/s) = 7.31961 8.24097 7.79391
#
# Compressibility (1/GPa) = 0.01623338
#
# Stress axis : x y z
#
# Youngs Moduli (GPa) = 80.26904 97.00913 41.68995
#
# Poissons Ratio (x) = 0.46735 0.20461
# Poissons Ratio (y) = 0.38670 0.23073
# Poissons Ratio (z) = 0.39395 0.53689
#
# Static dielectric constant tensor:
#      x y z
#    x 3.664860 0.000000 0.000000 
#    y 0.000000 2.319180 0.000000 
#    z 0.000000 0.000000 3.450800 
# 
# 
# High freq. dielectric constant tensor:
#      x y z
#    x 1.743700 0.000000 0.000000 
#    y 0.000000 1.736990 0.000000 
#    z 0.000000 0.000000 1.720790 
# 
# From -- ./inp_files/4627.got.cif
#   From: 2010.03.12/outbox.cif.g09.slc.cpg/sg57_3_cif.got.tgz:4627.got - 2010.04.16 15:48:40.
