data_PCOD8233767
_publ_section_title
;
Structure prediction by ZEFSAII (Michael W. Deem and Ramdas Pophale) SiO2 
 PCOD8233767
Probable space group: P B C M
;
_chemical_formula_sum "Si O2"
_cell_formula_units_Z 64
_cell_length_a 11.473210
_cell_length_b 29.795669
_cell_length_c 9.508884
_cell_angle_alpha 90.000000
_cell_angle_beta 90.000000
_cell_angle_gamma 90.000000
_cell_volume 3250.630704
_symmetry_space_group_name_H-M "P B C M"
_symmetry_group_IT_number 57
_symmetry_cell_setting 'orthorhombic'
loop_
_space_group_symop_operation_xyz
x,y,z
-x,-y,1/2+z
x,1/2-y,-z
-x,1/2+y,1/2-z
-x,-y,-z
x,y,1/2-z
-x,1/2+y,z
x,1/2-y,1/2+z
loop_
_atom_site_type_symbol
_atom_site_label
_atom_site_fract_x
_atom_site_fract_y
_atom_site_fract_z
Si Si1 0.515714 0.139588 0.912493
Si Si2 0.174406 0.980936 0.087003
Si Si3 0.355200 0.792109 0.590720
Si Si4 0.690564 0.706247 0.588134
Si Si5 0.924493 0.842558 0.090354
Si Si6 0.435271 0.961401 0.413904
Si Si7 0.920087 0.290932 0.907304
Si Si8 0.929128 0.944127 0.091114
O O1 0.555106 0.145475 0.750000
O O2 0.394115 0.164332 0.943059
O O3 0.507232 0.086841 0.949829
O O4 0.610876 0.161886 0.014296
O O5 0.174857 0.993025 0.250000
O O6 0.298125 0.959079 0.044101
O O7 0.066357 0.947995 0.048409
O O8 0.156473 0.027316 0.005476
O O9 0.403528 0.750000 0.500000
O O10 0.405823 0.789292 0.750000
O O11 0.217421 0.791541 0.596428
O O12 0.654664 0.750000 0.500000
O O13 0.683906 0.720303 0.750000
O O14 0.818614 0.689606 0.546110
O O15 0.965836 0.833042 0.250000
O O16 0.884944 0.893667 0.074934
O O17 0.031490 0.835206 0.983637
O O18 0.450576 0.972736 0.250000
O O19 0.500000 0.000000 0.500000
O O20 0.970954 0.287094 0.750000
O O21 0.968550 0.250000 0.000000
O O22 0.913370 0.961443 0.250000
#
# Coordination Sequence:
#
# PCOD8233767 Si02
#       8
#     8   8   8   8   8   8   8   8
#     4  10  22  39  61  85 113 151 195 241 289 345
#     4   9  19  37  57  84 117 147 187 234 290 345
#     4  10  21  37  58  86 118 151 190 236 286 344
#     4  10  22  39  57  83 114 149 193 238 286 341
#     4  10  21  35  57  84 112 147 192 235 281 343
#     4  10  23  40  61  87 118 154 193 242 294 346
#     4  10  21  36  54  80 114 148 183 226 279 335
#     4   9  19  35  59  86 112 149 188 232 285 344
#
# _framework density 19.688486999999999
#
# number of rings (size 3 to 8) (size 9 to 14) (size 15 to 20)
#    0.000    2.250    0.000    1.500    3.500    6.000 
#    0.000    0.000    0.000    0.000    0.000    0.000 
#    0.000    0.000    0.000    0.000    0.000    0.000 
#
# Total GULP energy -793592.063259 kJ/mol
# GULP energy per Si atom -12399.875988 kJ/mol
# Density = 1.964367 g / cm^3
# Si number density = 19.688487 Si / 1000 Ang^3
#
#
#
# Elastic Constant Matrix: (Units=GPa)
#
#
# Indices 1 2 3 4 5 6 
#
# 1 57.5808 41.0801 38.2697 0.0000 0.0000 0.0000
# 2 41.0801 127.5196 65.7573 0.0000 0.0000 0.0000
# 3 38.2697 65.7573 106.7420 0.0000 0.0000 0.0000
# 4 0.0000 0.0000 0.0000 36.6422 0.0000 0.0000
# 5 0.0000 0.0000 0.0000 0.0000 28.5841 0.0000
# 6 0.0000 0.0000 0.0000 0.0000 0.0000 30.5531
#
#
#
# Elastic Compliance Matrix: (Units=1/GPa)
#
#
# Indices 1 2 3 4 5 6 
#
# 1 0.024790 -0.004987 -0.005816 0.000000 0.000000 0.000000
# 2 -0.004987 0.012496 -0.005910 0.000000 0.000000 0.000000
# 3 -0.005816 -0.005910 0.015094 0.000000 0.000000 0.000000
# 4 0.000000 0.000000 0.000000 0.027291 0.000000 0.000000
# 5 0.000000 0.000000 0.000000 0.000000 0.034984 0.000000
# 6 0.000000 0.000000 0.000000 0.000000 0.000000 0.032730
#
#
# Mechanical properties :
#
#
# Convention : Reuss Voigt Hill
#
# Bulk Modulus (GPa) = 52.75700 64.67295 58.71498
# Shear Modulus (GPa) = 26.71941 28.93823 27.82882
#
# Velocity S-wave (km/s) = 3.68789 3.83796 3.76368
# Velocity P-wave (km/s) = 6.70732 7.24978 6.98382
#
# Compressibility (1/GPa) = 0.01895483
#
# Stress axis : x y z
#
# Youngs Moduli (GPa) = 40.33866 80.02452 66.25036
#
# Poissons Ratio (x) = 0.39910 0.38528
# Poissons Ratio (y) = 0.20118 0.39155
# Poissons Ratio (z) = 0.23459 0.47295
#
# Static dielectric constant tensor:
#      x y z
#    x 3.560410 0.000000 0.000000 
#    y 0.000000 3.538650 0.000000 
#    z 0.000000 0.000000 3.721620 
# 
# 
# High freq. dielectric constant tensor:
#      x y z
#    x 1.766830 0.000000 0.000000 
#    y 0.000000 1.763480 0.000000 
#    z 0.000000 0.000000 1.767010 
# 
# From -- ./inp_files/3799.got.cif
#   From: 2010.03.12/outbox.cif.g09.slc.cpg/sg57_2_cif.got.tgz:3799.got - 2010.04.16 15:48:40.
