data_PCOD8233193
_publ_section_title
;
Structure prediction by ZEFSAII (Michael W. Deem and Ramdas Pophale) SiO2 
 PCOD8233193
Probable space group: P B C M
;
_chemical_formula_sum "Si O2"
_cell_formula_units_Z 64
_cell_length_a 22.414194
_cell_length_b 9.307385
_cell_length_c 14.025058
_cell_angle_alpha 90.000000
_cell_angle_beta 90.000000
_cell_angle_gamma 90.000000
_cell_volume 2925.873000
_symmetry_space_group_name_H-M "P B C M"
_symmetry_group_IT_number 57
_symmetry_cell_setting 'orthorhombic'
loop_
_space_group_symop_operation_xyz
x,y,z
-x,-y,1/2+z
x,1/2-y,-z
-x,1/2+y,1/2-z
-x,-y,-z
x,y,1/2-z
-x,1/2+y,z
x,1/2-y,1/2+z
loop_
_atom_site_type_symbol
_atom_site_label
_atom_site_fract_x
_atom_site_fract_y
_atom_site_fract_z
Si Si1 0.307451 0.900656 0.522702
Si Si2 0.536053 0.015165 0.640692
Si Si3 0.572885 0.170797 0.134975
Si Si4 0.340159 0.400014 0.641072
Si Si5 0.262248 0.137958 0.853964
Si Si6 0.919814 0.401810 0.520257
Si Si7 0.133743 0.322303 0.401072
Si Si8 0.963709 0.600544 0.141291
O O1 0.275730 0.750000 0.500000
O O2 0.366291 0.878855 0.586334
O O3 0.319372 0.964907 0.419225
O O4 0.261169 0.000294 0.578342
O O5 0.522270 0.048455 0.750000
O O6 0.554994 0.169620 0.595853
O O7 0.476376 0.944177 0.597067
O O8 0.588058 0.894181 0.631406
O O9 0.579594 0.170160 0.250000
O O10 0.320346 0.428232 0.750000
O O11 0.308430 0.255305 0.603029
O O12 0.286241 0.094397 0.750000
O O13 0.194712 0.195014 0.842064
O O14 0.886255 0.250000 0.500000
O O15 0.881711 0.509451 0.585744
O O16 0.932399 0.472029 0.416783
O O17 0.978477 0.357096 0.580341
O O18 0.148452 0.250000 0.500000
O O19 0.078695 0.240960 0.351453
O O20 0.978454 0.551623 0.250000
#
# Coordination Sequence:
#
# PCOD8233193 Si02
#       8
#     8   8   8   8   8   8   8   8
#     4  12  24  40  62  92 124 162 202 256 315 372
#     4   9  19  36  59  88 124 162 201 249 304 364
#     4  10  21  38  60  91 127 164 205 252 310 372
#     4  10  22  42  63  87 121 162 209 256 306 364
#     4  11  25  44  68  92 118 160 211 260 308 370
#     4  10  21  36  58  93 131 165 204 256 310 362
#     4  10  21  40  64  91 126 166 210 254 303 370
#     4  10  20  36  60  90 128 172 213 254 303 360
#
# _framework density 21.873813999999999
#
# number of rings (size 3 to 8) (size 9 to 14) (size 15 to 20)
#    0.000    1.750    1.250    3.750    1.750    4.000 
#    0.000    0.000    0.000    0.000    0.000    0.000 
#    0.000    0.000    0.000    0.000    0.000    0.000 
#
# Total GULP energy -793323.671113 kJ/mol
# GULP energy per Si atom -12395.682361 kJ/mol
# Density = 2.182403 g / cm^3
# Si number density = 21.873814 Si / 1000 Ang^3
#
#
#
# Elastic Constant Matrix: (Units=GPa)
#
#
# Indices 1 2 3 4 5 6 
#
# 1 80.4732 35.9039 10.1664 0.0000 0.0000 0.0000
# 2 35.9039 133.7956 31.7366 0.0000 0.0000 0.0000
# 3 10.1664 31.7366 87.9492 0.0000 0.0000 0.0000
# 4 0.0000 0.0000 0.0000 29.5554 0.0000 0.0000
# 5 0.0000 0.0000 0.0000 0.0000 21.9442 0.0000
# 6 0.0000 0.0000 0.0000 0.0000 0.0000 24.7527
#
#
#
# Elastic Compliance Matrix: (Units=1/GPa)
#
#
# Indices 1 2 3 4 5 6 
#
# 1 0.014123 -0.003721 -0.000290 0.000000 0.000000 0.000000
# 2 -0.003721 0.009154 -0.002873 0.000000 0.000000 0.000000
# 3 -0.000290 -0.002873 0.012440 0.000000 0.000000 0.000000
# 4 0.000000 0.000000 0.000000 0.033835 0.000000 0.000000
# 5 0.000000 0.000000 0.000000 0.000000 0.045570 0.000000
# 6 0.000000 0.000000 0.000000 0.000000 0.000000 0.040400
#
#
# Mechanical properties :
#
#
# Convention : Reuss Voigt Hill
#
# Bulk Modulus (GPa) = 45.55866 50.87020 48.21443
# Shear Modulus (GPa) = 28.31138 30.21121 29.26129
#
# Velocity S-wave (km/s) = 3.60155 3.72043 3.66147
# Velocity P-wave (km/s) = 6.17803 6.46236 6.32179
#
# Compressibility (1/GPa) = 0.02194972
#
# Stress axis : x y z
#
# Youngs Moduli (GPa) = 70.80459 109.23948 80.38278
#
# Poissons Ratio (x) = 0.40651 0.02329
# Poissons Ratio (y) = 0.26348 0.23095
# Poissons Ratio (z) = 0.02052 0.31386
#
# Static dielectric constant tensor:
#      x y z
#    x 3.756320 0.000000 0.000000 
#    y 0.000000 4.099140 0.000000 
#    z 0.000000 0.000000 3.931120 
# 
# 
# High freq. dielectric constant tensor:
#      x y z
#    x 1.839350 0.000000 0.000000 
#    y 0.000000 1.859510 0.000000 
#    z 0.000000 0.000000 1.868220 
# 
# From -- ./inp_files/19497.got.cif
#   From: 2010.03.12/outbox.cif.g09.slc.cpg/sg57_10_cif.got.tgz:19497.got - 2010.04.16 15:48:40.
