data_PCOD8233159
_publ_section_title
;
Structure prediction by ZEFSAII (Michael W. Deem and Ramdas Pophale) SiO2 
 PCOD8233159
Probable space group: P B C M
;
_chemical_formula_sum "Si O2"
_cell_formula_units_Z 64
_cell_length_a 23.573827
_cell_length_b 15.480993
_cell_length_c 8.933524
_cell_angle_alpha 90.000000
_cell_angle_beta 90.000000
_cell_angle_gamma 90.000000
_cell_volume 3260.256090
_symmetry_space_group_name_H-M "P B C M"
_symmetry_group_IT_number 57
_symmetry_cell_setting 'orthorhombic'
loop_
_space_group_symop_operation_xyz
x,y,z
-x,-y,1/2+z
x,1/2-y,-z
-x,1/2+y,1/2-z
-x,-y,-z
x,y,1/2-z
-x,1/2+y,z
x,1/2-y,1/2+z
loop_
_atom_site_type_symbol
_atom_site_label
_atom_site_fract_x
_atom_site_fract_y
_atom_site_fract_z
Si Si1 0.554150 0.338108 0.426634
Si Si2 0.434118 0.338081 0.573303
Si Si3 0.243126 0.990802 0.925961
Si Si4 0.934817 0.591079 0.574622
Si Si5 0.362138 0.505886 0.576658
Si Si6 0.180641 0.163847 0.573866
Si Si7 0.176572 0.836650 0.423085
Si Si8 0.940801 0.411284 0.077923
O O1 0.578413 0.250000 0.500000
O O2 0.546282 0.324674 0.250000
O O3 0.494108 0.361690 0.499808
O O4 0.596173 0.415952 0.463503
O O5 0.409791 0.250000 0.500000
O O6 0.442358 0.325162 0.750000
O O7 0.391182 0.415115 0.536976
O O8 0.237150 0.976777 0.750000
O O9 0.219525 0.083842 0.976160
O O10 0.307982 0.983019 0.972900
O O11 0.206364 0.918727 0.006671
O O12 0.926434 0.585793 0.750000
O O13 0.883852 0.650143 0.511497
O O14 0.926323 0.494558 0.517791
O O15 0.997380 0.627398 0.529919
O O16 0.344111 0.509200 0.750000
O O17 0.205872 0.250000 0.500000
O O18 0.182228 0.176340 0.750000
O O19 0.199408 0.750000 0.500000
O O20 0.192795 0.832731 0.250000
O O21 0.108494 0.841490 0.448059
O O22 0.943517 0.440916 0.250000
#
# Coordination Sequence:
#
# PCOD8233159 Si02
#       8
#     8   8   8   8   8   8   8   8
#     4  10  20  36  59  88 121 153 188 229 280 335
#     4  10  20  36  59  88 122 156 191 232 282 334
#     4  11  24  42  61  83 112 151 197 245 293 338
#     4   9  17  33  55  81 115 145 181 231 283 344
#     4  10  23  40  59  84 116 155 194 237 285 338
#     4  10  22  38  58  83 112 148 189 236 288 343
#     4  11  23  39  60  85 114 149 192 237 290 350
#     4   9  18  32  55  84 111 146 183 226 286 345
#
# _framework density 19.63036
#
# number of rings (size 3 to 8) (size 9 to 14) (size 15 to 20)
#    0.000    2.000    1.250    2.625    0.000    5.500 
#    0.000    3.750    0.000    0.000    0.000    0.000 
#    0.000    0.000    0.000    0.000    0.000    0.000 
#
# Total GULP energy -793570.697924 kJ/mol
# GULP energy per Si atom -12399.542155 kJ/mol
# Density = 1.958568 g / cm^3
# Si number density = 19.630360 Si / 1000 Ang^3
#
#
#
# Elastic Constant Matrix: (Units=GPa)
#
#
# Indices 1 2 3 4 5 6 
#
# 1 71.3074 22.8875 35.6228 0.0000 0.0000 0.0000
# 2 22.8875 87.2731 41.1488 0.0000 0.0000 0.0000
# 3 35.6228 41.1488 76.4059 0.0000 0.0000 0.0000
# 4 0.0000 0.0000 0.0000 33.0154 0.0000 0.0000
# 5 0.0000 0.0000 0.0000 0.0000 23.9238 0.0000
# 6 0.0000 0.0000 0.0000 0.0000 0.0000 7.0585
#
#
#
# Elastic Compliance Matrix: (Units=1/GPa)
#
#
# Indices 1 2 3 4 5 6 
#
# 1 0.018353 -0.001044 -0.007994 0.000000 0.000000 0.000000
# 2 -0.001044 0.015417 -0.007817 0.000000 0.000000 0.000000
# 3 -0.007994 -0.007817 0.021025 0.000000 0.000000 0.000000
# 4 0.000000 0.000000 0.000000 0.030289 0.000000 0.000000
# 5 0.000000 0.000000 0.000000 0.000000 0.041799 0.000000
# 6 0.000000 0.000000 0.000000 0.000000 0.000000 0.141674
#
#
# Mechanical properties :
#
#
# Convention : Reuss Voigt Hill
#
# Bulk Modulus (GPa) = 47.42582 48.25606 47.84094
# Shear Modulus (GPa) = 16.16582 21.82135 18.99359
#
# Velocity S-wave (km/s) = 2.87280 3.33770 3.11394
# Velocity P-wave (km/s) = 5.93430 6.28406 6.11168
#
# Compressibility (1/GPa) = 0.02108556
#
# Stress axis : x y z
#
# Youngs Moduli (GPa) = 54.48834 64.86159 47.56260
#
# Poissons Ratio (x) = 0.06769 0.38024
# Poissons Ratio (y) = 0.05687 0.37178
# Poissons Ratio (z) = 0.43561 0.50700
#
# Static dielectric constant tensor:
#      x y z
#    x 3.705930 0.000000 0.000000 
#    y 0.000000 3.611130 0.000000 
#    z 0.000000 0.000000 3.495570 
# 
# 
# High freq. dielectric constant tensor:
#      x y z
#    x 1.765970 0.000000 0.000000 
#    y 0.000000 1.765380 0.000000 
#    z 0.000000 0.000000 1.767670 
# 
# From -- ./inp_files/9255.got.cif
#   From: 2010.03.12/outbox.cif.g09.slc.cpg/sg57_5_cif.got.tgz:9255.got - 2010.04.16 15:48:40.
