data_PCOD8233397
_publ_section_title
;
Structure prediction by ZEFSAII (Michael W. Deem and Ramdas Pophale) SiO2 
 PCOD8233397
Probable space group: P B C M
;
_chemical_formula_sum "Si O2"
_cell_formula_units_Z 40
_cell_length_a 12.536667
_cell_length_b 17.872392
_cell_length_c 8.633508
_cell_angle_alpha 90.000000
_cell_angle_beta 90.000000
_cell_angle_gamma 90.000000
_cell_volume 1934.425762
_symmetry_space_group_name_H-M "P B C M"
_symmetry_group_IT_number 57
_symmetry_cell_setting 'orthorhombic'
loop_
_space_group_symop_operation_xyz
x,y,z
-x,-y,1/2+z
x,1/2-y,-z
-x,1/2+y,1/2-z
-x,-y,-z
x,y,1/2-z
-x,1/2+y,z
x,1/2-y,1/2+z
loop_
_atom_site_type_symbol
_atom_site_label
_atom_site_fract_x
_atom_site_fract_y
_atom_site_fract_z
Si Si1 0.520100 0.081215 0.067008
Si Si2 0.879084 0.574476 0.930121
Si Si3 0.674339 0.669475 0.932800
Si Si4 0.707100 0.329570 0.068159
Si Si5 0.902324 0.402893 0.929629
O O1 0.517458 0.076598 0.250000
O O2 0.433754 0.140399 0.008420
O O3 0.636207 0.106853 0.011960
O O4 0.500000 0.000000 0.000000
O O5 0.905062 0.585397 0.750000
O O6 0.769546 0.613698 0.978803
O O7 0.869073 0.487383 0.972649
O O8 0.974750 0.611815 0.026852
O O9 0.658152 0.674159 0.750000
O O10 0.703369 0.750000 0.000000
O O11 0.687239 0.329367 0.250000
O O12 0.673027 0.250000 0.000000
O O13 0.830087 0.346884 0.029475
O O14 0.884512 0.385114 0.750000
#
# Coordination Sequence:
#
# PCOD8233397 Si02
#       5
#     8   8   8   8   8
#     4  12  25  43  66  92 121 156 200 246 298 358
#     4   9  20  38  60  86 120 161 204 249 297 354
#     4  11  23  40  61  88 123 161 202 249 302 358
#     4  12  25  42  63  89 123 161 202 249 303 359
#     4  10  20  37  62  90 120 157 204 253 300 355
#
# _framework density 20.677970999999999
#
# number of rings (size 3 to 8) (size 9 to 14) (size 15 to 20)
#    0.000    1.200    0.000    6.600    0.000    4.800 
#    0.000    2.000    0.000    0.000    0.000    0.000 
#    0.000    0.000    0.000    0.000    0.000    0.000 
#
# Total GULP energy -496334.878892 kJ/mol
# GULP energy per Si atom -12408.371972 kJ/mol
# Density = 2.063091 g / cm^3
# Si number density = 20.677971 Si / 1000 Ang^3
#
#
#
# Elastic Constant Matrix: (Units=GPa)
#
#
# Indices 1 2 3 4 5 6 
#
# 1 87.4876 15.6447 38.5395 0.0000 0.0000 0.0000
# 2 15.6447 71.3614 35.5026 0.0000 0.0000 0.0000
# 3 38.5395 35.5026 132.3220 0.0000 0.0000 0.0000
# 4 0.0000 0.0000 0.0000 37.7176 0.0000 0.0000
# 5 0.0000 0.0000 0.0000 0.0000 40.7304 0.0000
# 6 0.0000 0.0000 0.0000 0.0000 0.0000 30.5606
#
#
#
# Elastic Compliance Matrix: (Units=1/GPa)
#
#
# Indices 1 2 3 4 5 6 
#
# 1 0.013191 -0.001132 -0.003538 0.000000 0.000000 0.000000
# 2 -0.001132 0.016269 -0.004035 0.000000 0.000000 0.000000
# 3 -0.003538 -0.004035 0.009671 0.000000 0.000000 0.000000
# 4 0.000000 0.000000 0.000000 0.026513 0.000000 0.000000
# 5 0.000000 0.000000 0.000000 0.000000 0.024552 0.000000
# 6 0.000000 0.000000 0.000000 0.000000 0.000000 0.032722
#
#
# Mechanical properties :
#
#
# Convention : Reuss Voigt Hill
#
# Bulk Modulus (GPa) = 46.04067 52.28274 49.16170
# Shear Modulus (GPa) = 33.88267 35.23400 34.55833
#
# Velocity S-wave (km/s) = 4.05234 4.13236 4.09254
# Velocity P-wave (km/s) = 6.64900 6.93597 6.79400
#
# Compressibility (1/GPa) = 0.02171993
#
# Stress axis : x y z
#
# Youngs Moduli (GPa) = 75.80769 61.46694 103.40583
#
# Poissons Ratio (x) = 0.06955 0.36589
# Poissons Ratio (y) = 0.08578 0.41729
# Poissons Ratio (z) = 0.26824 0.24805
#
# Static dielectric constant tensor:
#      x y z
#    x 3.814600 0.000000 0.000000 
#    y 0.000000 3.793470 0.000000 
#    z 0.000000 0.000000 3.807180 
# 
# 
# High freq. dielectric constant tensor:
#      x y z
#    x 1.821280 0.000000 0.000000 
#    y 0.000000 1.811580 0.000000 
#    z 0.000000 0.000000 1.819490 
# 
# From -- ./inp_files/2624.got.cif
#   From: 2010.03.12/outbox.cif.g09.slc.cpg/sg57_2_cif.got.tgz:2624.got - 2010.04.16 15:48:40.
