data_PCOD8233192
_publ_section_title
;
Structure prediction by ZEFSAII (Michael W. Deem and Ramdas Pophale) SiO2 
 PCOD8233192
Probable space group: P B C M
;
_chemical_formula_sum "Si O2"
_cell_formula_units_Z 64
_cell_length_a 22.751108
_cell_length_b 9.138981
_cell_length_c 14.577512
_cell_angle_alpha 90.000000
_cell_angle_beta 90.000000
_cell_angle_gamma 90.000000
_cell_volume 3030.984630
_symmetry_space_group_name_H-M "P B C M"
_symmetry_group_IT_number 57
_symmetry_cell_setting 'orthorhombic'
loop_
_space_group_symop_operation_xyz
x,y,z
-x,-y,1/2+z
x,1/2-y,-z
-x,1/2+y,1/2-z
-x,-y,-z
x,y,1/2-z
-x,1/2+y,z
x,1/2-y,1/2+z
loop_
_atom_site_type_symbol
_atom_site_label
_atom_site_fract_x
_atom_site_fract_y
_atom_site_fract_z
Si Si1 0.313311 0.403130 0.467982
Si Si2 0.571306 0.676783 0.640014
Si Si3 0.258238 0.632784 0.348470
Si Si4 0.463361 0.007041 0.146416
Si Si5 0.644222 0.348287 0.414942
Si Si6 0.077219 0.402969 0.020302
Si Si7 0.132373 0.819716 0.903657
Si Si8 0.035380 0.597198 0.642547
O O1 0.285063 0.250000 0.500000
O O2 0.366809 0.376046 0.398703
O O3 0.263482 0.501855 0.420738
O O4 0.333792 0.491232 0.556860
O O5 0.574957 0.679110 0.750000
O O6 0.522461 0.561905 0.602536
O O7 0.555850 0.839004 0.599517
O O8 0.272619 0.565071 0.250000
O O9 0.303501 0.765654 0.363355
O O10 0.192070 0.694500 0.346381
O O11 0.478755 0.046114 0.250000
O O12 0.412947 0.881290 0.146092
O O13 0.623492 0.250000 0.500000
O O14 0.116152 0.510668 0.081643
O O15 0.021855 0.357478 0.084457
O O16 0.110715 0.250000 0.000000
O O17 0.062970 0.467631 0.919003
O O18 0.078832 0.737053 0.853809
O O19 0.146994 0.750000 0.000000
O O20 0.023267 0.550844 0.750000
#
# Coordination Sequence:
#
# PCOD8233192 Si02
#       8
#     8   8   8   8   8   8   8   8
#     4  11  22  40  60  86 119 152 194 247 305 355
#     4  10  22  37  57  85 118 157 195 238 297 361
#     4  11  24  42  65  88 114 155 204 249 296 361
#     4  10  21  37  56  83 117 153 193 241 296 355
#     4  10  22  38  59  85 112 152 197 244 297 354
#     4  10  21  36  58  92 129 164 201 254 312 354
#     4  10  21  40  63  89 123 163 206 248 299 359
#     4  10  20  36  60  90 127 169 211 251 297 362
#
# _framework density 21.11525
#
# number of rings (size 3 to 8) (size 9 to 14) (size 15 to 20)
#    0.000    1.750    1.250    4.125    3.500    4.000 
#    0.000    0.000    0.000    0.000    0.000    0.000 
#    0.000    0.000    0.000    0.000    0.000    0.000 
#
# Total GULP energy -793183.674381 kJ/mol
# GULP energy per Si atom -12393.494912 kJ/mol
# Density = 2.106719 g / cm^3
# Si number density = 21.115250 Si / 1000 Ang^3
#
#
#
# Elastic Constant Matrix: (Units=GPa)
#
#
# Indices 1 2 3 4 5 6 
#
# 1 89.4008 25.0508 11.2846 0.0000 0.0000 0.0000
# 2 25.0508 109.2834 11.1051 0.0000 0.0000 0.0000
# 3 11.2846 11.1051 81.9474 0.0000 0.0000 0.0000
# 4 0.0000 0.0000 0.0000 20.3759 0.0000 0.0000
# 5 0.0000 0.0000 0.0000 0.0000 -12.7556 0.0000
# 6 0.0000 0.0000 0.0000 0.0000 0.0000 23.7543
#
#
#
# Elastic Compliance Matrix: (Units=1/GPa)
#
#
# Indices 1 2 3 4 5 6 
#
# 1 0.012090 -0.002639 -0.001307 0.000000 0.000000 0.000000
# 2 -0.002639 0.009854 -0.000972 0.000000 0.000000 0.000000
# 3 -0.001307 -0.000972 0.012515 0.000000 0.000000 0.000000
# 4 0.000000 0.000000 0.000000 0.049078 0.000000 0.000000
# 5 0.000000 0.000000 0.000000 0.000000 -0.078397 0.000000
# 6 0.000000 0.000000 0.000000 0.000000 0.000000 0.042098
#
#
# Mechanical properties :
#
#
# Convention : Reuss Voigt Hill
#
# Bulk Modulus (GPa) = 40.61235 41.72363 41.16799
# Shear Modulus (GPa) = 76.59241 21.82099 49.20670
#
# Velocity S-wave (km/s) = 6.02928 3.21818 4.83264
# Velocity P-wave (km/s) = 8.23074 5.79756 7.11888
#
# Compressibility (1/GPa) = 0.02462305
#
# Stress axis : x y z
#
# Youngs Moduli (GPa) = 82.71356 101.48041 79.90609
#
# Poissons Ratio (x) = 0.26776 0.10446
# Poissons Ratio (y) = 0.21824 0.07767
# Poissons Ratio (z) = 0.10813 0.09864
#
# Static dielectric constant tensor:
#      x y z
#    x 3.628930 0.000000 0.000000 
#    y 0.000000 4.050480 0.000000 
#    z 0.000000 0.000000 3.762340 
# 
# 
# High freq. dielectric constant tensor:
#      x y z
#    x 1.810790 0.000000 0.000000 
#    y 0.000000 1.835350 0.000000 
#    z 0.000000 0.000000 1.824600 
# 
# From -- ./inp_files/19540.got.cif
#   From: 2010.03.12/outbox.cif.g09.slc.cpg/sg57_10_cif.got.tgz:19540.got - 2010.04.16 15:48:40.
