data_PCOD8233244
_publ_section_title
;
Structure prediction by ZEFSAII (Michael W. Deem and Ramdas Pophale) SiO2 
 PCOD8233244
Probable space group: P B C M
;
_chemical_formula_sum "Si O2"
_cell_formula_units_Z 48
_cell_length_a 8.556032
_cell_length_b 20.443485
_cell_length_c 13.568205
_cell_angle_alpha 90.000000
_cell_angle_beta 90.000000
_cell_angle_gamma 90.000000
_cell_volume 2373.284095
_symmetry_space_group_name_H-M "P B C M"
_symmetry_group_IT_number 57
_symmetry_cell_setting 'orthorhombic'
loop_
_space_group_symop_operation_xyz
x,y,z
-x,-y,1/2+z
x,1/2-y,-z
-x,1/2+y,1/2-z
-x,-y,-z
x,y,1/2-z
-x,1/2+y,z
x,1/2-y,1/2+z
loop_
_atom_site_type_symbol
_atom_site_label
_atom_site_fract_x
_atom_site_fract_y
_atom_site_fract_z
Si Si1 0.690338 0.545640 0.017253
Si Si2 0.496216 0.147822 0.138200
Si Si3 0.727638 0.173716 0.517951
Si Si4 0.776657 0.741934 0.137633
Si Si5 0.425576 0.931645 0.368006
Si Si6 0.082521 0.151188 0.507225
O O1 0.611665 0.590454 0.099462
O O2 0.702637 0.475026 0.070687
O O3 0.592479 0.546503 0.914455
O O4 0.862146 0.575566 0.995700
O O5 0.536357 0.133758 0.250000
O O6 0.401706 0.216396 0.124089
O O7 0.662124 0.144043 0.083450
O O8 0.709170 0.250000 0.500000
O O9 0.620960 0.144030 0.607403
O O10 0.904530 0.153594 0.541374
O O11 0.819307 0.754454 0.250000
O O12 0.799704 0.810351 0.081136
O O13 0.900115 0.687815 0.097779
O O14 0.425984 0.942509 0.250000
#
# Coordination Sequence:
#
# PCOD8233244 Si02
#       6
#     8   8   8   8   8   8
#     4   9  20  39  65  86 114 153 200 251 298 345
#     4   9  19  34  58  84 112 150 197 243 290 347
#     4  11  23  37  54  86 125 157 188 240 297 353
#     4   9  18  33  55  81 110 153 197 235 279 337
#     4  10  22  40  63  89 116 153 201 250 296 351
#     4  10  20  37  55  82 123 154 190 241 292 354
#
# _framework density 20.22514
#
# number of rings (size 3 to 8) (size 9 to 14) (size 15 to 20)
#    0.000    2.333    1.667    0.500    7.000    4.000 
#    0.000    0.000    0.000    0.000    0.000    0.000 
#    0.000    0.000    0.000    0.000    0.000    0.000 
#
# Total GULP energy -594734.367271 kJ/mol
# GULP energy per Si atom -12390.299318 kJ/mol
# Density = 2.017911 g / cm^3
# Si number density = 20.225140 Si / 1000 Ang^3
#
#
#
# Elastic Constant Matrix: (Units=GPa)
#
#
# Indices 1 2 3 4 5 6 
#
# 1 37.7140 18.8230 25.9830 0.0000 0.0000 0.0000
# 2 18.8230 79.4674 28.8614 0.0000 0.0000 0.0000
# 3 25.9830 28.8614 138.0901 0.0000 0.0000 0.0000
# 4 0.0000 0.0000 0.0000 19.4407 0.0000 0.0000
# 5 0.0000 0.0000 0.0000 0.0000 15.1070 0.0000
# 6 0.0000 0.0000 0.0000 0.0000 0.0000 26.6743
#
#
#
# Elastic Compliance Matrix: (Units=1/GPa)
#
#
# Indices 1 2 3 4 5 6 
#
# 1 0.032914 -0.006002 -0.004938 0.000000 0.000000 0.000000
# 2 -0.006002 0.014712 -0.001945 0.000000 0.000000 0.000000
# 3 -0.004938 -0.001945 0.008577 0.000000 0.000000 0.000000
# 4 0.000000 0.000000 0.000000 0.051439 0.000000 0.000000
# 5 0.000000 0.000000 0.000000 0.000000 0.066194 0.000000
# 6 0.000000 0.000000 0.000000 0.000000 0.000000 0.037489
#
#
# Mechanical properties :
#
#
# Convention : Reuss Voigt Hill
#
# Bulk Modulus (GPa) = 32.86197 44.73403 38.79800
# Shear Modulus (GPa) = 20.22314 24.35134 22.28724
#
# Velocity S-wave (km/s) = 3.16555 3.47365 3.32318
# Velocity P-wave (km/s) = 5.44466 6.18501 5.82661
#
# Compressibility (1/GPa) = 0.03043031
#
# Stress axis : x y z
#
# Youngs Moduli (GPa) = 30.38265 67.97117 116.58448
#
# Poissons Ratio (x) = 0.40800 0.57575
# Poissons Ratio (y) = 0.18237 0.22681
# Poissons Ratio (z) = 0.15004 0.13224
#
# Static dielectric constant tensor:
#      x y z
#    x 3.488020 0.000000 0.000000 
#    y 0.000000 3.926200 0.000000 
#    z 0.000000 0.000000 3.607090 
# 
# 
# High freq. dielectric constant tensor:
#      x y z
#    x 1.765470 0.000000 0.000000 
#    y 0.000000 1.791400 0.000000 
#    z 0.000000 0.000000 1.782260 
# 
# From -- ./inp_files/16801.got.cif
#   From: 2010.03.12/outbox.cif.g09.slc.cpg/sg57_9_cif.got.tgz:16801.got - 2010.04.16 15:48:40.
