data_PCOD8233779
_publ_section_title
;
Structure prediction by ZEFSAII (Michael W. Deem and Ramdas Pophale) SiO2 
 PCOD8233779
Probable space group: P B C M
;
_chemical_formula_sum "Si O2"
_cell_formula_units_Z 40
_cell_length_a 9.195729
_cell_length_b 8.897219
_cell_length_c 26.331469
_cell_angle_alpha 90.000000
_cell_angle_beta 90.000000
_cell_angle_gamma 90.000000
_cell_volume 2154.346389
_symmetry_space_group_name_H-M "P B C M"
_symmetry_group_IT_number 57
_symmetry_cell_setting 'orthorhombic'
loop_
_space_group_symop_operation_xyz
x,y,z
-x,-y,1/2+z
x,1/2-y,-z
-x,1/2+y,1/2-z
-x,-y,-z
x,y,1/2-z
-x,1/2+y,z
x,1/2-y,1/2+z
loop_
_atom_site_type_symbol
_atom_site_label
_atom_site_fract_x
_atom_site_fract_y
_atom_site_fract_z
Si Si1 0.117566 0.641125 0.750000
Si Si2 0.683233 0.320397 0.340695
Si Si3 0.381364 0.336099 0.658771
Si Si4 0.815362 0.707544 0.250000
Si Si5 0.378574 0.338558 0.546658
Si Si6 0.684442 0.315810 0.452256
O O1 0.193069 0.713742 0.799528
O O2 0.128202 0.462279 0.750000
O O3 0.948938 0.679225 0.750000
O O4 0.548650 0.208859 0.333334
O O5 0.618988 0.485869 0.333300
O O6 0.758005 0.302322 0.396707
O O7 0.279853 0.256250 0.700192
O O8 0.318123 0.293800 0.602681
O O9 0.298906 0.250000 0.500000
O O10 0.547053 0.295598 0.547736
O O11 0.363378 0.514673 0.536751
O O12 0.781384 0.250000 0.500000
#
# Coordination Sequence:
#
# PCOD8233779 Si02
#       6
#     4   8   8   4   8   8
#     4  10  21  36  50  68  94 124 157 196 236 278
#     4   9  18  31  49  72  97 122 154 193 232 274
#     4   9  18  31  49  72  97 122 154 193 232 274
#     4  10  21  36  50  68  94 124 157 196 236 278
#     4   9  15  24  40  65  94 121 147 182 225 270
#     4   9  15  24  40  65  94 121 147 182 225 270
#
# _framework density 18.567115999999999
#
# number of rings (size 3 to 8) (size 9 to 14) (size 15 to 20)
#    0.000    2.800    0.000    3.000    0.000    3.200 
#    0.000    0.000    0.000    1.200    0.000    8.400 
#    0.000    0.000    0.000    0.000    0.000    0.000 
#
# Total GULP energy -495557.190455 kJ/mol
# GULP energy per Si atom -12388.929761 kJ/mol
# Density = 1.852486 g / cm^3
# Si number density = 18.567116 Si / 1000 Ang^3
#
#
#
# Elastic Constant Matrix: (Units=GPa)
#
#
# Indices 1 2 3 4 5 6 
#
# 1 34.4840 0.7104 27.4216 0.0000 0.0000 0.0000
# 2 0.7104 33.1160 25.5960 0.0000 0.0000 0.0000
# 3 27.4216 25.5960 169.1169 0.0000 0.0000 0.0000
# 4 0.0000 0.0000 0.0000 27.9448 0.0000 0.0000
# 5 0.0000 0.0000 0.0000 0.0000 3.9686 0.0000
# 6 0.0000 0.0000 0.0000 0.0000 0.0000 19.2459
#
#
#
# Elastic Compliance Matrix: (Units=1/GPa)
#
#
# Indices 1 2 3 4 5 6 
#
# 1 0.033746 0.003970 -0.006073 0.000000 0.000000 0.000000
# 2 0.003970 0.034664 -0.005890 0.000000 0.000000 0.000000
# 3 -0.006073 -0.005890 0.007789 0.000000 0.000000 0.000000
# 4 0.000000 0.000000 0.000000 0.035785 0.000000 0.000000
# 5 0.000000 0.000000 0.000000 0.000000 0.251975 0.000000
# 6 0.000000 0.000000 0.000000 0.000000 0.000000 0.051959
#
#
# Mechanical properties :
#
#
# Convention : Reuss Voigt Hill
#
# Bulk Modulus (GPa) = 16.60755 38.24142 27.42449
# Shear Modulus (GPa) = 11.06254 22.43112 16.74683
#
# Velocity S-wave (km/s) = 2.44358 3.47956 3.00653
# Velocity P-wave (km/s) = 4.11406 6.06499 5.18216
#
# Compressibility (1/GPa) = 0.06021357
#
# Stress axis : x y z
#
# Youngs Moduli (GPa) = 29.63303 28.84809 128.38292
#
# Poissons Ratio (x) = -0.11452 0.77962
# Poissons Ratio (y) = -0.11763 0.75620
# Poissons Ratio (z) = 0.17995 0.16992
#
# Static dielectric constant tensor:
#      x y z
#    x 2.795790 0.000000 0.000000 
#    y 0.000000 3.335120 0.000000 
#    z 0.000000 0.000000 4.603810 
# 
# 
# High freq. dielectric constant tensor:
#      x y z
#    x 1.644660 0.000000 0.000000 
#    y 0.000000 1.720900 0.000000 
#    z 0.000000 0.000000 1.759850 
# 
# From -- ./inp_files/1707.got.cif
#   From: 2010.03.12/outbox.cif.g09.slc.cpg/sg57_1_cif.got.tgz:1707.got - 2010.04.16 15:48:40.
