data_PCOD8233974
_publ_section_title
;
Structure prediction by ZEFSAII (Michael W. Deem and Ramdas Pophale) SiO2 
 PCOD8233974
Probable space group: P B C M
;
_chemical_formula_sum "Si O2"
_cell_formula_units_Z 64
_cell_length_a 6.662057
_cell_length_b 26.936111
_cell_length_c 17.157530
_cell_angle_alpha 90.000000
_cell_angle_beta 90.000000
_cell_angle_gamma 90.000000
_cell_volume 3078.917160
_symmetry_space_group_name_H-M "P B C M"
_symmetry_group_IT_number 57
_symmetry_cell_setting 'orthorhombic'
loop_
_space_group_symop_operation_xyz
x,y,z
-x,-y,1/2+z
x,1/2-y,-z
-x,1/2+y,1/2-z
-x,-y,-z
x,y,1/2-z
-x,1/2+y,z
x,1/2-y,1/2+z
loop_
_atom_site_type_symbol
_atom_site_label
_atom_site_fract_x
_atom_site_fract_y
_atom_site_fract_z
Si Si1 0.483850 0.808630 0.407531
Si Si2 0.329281 0.124810 0.165147
Si Si3 0.075387 0.871539 0.905667
Si Si4 0.586967 0.199640 0.084909
Si Si5 0.344267 0.950628 0.838019
Si Si6 0.460419 0.038250 0.570225
Si Si7 0.768288 0.395643 0.341219
Si Si8 0.151981 0.375418 0.434607
O O1 0.387538 0.802599 0.492436
O O2 0.466878 0.752339 0.375262
O O3 0.348442 0.843891 0.353966
O O4 0.715484 0.827390 0.409514
O O5 0.387139 0.145865 0.250000
O O6 0.400436 0.163717 0.101037
O O7 0.430149 0.070937 0.154171
O O8 0.092195 0.119741 0.158957
O O9 0.207093 0.823461 0.880618
O O10 0.211231 0.920858 0.901057
O O11 0.985710 0.863919 0.991295
O O12 0.260537 0.945256 0.750000
O O13 0.351527 0.008285 0.860439
O O14 0.664736 0.062347 0.604371
O O15 0.307389 0.080929 0.543012
O O16 0.500000 0.000000 0.500000
O O17 0.755139 0.410166 0.250000
O O18 0.002494 0.390143 0.364284
#
# Coordination Sequence:
#
# PCOD8233974 Si02
#       8
#     8   8   8   8   8   8   8   8
#     4  10  22  42  63  90 122 166 208 257 310 373
#     4  10  21  37  59  91 126 159 199 257 316 369
#     4  11  20  37  63  89 123 161 206 256 311 372
#     4  10  21  39  64  90 123 162 211 254 310 374
#     4  10  22  38  58  87 125 161 199 252 313 367
#     4  11  24  41  66  91 123 164 214 257 311 374
#     4  11  25  44  64  93 130 167 209 265 318 373
#     4  11  23  40  64  90 122 164 213 257 309 372
#
# _framework density 20.786527
#
# number of rings (size 3 to 8) (size 9 to 14) (size 15 to 20)
#    0.000    1.500    2.500    2.250    3.500    7.500 
#    0.000    1.250    0.000    0.000    0.000    0.000 
#    0.000    0.000    0.000    0.000    0.000    0.000 
#
# Total GULP energy -793416.909027 kJ/mol
# GULP energy per Si atom -12397.139204 kJ/mol
# Density = 2.073922 g / cm^3
# Si number density = 20.786527 Si / 1000 Ang^3
#
#
#
# Elastic Constant Matrix: (Units=GPa)
#
#
# Indices 1 2 3 4 5 6 
#
# 1 125.0716 40.3309 23.9856 0.0000 0.0000 0.0000
# 2 40.3309 118.1216 19.3451 0.0000 0.0000 0.0000
# 3 23.9856 19.3451 70.7979 0.0000 0.0000 0.0000
# 4 0.0000 0.0000 0.0000 24.4448 0.0000 0.0000
# 5 0.0000 0.0000 0.0000 0.0000 31.3238 0.0000
# 6 0.0000 0.0000 0.0000 0.0000 0.0000 21.0501
#
#
#
# Elastic Compliance Matrix: (Units=1/GPa)
#
#
# Indices 1 2 3 4 5 6 
#
# 1 0.009360 -0.002802 -0.002406 0.000000 0.000000 0.000000
# 2 -0.002802 0.009701 -0.001702 0.000000 0.000000 0.000000
# 3 -0.002406 -0.001702 0.015405 0.000000 0.000000 0.000000
# 4 0.000000 0.000000 0.000000 0.040908 0.000000 0.000000
# 5 0.000000 0.000000 0.000000 0.000000 0.031925 0.000000
# 6 0.000000 0.000000 0.000000 0.000000 0.000000 0.047506
#
#
# Mechanical properties :
#
#
# Convention : Reuss Voigt Hill
#
# Bulk Modulus (GPa) = 48.43075 53.47936 50.95506
# Shear Modulus (GPa) = 28.48911 30.71905 29.60408
#
# Velocity S-wave (km/s) = 3.70612 3.84843 3.77795
# Velocity P-wave (km/s) = 6.45472 6.74767 6.60282
#
# Compressibility (1/GPa) = 0.02064804
#
# Stress axis : x y z
#
# Youngs Moduli (GPa) = 106.83456 103.07998 64.91566
#
# Poissons Ratio (x) = 0.28883 0.15616
# Poissons Ratio (y) = 0.29935 0.11046
# Poissons Ratio (z) = 0.25699 0.17539
#
# Static dielectric constant tensor:
#      x y z
#    x 3.839440 0.000000 0.000000 
#    y 0.000000 3.873370 0.000000 
#    z 0.000000 0.000000 3.634500 
# 
# 
# High freq. dielectric constant tensor:
#      x y z
#    x 1.816260 0.000000 0.000000 
#    y 0.000000 1.808750 0.000000 
#    z 0.000000 0.000000 1.808400 
# 
# From -- ./inp_files/20330.got.cif
#   From: 2010.03.12/outbox.cif.g09.slc.cpg/sg57_11_cif.got.tgz:20330.got - 2010.04.16 15:48:40.
