data_PCOD8233948
_publ_section_title
;
Structure prediction by ZEFSAII (Michael W. Deem and Ramdas Pophale) SiO2 
 PCOD8233948
Probable space group: P B C M
;
_chemical_formula_sum "Si O2"
_cell_formula_units_Z 64
_cell_length_a 12.666145
_cell_length_b 28.532519
_cell_length_c 9.077449
_cell_angle_alpha 90.000000
_cell_angle_beta 90.000000
_cell_angle_gamma 90.000000
_cell_volume 3280.563044
_symmetry_space_group_name_H-M "P B C M"
_symmetry_group_IT_number 57
_symmetry_cell_setting 'orthorhombic'
loop_
_space_group_symop_operation_xyz
x,y,z
-x,-y,1/2+z
x,1/2-y,-z
-x,1/2+y,1/2-z
-x,-y,-z
x,y,1/2-z
-x,1/2+y,z
x,1/2-y,1/2+z
loop_
_atom_site_type_symbol
_atom_site_label
_atom_site_fract_x
_atom_site_fract_y
_atom_site_fract_z
Si Si1 0.311716 0.395269 0.418808
Si Si2 0.999107 0.297098 0.080151
Si Si3 0.322497 0.893936 0.075887
Si Si4 0.890841 0.546931 0.582404
Si Si5 0.228108 0.798929 0.079962
Si Si6 0.125512 0.547038 0.577288
Si Si7 0.508197 0.949349 0.925517
Si Si8 0.230142 0.298576 0.423217
O O1 0.351122 0.402303 0.250000
O O2 0.189971 0.410559 0.433861
O O3 0.381927 0.425288 0.529623
O O4 0.312315 0.340131 0.463226
O O5 0.015253 0.286681 0.250000
O O6 0.888119 0.324309 0.051792
O O7 0.112460 0.316193 0.023132
O O8 0.971063 0.250000 0.000000
O O9 0.342253 0.902106 0.250000
O O10 0.314406 0.838496 0.038432
O O11 0.214247 0.917613 0.019681
O O12 0.416704 0.915458 0.982148
O O13 0.897820 0.529241 0.750000
O O14 0.849522 0.503861 0.487208
O O15 0.007574 0.564173 0.530793
O O16 0.236552 0.785946 0.250000
O O17 0.251893 0.750000 0.000000
O O18 0.135328 0.542694 0.750000
O O19 0.502675 0.955125 0.750000
O O20 0.500000 0.000000 0.000000
O O21 0.263734 0.250000 0.500000
O O22 0.232590 0.289493 0.250000
#
# Coordination Sequence:
#
# PCOD8233948 Si02
#       8
#     8   8   8   8   8   8   8   8
#     4  10  21  37  59  85 113 149 192 235 283 338
#     4   8  14  26  46  74 109 150 189 224 269 322
#     4  10  21  37  59  85 113 149 192 235 283 338
#     4   9  18  32  52  79 111 144 178 221 277 339
#     4   9  18  32  53  81 116 154 192 233 277 331
#     4   9  18  32  52  79 111 144 178 221 277 339
#     4  12  26  44  65  86 111 144 187 240 290 342
#     4   9  18  32  53  81 116 154 192 233 277 331
#
# _framework density 19.508845999999998
#
# number of rings (size 3 to 8) (size 9 to 14) (size 15 to 20)
#    0.000    2.500    0.000    1.875    1.750    4.000 
#    0.000    0.625    0.000    0.000    0.000    0.000 
#    0.000    0.000    0.000    0.000    0.000    0.000 
#
# Total GULP energy -792839.206757 kJ/mol
# GULP energy per Si atom -12388.112606 kJ/mol
# Density = 1.946444 g / cm^3
# Si number density = 19.508846 Si / 1000 Ang^3
#
#
#
# Elastic Constant Matrix: (Units=GPa)
#
#
# Indices 1 2 3 4 5 6 
#
# 1 75.7838 48.3217 30.3056 0.0000 0.0000 0.0000
# 2 48.3217 101.8260 29.2680 0.0000 0.0000 0.0000
# 3 30.3056 29.2680 43.3895 0.0000 0.0000 0.0000
# 4 0.0000 0.0000 0.0000 28.3012 0.0000 0.0000
# 5 0.0000 0.0000 0.0000 0.0000 26.4860 0.0000
# 6 0.0000 0.0000 0.0000 0.0000 0.0000 28.6487
#
#
#
# Elastic Compliance Matrix: (Units=1/GPa)
#
#
# Indices 1 2 3 4 5 6 
#
# 1 0.022150 -0.007523 -0.010396 0.000000 0.000000 0.000000
# 2 -0.007523 0.014738 -0.004687 0.000000 0.000000 0.000000
# 3 -0.010396 -0.004687 0.033470 0.000000 0.000000 0.000000
# 4 0.000000 0.000000 0.000000 0.035334 0.000000 0.000000
# 5 0.000000 0.000000 0.000000 0.000000 0.037756 0.000000
# 6 0.000000 0.000000 0.000000 0.000000 0.000000 0.034906
#
#
# Mechanical properties :
#
#
# Convention : Reuss Voigt Hill
#
# Bulk Modulus (GPa) = 39.76844 48.53221 44.15032
# Shear Modulus (GPa) = 21.55672 24.22742 22.89207
#
# Velocity S-wave (km/s) = 3.32772 3.52784 3.42924
# Velocity P-wave (km/s) = 5.93245 6.44401 6.19351
#
# Compressibility (1/GPa) = 0.02514557
#
# Stress axis : x y z
#
# Youngs Moduli (GPa) = 45.14759 67.85239 29.87782
#
# Poissons Ratio (x) = 0.51045 0.31061
# Poissons Ratio (y) = 0.33965 0.14003
# Poissons Ratio (z) = 0.46935 0.31801
#
# Static dielectric constant tensor:
#      x y z
#    x 3.771680 0.000000 0.000000 
#    y 0.000000 3.500040 0.000000 
#    z 0.000000 0.000000 3.458010 
# 
# 
# High freq. dielectric constant tensor:
#      x y z
#    x 1.758290 0.000000 0.000000 
#    y 0.000000 1.755620 0.000000 
#    z 0.000000 0.000000 1.742750 
# 
# From -- ./inp_files/3878.got.cif
#   From: 2010.03.12/outbox.cif.g09.slc.cpg/sg57_2_cif.got.tgz:3878.got - 2010.04.16 15:48:40.
