data_PCOD8233372
_publ_section_title
;
Structure prediction by ZEFSAII (Michael W. Deem and Ramdas Pophale) SiO2 
 PCOD8233372
Probable space group: P B C M
;
_chemical_formula_sum "Si O2"
_cell_formula_units_Z 64
_cell_length_a 12.889366
_cell_length_b 17.710438
_cell_length_c 13.831152
_cell_angle_alpha 90.000000
_cell_angle_beta 90.000000
_cell_angle_gamma 90.000000
_cell_volume 3157.324444
_symmetry_space_group_name_H-M "P B C M"
_symmetry_group_IT_number 57
_symmetry_cell_setting 'orthorhombic'
loop_
_space_group_symop_operation_xyz
x,y,z
-x,-y,1/2+z
x,1/2-y,-z
-x,1/2+y,1/2-z
-x,-y,-z
x,y,1/2-z
-x,1/2+y,z
x,1/2-y,1/2+z
loop_
_atom_site_type_symbol
_atom_site_label
_atom_site_fract_x
_atom_site_fract_y
_atom_site_fract_z
Si Si1 0.418961 0.087918 0.859789
Si Si2 0.893087 0.838115 0.515267
Si Si3 0.813605 0.552653 0.864162
Si Si4 0.514840 0.077420 0.358771
Si Si5 0.719553 0.588981 0.360641
Si Si6 0.924275 0.067499 0.475922
Si Si7 0.587988 0.335565 0.029796
Si Si8 0.767157 0.416741 0.136416
O O1 0.413858 0.116415 0.750000
O O2 0.304128 0.069417 0.898053
O O3 0.474335 0.153052 0.922097
O O4 0.488681 0.012888 0.870642
O O5 0.898278 0.750000 0.500000
O O6 0.884239 0.882678 0.413101
O O7 0.793456 0.856245 0.579792
O O8 0.001592 0.865487 0.565343
O O9 0.827571 0.557584 0.750000
O O10 0.843161 0.467113 0.897907
O O11 0.550635 0.097809 0.250000
O O12 0.400193 0.109133 0.381244
O O13 0.596077 0.115018 0.431936
O O14 0.747317 0.603184 0.250000
O O15 0.737829 0.502408 0.388425
O O16 0.867731 0.100717 0.571279
O O17 0.000000 0.000000 0.500000
O O18 0.675000 0.360515 0.106176
O O19 0.605250 0.250000 0.000000
O O20 0.791363 0.404798 0.250000
#
# Coordination Sequence:
#
# PCOD8233372 Si02
#       8
#     8   8   8   8   8   8   8   8
#     4  10  20  37  61  88 118 163 212 258 306 368
#     4  11  24  41  60  91 131 162 203 264 332 393
#     4  10  21  37  61  92 126 163 210 263 318 375
#     4  10  21  36  59  89 124 165 213 255 301 368
#     4  10  20  37  64  95 120 161 216 265 304 362
#     4  10  21  39  63  93 115 158 210 265 319 381
#     4  12  25  37  59  93 134 172 206 256 318 377
#     4  11  22  41  68  93 120 162 217 264 305 372
#
# _framework density 20.270327999999999
#
# number of rings (size 3 to 8) (size 9 to 14) (size 15 to 20)
#    0.000    1.500    3.750    2.250    0.000    6.500 
#    0.000    2.500    0.000    3.000    0.000    0.000 
#    0.000    0.000    0.000    0.000    0.000    0.000 
#
# Total GULP energy -793499.119243 kJ/mol
# GULP energy per Si atom -12398.423738 kJ/mol
# Density = 2.022419 g / cm^3
# Si number density = 20.270328 Si / 1000 Ang^3
#
#
#
# Elastic Constant Matrix: (Units=GPa)
#
#
# Indices 1 2 3 4 5 6 
#
# 1 91.3971 36.3061 31.8972 0.0000 0.0000 0.0000
# 2 36.3061 112.0889 27.6250 0.0000 0.0000 0.0000
# 3 31.8972 27.6250 69.1373 0.0000 0.0000 0.0000
# 4 0.0000 0.0000 0.0000 17.8634 0.0000 0.0000
# 5 0.0000 0.0000 0.0000 0.0000 27.7727 0.0000
# 6 0.0000 0.0000 0.0000 0.0000 0.0000 24.9270
#
#
#
# Elastic Compliance Matrix: (Units=1/GPa)
#
#
# Indices 1 2 3 4 5 6 
#
# 1 0.014047 -0.003275 -0.005172 0.000000 0.000000 0.000000
# 2 -0.003275 0.010660 -0.002748 0.000000 0.000000 0.000000
# 3 -0.005172 -0.002748 0.017948 0.000000 0.000000 0.000000
# 4 0.000000 0.000000 0.000000 0.055981 0.000000 0.000000
# 5 0.000000 0.000000 0.000000 0.000000 0.036007 0.000000
# 6 0.000000 0.000000 0.000000 0.000000 0.000000 0.040117
#
#
# Mechanical properties :
#
#
# Convention : Reuss Voigt Hill
#
# Bulk Modulus (GPa) = 49.34851 51.58666 50.46759
# Shear Modulus (GPa) = 24.52115 25.89895 25.21005
#
# Velocity S-wave (km/s) = 3.48186 3.57834 3.53043
# Velocity P-wave (km/s) = 6.36887 6.52513 6.44747
#
# Compressibility (1/GPa) = 0.02026403
#
# Stress axis : x y z
#
# Youngs Moduli (GPa) = 71.18754 93.81151 55.71555
#
# Poissons Ratio (x) = 0.30726 0.28817
# Poissons Ratio (y) = 0.23316 0.15312
# Poissons Ratio (z) = 0.36820 0.25781
#
# Static dielectric constant tensor:
#      x y z
#    x 2.145660 0.000000 0.000000 
#    y 0.000000 3.347460 0.000000 
#    z 0.000000 0.000000 3.830800 
# 
# 
# High freq. dielectric constant tensor:
#      x y z
#    x 1.798990 0.000000 0.000000 
#    y 0.000000 1.757440 0.000000 
#    z 0.000000 0.000000 1.799130 
# 
# From -- ./inp_files/17959.got.cif
#   From: 2010.03.12/outbox.cif.g09.slc.cpg/sg57_9_cif.got.tgz:17959.got - 2010.04.16 15:48:40.
