data_PCOD8233853
_publ_section_title
;
Structure prediction by ZEFSAII (Michael W. Deem and Ramdas Pophale) SiO2 
 PCOD8233853
Probable space group: P B C M
;
_chemical_formula_sum "Si O2"
_cell_formula_units_Z 56
_cell_length_a 14.981371
_cell_length_b 22.440152
_cell_length_c 8.745281
_cell_angle_alpha 90.000000
_cell_angle_beta 90.000000
_cell_angle_gamma 90.000000
_cell_volume 2940.025668
_symmetry_space_group_name_H-M "P B C M"
_symmetry_group_IT_number 57
_symmetry_cell_setting 'orthorhombic'
loop_
_space_group_symop_operation_xyz
x,y,z
-x,-y,1/2+z
x,1/2-y,-z
-x,1/2+y,1/2-z
-x,-y,-z
x,y,1/2-z
-x,1/2+y,z
x,1/2-y,1/2+z
loop_
_atom_site_type_symbol
_atom_site_label
_atom_site_fract_x
_atom_site_fract_y
_atom_site_fract_z
Si Si1 0.107928 0.446061 0.932027
Si Si2 0.704318 0.590424 0.423728
Si Si3 0.073680 0.920171 0.430848
Si Si4 0.429410 0.187806 0.432013
Si Si5 0.803474 0.311326 0.431216
Si Si6 0.411138 0.524462 0.924895
Si Si7 0.376171 0.647016 0.069512
O O1 0.105034 0.443787 0.750000
O O2 0.196856 0.413452 0.997450
O O3 0.109232 0.515274 0.986133
O O4 0.024352 0.410096 0.999215
O O5 0.714859 0.611128 0.250000
O O6 0.638523 0.638472 0.502563
O O7 0.664083 0.525038 0.432661
O O8 0.066217 0.917378 0.250000
O O9 0.138634 0.867678 0.490895
O O10 0.397372 0.250000 0.500000
O O11 0.426781 0.188262 0.250000
O O12 0.529468 0.173405 0.487546
O O13 0.843477 0.250000 0.500000
O O14 0.805480 0.307697 0.250000
O O15 0.701760 0.317156 0.486239
O O16 0.430066 0.543558 0.750000
O O17 0.500000 0.500000 0.000000
O O18 0.371989 0.578462 0.021716
O O19 0.363866 0.652899 0.250000
#
# Coordination Sequence:
#
# PCOD8233853 Si02
#       7
#     8   8   8   8   8   8   8
#     4   9  17  33  60  84 104 140 181 219 275 337
#     4   9  18  35  55  77 109 144 178 222 275 329
#     4   9  19  36  56  82 113 140 174 224 281 335
#     4  10  21  37  53  72 103 143 184 224 266 317
#     4  11  23  39  58  82 113 152 190 231 282 337
#     4  11  20  34  55  81 114 148 184 228 281 333
#     4  11  22  37  56  81 112 147 188 232 278 332
#
# _framework density 19.047452
#
# number of rings (size 3 to 8) (size 9 to 14) (size 15 to 20)
#    0.000    2.000    1.429    2.571    0.000    5.714 
#    0.000    5.714    0.000    3.429    0.000    0.000 
#    0.000    0.000    0.000    0.000    0.000    0.000 
#
# Total GULP energy -694370.720246 kJ/mol
# GULP energy per Si atom -12399.477147 kJ/mol
# Density = 1.900410 g / cm^3
# Si number density = 19.047452 Si / 1000 Ang^3
#
#
#
# Elastic Constant Matrix: (Units=GPa)
#
#
# Indices 1 2 3 4 5 6 
#
# 1 147.5867 53.4238 25.3196 0.0000 0.0000 0.0000
# 2 53.4238 110.7073 18.8087 0.0000 0.0000 0.0000
# 3 25.3196 18.8087 31.9362 0.0000 0.0000 0.0000
# 4 0.0000 0.0000 0.0000 31.3490 0.0000 0.0000
# 5 0.0000 0.0000 0.0000 0.0000 26.1015 0.0000
# 6 0.0000 0.0000 0.0000 0.0000 0.0000 25.3438
#
#
#
# Elastic Compliance Matrix: (Units=1/GPa)
#
#
# Indices 1 2 3 4 5 6 
#
# 1 0.008879 -0.003432 -0.005018 0.000000 0.000000 0.000000
# 2 -0.003432 0.011364 -0.003972 0.000000 0.000000 0.000000
# 3 -0.005018 -0.003972 0.037630 0.000000 0.000000 0.000000
# 4 0.000000 0.000000 0.000000 0.031899 0.000000 0.000000
# 5 0.000000 0.000000 0.000000 0.000000 0.038312 0.000000
# 6 0.000000 0.000000 0.000000 0.000000 0.000000 0.039457
#
#
# Mechanical properties :
#
#
# Convention : Reuss Voigt Hill
#
# Bulk Modulus (GPa) = 30.27633 53.92603 42.10118
# Shear Modulus (GPa) = 24.58280 29.40407 26.99344
#
# Velocity S-wave (km/s) = 3.59640 3.93329 3.76861
# Velocity P-wave (km/s) = 5.75979 7.00004 6.40998
#
# Compressibility (1/GPa) = 0.03302910
#
# Stress axis : x y z
#
# Youngs Moduli (GPa) = 112.62610 87.99840 26.57459
#
# Poissons Ratio (x) = 0.30202 0.13335
# Poissons Ratio (y) = 0.38655 0.10554
# Poissons Ratio (z) = 0.56516 0.34950
#
# Static dielectric constant tensor:
#      x y z
#    x 3.678510 0.000000 0.000000 
#    y 0.000000 3.540650 0.000000 
#    z 0.000000 0.000000 3.321610 
# 
# 
# High freq. dielectric constant tensor:
#      x y z
#    x 1.744960 0.000000 0.000000 
#    y 0.000000 1.739490 0.000000 
#    z 0.000000 0.000000 1.723030 
# 
# From -- ./inp_files/5203.got.cif
#   From: 2010.03.12/outbox.cif.g09.slc.cpg/sg57_3_cif.got.tgz:5203.got - 2010.04.16 15:48:40.
