data_PCOD8233280
_publ_section_title
;
Structure prediction by ZEFSAII (Michael W. Deem and Ramdas Pophale) SiO2 
 PCOD8233280
Probable space group: P B C M
;
_chemical_formula_sum "Si O2"
_cell_formula_units_Z 40
_cell_length_a 12.379986
_cell_length_b 12.954908
_cell_length_c 13.800971
_cell_angle_alpha 90.000000
_cell_angle_beta 90.000000
_cell_angle_gamma 90.000000
_cell_volume 2213.421530
_symmetry_space_group_name_H-M "P B C M"
_symmetry_group_IT_number 57
_symmetry_cell_setting 'orthorhombic'
loop_
_space_group_symop_operation_xyz
x,y,z
-x,-y,1/2+z
x,1/2-y,-z
-x,1/2+y,1/2-z
-x,-y,-z
x,y,1/2-z
-x,1/2+y,z
x,1/2-y,1/2+z
loop_
_atom_site_type_symbol
_atom_site_label
_atom_site_fract_x
_atom_site_fract_y
_atom_site_fract_z
Si Si1 0.826898 0.819433 0.250000
Si Si2 0.342748 0.869471 0.636082
Si Si3 0.953530 0.876657 0.750000
Si Si4 0.933498 0.109779 0.750000
Si Si5 0.635932 0.892724 0.357510
Si Si6 0.888807 0.222362 0.395030
Si Si7 0.495905 0.250000 0.500000
O O1 0.758265 0.848820 0.346122
O O2 0.849828 0.697527 0.250000
O O3 0.936960 0.883891 0.250000
O O4 0.355196 0.848349 0.750000
O O5 0.226633 0.831941 0.599763
O O6 0.433734 0.807906 0.579401
O O7 0.357089 0.988920 0.610030
O O8 0.026996 0.855183 0.844181
O O9 0.902631 0.990122 0.750000
O O10 0.881805 0.167247 0.658225
O O11 0.579073 0.883708 0.250000
O O12 0.576200 0.831394 0.441664
O O13 0.933542 0.250000 0.500000
#
# Coordination Sequence:
#
# PCOD8233280 Si02
#       7
#     4   8   4   4   8   8   4
#     4   8  18  40  54  76 119 151 183 222 295 339
#     4  11  20  38  63  80 117 159 185 241 296 342
#     4  10  20  38  61  84 118 154 187 238 289 338
#     4  10  20  38  61  86 115 153 194 236 282 347
#     4   9  21  40  56  82 114 158 190 230 301 344
#     4  10  20  37  58  89 118 148 197 234 283 353
#     4  12  22  36  60  90 114 140 214 244 276 344
#
# _framework density 18.071567999999999
#
# number of rings (size 3 to 8) (size 9 to 14) (size 15 to 20)
#    0.600    1.600    3.000    2.400    0.000    0.800 
#   10.800    0.000    0.000    0.000    0.000    0.000 
#    0.000    0.000    0.000    0.000    0.000    0.000 
#
# Total GULP energy -495800.577746 kJ/mol
# GULP energy per Si atom -12395.014444 kJ/mol
# Density = 1.803044 g / cm^3
# Si number density = 18.071568 Si / 1000 Ang^3
#
#
#
# Elastic Constant Matrix: (Units=GPa)
#
#
# Indices 1 2 3 4 5 6 
#
# 1 61.8883 23.7790 15.1205 0.0000 0.0000 0.0000
# 2 23.7790 134.5137 34.5113 0.0000 0.0000 0.0000
# 3 15.1205 34.5113 101.1782 0.0000 0.0000 0.0000
# 4 0.0000 0.0000 0.0000 14.4352 0.0000 0.0000
# 5 0.0000 0.0000 0.0000 0.0000 3.3620 0.0000
# 6 0.0000 0.0000 0.0000 0.0000 0.0000 20.1174
#
#
#
# Elastic Compliance Matrix: (Units=1/GPa)
#
#
# Indices 1 2 3 4 5 6 
#
# 1 0.017605 -0.002671 -0.001720 0.000000 0.000000 0.000000
# 2 -0.002671 0.008552 -0.002518 0.000000 0.000000 0.000000
# 3 -0.001720 -0.002518 0.010999 0.000000 0.000000 0.000000
# 4 0.000000 0.000000 0.000000 0.069275 0.000000 0.000000
# 5 0.000000 0.000000 0.000000 0.000000 0.297438 0.000000
# 6 0.000000 0.000000 0.000000 0.000000 0.000000 0.049708
#
#
# Mechanical properties :
#
#
# Convention : Reuss Voigt Hill
#
# Bulk Modulus (GPa) = 42.84693 49.37795 46.11244
# Shear Modulus (GPa) = 10.52244 22.52758 16.52501
#
# Velocity S-wave (km/s) = 2.41563 3.53452 3.02722
# Velocity P-wave (km/s) = 5.61618 6.63626 6.14741
#
# Compressibility (1/GPa) = 0.02333890
#
# Stress axis : x y z
#
# Youngs Moduli (GPa) = 56.80355 116.92680 90.91357
#
# Poissons Ratio (x) = 0.31229 0.15636
# Poissons Ratio (y) = 0.15171 0.22892
# Poissons Ratio (z) = 0.09770 0.29442
#
# Static dielectric constant tensor:
#      x y z
#    x 3.196050 0.000000 0.000000 
#    y 0.000000 3.399530 0.000000 
#    z 0.000000 0.000000 3.279660 
# 
# 
# High freq. dielectric constant tensor:
#      x y z
#    x 1.689980 0.000000 0.000000 
#    y 0.000000 1.707660 0.000000 
#    z 0.000000 0.000000 1.698240 
# 
# From -- ./inp_files/17489.got.cif
#   From: 2010.03.12/outbox.cif.g09.slc.cpg/sg57_9_cif.got.tgz:17489.got - 2010.04.16 15:48:40.
