data_PCOD8233291
_publ_section_title
;
Structure prediction by ZEFSAII (Michael W. Deem and Ramdas Pophale) SiO2 
 PCOD8233291
Probable space group: P B C M
;
_chemical_formula_sum "Si O2"
_cell_formula_units_Z 64
_cell_length_a 25.892094
_cell_length_b 14.952536
_cell_length_c 8.720438
_cell_angle_alpha 90.000000
_cell_angle_beta 90.000000
_cell_angle_gamma 90.000000
_cell_volume 3376.139091
_symmetry_space_group_name_H-M "P B C M"
_symmetry_group_IT_number 57
_symmetry_cell_setting 'orthorhombic'
loop_
_space_group_symop_operation_xyz
x,y,z
-x,-y,1/2+z
x,1/2-y,-z
-x,1/2+y,1/2-z
-x,-y,-z
x,y,1/2-z
-x,1/2+y,z
x,1/2-y,1/2+z
loop_
_atom_site_type_symbol
_atom_site_label
_atom_site_fract_x
_atom_site_fract_y
_atom_site_fract_z
Si Si1 0.872469 0.657020 0.430144
Si Si2 0.577284 0.004268 0.929448
Si Si3 0.870545 0.156560 0.568959
Si Si4 0.688514 0.500102 0.569403
Si Si5 0.495680 0.850368 0.569493
Si Si6 0.245839 0.844358 0.431197
Si Si7 0.755349 0.655038 0.068384
Si Si8 0.943531 0.499311 0.067949
O O1 0.890124 0.750000 0.500000
O O2 0.876173 0.665096 0.250000
O O3 0.814198 0.630705 0.477248
O O4 0.912330 0.584557 0.494316
O O5 0.587923 0.016882 0.750000
O O6 0.545665 0.912681 0.960751
O O7 0.550895 0.095517 0.990087
O O8 0.629523 0.991850 0.021756
O O9 0.888083 0.250000 0.500000
O O10 0.872429 0.163023 0.750000
O O11 0.812505 0.130155 0.516439
O O12 0.911679 0.085515 0.506449
O O13 0.693320 0.492279 0.750000
O O14 0.713558 0.414167 0.493208
O O15 0.717757 0.586572 0.511107
O O16 0.502526 0.750000 0.500000
O O17 0.484583 0.840659 0.750000
O O18 0.262208 0.750000 0.500000
O O19 0.249821 0.840420 0.250000
O O20 0.747158 0.653748 0.250000
O O21 0.740001 0.750000 0.000000
O O22 0.946769 0.499171 0.250000
O O23 0.000000 0.500000 0.000000
#
# Coordination Sequence:
#
# PCOD8233291 Si02
#       8
#     8   8   8   8   8   8   8   8
#     4   9  19  36  57  78 104 138 178 222 270 325
#     4  10  22  40  60  85 117 152 192 235 279 328
#     4   9  19  36  57  78 104 138 177 221 270 325
#     4  12  24  37  56  85 120 154 188 230 278 330
#     4  10  21  39  64  89 114 148 190 235 282 331
#     4  10  20  37  59  83 111 145 185 229 278 334
#     4  10  20  37  59  83 111 146 186 229 278 333
#     4  10  21  36  52  75 105 138 175 218 270 325
#
# _framework density 18.956565000000001
#
# number of rings (size 3 to 8) (size 9 to 14) (size 15 to 20)
#    0.000    2.000    0.000    3.375    0.000    7.000 
#    0.000    7.500    0.000    0.000    0.000    0.000 
#    0.000    0.000    0.000    0.000    0.000    0.000 
#
# Total GULP energy -793606.992268 kJ/mol
# GULP energy per Si atom -12400.109254 kJ/mol
# Density = 1.891342 g / cm^3
# Si number density = 18.956565 Si / 1000 Ang^3
#
#
#
# Elastic Constant Matrix: (Units=GPa)
#
#
# Indices 1 2 3 4 5 6 
#
# 1 61.0761 12.9810 -44.8411 0.0000 0.0000 0.0000
# 2 12.9810 67.6551 -51.8236 0.0000 0.0000 0.0000
# 3 -44.8411 -51.8236 -47.3833 0.0000 0.0000 0.0000
# 4 0.0000 0.0000 0.0000 35.1761 0.0000 0.0000
# 5 0.0000 0.0000 0.0000 0.0000 32.6880 0.0000
# 6 0.0000 0.0000 0.0000 0.0000 0.0000 24.6163
#
#
#
# Elastic Compliance Matrix: (Units=1/GPa)
#
#
# Indices 1 2 3 4 5 6 
#
# 1 0.013780 -0.006874 -0.005522 0.000000 0.000000 0.000000
# 2 -0.006874 0.011472 -0.006042 0.000000 0.000000 0.000000
# 3 -0.005522 -0.006042 -0.009271 0.000000 0.000000 0.000000
# 4 0.000000 0.000000 0.000000 0.028428 0.000000 0.000000
# 5 0.000000 0.000000 0.000000 0.000000 0.030592 0.000000
# 6 0.000000 0.000000 0.000000 0.000000 0.000000 0.040623
#
#
# Mechanical properties :
#
#
# Convention : Reuss Voigt Hill
#
# Bulk Modulus (GPa) = -47.85847 -9.55771 -28.70809
# Shear Modulus (GPa) = 34.35583 29.49819 31.92701
#
# Velocity S-wave (km/s) = 4.26178 3.94901 4.10838
# Velocity P-wave (km/s) = 1.04122 3.96738 2.70703
#
# Compressibility (1/GPa) = -0.02089494
#
# Stress axis : x y z
#
# Youngs Moduli (GPa) = 72.57083 87.17004 -107.86756
#
# Poissons Ratio (x) = 0.59920 -0.59567
# Poissons Ratio (y) = 0.49885 -0.65170
# Poissons Ratio (z) = 0.40075 0.52666
#
# Static dielectric constant tensor:
#      x y z
#    x 3.513650 0.000000 0.000000 
#    y 0.000000 3.683350 0.000000 
#    z 0.000000 0.000000 3.507480 
# 
# 
# High freq. dielectric constant tensor:
#      x y z
#    x 1.738320 0.000000 0.000000 
#    y 0.000000 1.749150 0.000000 
#    z 0.000000 0.000000 1.742240 
# 
# From -- ./inp_files/9273.got.cif
#   From: 2010.03.12/outbox.cif.g09.slc.cpg/sg57_5_cif.got.tgz:9273.got - 2010.04.16 15:48:40.
