data_PCOD8233927
_publ_section_title
;
Structure prediction by ZEFSAII (Michael W. Deem and Ramdas Pophale) SiO2 
 PCOD8233927
Probable space group: P B C M
;
_chemical_formula_sum "Si O2"
_cell_formula_units_Z 64
_cell_length_a 25.859263
_cell_length_b 14.829251
_cell_length_c 8.699411
_cell_angle_alpha 90.000000
_cell_angle_beta 90.000000
_cell_angle_gamma 90.000000
_cell_volume 3335.993599
_symmetry_space_group_name_H-M "P B C M"
_symmetry_group_IT_number 57
_symmetry_cell_setting 'orthorhombic'
loop_
_space_group_symop_operation_xyz
x,y,z
-x,-y,1/2+z
x,1/2-y,-z
-x,1/2+y,1/2-z
-x,-y,-z
x,y,1/2-z
-x,1/2+y,z
x,1/2-y,1/2+z
loop_
_atom_site_type_symbol
_atom_site_label
_atom_site_fract_x
_atom_site_fract_y
_atom_site_fract_z
Si Si1 0.056446 0.503237 0.431151
Si Si2 0.872043 0.656566 0.567824
Si Si3 0.755447 0.656999 0.931490
Si Si4 0.686201 0.007658 0.430850
Si Si5 0.875265 0.347192 0.072984
Si Si6 0.505087 0.850666 0.431236
Si Si7 0.575001 0.996719 0.930378
Si Si8 0.758627 0.152262 0.572019
O O1 0.052094 0.498419 0.250000
O O2 0.090247 0.420408 0.496458
O O3 0.084560 0.594027 0.478949
O O4 0.000000 0.500000 0.500000
O O5 0.892840 0.750000 0.500000
O O6 0.873506 0.661108 0.750000
O O7 0.813657 0.637220 0.508847
O O8 0.755105 0.663511 0.750000
O O9 0.717233 0.579608 0.989705
O O10 0.734216 0.750000 0.000000
O O11 0.674797 0.004681 0.250000
O O12 0.720548 0.093350 0.470257
O O13 0.633515 0.014166 0.523705
O O14 0.892181 0.343289 0.250000
O O15 0.817017 0.385628 0.056153
O O16 0.878339 0.250000 0.000000
O O17 0.500564 0.750000 0.500000
O O18 0.508410 0.839065 0.250000
O O19 0.555737 0.904593 0.488534
O O20 0.456626 0.913592 0.481613
O O21 0.569452 0.981568 0.750000
O O22 0.755251 0.250000 0.500000
O O23 0.741344 0.153837 0.750000
#
# Coordination Sequence:
#
# PCOD8233927 Si02
#       8
#     8   8   8   8   8   8   8   8
#     4  11  23  38  56  80 111 144 182 230 282 338
#     4   9  19  36  57  79 105 139 179 223 271 323
#     4   9  19  35  55  80 108 142 182 222 268 323
#     4  11  22  36  56  83 119 155 187 229 279 331
#     4  10  21  38  60  84 110 144 186 231 281 338
#     4  10  21  39  63  86 110 146 190 236 286 337
#     4  10  22  39  58  84 117 150 190 236 281 333
#     4  10  21  37  58  84 113 147 188 231 279 337
#
# _framework density 19.184688000000001
#
# number of rings (size 3 to 8) (size 9 to 14) (size 15 to 20)
#    0.000    2.000    0.000    3.000    0.000    7.500 
#    0.000    6.250    0.000    0.000    0.000    0.000 
#    0.000    0.000    0.000    0.000    0.000    0.000 
#
# Total GULP energy -793709.049782 kJ/mol
# GULP energy per Si atom -12401.703903 kJ/mol
# Density = 1.914102 g / cm^3
# Si number density = 19.184688 Si / 1000 Ang^3
#
#
#
# Elastic Constant Matrix: (Units=GPa)
#
#
# Indices 1 2 3 4 5 6 
#
# 1 107.1071 56.4039 21.9734 0.0000 0.0000 0.0000
# 2 56.4039 115.0489 29.5716 0.0000 0.0000 0.0000
# 3 21.9734 29.5716 50.5181 0.0000 0.0000 0.0000
# 4 0.0000 0.0000 0.0000 37.1246 0.0000 0.0000
# 5 0.0000 0.0000 0.0000 0.0000 -293.8226 0.0000
# 6 0.0000 0.0000 0.0000 0.0000 0.0000 208.8500
#
#
#
# Elastic Compliance Matrix: (Units=1/GPa)
#
#
# Indices 1 2 3 4 5 6 
#
# 1 0.012796 -0.005700 -0.002229 0.000000 0.000000 0.000000
# 2 -0.005700 0.012771 -0.004996 0.000000 0.000000 0.000000
# 3 -0.002229 -0.004996 0.023689 0.000000 0.000000 0.000000
# 4 0.000000 0.000000 0.000000 0.026936 0.000000 0.000000
# 5 0.000000 0.000000 0.000000 0.000000 -0.003403 0.000000
# 6 0.000000 0.000000 0.000000 0.000000 0.000000 0.004788
#
#
# Mechanical properties :
#
#
# Convention : Reuss Voigt Hill
#
# Bulk Modulus (GPa) = 42.72646 54.28577 48.50611
# Shear Modulus (GPa) = 44.95257 1.41209 23.18233
#
# Velocity S-wave (km/s) = 4.84586 0.85886 3.47994
# Velocity P-wave (km/s) = 7.32320 5.41677 6.44091
#
# Compressibility (1/GPa) = 0.02340470
#
# Stress axis : x y z
#
# Youngs Moduli (GPa) = 78.15232 78.30388 42.21378
#
# Poissons Ratio (x) = 0.44635 0.09409
# Poissons Ratio (y) = 0.44549 0.21091
# Poissons Ratio (z) = 0.17419 0.39122
#
# Static dielectric constant tensor:
#      x y z
#    x 3.525360 0.000000 0.000000 
#    y 0.000000 3.413770 0.000000 
#    z 0.000000 0.000000 3.472250 
# 
# 
# High freq. dielectric constant tensor:
#      x y z
#    x 1.746040 0.000000 0.000000 
#    y 0.000000 1.753950 0.000000 
#    z 0.000000 0.000000 1.753120 
# 
# From -- ./inp_files/9454.got.cif
#   From: 2010.03.12/outbox.cif.g09.slc.cpg/sg57_5_cif.got.tgz:9454.got - 2010.04.16 15:48:40.
