data_PCOD8233625
_publ_section_title
;
Structure prediction by ZEFSAII (Michael W. Deem and Ramdas Pophale) SiO2 
 PCOD8233625
Probable space group: P B C M
;
_chemical_formula_sum "Si O2"
_cell_formula_units_Z 48
_cell_length_a 8.956967
_cell_length_b 17.895817
_cell_length_c 15.114846
_cell_angle_alpha 90.000000
_cell_angle_beta 90.000000
_cell_angle_gamma 90.000000
_cell_volume 2422.792557
_symmetry_space_group_name_H-M "P B C M"
_symmetry_group_IT_number 57
_symmetry_cell_setting 'orthorhombic'
loop_
_space_group_symop_operation_xyz
x,y,z
-x,-y,1/2+z
x,1/2-y,-z
-x,1/2+y,1/2-z
-x,-y,-z
x,y,1/2-z
-x,1/2+y,z
x,1/2-y,1/2+z
loop_
_atom_site_type_symbol
_atom_site_label
_atom_site_fract_x
_atom_site_fract_y
_atom_site_fract_z
Si Si1 0.866143 0.534048 0.250000
Si Si2 0.166929 0.031800 0.750000
Si Si3 0.749362 0.197609 0.418608
Si Si4 0.655971 0.553624 0.407158
Si Si5 0.239298 0.297531 0.250000
Si Si6 0.963742 0.308235 0.750000
Si Si7 0.586169 0.777035 0.902839
Si Si8 0.683360 0.030047 0.420543
O O1 0.764544 0.519242 0.334836
O O2 0.988021 0.468475 0.250000
O O3 0.946443 0.614460 0.250000
O O4 0.226993 0.114332 0.750000
O O5 0.219384 0.986491 0.835321
O O6 0.804954 0.250000 0.500000
O O7 0.865574 0.199317 0.338458
O O8 0.590042 0.226263 0.382343
O O9 0.724597 0.113247 0.454601
O O10 0.657171 0.641776 0.392443
O O11 0.719905 0.529547 0.502692
O O12 0.489894 0.521855 0.394141
O O13 0.332338 0.277604 0.336315
O O14 0.077782 0.260211 0.250000
O O15 0.622596 0.750000 0.000000
#
# Coordination Sequence:
#
# PCOD8233625 Si02
#       8
#     4   4   8   8   4   4   8   8
#     4  12  23  41  60  89 128 175 201 256 321 385
#     4  12  25  41  61  93 129 168 204 260 323 383
#     4  10  22  41  67  92 124 169 212 255 317 374
#     4  10  21  39  66  91 121 163 212 256 316 368
#     4  12  25  39  61  93 123 164 212 258 315 377
#     4  12  23  43  60  91 132 173 205 250 317 383
#     4  10  20  39  64  92 120 157 209 266 306 364
#     4  10  21  41  66  94 123 162 212 268 312 370
#
# _framework density 19.81185
#
# number of rings (size 3 to 8) (size 9 to 14) (size 15 to 20)
#    0.000    1.333    3.333    2.000    0.000    6.667 
#    3.000    1.667    0.000    0.000    0.000    0.000 
#    0.000    0.000    0.000    0.000    0.000    0.000 
#
# Total GULP energy -595355.619359 kJ/mol
# GULP energy per Si atom -12403.242070 kJ/mol
# Density = 1.976676 g / cm^3
# Si number density = 19.811850 Si / 1000 Ang^3
#
#
#
# Elastic Constant Matrix: (Units=GPa)
#
#
# Indices 1 2 3 4 5 6 
#
# 1 93.9492 28.4855 68.2804 0.0000 0.0000 0.0000
# 2 28.4855 89.7259 37.8620 0.0000 0.0000 0.0000
# 3 68.2804 37.8620 138.8520 0.0000 0.0000 0.0000
# 4 0.0000 0.0000 0.0000 32.0709 0.0000 0.0000
# 5 0.0000 0.0000 0.0000 0.0000 133.8186 0.0000
# 6 0.0000 0.0000 0.0000 0.0000 0.0000 30.6758
#
#
#
# Elastic Compliance Matrix: (Units=1/GPa)
#
#
# Indices 1 2 3 4 5 6 
#
# 1 0.016907 -0.002101 -0.007741 0.000000 0.000000 0.000000
# 2 -0.002101 0.012855 -0.002472 0.000000 0.000000 0.000000
# 3 -0.007741 -0.002472 0.011683 0.000000 0.000000 0.000000
# 4 0.000000 0.000000 0.000000 0.031181 0.000000 0.000000
# 5 0.000000 0.000000 0.000000 0.000000 0.007473 0.000000
# 6 0.000000 0.000000 0.000000 0.000000 0.000000 0.032599
#
#
# Mechanical properties :
#
#
# Convention : Reuss Voigt Hill
#
# Bulk Modulus (GPa) = 59.46558 65.75364 62.60961
# Shear Modulus (GPa) = 34.98160 51.83968 43.41064
#
# Velocity S-wave (km/s) = 4.20657 5.12082 4.68605
# Velocity P-wave (km/s) = 7.32625 8.25983 7.80701
#
# Compressibility (1/GPa) = 0.01681645
#
# Stress axis : x y z
#
# Youngs Moduli (GPa) = 59.14633 77.78918 85.59612
#
# Poissons Ratio (x) = 0.16343 0.66262
# Poissons Ratio (y) = 0.12426 0.21161
# Poissons Ratio (z) = 0.45786 0.19231
#
# Static dielectric constant tensor:
#      x y z
#    x 3.734090 0.000000 0.000000 
#    y 0.000000 3.656180 0.000000 
#    z 0.000000 0.000000 3.658930 
# 
# 
# High freq. dielectric constant tensor:
#      x y z
#    x 1.778250 0.000000 0.000000 
#    y 0.000000 1.773160 0.000000 
#    z 0.000000 0.000000 1.780640 
# 
# From -- ./inp_files/16471.got.cif
#   From: 2010.03.12/outbox.cif.g09.slc.cpg/sg57_9_cif.got.tgz:16471.got - 2010.04.16 15:48:40.
