data_PCOD8233721
_publ_section_title
;
Structure prediction by ZEFSAII (Michael W. Deem and Ramdas Pophale) SiO2 
 PCOD8233721
Probable space group: P B C M
;
_chemical_formula_sum "Si O2"
_cell_formula_units_Z 60
_cell_length_a 14.140907
_cell_length_b 8.022939
_cell_length_c 23.580839
_cell_angle_alpha 90.000000
_cell_angle_beta 90.000000
_cell_angle_gamma 90.000000
_cell_volume 2675.284722
_symmetry_space_group_name_H-M "P B C M"
_symmetry_group_IT_number 57
_symmetry_cell_setting 'orthorhombic'
loop_
_space_group_symop_operation_xyz
x,y,z
-x,-y,1/2+z
x,1/2-y,-z
-x,1/2+y,1/2-z
-x,-y,-z
x,y,1/2-z
-x,1/2+y,z
x,1/2-y,1/2+z
loop_
_atom_site_type_symbol
_atom_site_label
_atom_site_fract_x
_atom_site_fract_y
_atom_site_fract_z
Si Si1 0.642957 0.928249 0.818230
Si Si2 0.468537 0.736023 0.686902
Si Si3 0.963661 0.882798 0.314775
Si Si4 0.681429 0.439060 0.859281
Si Si5 0.395342 0.558218 0.483641
Si Si6 0.797041 0.745723 0.124117
Si Si7 0.855033 0.279070 0.685256
Si Si8 0.267757 0.250000 0.500000
O O1 0.657955 0.938206 0.750000
O O2 0.573418 0.775143 0.837109
O O3 0.743309 0.917355 0.850841
O O4 0.589042 0.089745 0.844690
O O5 0.482954 0.673806 0.750000
O O6 0.402412 0.902335 0.685540
O O7 0.951906 0.820221 0.250000
O O8 0.904249 0.756160 0.354789
O O9 0.075986 0.875547 0.331223
O O10 0.927467 0.068116 0.323002
O O11 0.624893 0.446412 0.917482
O O12 0.736488 0.607900 0.845199
O O13 0.763043 0.293707 0.855021
O O14 0.374966 0.750000 0.500000
O O15 0.500000 0.500000 0.500000
O O16 0.327574 0.418479 0.511604
O O17 0.796951 0.765863 0.056052
O O18 0.817487 0.267402 0.750000
#
# Coordination Sequence:
#
# PCOD8233721 Si02
#       8
#     8   8   8   8   8   8   8   4
#     4  10  21  34  52  79 114 152 192 239 294 365
#     4  10  21  34  51  81 116 151 189 233 296 366
#     4   9  18  34  60  88 118 154 191 240 301 368
#     4  10  22  36  58  82 114 156 195 246 305 355
#     4  11  24  41  63  86 118 160 213 261 309 361
#     4  10  21  38  59  81 115 151 204 245 303 360
#     4   9  18  35  58  88 121 152 192 240 299 373
#     4  10  24  42  60  88 118 162 204 266 312 362
#
# _framework density 22.427517999999999
#
# number of rings (size 3 to 8) (size 9 to 14) (size 15 to 20)
#    0.000    2.133    0.667    1.600    3.733    3.733 
#    0.000    2.667    1.467    2.400    0.000    0.000 
#    0.000    0.000    0.000    0.000    0.000    0.000 
#
# Total GULP energy -743298.500787 kJ/mol
# GULP energy per Si atom -12388.308346 kJ/mol
# Density = 2.237647 g / cm^3
# Si number density = 22.427518 Si / 1000 Ang^3
#
#
#
# Elastic Constant Matrix: (Units=GPa)
#
#
# Indices 1 2 3 4 5 6 
#
# 1 94.2597 -13.8103 28.4610 0.0000 0.0000 0.0000
# 2 -13.8103 47.8861 -1.7109 0.0000 0.0000 0.0000
# 3 28.4610 -1.7109 57.9068 0.0000 0.0000 0.0000
# 4 0.0000 0.0000 0.0000 21.2083 0.0000 0.0000
# 5 0.0000 0.0000 0.0000 0.0000 31.0360 0.0000
# 6 0.0000 0.0000 0.0000 0.0000 0.0000 30.5810
#
#
#
# Elastic Compliance Matrix: (Units=1/GPa)
#
#
# Indices 1 2 3 4 5 6 
#
# 1 0.013028 0.003532 -0.006299 0.000000 0.000000 0.000000
# 2 0.003532 0.021863 -0.001090 0.000000 0.000000 0.000000
# 3 -0.006299 -0.001090 0.020333 0.000000 0.000000 0.000000
# 4 0.000000 0.000000 0.000000 0.047151 0.000000 0.000000
# 5 0.000000 0.000000 0.000000 0.000000 0.032221 0.000000
# 6 0.000000 0.000000 0.000000 0.000000 0.000000 0.032700
#
#
# Mechanical properties :
#
#
# Convention : Reuss Voigt Hill
#
# Bulk Modulus (GPa) = 21.04813 25.10358 23.07586
# Shear Modulus (GPa) = 26.19903 29.03925 27.61914
#
# Velocity S-wave (km/s) = 3.42155 3.60224 3.51306
# Velocity P-wave (km/s) = 5.00147 5.34032 5.17367
#
# Compressibility (1/GPa) = 0.04751015
#
# Stress axis : x y z
#
# Youngs Moduli (GPa) = 76.75491 45.74012 49.18133
#
# Poissons Ratio (x) = -0.16157 0.30980
# Poissons Ratio (y) = -0.27112 0.05362
# Poissons Ratio (z) = 0.48349 0.04987
#
# Static dielectric constant tensor:
#      x y z
#    x 4.204760 0.000000 0.000000 
#    y 0.000000 4.399530 0.000000 
#    z 0.000000 0.000000 3.663020 
# 
# 
# High freq. dielectric constant tensor:
#      x y z
#    x 1.888170 0.000000 0.000000 
#    y 0.000000 1.896250 0.000000 
#    z 0.000000 0.000000 1.843330 
# 
# From -- ./inp_files/27413.got.cif
#   From: 2010.03.12/outbox.cif.g09.slc.cpg/sg57_14_cif.got.tgz:27413.got - 2010.04.16 15:48:40.
