data_PCOD8233165
_publ_section_title
;
Structure prediction by ZEFSAII (Michael W. Deem and Ramdas Pophale) SiO2 
 PCOD8233165
Probable space group: P B C M
;
_chemical_formula_sum "Si O2"
_cell_formula_units_Z 56
_cell_length_a 13.484929
_cell_length_b 12.203612
_cell_length_c 17.200270
_cell_angle_alpha 90.000000
_cell_angle_beta 90.000000
_cell_angle_gamma 90.000000
_cell_volume 2830.559704
_symmetry_space_group_name_H-M "P B C M"
_symmetry_group_IT_number 57
_symmetry_cell_setting 'orthorhombic'
loop_
_space_group_symop_operation_xyz
x,y,z
-x,-y,1/2+z
x,1/2-y,-z
-x,1/2+y,1/2-z
-x,-y,-z
x,y,1/2-z
-x,1/2+y,z
x,1/2-y,1/2+z
loop_
_atom_site_type_symbol
_atom_site_label
_atom_site_fract_x
_atom_site_fract_y
_atom_site_fract_z
Si Si1 0.604541 0.469942 0.658998
Si Si2 0.895316 0.775735 0.913375
Si Si3 0.903450 0.276643 0.339702
Si Si4 0.757986 0.150207 0.444534
Si Si5 0.297212 0.199373 0.839074
Si Si6 0.618283 0.931210 0.839697
Si Si7 0.810686 0.014609 0.914872
O O1 0.616043 0.439403 0.750000
O O2 0.664692 0.383801 0.607460
O O3 0.641582 0.591618 0.640615
O O4 0.490751 0.464706 0.632109
O O5 0.798350 0.703955 0.894354
O O6 0.980072 0.739661 0.853926
O O7 0.871877 0.903684 0.904615
O O8 0.931971 0.750000 0.000000
O O9 0.879583 0.258583 0.250000
O O10 0.846233 0.184574 0.387887
O O11 0.869603 0.397360 0.364137
O O12 0.724073 0.250000 0.500000
O O13 0.802493 0.050628 0.495298
O O14 0.260607 0.199878 0.750000
O O15 0.368367 0.302162 0.855697
O O16 0.633413 0.960005 0.750000
O O17 0.697994 0.003002 0.885743
#
# Coordination Sequence:
#
# PCOD8233165 Si02
#       7
#     8   8   8   8   8   8   8
#     4  10  20  36  60  86 114 150 191 239 285 326
#     4  11  22  38  60  85 115 149 187 233 286 341
#     4  11  24  40  60  84 112 150 192 236 285 339
#     4  10  22  39  57  84 117 148 188 235 283 339
#     4   9  19  35  55  83 115 146 188 234 276 333
#     4   9  19  36  58  84 115 153 191 227 277 339
#     4  10  22  40  59  82 117 155 188 228 286 348
#
# _framework density 19.784072999999999
#
# number of rings (size 3 to 8) (size 9 to 14) (size 15 to 20)
#    0.000    2.000    0.000    3.429    0.000    8.000 
#    0.000    7.143    0.000    0.000    0.000    0.000 
#    0.000    0.000    0.000    0.000    0.000    0.000 
#
# Total GULP energy -694665.347804 kJ/mol
# GULP energy per Si atom -12404.738354 kJ/mol
# Density = 1.973904 g / cm^3
# Si number density = 19.784073 Si / 1000 Ang^3
#
#
#
# Elastic Constant Matrix: (Units=GPa)
#
#
# Indices 1 2 3 4 5 6 
#
# 1 137.6883 74.8115 55.6786 0.0000 0.0000 0.0000
# 2 74.8115 99.9557 43.8348 0.0000 0.0000 0.0000
# 3 55.6786 43.8348 101.3318 0.0000 0.0000 0.0000
# 4 0.0000 0.0000 0.0000 28.7064 0.0000 0.0000
# 5 0.0000 0.0000 0.0000 0.0000 27.4551 0.0000
# 6 0.0000 0.0000 0.0000 0.0000 0.0000 29.2179
#
#
#
# Elastic Compliance Matrix: (Units=1/GPa)
#
#
# Indices 1 2 3 4 5 6 
#
# 1 0.013276 -0.008314 -0.003698 0.000000 0.000000 0.000000
# 2 -0.008314 0.017554 -0.003025 0.000000 0.000000 0.000000
# 3 -0.003698 -0.003025 0.013209 0.000000 0.000000 0.000000
# 4 0.000000 0.000000 0.000000 0.034835 0.000000 0.000000
# 5 0.000000 0.000000 0.000000 0.000000 0.036423 0.000000
# 6 0.000000 0.000000 0.000000 0.000000 0.000000 0.034226
#
#
# Mechanical properties :
#
#
# Convention : Reuss Voigt Hill
#
# Bulk Modulus (GPa) = 71.61317 76.40284 74.00801
# Shear Modulus (GPa) = 27.13669 28.05261 27.59465
#
# Velocity S-wave (km/s) = 3.70759 3.76964 3.73874
# Velocity P-wave (km/s) = 7.38947 7.59270 7.49177
#
# Compressibility (1/GPa) = 0.01396391
#
# Stress axis : x y z
#
# Youngs Moduli (GPa) = 75.32556 56.96702 75.70584
#
# Poissons Ratio (x) = 0.47365 0.27995
# Poissons Ratio (y) = 0.62629 0.22902
# Poissons Ratio (z) = 0.27854 0.17233
#
# Static dielectric constant tensor:
#      x y z
#    x 3.575690 0.000000 0.000000 
#    y 0.000000 3.612230 0.000000 
#    z 0.000000 0.000000 3.658940 
# 
# 
# High freq. dielectric constant tensor:
#      x y z
#    x 1.773530 0.000000 0.000000 
#    y 0.000000 1.776240 0.000000 
#    z 0.000000 0.000000 1.776140 
# 
# From -- ./inp_files/18512.got.cif
#   From: 2010.03.12/outbox.cif.g09.slc.cpg/sg57_10_cif.got.tgz:18512.got - 2010.04.16 15:48:40.
