data_PCOD8233117
_publ_section_title
;
Structure prediction by ZEFSAII (Michael W. Deem and Ramdas Pophale) SiO2 
 PCOD8233117
Probable space group: P B C M
;
_chemical_formula_sum "Si O2"
_cell_formula_units_Z 64
_cell_length_a 10.011626
_cell_length_b 19.002434
_cell_length_c 17.047836
_cell_angle_alpha 90.000000
_cell_angle_beta 90.000000
_cell_angle_gamma 90.000000
_cell_volume 3243.270031
_symmetry_space_group_name_H-M "P B C M"
_symmetry_group_IT_number 57
_symmetry_cell_setting 'orthorhombic'
loop_
_space_group_symop_operation_xyz
x,y,z
-x,-y,1/2+z
x,1/2-y,-z
-x,1/2+y,1/2-z
-x,-y,-z
x,y,1/2-z
-x,1/2+y,z
x,1/2-y,1/2+z
loop_
_atom_site_type_symbol
_atom_site_label
_atom_site_fract_x
_atom_site_fract_y
_atom_site_fract_z
Si Si1 0.798390 0.608370 0.605222
Si Si2 0.655502 0.379886 0.839760
Si Si3 0.488200 0.754146 0.591455
Si Si4 0.220961 0.237296 0.340891
Si Si5 0.847332 0.897323 0.575760
Si Si6 0.087361 0.966173 0.840038
Si Si7 0.608530 0.535159 0.161929
Si Si8 0.494916 0.110503 0.658748
O O1 0.832699 0.684747 0.641017
O O2 0.850579 0.606772 0.517057
O O3 0.875005 0.548184 0.653101
O O4 0.639740 0.595714 0.609881
O O5 0.667161 0.355112 0.750000
O O6 0.625700 0.311862 0.892832
O O7 0.791129 0.416651 0.868466
O O8 0.540395 0.437136 0.850235
O O9 0.520868 0.750000 0.500000
O O10 0.624309 0.773720 0.636322
O O11 0.434293 0.680065 0.624663
O O12 0.204294 0.220331 0.250000
O O13 0.133026 0.180669 0.388564
O O14 0.705306 0.929191 0.600277
O O15 0.962429 0.949258 0.605158
O O16 0.050480 0.950770 0.750000
O O17 0.660201 0.551183 0.250000
O O18 0.601590 0.451522 0.147164
O O19 0.454980 0.120150 0.750000
#
# Coordination Sequence:
#
# PCOD8233117 Si02
#       8
#     8   8   8   8   8   8   8   8
#     4  11  22  38  60  87 120 156 197 243 299 353
#     4  10  20  37  61  84 112 153 198 237 283 347
#     4  11  21  34  55  89 122 149 191 246 303 346
#     4  11  21  37  61  87 117 157 200 240 288 353
#     4  12  24  38  60  92 124 151 195 253 301 343
#     4  11  23  42  62  84 117 161 205 238 287 362
#     4  10  20  36  59  87 115 150 194 243 293 345
#     4  10  20  36  58  86 118 154 197 242 294 355
#
# _framework density 19.733172
#
# number of rings (size 3 to 8) (size 9 to 14) (size 15 to 20)
#    0.000    1.250    2.500    6.375    0.000    1.500 
#    0.000    2.500    0.000    3.000    0.000    0.000 
#    0.000    0.000    0.000    0.000    0.000    0.000 
#
# Total GULP energy -793872.442141 kJ/mol
# GULP energy per Si atom -12404.256908 kJ/mol
# Density = 1.968826 g / cm^3
# Si number density = 19.733172 Si / 1000 Ang^3
#
#
#
# Elastic Constant Matrix: (Units=GPa)
#
#
# Indices 1 2 3 4 5 6 
#
# 1 46.5510 19.3125 21.1744 0.0000 0.0000 0.0000
# 2 19.3125 116.0853 26.2862 0.0000 0.0000 0.0000
# 3 21.1744 26.2862 96.9732 0.0000 0.0000 0.0000
# 4 0.0000 0.0000 0.0000 27.6880 0.0000 0.0000
# 5 0.0000 0.0000 0.0000 0.0000 18.5426 0.0000
# 6 0.0000 0.0000 0.0000 0.0000 0.0000 24.3416
#
#
#
# Elastic Compliance Matrix: (Units=1/GPa)
#
#
# Indices 1 2 3 4 5 6 
#
# 1 0.024853 -0.003096 -0.004588 0.000000 0.000000 0.000000
# 2 -0.003096 0.009563 -0.001916 0.000000 0.000000 0.000000
# 3 -0.004588 -0.001916 0.011833 0.000000 0.000000 0.000000
# 4 0.000000 0.000000 0.000000 0.036117 0.000000 0.000000
# 5 0.000000 0.000000 0.000000 0.000000 0.053930 0.000000
# 6 0.000000 0.000000 0.000000 0.000000 0.000000 0.041082
#
#
# Mechanical properties :
#
#
# Convention : Reuss Voigt Hill
#
# Bulk Modulus (GPa) = 36.96844 43.68397 40.32620
# Shear Modulus (GPa) = 24.31977 26.97021 25.64499
#
# Velocity S-wave (km/s) = 3.51441 3.70096 3.60889
# Velocity P-wave (km/s) = 5.93657 6.35989 6.15187
#
# Compressibility (1/GPa) = 0.02705010
#
# Stress axis : x y z
#
# Youngs Moduli (GPa) = 40.23681 104.56618 84.50742
#
# Poissons Ratio (x) = 0.32372 0.38768
# Poissons Ratio (y) = 0.12457 0.16194
# Poissons Ratio (z) = 0.18459 0.20038
#
# Static dielectric constant tensor:
#      x y z
#    x 3.239190 0.000000 0.000000 
#    y 0.000000 3.900480 0.000000 
#    z 0.000000 0.000000 3.575700 
# 
# 
# High freq. dielectric constant tensor:
#      x y z
#    x 1.731660 0.000000 0.000000 
#    y 0.000000 1.788520 0.000000 
#    z 0.000000 0.000000 1.774120 
# 
# From -- ./inp_files/17968.got.cif
#   From: 2010.03.12/outbox.cif.g09.slc.cpg/sg57_9_cif.got.tgz:17968.got - 2010.04.16 15:48:40.
