data_PCOD8233212
_publ_section_title
;
Structure prediction by ZEFSAII (Michael W. Deem and Ramdas Pophale) SiO2 
 PCOD8233212
Probable space group: P B C M
;
_chemical_formula_sum "Si O2"
_cell_formula_units_Z 56
_cell_length_a 10.196185
_cell_length_b 19.038861
_cell_length_c 14.302495
_cell_angle_alpha 90.000000
_cell_angle_beta 90.000000
_cell_angle_gamma 90.000000
_cell_volume 2776.453949
_symmetry_space_group_name_H-M "P B C M"
_symmetry_group_IT_number 57
_symmetry_cell_setting 'orthorhombic'
loop_
_space_group_symop_operation_xyz
x,y,z
-x,-y,1/2+z
x,1/2-y,-z
-x,1/2+y,1/2-z
-x,-y,-z
x,y,1/2-z
-x,1/2+y,z
x,1/2-y,1/2+z
loop_
_atom_site_type_symbol
_atom_site_label
_atom_site_fract_x
_atom_site_fract_y
_atom_site_fract_z
Si Si1 0.839002 0.897449 0.959865
Si Si2 0.043385 0.143694 0.856200
Si Si3 0.571140 0.367840 0.355319
Si Si4 0.662219 0.212293 0.357582
Si Si5 0.958084 0.200462 0.360033
Si Si6 0.577321 0.828967 0.523040
Si Si7 0.811251 0.463140 0.145351
O O1 0.700003 0.865543 0.925602
O O2 0.959965 0.858733 0.911819
O O3 0.844987 0.978680 0.931495
O O4 0.850574 0.889118 0.072337
O O5 0.099002 0.140056 0.750000
O O6 0.013489 0.223266 0.886968
O O7 0.908988 0.101574 0.864570
O O8 0.514791 0.368556 0.250000
O O9 0.647547 0.295188 0.375018
O O10 0.451034 0.372186 0.427706
O O11 0.666155 0.433484 0.372199
O O12 0.643322 0.192677 0.250000
O O13 0.807215 0.191644 0.392723
O O14 0.552518 0.168423 0.413091
O O15 0.969063 0.188697 0.250000
O O16 0.620526 0.750000 0.500000
O O17 0.820947 0.495517 0.250000
#
# Coordination Sequence:
#
# PCOD8233212 Si02
#       7
#     8   8   8   8   8   8   8
#     4  12  24  36  57  91 127 154 178 235 308 352
#     4  10  21  38  60  84 114 154 202 240 276 339
#     4   9  18  36  62  82 106 152 205 242 272 332
#     4   9  18  35  60  86 112 147 197 247 281 326
#     4  10  20  36  61  90 115 149 197 243 284 334
#     4  10  22  36  55  87 119 148 188 235 292 346
#     4  10  21  39  60  83 111 152 200 241 288 343
#
# _framework density 20.169611
#
# number of rings (size 3 to 8) (size 9 to 14) (size 15 to 20)
#    0.000    2.000    1.429    2.143    2.000    3.429 
#    0.000    2.857    0.000    0.000    0.000    0.000 
#    0.000    0.000    0.000    0.000    0.000    0.000 
#
# Total GULP energy -694469.253704 kJ/mol
# GULP energy per Si atom -12401.236673 kJ/mol
# Density = 2.012370 g / cm^3
# Si number density = 20.169611 Si / 1000 Ang^3
#
#
#
# Elastic Constant Matrix: (Units=GPa)
#
#
# Indices 1 2 3 4 5 6 
#
# 1 81.0164 6.9359 23.8793 0.0000 0.0000 0.0000
# 2 6.9359 53.3384 11.8874 0.0000 0.0000 0.0000
# 3 23.8793 11.8874 60.6522 0.0000 0.0000 0.0000
# 4 0.0000 0.0000 0.0000 28.3544 0.0000 0.0000
# 5 0.0000 0.0000 0.0000 0.0000 24.6595 0.0000
# 6 0.0000 0.0000 0.0000 0.0000 0.0000 18.5664
#
#
#
# Elastic Compliance Matrix: (Units=1/GPa)
#
#
# Indices 1 2 3 4 5 6 
#
# 1 0.013983 -0.000618 -0.005384 0.000000 0.000000 0.000000
# 2 -0.000618 0.019632 -0.003604 0.000000 0.000000 0.000000
# 3 -0.005384 -0.003604 0.019314 0.000000 0.000000 0.000000
# 4 0.000000 0.000000 0.000000 0.035268 0.000000 0.000000
# 5 0.000000 0.000000 0.000000 0.000000 0.040552 0.000000
# 6 0.000000 0.000000 0.000000 0.000000 0.000000 0.053861
#
#
# Mechanical properties :
#
#
# Convention : Reuss Voigt Hill
#
# Bulk Modulus (GPa) = 29.66023 31.15693 30.40858
# Shear Modulus (GPa) = 23.46743 24.46969 23.96856
#
# Velocity S-wave (km/s) = 3.41472 3.48687 3.45099
# Velocity P-wave (km/s) = 5.50313 5.62957 5.56671
#
# Compressibility (1/GPa) = 0.03371518
#
# Stress axis : x y z
#
# Youngs Moduli (GPa) = 71.51511 50.93749 51.77694
#
# Poissons Ratio (x) = 0.03150 0.27877
# Poissons Ratio (y) = 0.04422 0.18662
# Poissons Ratio (z) = 0.38504 0.18359
#
# Static dielectric constant tensor:
#      x y z
#    x 3.585770 0.000000 0.000000 
#    y 0.000000 3.362100 0.000000 
#    z 0.000000 0.000000 3.928400 
# 
# 
# High freq. dielectric constant tensor:
#      x y z
#    x 1.781610 0.000000 0.000000 
#    y 0.000000 1.764000 0.000000 
#    z 0.000000 0.000000 1.797310 
# 
# From -- ./inp_files/16714.got.cif
#   From: 2010.03.12/outbox.cif.g09.slc.cpg/sg57_9_cif.got.tgz:16714.got - 2010.04.16 15:48:40.
