data_PCOD8233049
_publ_section_title
;
Structure prediction by ZEFSAII (Michael W. Deem and Ramdas Pophale) SiO2 
 PCOD8233049
Probable space group: P B C M
;
_chemical_formula_sum "Si O2"
_cell_formula_units_Z 40
_cell_length_a 25.877644
_cell_length_b 9.123080
_cell_length_c 8.638765
_cell_angle_alpha 90.000000
_cell_angle_beta 90.000000
_cell_angle_gamma 90.000000
_cell_volume 2039.472610
_symmetry_space_group_name_H-M "P B C M"
_symmetry_group_IT_number 57
_symmetry_cell_setting 'orthorhombic'
loop_
_space_group_symop_operation_xyz
x,y,z
-x,-y,1/2+z
x,1/2-y,-z
-x,1/2+y,1/2-z
-x,-y,-z
x,y,1/2-z
-x,1/2+y,z
x,1/2-y,1/2+z
loop_
_atom_site_type_symbol
_atom_site_label
_atom_site_fract_x
_atom_site_fract_y
_atom_site_fract_z
Si Si1 0.452272 0.588183 0.566761
Si Si2 0.153818 0.089711 0.433697
Si Si3 0.253544 0.589386 0.932674
Si Si4 0.952735 0.589030 0.566236
Si Si5 0.648290 0.910926 0.932790
O O1 0.451683 0.750000 0.500000
O O2 0.500000 0.500000 0.500000
O O3 0.456974 0.595963 0.750000
O O4 0.400381 0.506533 0.512614
O O5 0.165648 0.250000 0.500000
O O6 0.147833 0.100966 0.250000
O O7 0.101528 0.021916 0.506902
O O8 0.199823 0.983022 0.485348
O O9 0.257071 0.600912 0.750000
O O10 0.300191 0.489545 0.997195
O O11 0.258336 0.750000 0.000000
O O12 0.957781 0.750000 0.500000
O O13 0.954229 0.589493 0.750000
O O14 0.000000 0.500000 0.500000
O O15 0.650341 0.897259 0.750000
O O16 0.643466 0.750000 0.000000
#
# Coordination Sequence:
#
# PCOD8233049 Si02
#       5
#     8   8   8   8   8
#     4  11  23  39  60  86 118 153 194 239 288 341
#     4  10  20  36  57  82 111 145 186 230 277 334
#     4  10  22  38  57  83 114 146 185 230 279 334
#     4  11  22  38  59  84 114 149 189 233 282 336
#     4  10  22  39  59  85 114 149 190 234 282 337
#
# _framework density 19.612912000000001
#
# number of rings (size 3 to 8) (size 9 to 14) (size 15 to 20)
#    0.000    1.600    0.000    6.000    0.000    6.400 
#    0.000    2.000    0.000    0.000    0.000    0.000 
#    0.000    0.000    0.000    0.000    0.000    0.000 
#
# Total GULP energy -496126.781776 kJ/mol
# GULP energy per Si atom -12403.169544 kJ/mol
# Density = 1.956827 g / cm^3
# Si number density = 19.612912 Si / 1000 Ang^3
#
#
#
# Elastic Constant Matrix: (Units=GPa)
#
#
# Indices 1 2 3 4 5 6 
#
# 1 205.8605 106.6351 66.0467 0.0000 0.0000 0.0000
# 2 106.6351 158.8590 47.3448 0.0000 0.0000 0.0000
# 3 66.0467 47.3448 88.3503 0.0000 0.0000 0.0000
# 4 0.0000 0.0000 0.0000 39.8509 0.0000 0.0000
# 5 0.0000 0.0000 0.0000 0.0000 31.9270 0.0000
# 6 0.0000 0.0000 0.0000 0.0000 0.0000 60.2560
#
#
#
# Elastic Compliance Matrix: (Units=1/GPa)
#
#
# Indices 1 2 3 4 5 6 
#
# 1 0.008441 -0.004505 -0.003896 0.000000 0.000000 0.000000
# 2 -0.004505 0.009896 -0.001935 0.000000 0.000000 0.000000
# 3 -0.003896 -0.001935 0.015268 0.000000 0.000000 0.000000
# 4 0.000000 0.000000 0.000000 0.025094 0.000000 0.000000
# 5 0.000000 0.000000 0.000000 0.000000 0.031321 0.000000
# 6 0.000000 0.000000 0.000000 0.000000 0.000000 0.016596
#
#
# Mechanical properties :
#
#
# Convention : Reuss Voigt Hill
#
# Bulk Modulus (GPa) = 77.32471 99.23589 88.28030
# Shear Modulus (GPa) = 37.99411 41.94299 39.96855
#
# Velocity S-wave (km/s) = 4.40614 4.62945 4.51917
# Velocity P-wave (km/s) = 8.08680 8.90409 8.50527
#
# Compressibility (1/GPa) = 0.01293248
#
# Stress axis : x y z
#
# Youngs Moduli (GPa) = 118.46521 101.05434 65.49601
#
# Poissons Ratio (x) = 0.45526 0.25518
# Poissons Ratio (y) = 0.53370 0.12674
# Poissons Ratio (z) = 0.46156 0.19554
#
# Static dielectric constant tensor:
#      x y z
#    x 3.852830 0.000000 0.000000 
#    y 0.000000 3.650690 0.000000 
#    z 0.000000 0.000000 3.619080 
# 
# 
# High freq. dielectric constant tensor:
#      x y z
#    x 1.788280 0.000000 0.000000 
#    y 0.000000 1.769120 0.000000 
#    z 0.000000 0.000000 1.769480 
# 
# From -- ./inp_files/8853.got.cif
#   From: 2010.03.12/outbox.cif.g09.slc.cpg/sg57_5_cif.got.tgz:8853.got - 2010.04.16 15:48:40.
