data_PCOD8233706
_publ_section_title
;
Structure prediction by ZEFSAII (Michael W. Deem and Ramdas Pophale) SiO2 
 PCOD8233706
Probable space group: P B C M
;
_chemical_formula_sum "Si O2"
_cell_formula_units_Z 36
_cell_length_a 6.690945
_cell_length_b 13.722525
_cell_length_c 18.203687
_cell_angle_alpha 90.000000
_cell_angle_beta 90.000000
_cell_angle_gamma 90.000000
_cell_volume 1671.401741
_symmetry_space_group_name_H-M "P B C M"
_symmetry_group_IT_number 57
_symmetry_cell_setting 'orthorhombic'
loop_
_space_group_symop_operation_xyz
x,y,z
-x,-y,1/2+z
x,1/2-y,-z
-x,1/2+y,1/2-z
-x,-y,-z
x,y,1/2-z
-x,1/2+y,z
x,1/2-y,1/2+z
loop_
_atom_site_type_symbol
_atom_site_label
_atom_site_fract_x
_atom_site_fract_y
_atom_site_fract_z
Si Si1 0.302145 0.057336 0.250000
Si Si2 0.045491 0.264393 0.750000
Si Si3 0.328678 0.306747 0.127007
Si Si4 0.527999 0.604129 0.403546
Si Si5 0.224162 0.014195 0.975864
Si Si6 0.352918 0.657869 0.750000
O O1 0.097048 0.119997 0.250000
O O2 0.445357 0.085161 0.182554
O O3 0.235857 0.945019 0.250000
O O4 0.138010 0.218167 0.823247
O O5 0.807769 0.245775 0.750000
O O6 0.404259 0.214425 0.079005
O O7 0.257947 0.390301 0.072846
O O8 0.513628 0.338818 0.177401
O O9 0.658851 0.525225 0.447739
O O10 0.300222 0.581320 0.430235
O O11 0.000000 0.000000 0.000000
#
# Coordination Sequence:
#
# PCOD8233706 Si02
#       6
#     4   4   8   8   8   4
#     4  10  20  42  66  94 137 175 224 278 335 404
#     4   9  23  37  63 102 128 174 232 270 325 403
#     4  10  22  43  64  96 135 177 225 275 338 400
#     4  10  23  43  64  94 136 171 219 281 335 405
#     4  11  24  41  66 102 128 175 225 273 345 407
#     4  11  21  41  69  96 135 183 220 282 340 385
#
# _framework density 21.538805
#
# number of rings (size 3 to 8) (size 9 to 14) (size 15 to 20)
#    0.000    1.778    2.222    1.333    3.111    3.556 
#    0.000    5.556    0.000    0.000    0.000    0.000 
#    0.000    0.000    0.000    0.000    0.000    0.000 
#
# Total GULP energy -446340.892698 kJ/mol
# GULP energy per Si atom -12398.358131 kJ/mol
# Density = 2.148978 g / cm^3
# Si number density = 21.538805 Si / 1000 Ang^3
#
#
#
# Elastic Constant Matrix: (Units=GPa)
#
#
# Indices 1 2 3 4 5 6 
#
# 1 138.5750 53.3546 53.9678 0.0000 0.0000 0.0000
# 2 53.3546 116.8676 41.3384 0.0000 0.0000 0.0000
# 3 53.9678 41.3384 124.8037 0.0000 0.0000 0.0000
# 4 0.0000 0.0000 0.0000 39.2150 0.0000 0.0000
# 5 0.0000 0.0000 0.0000 0.0000 26.0112 0.0000
# 6 0.0000 0.0000 0.0000 0.0000 0.0000 33.5121
#
#
#
# Elastic Compliance Matrix: (Units=1/GPa)
#
#
# Indices 1 2 3 4 5 6 
#
# 1 0.009705 -0.003337 -0.003091 0.000000 0.000000 0.000000
# 2 -0.003337 0.010840 -0.002147 0.000000 0.000000 0.000000
# 3 -0.003091 -0.002147 0.010061 0.000000 0.000000 0.000000
# 4 0.000000 0.000000 0.000000 0.025500 0.000000 0.000000
# 5 0.000000 0.000000 0.000000 0.000000 0.038445 0.000000
# 6 0.000000 0.000000 0.000000 0.000000 0.000000 0.029840
#
#
# Mechanical properties :
#
#
# Convention : Reuss Voigt Hill
#
# Bulk Modulus (GPa) = 74.32905 75.28531 74.80718
# Shear Modulus (GPa) = 34.24015 35.18671 34.71343
#
# Velocity S-wave (km/s) = 3.99142 4.04622 4.01892
# Velocity P-wave (km/s) = 7.47170 7.54045 7.50615
#
# Compressibility (1/GPa) = 0.01345369
#
# Stress axis : x y z
#
# Youngs Moduli (GPa) = 103.03799 92.25214 99.39782
#
# Poissons Ratio (x) = 0.30788 0.30727
# Poissons Ratio (y) = 0.34387 0.21344
# Poissons Ratio (z) = 0.31852 0.19810
#
# Static dielectric constant tensor:
#      x y z
#    x 3.708420 0.000000 0.000000 
#    y 0.000000 4.438850 0.000000 
#    z 0.000000 0.000000 4.047180 
# 
# 
# High freq. dielectric constant tensor:
#      x y z
#    x 1.827180 0.000000 0.000000 
#    y 0.000000 1.851490 0.000000 
#    z 0.000000 0.000000 1.861740 
# 
# From -- ./inp_files/23505.got.cif
#   From: 2010.03.12/outbox.cif.g09.slc.cpg/sg57_12_cif.got.tgz:23505.got - 2010.04.16 15:48:40.
