data_PCOD8233142
_publ_section_title
;
Structure prediction by ZEFSAII (Michael W. Deem and Ramdas Pophale) SiO2 
 PCOD8233142
Probable space group: P B C M
;
_chemical_formula_sum "Si O2"
_cell_formula_units_Z 48
_cell_length_a 14.987287
_cell_length_b 19.175098
_cell_length_c 8.753986
_cell_angle_alpha 90.000000
_cell_angle_beta 90.000000
_cell_angle_gamma 90.000000
_cell_volume 2515.744106
_symmetry_space_group_name_H-M "P B C M"
_symmetry_group_IT_number 57
_symmetry_cell_setting 'orthorhombic'
loop_
_space_group_symop_operation_xyz
x,y,z
-x,-y,1/2+z
x,1/2-y,-z
-x,1/2+y,1/2-z
-x,-y,-z
x,y,1/2-z
-x,1/2+y,z
x,1/2-y,1/2+z
loop_
_atom_site_type_symbol
_atom_site_label
_atom_site_fract_x
_atom_site_fract_y
_atom_site_fract_z
Si Si1 0.892640 0.825627 0.570414
Si Si2 0.243514 0.566047 0.429381
Si Si3 0.959801 0.068895 0.429362
Si Si4 0.374670 0.824100 0.069487
Si Si5 0.561772 0.822652 0.571711
Si Si6 0.727867 0.919395 0.927946
O O1 0.889203 0.750000 0.500000
O O2 0.889190 0.816558 0.750000
O O3 0.807951 0.870267 0.514455
O O4 0.982923 0.864369 0.516277
O O5 0.257266 0.578650 0.250000
O O6 0.141809 0.579392 0.481164
O O7 0.301906 0.619448 0.524818
O O8 0.272828 0.488217 0.470454
O O9 0.967077 0.059351 0.250000
O O10 0.000000 0.000000 0.500000
O O11 0.380400 0.817338 0.250000
O O12 0.346223 0.750000 0.000000
O O13 0.470383 0.848201 0.005431
O O14 0.595069 0.750000 0.500000
O O15 0.544850 0.810548 0.750000
O O16 0.634959 0.881176 0.540897
O O17 0.739829 0.938820 0.750000
#
# Coordination Sequence:
#
# PCOD8233142 Si02
#       6
#     8   8   8   8   8   8
#     4  10  21  37  57  85 119 151 192 237 285 345
#     4  11  23  38  60  89 117 152 198 243 291 349
#     4  10  21  38  60  84 115 153 194 239 289 346
#     4  11  23  41  63  85 115 154 194 243 295 346
#     4  10  20  36  59  86 117 154 195 240 292 349
#     4  10  21  37  58  85 119 156 192 237 292 348
#
# _framework density 19.079841999999999
#
# number of rings (size 3 to 8) (size 9 to 14) (size 15 to 20)
#    0.000    1.667    1.667    4.000    0.000    4.667 
#    0.000    1.667    0.000    0.000    0.000    0.000 
#    0.000    0.000    0.000    0.000    0.000    0.000 
#
# Total GULP energy -595389.224513 kJ/mol
# GULP energy per Si atom -12403.942177 kJ/mol
# Density = 1.903642 g / cm^3
# Si number density = 19.079842 Si / 1000 Ang^3
#
#
#
# Elastic Constant Matrix: (Units=GPa)
#
#
# Indices 1 2 3 4 5 6 
#
# 1 138.2931 81.5653 55.8339 0.0000 0.0000 0.0000
# 2 81.5653 134.8130 48.2777 0.0000 0.0000 0.0000
# 3 55.8339 48.2777 87.7055 0.0000 0.0000 0.0000
# 4 0.0000 0.0000 0.0000 38.5224 0.0000 0.0000
# 5 0.0000 0.0000 0.0000 0.0000 22.8660 0.0000
# 6 0.0000 0.0000 0.0000 0.0000 0.0000 37.5157
#
#
#
# Elastic Compliance Matrix: (Units=1/GPa)
#
#
# Indices 1 2 3 4 5 6 
#
# 1 0.012678 -0.005954 -0.004794 0.000000 0.000000 0.000000
# 2 -0.005954 0.012035 -0.002834 0.000000 0.000000 0.000000
# 3 -0.004794 -0.002834 0.016014 0.000000 0.000000 0.000000
# 4 0.000000 0.000000 0.000000 0.025959 0.000000 0.000000
# 5 0.000000 0.000000 0.000000 0.000000 0.043733 0.000000
# 6 0.000000 0.000000 0.000000 0.000000 0.000000 0.026656
#
#
# Mechanical properties :
#
#
# Convention : Reuss Voigt Hill
#
# Bulk Modulus (GPa) = 73.73068 81.35171 77.54120
# Shear Modulus (GPa) = 29.62815 31.45647 30.54231
#
# Velocity S-wave (km/s) = 3.94490 4.06479 4.00529
# Velocity P-wave (km/s) = 7.71212 8.04737 7.88153
#
# Compressibility (1/GPa) = 0.01356287
#
# Stress axis : x y z
#
# Youngs Moduli (GPa) = 78.87719 83.09133 62.44702
#
# Poissons Ratio (x) = 0.49472 0.29934
# Poissons Ratio (y) = 0.46962 0.17700
# Poissons Ratio (z) = 0.37810 0.23551
#
# Static dielectric constant tensor:
#      x y z
#    x 3.794770 0.000000 0.000000 
#    y 0.000000 3.568350 0.000000 
#    z 0.000000 0.000000 3.506030 
# 
# 
# High freq. dielectric constant tensor:
#      x y z
#    x 1.755740 0.000000 0.000000 
#    y 0.000000 1.745090 0.000000 
#    z 0.000000 0.000000 1.745360 
# 
# From -- ./inp_files/4683.got.cif
#   From: 2010.03.12/outbox.cif.g09.slc.cpg/sg57_3_cif.got.tgz:4683.got - 2010.04.16 15:48:40.
