data_PCOD8233910
_publ_section_title
;
Structure prediction by ZEFSAII (Michael W. Deem and Ramdas Pophale) SiO2 
 PCOD8233910
Probable space group: P B C M
;
_chemical_formula_sum "Si O2"
_cell_formula_units_Z 56
_cell_length_a 7.020876
_cell_length_b 27.077833
_cell_length_c 14.466744
_cell_angle_alpha 90.000000
_cell_angle_beta 90.000000
_cell_angle_gamma 90.000000
_cell_volume 2750.274262
_symmetry_space_group_name_H-M "P B C M"
_symmetry_group_IT_number 57
_symmetry_cell_setting 'orthorhombic'
loop_
_space_group_symop_operation_xyz
x,y,z
-x,-y,1/2+z
x,1/2-y,-z
-x,1/2+y,1/2-z
-x,-y,-z
x,y,1/2-z
-x,1/2+y,z
x,1/2-y,1/2+z
loop_
_atom_site_type_symbol
_atom_site_label
_atom_site_fract_x
_atom_site_fract_y
_atom_site_fract_z
Si Si1 0.476526 0.948553 0.444517
Si Si2 0.653897 0.649557 0.142911
Si Si3 0.073070 0.066966 0.145001
Si Si4 0.818059 0.614344 0.861082
Si Si5 0.887945 0.462191 0.146040
Si Si6 0.742520 0.127421 0.427985
Si Si7 0.922014 0.807200 0.503956
O O1 0.659145 0.922506 0.401097
O O2 0.339825 0.959246 0.357401
O O3 0.358306 0.909576 0.503193
O O4 0.500000 0.000000 0.500000
O O5 0.705538 0.656555 0.250000
O O6 0.427286 0.653407 0.129584
O O7 0.746703 0.597839 0.103565
O O8 0.766750 0.690931 0.086199
O O9 0.127388 0.055942 0.250000
O O10 0.876548 0.096655 0.140792
O O11 0.051269 0.013760 0.094970
O O12 0.798553 0.622736 0.750000
O O13 0.826697 0.667751 0.911937
O O14 0.009478 0.586094 0.896217
O O15 0.964311 0.463273 0.250000
O O16 0.872752 0.168295 0.476961
O O17 0.969109 0.750000 0.500000
#
# Coordination Sequence:
#
# PCOD8233910 Si02
#       7
#     8   8   8   8   8   8   8
#     4  12  23  35  63  97 130 173 214 258 320 397
#     4  10  21  40  65  94 128 162 208 268 330 389
#     4   9  19  34  56  89 128 170 206 248 305 380
#     4  11  24  44  65  93 130 175 223 272 326 395
#     4  10  21  37  57  88 131 172 212 253 308 380
#     4  11  21  37  61  93 129 164 208 267 326 380
#     4  11  25  45  69  92 123 168 224 278 337 387
#
# _framework density 20.361606999999999
#
# number of rings (size 3 to 8) (size 9 to 14) (size 15 to 20)
#    0.000    1.429    2.857    2.571    2.000    2.857 
#    0.000    5.714    0.000    0.000    0.000    0.000 
#    0.000    0.000    0.000    0.000    0.000    0.000 
#
# Total GULP energy -693743.203502 kJ/mol
# GULP energy per Si atom -12388.271491 kJ/mol
# Density = 2.031526 g / cm^3
# Si number density = 20.361607 Si / 1000 Ang^3
#
#
#
# Elastic Constant Matrix: (Units=GPa)
#
#
# Indices 1 2 3 4 5 6 
#
# 1 133.5981 42.7597 38.4029 0.0000 0.0000 0.0000
# 2 42.7597 130.6775 47.2850 0.0000 0.0000 0.0000
# 3 38.4029 47.2850 78.5782 0.0000 0.0000 0.0000
# 4 0.0000 0.0000 0.0000 19.4088 0.0000 0.0000
# 5 0.0000 0.0000 0.0000 0.0000 32.8147 0.0000
# 6 0.0000 0.0000 0.0000 0.0000 0.0000 21.9691
#
#
#
# Elastic Compliance Matrix: (Units=1/GPa)
#
#
# Indices 1 2 3 4 5 6 
#
# 1 0.009005 -0.001731 -0.003359 0.000000 0.000000 0.000000
# 2 -0.001731 0.010115 -0.005241 0.000000 0.000000 0.000000
# 3 -0.003359 -0.005241 0.017522 0.000000 0.000000 0.000000
# 4 0.000000 0.000000 0.000000 0.051523 0.000000 0.000000
# 5 0.000000 0.000000 0.000000 0.000000 0.030474 0.000000
# 6 0.000000 0.000000 0.000000 0.000000 0.000000 0.045519
#
#
# Mechanical properties :
#
#
# Convention : Reuss Voigt Hill
#
# Bulk Modulus (GPa) = 62.58052 66.63878 64.60965
# Shear Modulus (GPa) = 26.29556 29.13226 27.71391
#
# Velocity S-wave (km/s) = 3.59754 3.78662 3.69329
# Velocity P-wave (km/s) = 6.93237 7.20533 7.07016
#
# Compressibility (1/GPa) = 0.01597941
#
# Stress axis : x y z
#
# Youngs Moduli (GPa) = 111.05236 98.86069 57.07225
#
# Poissons Ratio (x) = 0.17113 0.19172
# Poissons Ratio (y) = 0.19223 0.29911
# Poissons Ratio (z) = 0.37304 0.51812
#
# Static dielectric constant tensor:
#      x y z
#    x 4.210420 0.000000 0.000000 
#    y 0.000000 3.639540 0.000000 
#    z 0.000000 0.000000 3.680900 
# 
# 
# High freq. dielectric constant tensor:
#      x y z
#    x 1.807200 0.000000 0.000000 
#    y 0.000000 1.778130 0.000000 
#    z 0.000000 0.000000 1.796670 
# 
# From -- ./inp_files/15267.got.cif
#   From: 2010.03.12/outbox.cif.g09.slc.cpg/sg57_8_cif.got.tgz:15267.got - 2010.04.16 15:48:40.
