data_PCOD8233761
_publ_section_title
;
Structure prediction by ZEFSAII (Michael W. Deem and Ramdas Pophale) SiO2 
 PCOD8233761
Probable space group: P B C M
;
_chemical_formula_sum "Si O2"
_cell_formula_units_Z 48
_cell_length_a 11.990464
_cell_length_b 12.009655
_cell_length_c 17.565204
_cell_angle_alpha 90.000000
_cell_angle_beta 90.000000
_cell_angle_gamma 90.000000
_cell_volume 2529.412842
_symmetry_space_group_name_H-M "P B C M"
_symmetry_group_IT_number 57
_symmetry_cell_setting 'orthorhombic'
loop_
_space_group_symop_operation_xyz
x,y,z
-x,-y,1/2+z
x,1/2-y,-z
-x,1/2+y,1/2-z
-x,-y,-z
x,y,1/2-z
-x,1/2+y,z
x,1/2-y,1/2+z
loop_
_atom_site_type_symbol
_atom_site_label
_atom_site_fract_x
_atom_site_fract_y
_atom_site_fract_z
Si Si1 0.347170 0.707016 0.339509
Si Si2 0.705723 0.955750 0.338771
Si Si3 0.159782 0.620003 0.659565
Si Si4 0.227570 0.378257 0.659401
Si Si5 0.081433 0.323499 0.339353
Si Si6 0.580892 0.742519 0.910548
O O1 0.371756 0.718546 0.250000
O O2 0.311911 0.582742 0.362062
O O3 0.247137 0.786771 0.365919
O O4 0.454067 0.742093 0.386630
O O5 0.682593 0.934742 0.250000
O O6 0.832969 0.923051 0.359223
O O7 0.619529 0.879537 0.384469
O O8 0.151472 0.612786 0.750000
O O9 0.198592 0.500285 0.627600
O O10 0.038994 0.650758 0.623681
O O11 0.236940 0.376057 0.750000
O O12 0.131738 0.293235 0.630162
O O13 0.346669 0.340557 0.627210
O O14 0.064475 0.312684 0.250000
O O15 0.593062 0.750000 0.000000
#
# Coordination Sequence:
#
# PCOD8233761 Si02
#       6
#     8   8   8   8   8   8
#     4  10  21  35  55  82 111 142 180 223 270 319
#     4   9  19  36  58  82 110 142 178 223 274 325
#     4   9  18  30  53  86 112 137 175 222 268 319
#     4   9  18  34  56  81 109 141 179 222 271 324
#     4   8  15  29  52  82 110 136 170 217 271 318
#     4  11  23  38  56  77 107 145 188 228 272 324
#
# _framework density 18.976735999999999
#
# number of rings (size 3 to 8) (size 9 to 14) (size 15 to 20)
#    0.000    2.667    0.000    2.500    4.667    0.667 
#    0.000    0.000    0.000    8.000    0.000    0.000 
#    0.000    0.000    0.000    0.000    0.000    0.000 
#
# Total GULP energy -595179.742518 kJ/mol
# GULP energy per Si atom -12399.577969 kJ/mol
# Density = 1.893354 g / cm^3
# Si number density = 18.976736 Si / 1000 Ang^3
#
#
#
# Elastic Constant Matrix: (Units=GPa)
#
#
# Indices 1 2 3 4 5 6 
#
# 1 150.4540 73.0730 29.0107 0.0000 0.0000 0.0000
# 2 73.0730 145.3085 26.8420 0.0000 0.0000 0.0000
# 3 29.0107 26.8420 37.7360 0.0000 0.0000 0.0000
# 4 0.0000 0.0000 0.0000 7.0184 0.0000 0.0000
# 5 0.0000 0.0000 0.0000 0.0000 -1.4954 0.0000
# 6 0.0000 0.0000 0.0000 0.0000 0.0000 23.9422
#
#
#
# Elastic Compliance Matrix: (Units=1/GPa)
#
#
# Indices 1 2 3 4 5 6 
#
# 1 0.009402 -0.003906 -0.004449 0.000000 0.000000 0.000000
# 2 -0.003906 0.009546 -0.003787 0.000000 0.000000 0.000000
# 3 -0.004449 -0.003787 0.032614 0.000000 0.000000 0.000000
# 4 0.000000 0.000000 0.000000 0.142483 0.000000 0.000000
# 5 0.000000 0.000000 0.000000 0.000000 -0.668711 0.000000
# 6 0.000000 0.000000 0.000000 0.000000 0.000000 0.041767
#
#
# Mechanical properties :
#
#
# Convention : Reuss Voigt Hill
#
# Bulk Modulus (GPa) = 36.66146 65.70557 51.18351
# Shear Modulus (GPa) = -12.51495 19.53121 3.50813
#
# Velocity S-wave (km/s) = -2.57084 3.21162 1.36113
# Velocity P-wave (km/s) = 3.24790 6.96076 5.43143
#
# Compressibility (1/GPa) = 0.02727660
#
# Stress axis : x y z
#
# Youngs Moduli (GPa) = 106.36549 104.75900 30.66141
#
# Poissons Ratio (x) = 0.40918 0.13642
# Poissons Ratio (y) = 0.41546 0.11612
# Poissons Ratio (z) = 0.47326 0.39674
#
# Static dielectric constant tensor:
#      x y z
#    x 3.675520 0.000000 0.000000 
#    y 0.000000 3.755140 0.000000 
#    z 0.000000 0.000000 2.974610 
# 
# 
# High freq. dielectric constant tensor:
#      x y z
#    x 1.748510 0.000000 0.000000 
#    y 0.000000 1.748750 0.000000 
#    z 0.000000 0.000000 1.686170 
# 
# From -- ./inp_files/21777.got.cif
#   From: 2010.03.12/outbox.cif.g09.slc.cpg/sg57_11_cif.got.tgz:21777.got - 2010.04.16 15:48:40.
