data_PCOD8233148
_publ_section_title
;
Structure prediction by ZEFSAII (Michael W. Deem and Ramdas Pophale) SiO2 
 PCOD8233148
Probable space group: P B C M
;
_chemical_formula_sum "Si O2"
_cell_formula_units_Z 56
_cell_length_a 20.678688
_cell_length_b 15.155717
_cell_length_c 9.032687
_cell_angle_alpha 90.000000
_cell_angle_beta 90.000000
_cell_angle_gamma 90.000000
_cell_volume 2830.847206
_symmetry_space_group_name_H-M "P B C M"
_symmetry_group_IT_number 57
_symmetry_cell_setting 'orthorhombic'
loop_
_space_group_symop_operation_xyz
x,y,z
-x,-y,1/2+z
x,1/2-y,-z
-x,1/2+y,1/2-z
-x,-y,-z
x,y,1/2-z
-x,1/2+y,z
x,1/2-y,1/2+z
loop_
_atom_site_type_symbol
_atom_site_label
_atom_site_fract_x
_atom_site_fract_y
_atom_site_fract_z
Si Si1 0.646604 0.162362 0.921982
Si Si2 0.512140 0.090685 0.919421
Si Si3 0.965494 0.919955 0.921149
Si Si4 0.847687 0.977756 0.073839
Si Si5 0.626316 0.660818 0.921537
Si Si6 0.094803 0.663881 0.081668
Si Si7 0.287360 0.019015 0.424075
O O1 0.642045 0.183338 0.750000
O O2 0.575429 0.138585 0.986228
O O3 0.695924 0.082897 0.955036
O O4 0.673557 0.250000 0.000000
O O5 0.526332 0.066149 0.750000
O O6 0.451044 0.154967 0.936199
O O7 0.500000 0.000000 0.000000
O O8 0.951820 0.942324 0.750000
O O9 0.016396 0.839440 0.935239
O O10 0.897512 0.904794 0.006232
O O11 0.000000 0.000000 0.000000
O O12 0.846573 0.968181 0.250000
O O13 0.870967 0.075050 0.021069
O O14 0.778490 0.956361 0.006213
O O15 0.648020 0.660911 0.750000
O O16 0.650465 0.750000 0.000000
O O17 0.656404 0.578014 0.006324
O O18 0.115397 0.675002 0.250000
O O19 0.121860 0.750000 0.000000
O O20 0.281662 0.038688 0.250000
#
# Coordination Sequence:
#
# PCOD8233148 Si02
#       7
#     8   8   8   8   8   8   8
#     4  10  22  38  57  84 117 153 194 239 292 352
#     4  10  20  36  59  87 116 149 190 239 296 352
#     4   9  17  32  53  79 107 139 179 221 269 322
#     4  10  21  37  56  80 110 147 191 233 280 338
#     4  11  23  39  62  88 115 151 193 243 299 354
#     4   9  19  33  53  82 114 144 179 225 273 330
#     4  11  23  40  60  83 116 156 199 245 292 350
#
# _framework density 19.782063999999998
#
# number of rings (size 3 to 8) (size 9 to 14) (size 15 to 20)
#    0.000    2.000    1.429    3.000    0.000    6.286 
#    0.000    3.571    0.000    1.714    0.000    0.000 
#    0.000    0.000    0.000    0.000    0.000    0.000 
#
# Total GULP energy -694328.585486 kJ/mol
# GULP energy per Si atom -12398.724741 kJ/mol
# Density = 1.973704 g / cm^3
# Si number density = 19.782064 Si / 1000 Ang^3
#
#
#
# Elastic Constant Matrix: (Units=GPa)
#
#
# Indices 1 2 3 4 5 6 
#
# 1 74.3879 -14.6788 22.6205 0.0000 0.0000 0.0000
# 2 -14.6788 57.2994 26.4230 0.0000 0.0000 0.0000
# 3 22.6205 26.4230 93.6404 0.0000 0.0000 0.0000
# 4 0.0000 0.0000 0.0000 34.6422 0.0000 0.0000
# 5 0.0000 0.0000 0.0000 0.0000 30.5223 0.0000
# 6 0.0000 0.0000 0.0000 0.0000 0.0000 16.9940
#
#
#
# Elastic Compliance Matrix: (Units=1/GPa)
#
#
# Indices 1 2 3 4 5 6 
#
# 1 0.016660 0.007040 -0.006011 0.000000 0.000000 0.000000
# 2 0.007040 0.023038 -0.008201 0.000000 0.000000 0.000000
# 3 -0.006011 -0.008201 0.014445 0.000000 0.000000 0.000000
# 4 0.000000 0.000000 0.000000 0.028867 0.000000 0.000000
# 5 0.000000 0.000000 0.000000 0.000000 0.032763 0.000000
# 6 0.000000 0.000000 0.000000 0.000000 0.000000 0.058844
#
#
# Mechanical properties :
#
#
# Convention : Reuss Voigt Hill
#
# Bulk Modulus (GPa) = 25.12674 32.67303 28.89988
# Shear Modulus (GPa) = 24.72463 29.16257 26.94360
#
# Velocity S-wave (km/s) = 3.53916 3.84369 3.69456
# Velocity P-wave (km/s) = 5.42496 6.02087 5.73067
#
# Compressibility (1/GPa) = 0.03979824
#
# Stress axis : x y z
#
# Youngs Moduli (GPa) = 60.02369 43.40739 69.22618
#
# Poissons Ratio (x) = -0.30558 0.41612
# Poissons Ratio (y) = -0.42256 0.56774
# Poissons Ratio (z) = 0.36080 0.35599
#
# Static dielectric constant tensor:
#      x y z
#    x 3.786650 0.000000 0.000000 
#    y 0.000000 3.436000 0.000000 
#    z 0.000000 0.000000 3.486390 
# 
# 
# High freq. dielectric constant tensor:
#      x y z
#    x 1.771420 0.000000 0.000000 
#    y 0.000000 1.752820 0.000000 
#    z 0.000000 0.000000 1.776480 
# 
# From -- ./inp_files/8138.got.cif
#   From: 2010.03.12/outbox.cif.g09.slc.cpg/sg57_5_cif.got.tgz:8138.got - 2010.04.16 15:48:40.
