data_PCOD8233392
_publ_section_title
;
Structure prediction by ZEFSAII (Michael W. Deem and Ramdas Pophale) SiO2 
 PCOD8233392
Probable space group: P B C M
;
_chemical_formula_sum "Si O2"
_cell_formula_units_Z 40
_cell_length_a 20.999077
_cell_length_b 8.914286
_cell_length_c 10.448614
_cell_angle_alpha 90.000000
_cell_angle_beta 90.000000
_cell_angle_gamma 90.000000
_cell_volume 1955.894633
_symmetry_space_group_name_H-M "P B C M"
_symmetry_group_IT_number 57
_symmetry_cell_setting 'orthorhombic'
loop_
_space_group_symop_operation_xyz
x,y,z
-x,-y,1/2+z
x,1/2-y,-z
-x,1/2+y,1/2-z
-x,-y,-z
x,y,1/2-z
-x,1/2+y,z
x,1/2-y,1/2+z
loop_
_atom_site_type_symbol
_atom_site_label
_atom_site_fract_x
_atom_site_fract_y
_atom_site_fract_z
Si Si1 0.359384 0.750000 0.500000
Si Si2 0.072288 0.438923 0.250000
Si Si3 0.726335 0.499803 0.393103
Si Si4 0.143500 0.427454 0.996150
Si Si5 0.360449 0.250000 0.000000
Si Si6 0.935543 0.915454 0.750000
Si Si7 0.554346 0.499969 0.893565
O O1 0.315294 0.648639 0.589627
O O2 0.402672 0.647693 0.408700
O O3 0.111623 0.489134 0.374818
O O4 0.059982 0.262885 0.250000
O O5 0.006275 0.523802 0.250000
O O6 0.753496 0.505846 0.250000
O O7 0.786794 0.498028 0.487648
O O8 0.683040 0.645780 0.412092
O O9 0.100178 0.475343 0.876037
O O10 0.152628 0.250000 0.000000
O O11 0.403849 0.149586 0.907036
O O12 0.524890 0.498226 0.750000
O O13 0.500000 0.500000 0.000000
#
# Coordination Sequence:
#
# PCOD8233392 Si02
#       7
#     4   4   8   8   4   4   8
#     4  10  25  42  60  94 131 168 202 262 316 368
#     4  10  22  38  60  86 124 158 205 256 306 366
#     4  11  21  41  64  89 128 164 212 260 314 369
#     4  10  20  37  62  89 119 163 209 255 308 371
#     4  10  23  38  66  96 117 166 214 256 302 370
#     4  10  20  40  60  86 118 162 207 254 306 368
#     4  11  24  43  66  95 128 164 209 255 310 373
#
# _framework density 20.450997999999998
#
# number of rings (size 3 to 8) (size 9 to 14) (size 15 to 20)
#    0.000    1.600    2.000    2.400    0.000    6.400 
#   12.600    0.000    0.000    0.000    0.000    0.000 
#    0.000    0.000    0.000    0.000    0.000    0.000 
#
# Total GULP energy -496150.595147 kJ/mol
# GULP energy per Si atom -12403.764879 kJ/mol
# Density = 2.040445 g / cm^3
# Si number density = 20.450998 Si / 1000 Ang^3
#
#
#
# Elastic Constant Matrix: (Units=GPa)
#
#
# Indices 1 2 3 4 5 6 
#
# 1 163.2458 53.9098 81.8549 0.0000 0.0000 0.0000
# 2 53.9098 94.6127 39.4722 0.0000 0.0000 0.0000
# 3 81.8549 39.4722 177.8125 0.0000 0.0000 0.0000
# 4 0.0000 0.0000 0.0000 9.1125 0.0000 0.0000
# 5 0.0000 0.0000 0.0000 0.0000 38.7193 0.0000
# 6 0.0000 0.0000 0.0000 0.0000 0.0000 -22.4890
#
#
#
# Elastic Compliance Matrix: (Units=1/GPa)
#
#
# Indices 1 2 3 4 5 6 
#
# 1 0.009035 -0.003761 -0.003324 0.000000 0.000000 0.000000
# 2 -0.003761 0.013214 -0.001202 0.000000 0.000000 0.000000
# 3 -0.003324 -0.001202 0.007421 0.000000 0.000000 0.000000
# 4 0.000000 0.000000 0.000000 0.109740 0.000000 0.000000
# 5 0.000000 0.000000 0.000000 0.000000 0.025827 0.000000
# 6 0.000000 0.000000 0.000000 0.000000 0.000000 -0.044466
#
#
# Mechanical properties :
#
#
# Convention : Reuss Voigt Hill
#
# Bulk Modulus (GPa) = 76.36378 87.34940 81.85659
# Shear Modulus (GPa) = 35.28358 22.43083 28.85720
#
# Velocity S-wave (km/s) = 4.15815 3.31540 3.76046
# Velocity P-wave (km/s) = 7.77654 7.58025 7.67902
#
# Compressibility (1/GPa) = 0.01309521
#
# Stress axis : x y z
#
# Youngs Moduli (GPa) = 110.68649 75.67809 134.75377
#
# Poissons Ratio (x) = 0.28463 0.44793
# Poissons Ratio (y) = 0.41629 0.16197
# Poissons Ratio (z) = 0.36793 0.09096
#
# Static dielectric constant tensor:
#      x y z
#    x 3.740820 0.000000 0.000000 
#    y 0.000000 3.642310 0.000000 
#    z 0.000000 0.000000 3.717840 
# 
# 
# High freq. dielectric constant tensor:
#      x y z
#    x 1.810260 0.000000 0.000000 
#    y 0.000000 1.793040 0.000000 
#    z 0.000000 0.000000 1.802910 
# 
# From -- ./inp_files/9012.got.cif
#   From: 2010.03.12/outbox.cif.g09.slc.cpg/sg57_5_cif.got.tgz:9012.got - 2010.04.16 15:48:40.
