data_PCOD8233810
_publ_section_title
;
Structure prediction by ZEFSAII (Michael W. Deem and Ramdas Pophale) SiO2 
 PCOD8233810
Probable space group: P B C M
;
_chemical_formula_sum "Si O2"
_cell_formula_units_Z 48
_cell_length_a 11.367449
_cell_length_b 23.397892
_cell_length_c 9.181645
_cell_angle_alpha 90.000000
_cell_angle_beta 90.000000
_cell_angle_gamma 90.000000
_cell_volume 2442.082006
_symmetry_space_group_name_H-M "P B C M"
_symmetry_group_IT_number 57
_symmetry_cell_setting 'orthorhombic'
loop_
_space_group_symop_operation_xyz
x,y,z
-x,-y,1/2+z
x,1/2-y,-z
-x,1/2+y,1/2-z
-x,-y,-z
x,y,1/2-z
-x,1/2+y,z
x,1/2-y,1/2+z
loop_
_atom_site_type_symbol
_atom_site_label
_atom_site_fract_x
_atom_site_fract_y
_atom_site_fract_z
Si Si1 0.875181 0.855192 0.579596
Si Si2 0.459548 0.404804 0.583938
Si Si3 0.768736 0.526288 0.414874
Si Si4 0.658486 0.806134 0.077174
Si Si5 0.131785 0.690463 0.079629
Si Si6 0.727803 0.082096 0.418236
O O1 0.844688 0.845975 0.750000
O O2 0.854533 0.921708 0.538003
O O3 0.789582 0.816647 0.482818
O O4 0.005659 0.836070 0.539826
O O5 0.450622 0.381127 0.750000
O O6 0.367797 0.456283 0.562790
O O7 0.429586 0.356238 0.467811
O O8 0.590205 0.425933 0.549170
O O9 0.793788 0.509085 0.250000
O O10 0.797428 0.470134 0.508055
O O11 0.661708 0.799258 0.250000
O O12 0.607500 0.750000 0.000000
O O13 0.143054 0.702745 0.250000
O O14 0.227474 0.643872 0.025153
O O15 0.155010 0.750000 0.000000
O O16 0.759585 0.077696 0.250000
#
# Coordination Sequence:
#
# PCOD8233810 Si02
#       6
#     8   8   8   8   8   8
#     4   9  19  37  57  79 109 140 175 223 273 317
#     4   9  19  36  54  76 110 146 180 222 270 316
#     4   9  18  33  55  81 108 140 177 221 270 317
#     4  11  21  33  53  80 107 138 180 227 275 325
#     4  10  22  39  57  78 107 144 183 222 265 314
#     4  10  21  36  55  80 111 145 179 218 264 318
#
# _framework density 19.655360000000002
#
# number of rings (size 3 to 8) (size 9 to 14) (size 15 to 20)
#    0.000    2.333    0.000    3.500    0.000    7.333 
#    0.000    1.667    0.000    0.000    0.000    0.000 
#    0.000    0.000    0.000    0.000    0.000    0.000 
#
# Total GULP energy -595185.909569 kJ/mol
# GULP energy per Si atom -12399.706449 kJ/mol
# Density = 1.961062 g / cm^3
# Si number density = 19.655360 Si / 1000 Ang^3
#
#
#
# Elastic Constant Matrix: (Units=GPa)
#
#
# Indices 1 2 3 4 5 6 
#
# 1 31.8468 23.9802 14.3951 0.0000 0.0000 0.0000
# 2 23.9802 138.1021 54.6653 0.0000 0.0000 0.0000
# 3 14.3951 54.6653 85.1015 0.0000 0.0000 0.0000
# 4 0.0000 0.0000 0.0000 41.6262 0.0000 0.0000
# 5 0.0000 0.0000 0.0000 0.0000 21.0932 0.0000
# 6 0.0000 0.0000 0.0000 0.0000 0.0000 17.5997
#
#
#
# Elastic Compliance Matrix: (Units=1/GPa)
#
#
# Indices 1 2 3 4 5 6 
#
# 1 0.036625 -0.005240 -0.002830 0.000000 0.000000 0.000000
# 2 -0.005240 0.010459 -0.005832 0.000000 0.000000 0.000000
# 3 -0.002830 -0.005832 0.015976 0.000000 0.000000 0.000000
# 4 0.000000 0.000000 0.000000 0.024023 0.000000 0.000000
# 5 0.000000 0.000000 0.000000 0.000000 0.047409 0.000000
# 6 0.000000 0.000000 0.000000 0.000000 0.000000 0.056819
#
#
# Mechanical properties :
#
#
# Convention : Reuss Voigt Hill
#
# Bulk Modulus (GPa) = 28.36322 49.01462 38.68892
# Shear Modulus (GPa) = 21.65755 26.86445 24.26100
#
# Velocity S-wave (km/s) = 3.32304 3.70100 3.51710
# Velocity P-wave (km/s) = 5.40232 6.57681 6.01828
#
# Compressibility (1/GPa) = 0.03525693
#
# Stress axis : x y z
#
# Youngs Moduli (GPa) = 27.30408 95.60705 62.59473
#
# Poissons Ratio (x) = 0.50093 0.17711
# Poissons Ratio (y) = 0.14306 0.36508
# Poissons Ratio (z) = 0.07726 0.55762
#
# Static dielectric constant tensor:
#      x y z
#    x 3.501560 0.000000 0.000000 
#    y 0.000000 3.576030 0.000000 
#    z 0.000000 0.000000 3.425370 
# 
# 
# High freq. dielectric constant tensor:
#      x y z
#    x 1.756390 0.000000 0.000000 
#    y 0.000000 1.772170 0.000000 
#    z 0.000000 0.000000 1.755240 
# 
# From -- ./inp_files/3148.got.cif
#   From: 2010.03.12/outbox.cif.g09.slc.cpg/sg57_2_cif.got.tgz:3148.got - 2010.04.16 15:48:40.
