data_PCOD8233553
_publ_section_title
;
Structure prediction by ZEFSAII (Michael W. Deem and Ramdas Pophale) SiO2 
 PCOD8233553
Probable space group: P B C M
;
_chemical_formula_sum "Si O2"
_cell_formula_units_Z 56
_cell_length_a 14.690529
_cell_length_b 22.303742
_cell_length_c 8.701625
_cell_angle_alpha 90.000000
_cell_angle_beta 90.000000
_cell_angle_gamma 90.000000
_cell_volume 2851.120225
_symmetry_space_group_name_H-M "P B C M"
_symmetry_group_IT_number 57
_symmetry_cell_setting 'orthorhombic'
loop_
_space_group_symop_operation_xyz
x,y,z
-x,-y,1/2+z
x,1/2-y,-z
-x,1/2+y,1/2-z
-x,-y,-z
x,y,1/2-z
-x,1/2+y,z
x,1/2-y,1/2+z
loop_
_atom_site_type_symbol
_atom_site_label
_atom_site_fract_x
_atom_site_fract_y
_atom_site_fract_z
Si Si1 0.889336 0.954905 0.573622
Si Si2 0.571927 0.687147 0.929823
Si Si3 0.199152 0.687781 0.930891
Si Si4 0.299359 0.093966 0.073738
Si Si5 0.383018 0.852463 0.574626
Si Si6 0.089300 0.578641 0.429114
Si Si7 0.597523 0.009020 0.073923
O O1 0.895098 0.976243 0.750000
O O2 0.809522 0.906034 0.550199
O O3 0.982614 0.922099 0.524982
O O4 0.869028 0.014050 0.473266
O O5 0.557113 0.693030 0.750000
O O6 0.601294 0.750000 0.000000
O O7 0.654687 0.642466 0.964167
O O8 0.479555 0.663951 0.004034
O O9 0.195972 0.692435 0.750000
O O10 0.160685 0.750000 0.000000
O O11 0.303269 0.679920 0.983070
O O12 0.136949 0.632534 0.982174
O O13 0.326611 0.107191 0.250000
O O14 0.331902 0.028041 0.027070
O O15 0.380493 0.830032 0.750000
O O16 0.368650 0.923238 0.564634
O O17 0.106011 0.589607 0.250000
O O18 0.594530 0.986385 0.250000
O O19 0.500000 0.000000 0.000000
#
# Coordination Sequence:
#
# PCOD8233553 Si02
#       7
#     8   8   8   8   8   8   8
#     4   9  20  38  63  92 122 156 193 240 297 353
#     4  12  25  41  60  81 112 153 198 242 289 343
#     4  12  25  41  61  87 120 159 202 248 299 357
#     4  11  22  38  59  86 120 154 195 241 289 345
#     4  11  23  40  61  87 119 156 198 242 292 350
#     4  10  20  38  63  92 123 154 194 242 295 356
#     4  11  22  35  56  85 119 155 194 240 293 345
#
# _framework density 19.641403
#
# number of rings (size 3 to 8) (size 9 to 14) (size 15 to 20)
#    0.000    1.143    1.429    5.571    0.000    5.714 
#    0.000    0.714    0.000    0.000    0.000    0.000 
#    0.000    0.000    0.000    0.000    0.000    0.000 
#
# Total GULP energy -694665.340688 kJ/mol
# GULP energy per Si atom -12404.738227 kJ/mol
# Density = 1.959670 g / cm^3
# Si number density = 19.641403 Si / 1000 Ang^3
#
#
#
# Elastic Constant Matrix: (Units=GPa)
#
#
# Indices 1 2 3 4 5 6 
#
# 1 100.0293 46.4773 34.2093 0.0000 0.0000 0.0000
# 2 46.4773 103.9747 48.2110 0.0000 0.0000 0.0000
# 3 34.2093 48.2110 123.9880 0.0000 0.0000 0.0000
# 4 0.0000 0.0000 0.0000 36.7560 0.0000 0.0000
# 5 0.0000 0.0000 0.0000 0.0000 26.1942 0.0000
# 6 0.0000 0.0000 0.0000 0.0000 0.0000 20.5470
#
#
#
# Elastic Compliance Matrix: (Units=1/GPa)
#
#
# Indices 1 2 3 4 5 6 
#
# 1 0.012874 -0.005011 -0.001603 0.000000 0.000000 0.000000
# 2 -0.005011 0.013684 -0.003938 0.000000 0.000000 0.000000
# 3 -0.001603 -0.003938 0.010039 0.000000 0.000000 0.000000
# 4 0.000000 0.000000 0.000000 0.027206 0.000000 0.000000
# 5 0.000000 0.000000 0.000000 0.000000 0.038176 0.000000
# 6 0.000000 0.000000 0.000000 0.000000 0.000000 0.048669
#
#
# Mechanical properties :
#
#
# Convention : Reuss Voigt Hill
#
# Bulk Modulus (GPa) = 64.55334 65.08744 64.82039
# Shear Modulus (GPa) = 28.26174 29.97239 29.11706
#
# Velocity S-wave (km/s) = 3.79738 3.91062 3.85441
# Velocity P-wave (km/s) = 7.22247 7.32123 7.27202
#
# Compressibility (1/GPa) = 0.01549107
#
# Stress axis : x y z
#
# Youngs Moduli (GPa) = 77.67702 73.07930 99.61161
#
# Poissons Ratio (x) = 0.36621 0.15972
# Poissons Ratio (y) = 0.38925 0.39228
# Poissons Ratio (z) = 0.12455 0.28779
#
# Static dielectric constant tensor:
#      x y z
#    x 3.384680 0.000000 0.000000 
#    y 0.000000 3.619750 0.000000 
#    z 0.000000 0.000000 3.734750 
# 
# 
# High freq. dielectric constant tensor:
#      x y z
#    x 1.767870 0.000000 0.000000 
#    y 0.000000 1.762250 0.000000 
#    z 0.000000 0.000000 1.781160 
# 
# From -- ./inp_files/5253.got.cif
#   From: 2010.03.12/outbox.cif.g09.slc.cpg/sg57_3_cif.got.tgz:5253.got - 2010.04.16 15:48:40.
