data_PCOD8233987
_publ_section_title
;
Structure prediction by ZEFSAII (Michael W. Deem and Ramdas Pophale) SiO2 
 PCOD8233987
Probable space group: P B C M
;
_chemical_formula_sum "Si O2"
_cell_formula_units_Z 36
_cell_length_a 12.808275
_cell_length_b 5.149317
_cell_length_c 24.718415
_cell_angle_alpha 90.000000
_cell_angle_beta 90.000000
_cell_angle_gamma 90.000000
_cell_volume 1630.275085
_symmetry_space_group_name_H-M "P B C M"
_symmetry_group_IT_number 57
_symmetry_cell_setting 'orthorhombic'
loop_
_space_group_symop_operation_xyz
x,y,z
-x,-y,1/2+z
x,1/2-y,-z
-x,1/2+y,1/2-z
-x,-y,-z
x,y,1/2-z
-x,1/2+y,z
x,1/2-y,1/2+z
loop_
_atom_site_type_symbol
_atom_site_label
_atom_site_fract_x
_atom_site_fract_y
_atom_site_fract_z
Si Si1 0.545277 0.174371 0.810560
Si Si2 0.754564 0.784327 0.913372
Si Si3 0.068222 0.796147 0.750000
Si Si4 0.232738 0.715550 0.156706
Si Si5 0.071437 0.250000 0.000000
Si Si6 0.425879 0.250000 0.500000
O O1 0.499169 0.141480 0.750000
O O2 0.484027 0.407375 0.841528
O O3 0.667242 0.223567 0.806966
O O4 0.755626 0.576448 0.865094
O O5 0.856880 0.726971 0.947732
O O6 0.768758 0.077437 0.891898
O O7 0.647986 0.756643 0.947262
O O8 0.133324 0.756976 0.804818
O O9 0.976162 0.586853 0.750000
O O10 0.000000 0.500000 0.000000
O O11 0.500000 0.500000 0.500000
#
# Coordination Sequence:
#
# PCOD8233987 Si02
#       6
#     8   8   4   8   4   4
#     4  10  21  37  60  89 123 165 208 249 300 359
#     4  11  26  41  68 100 127 170 219 266 327 395
#     4  12  28  46  66  94 132 180 226 276 336 388
#     4  12  24  44  65  96 135 169 220 271 319 386
#     4  11  24  45  68  92 124 159 210 277 334 380
#     4  11  24  45  68 100 142 175 212 267 328 404
#
# _framework density 22.082163000000001
#
# number of rings (size 3 to 8) (size 9 to 14) (size 15 to 20)
#    0.000    0.889    1.111    5.333    0.000   14.222 
#    0.000    0.000    0.000    0.000    0.000    0.000 
#    0.000    0.000    0.000    0.000    0.000    0.000 
#
# Total GULP energy -446429.989892 kJ/mol
# GULP energy per Si atom -12400.833053 kJ/mol
# Density = 2.203190 g / cm^3
# Si number density = 22.082163 Si / 1000 Ang^3
#
#
#
# Elastic Constant Matrix: (Units=GPa)
#
#
# Indices 1 2 3 4 5 6 
#
# 1 131.6486 45.7730 38.5224 0.0000 0.0000 0.0000
# 2 45.7730 154.0755 24.0351 0.0000 0.0000 0.0000
# 3 38.5224 24.0351 81.0502 0.0000 0.0000 0.0000
# 4 0.0000 0.0000 0.0000 27.1202 0.0000 0.0000
# 5 0.0000 0.0000 0.0000 0.0000 22.9328 0.0000
# 6 0.0000 0.0000 0.0000 0.0000 0.0000 47.9415
#
#
#
# Elastic Compliance Matrix: (Units=1/GPa)
#
#
# Indices 1 2 3 4 5 6 
#
# 1 0.009496 -0.002220 -0.003855 0.000000 0.000000 0.000000
# 2 -0.002220 0.007324 -0.001117 0.000000 0.000000 0.000000
# 3 -0.003855 -0.001117 0.014502 0.000000 0.000000 0.000000
# 4 0.000000 0.000000 0.000000 0.036873 0.000000 0.000000
# 5 0.000000 0.000000 0.000000 0.000000 0.043606 0.000000
# 6 0.000000 0.000000 0.000000 0.000000 0.000000 0.020859
#
#
# Mechanical properties :
#
#
# Convention : Reuss Voigt Hill
#
# Bulk Modulus (GPa) = 59.03860 64.82613 61.93237
# Shear Modulus (GPa) = 32.74654 36.82847 34.78751
#
# Velocity S-wave (km/s) = 3.85507 4.08829 3.97339
# Velocity P-wave (km/s) = 6.82711 7.19069 7.01126
#
# Compressibility (1/GPa) = 0.01693807
#
# Stress axis : x y z
#
# Youngs Moduli (GPa) = 105.31003 136.53782 68.95838
#
# Poissons Ratio (x) = 0.30307 0.26584
# Poissons Ratio (y) = 0.23375 0.07702
# Poissons Ratio (z) = 0.40597 0.15250
#
# Static dielectric constant tensor:
#      x y z
#    x 4.096200 0.000000 0.000000 
#    y 0.000000 4.533180 0.000000 
#    z 0.000000 0.000000 3.857080 
# 
# 
# High freq. dielectric constant tensor:
#      x y z
#    x 1.883000 0.000000 0.000000 
#    y 0.000000 1.894650 0.000000 
#    z 0.000000 0.000000 1.862910 
# 
# From -- ./inp_files/27014.got.cif
#   From: 2010.03.12/outbox.cif.g09.slc.cpg/sg57_14_cif.got.tgz:27014.got - 2010.04.16 15:48:40.
