data_PCOD8233546
_publ_section_title
;
Structure prediction by ZEFSAII (Michael W. Deem and Ramdas Pophale) SiO2 
 PCOD8233546
Probable space group: P B C M
;
_chemical_formula_sum "Si O2"
_cell_formula_units_Z 48
_cell_length_a 14.618827
_cell_length_b 8.919714
_cell_length_c 16.453043
_cell_angle_alpha 90.000000
_cell_angle_beta 90.000000
_cell_angle_gamma 90.000000
_cell_volume 2145.406978
_symmetry_space_group_name_H-M "P B C M"
_symmetry_group_IT_number 57
_symmetry_cell_setting 'orthorhombic'
loop_
_space_group_symop_operation_xyz
x,y,z
-x,-y,1/2+z
x,1/2-y,-z
-x,1/2+y,1/2-z
-x,-y,-z
x,y,1/2-z
-x,1/2+y,z
x,1/2-y,1/2+z
loop_
_atom_site_type_symbol
_atom_site_label
_atom_site_fract_x
_atom_site_fract_y
_atom_site_fract_z
Si Si1 0.597974 0.187492 0.589128
Si Si2 0.980415 0.732713 0.750000
Si Si3 0.547472 0.491825 0.839470
Si Si4 0.259134 0.072036 0.615576
Si Si5 0.868409 0.444824 0.750000
Si Si6 0.215404 0.601087 0.539426
Si Si7 0.119844 0.317631 0.913769
O O1 0.584339 0.250000 0.500000
O O2 0.570642 0.317072 0.651637
O O3 0.704654 0.143566 0.603683
O O4 0.531586 0.045224 0.599493
O O5 0.956955 0.556845 0.750000
O O6 0.943935 0.801272 0.664712
O O7 0.088591 0.776362 0.750000
O O8 0.508208 0.517632 0.750000
O O9 0.639838 0.590474 0.848650
O O10 0.192961 0.970206 0.671064
O O11 0.216279 0.236793 0.605270
O O12 0.269040 0.990507 0.529917
O O13 0.169300 0.750000 0.500000
O O14 0.136705 0.496582 0.577586
O O15 0.079852 0.250000 0.000000
#
# Coordination Sequence:
#
# PCOD8233546 Si02
#       7
#     8   4   8   8   4   8   8
#     4  11  24  40  60  89 126 166 221 263 314 373
#     4  10  22  44  66 101 129 168 214 267 327 392
#     4  12  24  41  59  89 127 166 215 268 317 367
#     4  10  20  38  63  85 123 168 203 257 321 382
#     4  10  22  42  64  93 129 164 208 263 325 392
#     4  10  20  39  59  92 123 160 219 260 314 378
#     4   9  21  40  67  95 130 168 214 260 326 400
#
# _framework density 22.373377000000001
#
# number of rings (size 3 to 8) (size 9 to 14) (size 15 to 20)
#    0.000    1.667    4.167    1.000    2.333    2.000 
#    3.000    8.333    0.000    0.000    0.000    0.000 
#    0.000    0.000    0.000    0.000    0.000    0.000 
#
# Total GULP energy -595003.877425 kJ/mol
# GULP energy per Si atom -12395.914113 kJ/mol
# Density = 2.232245 g / cm^3
# Si number density = 22.373377 Si / 1000 Ang^3
#
#
#
# Elastic Constant Matrix: (Units=GPa)
#
#
# Indices 1 2 3 4 5 6 
#
# 1 49.1649 5.6187 10.9675 0.0000 0.0000 0.0000
# 2 5.6187 65.3463 -5.4505 0.0000 0.0000 0.0000
# 3 10.9675 -5.4505 90.2800 0.0000 0.0000 0.0000
# 4 0.0000 0.0000 0.0000 28.3802 0.0000 0.0000
# 5 0.0000 0.0000 0.0000 0.0000 14.4746 0.0000
# 6 0.0000 0.0000 0.0000 0.0000 0.0000 31.5433
#
#
#
# Elastic Compliance Matrix: (Units=1/GPa)
#
#
# Indices 1 2 3 4 5 6 
#
# 1 0.021175 -0.002046 -0.002696 0.000000 0.000000 0.000000
# 2 -0.002046 0.015578 0.001189 0.000000 0.000000 0.000000
# 3 -0.002696 0.001189 0.011476 0.000000 0.000000 0.000000
# 4 0.000000 0.000000 0.000000 0.035236 0.000000 0.000000
# 5 0.000000 0.000000 0.000000 0.000000 0.069087 0.000000
# 6 0.000000 0.000000 0.000000 0.000000 0.000000 0.031702
#
#
# Mechanical properties :
#
#
# Convention : Reuss Voigt Hill
#
# Bulk Modulus (GPa) = 24.31664 25.22916 24.77290
# Shear Modulus (GPa) = 24.38230 27.78998 26.08614
#
# Velocity S-wave (km/s) = 3.30478 3.52817 3.41830
# Velocity P-wave (km/s) = 5.04522 5.28187 5.16490
#
# Compressibility (1/GPa) = 0.04112411
#
# Stress axis : x y z
#
# Youngs Moduli (GPa) = 47.22576 64.19251 87.13879
#
# Poissons Ratio (x) = 0.13131 0.23492
# Poissons Ratio (y) = 0.09660 -0.10361
# Poissons Ratio (z) = 0.12732 -0.07633
#
# Static dielectric constant tensor:
#      x y z
#    x 3.775090 0.000000 0.000000 
#    y 0.000000 4.287450 0.000000 
#    z 0.000000 0.000000 4.109820 
# 
# 
# High freq. dielectric constant tensor:
#      x y z
#    x 1.859790 0.000000 0.000000 
#    y 0.000000 1.880020 0.000000 
#    z 0.000000 0.000000 1.885980 
# 
# From -- ./inp_files/22504.got.cif
#   From: 2010.03.12/outbox.cif.g09.slc.cpg/sg57_12_cif.got.tgz:22504.got - 2010.04.16 15:48:40.
