data_PCOD8233845
_publ_section_title
;
Structure prediction by ZEFSAII (Michael W. Deem and Ramdas Pophale) SiO2 
 PCOD8233845
Probable space group: P B C M
;
_chemical_formula_sum "Si O2"
_cell_formula_units_Z 48
_cell_length_a 5.393344
_cell_length_b 29.042228
_cell_length_c 13.460592
_cell_angle_alpha 90.000000
_cell_angle_beta 90.000000
_cell_angle_gamma 90.000000
_cell_volume 2108.396141
_symmetry_space_group_name_H-M "P B C M"
_symmetry_group_IT_number 57
_symmetry_cell_setting 'orthorhombic'
loop_
_space_group_symop_operation_xyz
x,y,z
-x,-y,1/2+z
x,1/2-y,-z
-x,1/2+y,1/2-z
-x,-y,-z
x,y,1/2-z
-x,1/2+y,z
x,1/2-y,1/2+z
loop_
_atom_site_type_symbol
_atom_site_label
_atom_site_fract_x
_atom_site_fract_y
_atom_site_fract_z
Si Si1 0.511490 0.097324 0.359055
Si Si2 0.154508 0.846651 0.983955
Si Si3 0.882250 0.775929 0.637598
Si Si4 0.387731 0.781715 0.362266
Si Si5 0.135710 0.069297 0.993130
Si Si6 0.164536 0.989457 0.860153
O O1 0.398437 0.108262 0.250000
O O2 0.717658 0.136093 0.381388
O O3 0.326905 0.102132 0.450470
O O4 0.604357 0.044715 0.360104
O O5 0.922998 0.815574 0.945203
O O6 0.067894 0.893225 0.042253
O O7 0.349688 0.822231 0.057745
O O8 0.846504 0.795015 0.750000
O O9 0.633535 0.747466 0.608312
O O10 0.134744 0.746913 0.631856
O O11 0.422607 0.801261 0.250000
O O12 0.051359 0.031629 0.073502
O O13 0.243146 0.040206 0.900688
O O14 0.057092 0.996002 0.750000
#
# Coordination Sequence:
#
# PCOD8233845 Si02
#       6
#     8   8   8   8   8   8
#     4  10  21  37  60  92 128 164 211 271 329 391
#     4  11  24  38  63  95 129 164 219 275 333 394
#     4  10  23  43  66  91 125 173 221 269 331 397
#     4  10  24  44  66  93 130 174 220 271 331 399
#     4  10  21  36  60  91 125 168 211 267 329 397
#     4   9  19  38  59  87 125 168 213 259 321 399
#
# _framework density 22.766120000000001
#
# number of rings (size 3 to 8) (size 9 to 14) (size 15 to 20)
#    0.000    2.000    0.000    2.000    4.667    4.000 
#    0.000    0.833    0.000    0.000    0.000    0.000 
#    0.000    0.000    0.000    0.000    0.000    0.000 
#
# Total GULP energy -594663.572848 kJ/mol
# GULP energy per Si atom -12388.824434 kJ/mol
# Density = 2.271430 g / cm^3
# Si number density = 22.766120 Si / 1000 Ang^3
#
#
#
# Elastic Constant Matrix: (Units=GPa)
#
#
# Indices 1 2 3 4 5 6 
#
# 1 109.1484 48.1232 30.2518 0.0000 0.0000 0.0000
# 2 48.1232 121.6482 68.1936 0.0000 0.0000 0.0000
# 3 30.2518 68.1936 105.4018 0.0000 0.0000 0.0000
# 4 0.0000 0.0000 0.0000 21.3342 0.0000 0.0000
# 5 0.0000 0.0000 0.0000 0.0000 21.7698 0.0000
# 6 0.0000 0.0000 0.0000 0.0000 0.0000 25.6976
#
#
#
# Elastic Compliance Matrix: (Units=1/GPa)
#
#
# Indices 1 2 3 4 5 6 
#
# 1 0.011117 -0.004094 -0.000542 0.000000 0.000000 0.000000
# 2 -0.004094 0.014406 -0.008146 0.000000 0.000000 0.000000
# 3 -0.000542 -0.008146 0.014913 0.000000 0.000000 0.000000
# 4 0.000000 0.000000 0.000000 0.046873 0.000000 0.000000
# 5 0.000000 0.000000 0.000000 0.000000 0.045935 0.000000
# 6 0.000000 0.000000 0.000000 0.000000 0.000000 0.038914
#
#
# Mechanical properties :
#
#
# Convention : Reuss Voigt Hill
#
# Bulk Modulus (GPa) = 67.23469 69.92618 68.58043
# Shear Modulus (GPa) = 24.66942 26.40230 25.53586
#
# Velocity S-wave (km/s) = 3.29538 3.40916 3.35275
# Velocity P-wave (km/s) = 6.63900 6.80281 6.72140
#
# Compressibility (1/GPa) = 0.01487328
#
# Stress axis : x y z
#
# Youngs Moduli (GPa) = 89.95153 69.41418 67.05475
#
# Poissons Ratio (x) = 0.28418 0.03634
# Poissons Ratio (y) = 0.36826 0.54620
# Poissons Ratio (z) = 0.04875 0.56542
#
# Static dielectric constant tensor:
#      x y z
#    x 4.022940 0.000000 0.000000 
#    y 0.000000 4.113170 0.000000 
#    z 0.000000 0.000000 4.360390 
# 
# 
# High freq. dielectric constant tensor:
#      x y z
#    x 1.889680 0.000000 0.000000 
#    y 0.000000 1.895770 0.000000 
#    z 0.000000 0.000000 1.895680 
# 
# From -- ./inp_files/15114.got.cif
#   From: 2010.03.12/outbox.cif.g09.slc.cpg/sg57_8_cif.got.tgz:15114.got - 2010.04.16 15:48:40.
