data_PCOD8233477
_publ_section_title
;
Structure prediction by ZEFSAII (Michael W. Deem and Ramdas Pophale) SiO2 
 PCOD8233477
Probable space group: P B C M
;
_chemical_formula_sum "Si O2"
_cell_formula_units_Z 64
_cell_length_a 14.280352
_cell_length_b 25.610880
_cell_length_c 9.014309
_cell_angle_alpha 90.000000
_cell_angle_beta 90.000000
_cell_angle_gamma 90.000000
_cell_volume 3296.824698
_symmetry_space_group_name_H-M "P B C M"
_symmetry_group_IT_number 57
_symmetry_cell_setting 'orthorhombic'
loop_
_space_group_symop_operation_xyz
x,y,z
-x,-y,1/2+z
x,1/2-y,-z
-x,1/2+y,1/2-z
-x,-y,-z
x,y,1/2-z
-x,1/2+y,z
x,1/2-y,1/2+z
loop_
_atom_site_type_symbol
_atom_site_label
_atom_site_fract_x
_atom_site_fract_y
_atom_site_fract_z
Si Si1 0.416467 0.301115 0.920393
Si Si2 0.881666 0.105268 0.075902
Si Si3 0.206423 0.196515 0.074486
Si Si4 0.765545 0.194766 0.572945
Si Si5 0.206031 0.495023 0.421707
Si Si6 0.904067 0.596505 0.075382
Si Si7 0.590672 0.477547 0.922636
Si Si8 0.598164 0.139844 0.077271
O O1 0.410739 0.286227 0.750000
O O2 0.312813 0.316600 0.976543
O O3 0.488906 0.347640 0.950581
O O4 0.455459 0.250000 0.000000
O O5 0.873067 0.118712 0.250000
O O6 0.824325 0.053445 0.035203
O O7 0.988344 0.096029 0.026778
O O8 0.841792 0.152974 0.981246
O O9 0.196915 0.202748 0.250000
O O10 0.143018 0.149371 0.013565
O O11 0.171248 0.250000 0.000000
O O12 0.791552 0.250000 0.500000
O O13 0.767776 0.199544 0.750000
O O14 0.662369 0.177642 0.520315
O O15 0.185269 0.484760 0.250000
O O16 0.147142 0.454048 0.513678
O O17 0.316710 0.488363 0.457788
O O18 0.892519 0.593965 0.250000
O O19 0.567833 0.476386 0.750000
O O20 0.612306 0.419058 0.977535
O O21 0.500000 0.500000 0.000000
O O22 0.626152 0.146899 0.250000
#
# Coordination Sequence:
#
# PCOD8233477 Si02
#       8
#     8   8   8   8   8   8   8   8
#     4   9  18  32  53  77 106 144 181 223 274 332
#     4  10  21  42  63  85 119 154 194 250 303 350
#     4   9  19  36  55  82 115 148 188 233 285 341
#     4  12  25  40  62  90 120 159 202 250 304 364
#     4  10  21  39  61  85 120 158 193 240 300 356
#     4  10  22  37  62  91 115 150 197 245 294 355
#     4  10  22  38  58  86 120 159 194 240 298 351
#     4  10  20  38  60  82 116 156 193 242 298 348
#
# _framework density 19.412617000000001
#
# number of rings (size 3 to 8) (size 9 to 14) (size 15 to 20)
#    0.000    2.000    1.250    1.875    1.750    4.500 
#    0.000    1.250    0.000    0.000    0.000    0.000 
#    0.000    0.000    0.000    0.000    0.000    0.000 
#
# Total GULP energy -793694.650645 kJ/mol
# GULP energy per Si atom -12401.478916 kJ/mol
# Density = 1.936843 g / cm^3
# Si number density = 19.412617 Si / 1000 Ang^3
#
#
#
# Elastic Constant Matrix: (Units=GPa)
#
#
# Indices 1 2 3 4 5 6 
#
# 1 123.5406 54.8443 39.0848 0.0000 0.0000 0.0000
# 2 54.8443 108.7664 44.7816 0.0000 0.0000 0.0000
# 3 39.0848 44.7816 61.0804 0.0000 0.0000 0.0000
# 4 0.0000 0.0000 0.0000 34.8621 0.0000 0.0000
# 5 0.0000 0.0000 0.0000 0.0000 27.4877 0.0000
# 6 0.0000 0.0000 0.0000 0.0000 0.0000 31.6968
#
#
#
# Elastic Compliance Matrix: (Units=1/GPa)
#
#
# Indices 1 2 3 4 5 6 
#
# 1 0.011173 -0.003854 -0.004324 0.000000 0.000000 0.000000
# 2 -0.003854 0.014498 -0.008164 0.000000 0.000000 0.000000
# 3 -0.004324 -0.008164 0.025124 0.000000 0.000000 0.000000
# 4 0.000000 0.000000 0.000000 0.028684 0.000000 0.000000
# 5 0.000000 0.000000 0.000000 0.000000 0.036380 0.000000
# 6 0.000000 0.000000 0.000000 0.000000 0.000000 0.031549
#
#
# Mechanical properties :
#
#
# Convention : Reuss Voigt Hill
#
# Bulk Modulus (GPa) = 55.21030 63.42317 59.31673
# Shear Modulus (GPa) = 26.86291 29.12111 27.99201
#
# Velocity S-wave (km/s) = 3.72396 3.87733 3.80142
# Velocity P-wave (km/s) = 6.85512 7.26546 7.06327
#
# Compressibility (1/GPa) = 0.01811256
#
# Stress axis : x y z
#
# Youngs Moduli (GPa) = 89.49834 68.97355 39.80210
#
# Poissons Ratio (x) = 0.26580 0.17212
# Poissons Ratio (y) = 0.34489 0.32493
# Poissons Ratio (z) = 0.38703 0.56308
#
# Static dielectric constant tensor:
#      x y z
#    x 3.817760 0.000000 0.000000 
#    y 0.000000 3.615890 0.000000 
#    z 0.000000 0.000000 3.448740 
# 
# 
# High freq. dielectric constant tensor:
#      x y z
#    x 1.768570 0.000000 0.000000 
#    y 0.000000 1.759340 0.000000 
#    z 0.000000 0.000000 1.741010 
# 
# From -- ./inp_files/5574.got.cif
#   From: 2010.03.12/outbox.cif.g09.slc.cpg/sg57_3_cif.got.tgz:5574.got - 2010.04.16 15:48:40.
