data_PCOD8233468
_publ_section_title
;
Structure prediction by ZEFSAII (Michael W. Deem and Ramdas Pophale) SiO2 
 PCOD8233468
Probable space group: P B C M
;
_chemical_formula_sum "Si O2"
_cell_formula_units_Z 48
_cell_length_a 14.982358
_cell_length_b 19.232664
_cell_length_c 8.732203
_cell_angle_alpha 90.000000
_cell_angle_beta 90.000000
_cell_angle_gamma 90.000000
_cell_volume 2516.190034
_symmetry_space_group_name_H-M "P B C M"
_symmetry_group_IT_number 57
_symmetry_cell_setting 'orthorhombic'
loop_
_space_group_symop_operation_xyz
x,y,z
-x,-y,1/2+z
x,1/2-y,-z
-x,1/2+y,1/2-z
-x,-y,-z
x,y,1/2-z
-x,1/2+y,z
x,1/2-y,1/2+z
loop_
_atom_site_type_symbol
_atom_site_label
_atom_site_fract_x
_atom_site_fract_y
_atom_site_fract_z
Si Si1 0.462267 0.430489 0.929345
Si Si2 0.780700 0.411445 0.570230
Si Si3 0.608319 0.325559 0.930404
Si Si4 0.740086 0.943444 0.928460
Si Si5 0.066499 0.823585 0.068864
Si Si6 0.876886 0.677518 0.430087
O O1 0.476089 0.437551 0.750000
O O2 0.519353 0.364773 0.990098
O O3 0.359414 0.419442 0.974015
O O4 0.500000 0.500000 0.000000
O O5 0.797567 0.402809 0.750000
O O6 0.693691 0.369598 0.514888
O O7 0.768821 0.491901 0.530908
O O8 0.865392 0.383390 0.478499
O O9 0.607872 0.317754 0.750000
O O10 0.612570 0.250000 0.000000
O O11 0.746106 0.963871 0.750000
O O12 0.804098 0.880014 0.970295
O O13 0.062180 0.816769 0.250000
O O14 0.098438 0.750000 0.000000
O O15 0.970003 0.845056 0.005369
O O16 0.842675 0.750000 0.500000
O O17 0.891319 0.686495 0.250000
#
# Coordination Sequence:
#
# PCOD8233468 Si02
#       6
#     8   8   8   8   8   8
#     4  10  20  38  59  83 114 151 192 235 285 341
#     4  11  22  37  58  86 118 153 194 239 288 348
#     4  10  22  37  56  85 117 150 191 235 283 339
#     4  10  22  38  60  86 116 152 192 239 292 346
#     4  11  22  38  60  85 115 154 194 238 291 344
#     4  10  21  39  60  85 115 151 193 240 290 344
#
# _framework density 19.076460000000001
#
# number of rings (size 3 to 8) (size 9 to 14) (size 15 to 20)
#    0.000    1.667    1.667    4.000    0.000    6.000 
#    0.000    0.000    0.000    0.000    0.000    0.000 
#    0.000    0.000    0.000    0.000    0.000    0.000 
#
# Total GULP energy -595394.766861 kJ/mol
# GULP energy per Si atom -12404.057643 kJ/mol
# Density = 1.903304 g / cm^3
# Si number density = 19.076460 Si / 1000 Ang^3
#
#
#
# Elastic Constant Matrix: (Units=GPa)
#
#
# Indices 1 2 3 4 5 6 
#
# 1 146.5847 90.8117 56.0383 0.0000 0.0000 0.0000
# 2 90.8117 144.5852 53.5216 0.0000 0.0000 0.0000
# 3 56.0383 53.5216 82.9175 0.0000 0.0000 0.0000
# 4 0.0000 0.0000 0.0000 36.0625 0.0000 0.0000
# 5 0.0000 0.0000 0.0000 0.0000 13.1230 0.0000
# 6 0.0000 0.0000 0.0000 0.0000 0.0000 41.4674
#
#
#
# Elastic Compliance Matrix: (Units=1/GPa)
#
#
# Indices 1 2 3 4 5 6 
#
# 1 0.012258 -0.006087 -0.004355 0.000000 0.000000 0.000000
# 2 -0.006087 0.012110 -0.003703 0.000000 0.000000 0.000000
# 3 -0.004355 -0.003703 0.017394 0.000000 0.000000 0.000000
# 4 0.000000 0.000000 0.000000 0.027730 0.000000 0.000000
# 5 0.000000 0.000000 0.000000 0.000000 0.076202 0.000000
# 6 0.000000 0.000000 0.000000 0.000000 0.000000 0.024115
#
#
# Mechanical properties :
#
#
# Convention : Reuss Voigt Hill
#
# Bulk Modulus (GPa) = 74.23168 86.09227 80.16197
# Shear Modulus (GPa) = 24.68037 29.71165 27.19601
#
# Velocity S-wave (km/s) = 3.60079 3.95080 3.77985
# Velocity P-wave (km/s) = 7.50232 8.12649 7.82063
#
# Compressibility (1/GPa) = 0.01347134
#
# Stress axis : x y z
#
# Youngs Moduli (GPa) = 81.58032 82.57530 57.49083
#
# Poissons Ratio (x) = 0.50261 0.25040
# Poissons Ratio (y) = 0.49656 0.21290
# Poissons Ratio (z) = 0.35531 0.30580
#
# Static dielectric constant tensor:
#      x y z
#    x 3.772510 0.000000 0.000000 
#    y 0.000000 3.496800 0.000000 
#    z 0.000000 0.000000 3.507840 
# 
# 
# High freq. dielectric constant tensor:
#      x y z
#    x 1.754380 0.000000 0.000000 
#    y 0.000000 1.744500 0.000000 
#    z 0.000000 0.000000 1.744350 
# 
# From -- ./inp_files/4604.got.cif
#   From: 2010.03.12/outbox.cif.g09.slc.cpg/sg57_3_cif.got.tgz:4604.got - 2010.04.16 15:48:40.
