data_PCOD8233641
_publ_section_title
;
Structure prediction by ZEFSAII (Michael W. Deem and Ramdas Pophale) SiO2 
 PCOD8233641
Probable space group: P B C M
;
_chemical_formula_sum "Si O2"
_cell_formula_units_Z 56
_cell_length_a 12.607567
_cell_length_b 13.818037
_cell_length_c 13.975818
_cell_angle_alpha 90.000000
_cell_angle_beta 90.000000
_cell_angle_gamma 90.000000
_cell_volume 2434.752792
_symmetry_space_group_name_H-M "P B C M"
_symmetry_group_IT_number 57
_symmetry_cell_setting 'orthorhombic'
loop_
_space_group_symop_operation_xyz
x,y,z
-x,-y,1/2+z
x,1/2-y,-z
-x,1/2+y,1/2-z
-x,-y,-z
x,y,1/2-z
-x,1/2+y,z
x,1/2-y,1/2+z
loop_
_atom_site_type_symbol
_atom_site_label
_atom_site_fract_x
_atom_site_fract_y
_atom_site_fract_z
Si Si1 0.869963 0.226758 0.141256
Si Si2 0.363300 0.438991 0.352448
Si Si3 0.655785 0.152745 0.099077
Si Si4 0.103636 0.244396 0.637462
Si Si5 0.408183 0.642101 0.612566
Si Si6 0.190238 0.109346 0.497831
Si Si7 0.190503 0.557446 0.644546
O O1 0.842012 0.200212 0.250000
O O2 0.783558 0.167379 0.078916
O O3 0.864815 0.341049 0.123182
O O4 0.991970 0.200397 0.117576
O O5 0.312665 0.404309 0.250000
O O6 0.366268 0.555283 0.343901
O O7 0.480811 0.397377 0.352837
O O8 0.302081 0.403283 0.446933
O O9 0.613633 0.249063 0.153779
O O10 0.593325 0.144339 0.001029
O O11 0.124391 0.230093 0.750000
O O12 0.106890 0.140680 0.581670
O O13 0.195717 0.308627 0.586184
O O14 0.317611 0.569574 0.649622
O O15 0.156573 0.012077 0.442812
O O16 0.154192 0.517811 0.750000
#
# Coordination Sequence:
#
# PCOD8233641 Si02
#       7
#     8   8   8   8   8   8   8
#     4   9  20  41  68  97 130 172 224 280 337 401
#     4  12  25  43  64  97 140 180 226 280 334 398
#     4  10  21  40  71  98 131 171 221 279 337 394
#     4  10  23  45  66  91 132 178 226 278 338 405
#     4  10  22  41  67  98 133 171 225 271 330 403
#     4  11  24  41  64  94 130 172 225 274 336 399
#     4  10  20  39  66  96 129 166 217 280 338 400
#
# _framework density 23.000281999999999
#
# number of rings (size 3 to 8) (size 9 to 14) (size 15 to 20)
#    0.000    1.714    1.429    2.143    0.000    9.143 
#    2.571    0.000    0.000    0.000    0.000    0.000 
#    0.000    0.000    0.000    0.000    0.000    0.000 
#
# Total GULP energy -693754.584790 kJ/mol
# GULP energy per Si atom -12388.474728 kJ/mol
# Density = 2.294793 g / cm^3
# Si number density = 23.000282 Si / 1000 Ang^3
#
#
#
# Elastic Constant Matrix: (Units=GPa)
#
#
# Indices 1 2 3 4 5 6 
#
# 1 82.9100 50.4046 24.3488 0.0000 0.0000 0.0000
# 2 50.4046 103.1351 41.7377 0.0000 0.0000 0.0000
# 3 24.3488 41.7377 149.8980 0.0000 0.0000 0.0000
# 4 0.0000 0.0000 0.0000 1.4018 0.0000 0.0000
# 5 0.0000 0.0000 0.0000 0.0000 36.6518 0.0000
# 6 0.0000 0.0000 0.0000 0.0000 0.0000 24.1641
#
#
#
# Elastic Compliance Matrix: (Units=1/GPa)
#
#
# Indices 1 2 3 4 5 6 
#
# 1 0.017194 -0.008197 -0.000511 0.000000 0.000000 0.000000
# 2 -0.008197 0.014835 -0.002799 0.000000 0.000000 0.000000
# 3 -0.000511 -0.002799 0.007534 0.000000 0.000000 0.000000
# 4 0.000000 0.000000 0.000000 0.713344 0.000000 0.000000
# 5 0.000000 0.000000 0.000000 0.000000 0.027284 0.000000
# 6 0.000000 0.000000 0.000000 0.000000 0.000000 0.041384
#
#
# Mechanical properties :
#
#
# Convention : Reuss Voigt Hill
#
# Bulk Modulus (GPa) = 60.42428 63.21393 61.81910
# Shear Modulus (GPa) = 5.88164 27.07367 16.47765
#
# Velocity S-wave (km/s) = 1.60086 3.43461 2.67949
# Velocity P-wave (km/s) = 5.45391 6.57818 6.04225
#
# Compressibility (1/GPa) = 0.01654964
#
# Stress axis : x y z
#
# Youngs Moduli (GPa) = 58.15873 67.40963 132.73938
#
# Poissons Ratio (x) = 0.55253 0.06779
# Poissons Ratio (y) = 0.47670 0.37156
# Poissons Ratio (z) = 0.02970 0.18869
#
# Static dielectric constant tensor:
#      x y z
#    x 3.901700 0.000000 0.000000 
#    y 0.000000 4.196390 0.000000 
#    z 0.000000 0.000000 4.316160 
# 
# 
# High freq. dielectric constant tensor:
#      x y z
#    x 1.883090 0.000000 0.000000 
#    y 0.000000 1.895120 0.000000 
#    z 0.000000 0.000000 1.932720 
# 
# From -- ./inp_files/17682.got.cif
#   From: 2010.03.12/outbox.cif.g09.slc.cpg/sg57_9_cif.got.tgz:17682.got - 2010.04.16 15:48:40.
