data_PCOD8233898
_publ_section_title
;
Structure prediction by ZEFSAII (Michael W. Deem and Ramdas Pophale) SiO2 
 PCOD8233898
Probable space group: P B C M
;
_chemical_formula_sum "Si O2"
_cell_formula_units_Z 48
_cell_length_a 9.286710
_cell_length_b 14.888080
_cell_length_c 17.065683
_cell_angle_alpha 90.000000
_cell_angle_beta 90.000000
_cell_angle_gamma 90.000000
_cell_volume 2359.523200
_symmetry_space_group_name_H-M "P B C M"
_symmetry_group_IT_number 57
_symmetry_cell_setting 'orthorhombic'
loop_
_space_group_symop_operation_xyz
x,y,z
-x,-y,1/2+z
x,1/2-y,-z
-x,1/2+y,1/2-z
-x,-y,-z
x,y,1/2-z
-x,1/2+y,z
x,1/2-y,1/2+z
loop_
_atom_site_type_symbol
_atom_site_label
_atom_site_fract_x
_atom_site_fract_y
_atom_site_fract_z
Si Si1 0.868509 0.792649 0.160812
Si Si2 0.825834 0.986177 0.160529
Si Si3 0.312012 0.379983 0.659254
Si Si4 0.638086 0.145559 0.342476
Si Si5 0.899310 0.008986 0.921645
Si Si6 0.165200 0.786937 0.085363
O O1 0.913274 0.813424 0.250000
O O2 0.807366 0.885998 0.122997
O O3 0.744303 0.720811 0.154590
O O4 0.011216 0.755964 0.118885
O O5 0.778785 0.984595 0.250000
O O6 0.994127 0.009987 0.151067
O O7 0.729513 0.062937 0.118821
O O8 0.299647 0.416018 0.750000
O O9 0.475592 0.371298 0.630247
O O10 0.229379 0.438644 0.593357
O O11 0.649186 0.143601 0.250000
O O12 0.702436 0.241993 0.367669
O O13 0.823248 0.105554 0.914890
O O14 0.000000 0.000000 0.000000
O O15 0.178323 0.750000 0.000000
#
# Coordination Sequence:
#
# PCOD8233898 Si02
#       6
#     8   8   8   8   8   8
#     4   9  18  34  57  81 106 142 190 240 287 341
#     4   9  18  34  56  80 108 147 193 240 292 349
#     4  10  21  37  58  85 116 150 190 238 294 354
#     4  10  21  37  57  83 118 154 189 236 294 355
#     4  11  22  37  59  84 112 150 197 246 291 346
#     4  11  22  37  57  83 113 149 193 238 287 343
#
# _framework density 20.343093
#
# number of rings (size 3 to 8) (size 9 to 14) (size 15 to 20)
#    0.000    2.000    0.000    4.000    0.000    6.000 
#    0.000   10.833    0.000    0.000    0.000    0.000 
#    0.000    0.000    0.000    0.000    0.000    0.000 
#
# Total GULP energy -594778.839193 kJ/mol
# GULP energy per Si atom -12391.225817 kJ/mol
# Density = 2.029679 g / cm^3
# Si number density = 20.343093 Si / 1000 Ang^3
#
#
#
# Elastic Constant Matrix: (Units=GPa)
#
#
# Indices 1 2 3 4 5 6 
#
# 1 141.1691 84.9744 33.0194 0.0000 0.0000 0.0000
# 2 84.9744 123.1491 24.4606 0.0000 0.0000 0.0000
# 3 33.0194 24.4606 34.0246 0.0000 0.0000 0.0000
# 4 0.0000 0.0000 0.0000 33.4816 0.0000 0.0000
# 5 0.0000 0.0000 0.0000 0.0000 7.2799 0.0000
# 6 0.0000 0.0000 0.0000 0.0000 0.0000 19.6276
#
#
#
# Elastic Compliance Matrix: (Units=1/GPa)
#
#
# Indices 1 2 3 4 5 6 
#
# 1 0.013586 -0.007881 -0.007519 0.000000 0.000000 0.000000
# 2 -0.007881 0.014045 -0.002448 0.000000 0.000000 0.000000
# 3 -0.007519 -0.002448 0.038448 0.000000 0.000000 0.000000
# 4 0.000000 0.000000 0.000000 0.029867 0.000000 0.000000
# 5 0.000000 0.000000 0.000000 0.000000 0.137364 0.000000
# 6 0.000000 0.000000 0.000000 0.000000 0.000000 0.050949
#
#
# Mechanical properties :
#
#
# Convention : Reuss Voigt Hill
#
# Bulk Modulus (GPa) = 32.91510 64.80573 48.86041
# Shear Modulus (GPa) = 15.14768 22.47040 18.80904
#
# Velocity S-wave (km/s) = 2.73172 3.32711 3.04401
# Velocity P-wave (km/s) = 5.11515 6.83265 6.03531
#
# Compressibility (1/GPa) = 0.03038119
#
# Stress axis : x y z
#
# Youngs Moduli (GPa) = 73.60263 71.20078 26.00937
#
# Poissons Ratio (x) = 0.56116 0.19557
# Poissons Ratio (y) = 0.58009 0.06368
# Poissons Ratio (z) = 0.55343 0.17433
#
# Static dielectric constant tensor:
#      x y z
#    x 3.762850 0.000000 0.000000 
#    y 0.000000 4.622670 0.000000 
#    z 0.000000 0.000000 3.637610 
# 
# 
# High freq. dielectric constant tensor:
#      x y z
#    x 1.783890 0.000000 0.000000 
#    y 0.000000 1.808910 0.000000 
#    z 0.000000 0.000000 1.779970 
# 
# From -- ./inp_files/20950.got.cif
#   From: 2010.03.12/outbox.cif.g09.slc.cpg/sg57_11_cif.got.tgz:20950.got - 2010.04.16 15:48:40.
