data_PCOD8233942
_publ_section_title
;
Structure prediction by ZEFSAII (Michael W. Deem and Ramdas Pophale) SiO2 
 PCOD8233942
Probable space group: P B C M
;
_chemical_formula_sum "Si O2"
_cell_formula_units_Z 52
_cell_length_a 18.660741
_cell_length_b 9.333733
_cell_length_c 14.053045
_cell_angle_alpha 90.000000
_cell_angle_beta 90.000000
_cell_angle_gamma 90.000000
_cell_volume 2447.680317
_symmetry_space_group_name_H-M "P B C M"
_symmetry_group_IT_number 57
_symmetry_cell_setting 'orthorhombic'
loop_
_space_group_symop_operation_xyz
x,y,z
-x,-y,1/2+z
x,1/2-y,-z
-x,1/2+y,1/2-z
-x,-y,-z
x,y,1/2-z
-x,1/2+y,z
x,1/2-y,1/2+z
loop_
_atom_site_type_symbol
_atom_site_label
_atom_site_fract_x
_atom_site_fract_y
_atom_site_fract_z
Si Si1 0.432184 0.355514 0.636156
Si Si2 0.568110 0.320993 0.362920
Si Si3 0.700044 0.674847 0.861289
Si Si4 0.139630 0.233943 0.861144
Si Si5 0.916415 0.524801 0.007959
Si Si6 0.174423 0.750000 0.000000
Si Si7 0.706981 0.147684 0.363136
O O1 0.431296 0.358500 0.750000
O O2 0.500902 0.269064 0.597431
O O3 0.434115 0.517535 0.596313
O O4 0.361675 0.275790 0.594843
O O5 0.564919 0.324494 0.250000
O O6 0.639984 0.242599 0.397430
O O7 0.686821 0.661898 0.750000
O O8 0.775904 0.749061 0.883947
O O9 0.695793 0.513717 0.902377
O O10 0.123609 0.225024 0.750000
O O11 0.098565 0.368236 0.904975
O O12 0.111463 0.087771 0.908030
O O13 0.876370 0.378849 0.031503
O O14 0.000000 0.500000 0.000000
O O15 0.221933 0.786561 0.908429
O O16 0.717138 0.150959 0.250000
#
# Coordination Sequence:
#
# PCOD8233942 Si02
#       7
#     8   8   8   8   8   4   8
#     4   9  16  27  50  83 119 159 207 259 312 367
#     4   9  17  29  49  82 120 161 208 258 311 368
#     4   9  17  33  57  85 118 161 210 258 307 366
#     4  10  22  43  69  96 129 169 215 259 312 378
#     4  11  25  45  67  96 132 166 208 259 318 386
#     4  12  24  40  66  94 128 164 204 262 322 380
#     4  10  21  37  58  87 125 165 210 258 311 375
#
# _framework density 21.244606000000001
#
# number of rings (size 3 to 8) (size 9 to 14) (size 15 to 20)
#    0.000    2.154    1.538    1.846    2.154    4.923 
#    0.000    1.538    0.000    5.538    0.000    0.000 
#    0.000    0.000    0.000    0.000    0.000    0.000 
#
# Total GULP energy -644923.693378 kJ/mol
# GULP energy per Si atom -12402.378719 kJ/mol
# Density = 2.119625 g / cm^3
# Si number density = 21.244606 Si / 1000 Ang^3
#
#
#
# Elastic Constant Matrix: (Units=GPa)
#
#
# Indices 1 2 3 4 5 6 
#
# 1 168.7864 79.3662 23.7433 0.0000 0.0000 0.0000
# 2 79.3662 176.1920 30.5149 0.0000 0.0000 0.0000
# 3 23.7433 30.5149 66.5111 0.0000 0.0000 0.0000
# 4 0.0000 0.0000 0.0000 23.3687 0.0000 0.0000
# 5 0.0000 0.0000 0.0000 0.0000 12.2006 0.0000
# 6 0.0000 0.0000 0.0000 0.0000 0.0000 56.5900
#
#
#
# Elastic Compliance Matrix: (Units=1/GPa)
#
#
# Indices 1 2 3 4 5 6 
#
# 1 0.007610 -0.003213 -0.001243 0.000000 0.000000 0.000000
# 2 -0.003213 0.007522 -0.002304 0.000000 0.000000 0.000000
# 3 -0.001243 -0.002304 0.016536 0.000000 0.000000 0.000000
# 4 0.000000 0.000000 0.000000 0.042792 0.000000 0.000000
# 5 0.000000 0.000000 0.000000 0.000000 0.081963 0.000000
# 6 0.000000 0.000000 0.000000 0.000000 0.000000 0.017671
#
#
# Mechanical properties :
#
#
# Convention : Reuss Voigt Hill
#
# Bulk Modulus (GPa) = 55.10032 75.41537 65.25784
# Shear Modulus (GPa) = 25.81804 36.95620 31.38712
#
# Velocity S-wave (km/s) = 3.48986 4.17532 3.84789
# Velocity P-wave (km/s) = 6.49856 7.66943 7.10814
#
# Compressibility (1/GPa) = 0.01814871
#
# Stress axis : x y z
#
# Youngs Moduli (GPa) = 131.40303 132.94527 60.47489
#
# Poissons Ratio (x) = 0.42713 0.07515
# Poissons Ratio (y) = 0.42217 0.13934
# Poissons Ratio (z) = 0.16329 0.30632
#
# Static dielectric constant tensor:
#      x y z
#    x 3.914600 0.000000 0.000000 
#    y 0.000000 4.164040 0.000000 
#    z 0.000000 0.000000 3.520220 
# 
# 
# High freq. dielectric constant tensor:
#      x y z
#    x 1.837900 0.000000 0.000000 
#    y 0.000000 1.844930 0.000000 
#    z 0.000000 0.000000 1.820240 
# 
# From -- ./inp_files/22850.got.cif
#   From: 2010.03.12/outbox.cif.g09.slc.cpg/sg57_12_cif.got.tgz:22850.got - 2010.04.16 15:48:40.
