data_PCOD8233760
_publ_section_title
;
Structure prediction by ZEFSAII (Michael W. Deem and Ramdas Pophale) SiO2 
 PCOD8233760
Probable space group: P B C M
;
_chemical_formula_sum "Si O2"
_cell_formula_units_Z 64
_cell_length_a 14.789480
_cell_length_b 23.681981
_cell_length_c 9.004662
_cell_angle_alpha 90.000000
_cell_angle_beta 90.000000
_cell_angle_gamma 90.000000
_cell_volume 3153.830498
_symmetry_space_group_name_H-M "P B C M"
_symmetry_group_IT_number 57
_symmetry_cell_setting 'orthorhombic'
loop_
_space_group_symop_operation_xyz
x,y,z
-x,-y,1/2+z
x,1/2-y,-z
-x,1/2+y,1/2-z
-x,-y,-z
x,y,1/2-z
-x,1/2+y,z
x,1/2-y,1/2+z
loop_
_atom_site_type_symbol
_atom_site_label
_atom_site_fract_x
_atom_site_fract_y
_atom_site_fract_z
Si Si1 0.467697 0.810878 0.574037
Si Si2 0.227413 0.194258 0.577953
Si Si3 0.303576 0.875452 0.073990
Si Si4 0.905371 0.001995 0.413879
Si Si5 0.641419 0.883408 0.919681
Si Si6 0.020187 0.193611 0.923955
Si Si7 0.271889 0.497016 0.920724
Si Si8 0.874495 0.368997 0.586140
O O1 0.488091 0.750000 0.500000
O O2 0.456545 0.802291 0.750000
O O3 0.379244 0.838862 0.506285
O O4 0.546069 0.856102 0.535408
O O5 0.266585 0.250000 0.500000
O O6 0.240689 0.203980 0.750000
O O7 0.281716 0.140420 0.525576
O O8 0.123923 0.183914 0.534046
O O9 0.310850 0.866895 0.250000
O O10 0.309747 0.941789 0.027324
O O11 0.209803 0.849269 0.014125
O O12 0.917537 0.973576 0.250000
O O13 0.819803 0.974252 0.498818
O O14 0.872365 0.064982 0.391712
O O15 0.000000 0.000000 0.500000
O O16 0.664396 0.868011 0.750000
O O17 0.646868 0.951394 0.943926
O O18 0.003226 0.196450 0.750000
O O19 0.982362 0.250000 0.000000
O O20 0.966236 0.142704 0.997077
O O21 0.243326 0.502236 0.750000
O O22 0.871753 0.339993 0.750000
#
# Coordination Sequence:
#
# PCOD8233760 Si02
#       8
#     8   8   8   8   8   8   8   8
#     4  11  24  42  64  91 120 153 197 247 301 361
#     4  10  21  36  55  81 114 154 197 245 297 354
#     4  10  21  40  64  88 119 155 195 245 298 356
#     4  10  21  35  54  82 116 156 199 243 287 337
#     4  10  22  39  61  88 121 157 195 244 297 355
#     4  10  21  36  54  80 113 150 194 241 291 350
#     4   9  20  39  60  87 121 159 199 241 297 356
#     4  10  21  37  57  82 113 151 192 239 291 343
#
# _framework density 20.292784000000001
#
# number of rings (size 3 to 8) (size 9 to 14) (size 15 to 20)
#    0.000    2.000    0.000    2.625    1.750    7.000 
#    0.000    2.500    0.000    0.000    0.000    0.000 
#    0.000    0.000    0.000    0.000    0.000    0.000 
#
# Total GULP energy -793415.055928 kJ/mol
# GULP energy per Si atom -12397.110249 kJ/mol
# Density = 2.024660 g / cm^3
# Si number density = 20.292784 Si / 1000 Ang^3
#
#
#
# Elastic Constant Matrix: (Units=GPa)
#
#
# Indices 1 2 3 4 5 6 
#
# 1 86.6545 26.3579 46.2193 0.0000 0.0000 0.0000
# 2 26.3579 51.5502 23.2170 0.0000 0.0000 0.0000
# 3 46.2193 23.2170 92.3957 0.0000 0.0000 0.0000
# 4 0.0000 0.0000 0.0000 29.7759 0.0000 0.0000
# 5 0.0000 0.0000 0.0000 0.0000 29.8447 0.0000
# 6 0.0000 0.0000 0.0000 0.0000 0.0000 32.5266
#
#
#
# Elastic Compliance Matrix: (Units=1/GPa)
#
#
# Indices 1 2 3 4 5 6 
#
# 1 0.017013 -0.005487 -0.007132 0.000000 0.000000 0.000000
# 2 -0.005487 0.023644 -0.003196 0.000000 0.000000 0.000000
# 3 -0.007132 -0.003196 0.015194 0.000000 0.000000 0.000000
# 4 0.000000 0.000000 0.000000 0.033584 0.000000 0.000000
# 5 0.000000 0.000000 0.000000 0.000000 0.033507 0.000000
# 6 0.000000 0.000000 0.000000 0.000000 0.000000 0.030744
#
#
# Mechanical properties :
#
#
# Convention : Reuss Voigt Hill
#
# Bulk Modulus (GPa) = 41.28765 46.90989 44.09877
# Shear Modulus (GPa) = 25.85468 27.41653 26.63560
#
# Velocity S-wave (km/s) = 3.57330 3.67965 3.62686
# Velocity P-wave (km/s) = 6.11676 6.42026 6.27035
#
# Compressibility (1/GPa) = 0.02422032
#
# Stress axis : x y z
#
# Youngs Moduli (GPa) = 58.77894 42.29465 65.81671
#
# Poissons Ratio (x) = 0.23206 0.46938
# Poissons Ratio (y) = 0.32251 0.21038
# Poissons Ratio (z) = 0.41919 0.13519
#
# Static dielectric constant tensor:
#      x y z
#    x 3.614620 0.000000 0.000000 
#    y 0.000000 3.752080 0.000000 
#    z 0.000000 0.000000 3.956800 
# 
# 
# High freq. dielectric constant tensor:
#      x y z
#    x 1.787620 0.000000 0.000000 
#    y 0.000000 1.787910 0.000000 
#    z 0.000000 0.000000 1.804550 
# 
# From -- ./inp_files/5758.got.cif
#   From: 2010.03.12/outbox.cif.g09.slc.cpg/sg57_3_cif.got.tgz:5758.got - 2010.04.16 15:48:40.
