data_PCOD8233163
_publ_section_title
;
Structure prediction by ZEFSAII (Michael W. Deem and Ramdas Pophale) SiO2 
 PCOD8233163
Probable space group: P B C M
;
_chemical_formula_sum "Si O2"
_cell_formula_units_Z 48
_cell_length_a 9.270783
_cell_length_b 30.596702
_cell_length_c 8.725217
_cell_angle_alpha 90.000000
_cell_angle_beta 90.000000
_cell_angle_gamma 90.000000
_cell_volume 2474.954785
_symmetry_space_group_name_H-M "P B C M"
_symmetry_group_IT_number 57
_symmetry_cell_setting 'orthorhombic'
loop_
_space_group_symop_operation_xyz
x,y,z
-x,-y,1/2+z
x,1/2-y,-z
-x,1/2+y,1/2-z
-x,-y,-z
x,y,1/2-z
-x,1/2+y,z
x,1/2-y,1/2+z
loop_
_atom_site_type_symbol
_atom_site_label
_atom_site_fract_x
_atom_site_fract_y
_atom_site_fract_z
Si Si1 0.326993 0.204834 0.569491
Si Si2 0.844142 0.123609 0.929862
Si Si3 0.154266 0.373608 0.570601
Si Si4 0.334300 0.457522 0.927289
Si Si5 0.653083 0.295156 0.430772
Si Si6 0.333039 0.548147 0.426581
O O1 0.268049 0.250000 0.500000
O O2 0.322100 0.208835 0.750000
O O3 0.223077 0.166435 0.518586
O O4 0.490072 0.195854 0.510632
O O5 0.879012 0.126097 0.750000
O O6 0.753479 0.165434 0.987120
O O7 0.753716 0.080319 0.963777
O O8 0.988506 0.122166 0.027453
O O9 0.172601 0.365373 0.750000
O O10 0.233692 0.417889 0.519864
O O11 0.311305 0.469935 0.750000
O O12 0.498634 0.443582 0.958167
O O13 0.290455 0.498740 0.030430
O O14 0.713297 0.250000 0.500000
O O15 0.656262 0.291033 0.250000
O O16 0.292277 0.556649 0.250000
#
# Coordination Sequence:
#
# PCOD8233163 Si02
#       6
#     8   8   8   8   8   8
#     4  10  20  37  60  85 111 142 182 227 275 325
#     4  11  23  38  55  80 115 151 185 225 276 331
#     4  11  23  38  56  81 113 149 186 225 273 328
#     4   9  20  38  59  83 111 143 182 229 279 331
#     4   9  20  37  59  84 109 141 182 227 273 323
#     4  10  20  36  60  86 109 140 184 231 278 329
#
# _framework density 19.394293000000001
#
# number of rings (size 3 to 8) (size 9 to 14) (size 15 to 20)
#    0.000    2.000    0.000    3.000    0.000    5.333 
#    0.000    1.667    0.000    0.000    0.000    0.000 
#    0.000    0.000    0.000    0.000    0.000    0.000 
#
# Total GULP energy -595454.908679 kJ/mol
# GULP energy per Si atom -12405.310597 kJ/mol
# Density = 1.935015 g / cm^3
# Si number density = 19.394293 Si / 1000 Ang^3
#
#
#
# Elastic Constant Matrix: (Units=GPa)
#
#
# Indices 1 2 3 4 5 6 
#
# 1 89.2318 65.7016 18.7927 0.0000 0.0000 0.0000
# 2 65.7016 127.4138 28.9785 0.0000 0.0000 0.0000
# 3 18.7927 28.9785 43.9181 0.0000 0.0000 0.0000
# 4 0.0000 0.0000 0.0000 37.1529 0.0000 0.0000
# 5 0.0000 0.0000 0.0000 0.0000 30.5878 0.0000
# 6 0.0000 0.0000 0.0000 0.0000 0.0000 -12.8952
#
#
#
# Elastic Compliance Matrix: (Units=1/GPa)
#
#
# Indices 1 2 3 4 5 6 
#
# 1 0.018197 -0.008956 -0.001877 0.000000 0.000000 0.000000
# 2 -0.008956 0.013642 -0.005169 0.000000 0.000000 0.000000
# 3 -0.001877 -0.005169 0.026984 0.000000 0.000000 0.000000
# 4 0.000000 0.000000 0.000000 0.026916 0.000000 0.000000
# 5 0.000000 0.000000 0.000000 0.000000 0.032693 0.000000
# 6 0.000000 0.000000 0.000000 0.000000 0.000000 -0.077548
#
#
# Mechanical properties :
#
#
# Convention : Reuss Voigt Hill
#
# Bulk Modulus (GPa) = 37.28846 54.16770 45.72808
# Shear Modulus (GPa) = 61.10447 20.77514 40.93981
#
# Velocity S-wave (km/s) = 5.61915 3.27647 4.59946
# Velocity P-wave (km/s) = 7.83377 6.50415 7.19972
#
# Compressibility (1/GPa) = 0.02681795
#
# Stress axis : x y z
#
# Youngs Moduli (GPa) = 54.95537 73.30036 37.05959
#
# Poissons Ratio (x) = 0.65650 0.06955
# Poissons Ratio (y) = 0.49220 0.19157
# Poissons Ratio (z) = 0.10314 0.37891
#
# Static dielectric constant tensor:
#      x y z
#    x 3.551280 0.000000 0.000000 
#    y 0.000000 3.645690 0.000000 
#    z 0.000000 0.000000 3.488430 
# 
# 
# High freq. dielectric constant tensor:
#      x y z
#    x 1.751000 0.000000 0.000000 
#    y 0.000000 1.766480 0.000000 
#    z 0.000000 0.000000 1.758810 
# 
# From -- ./inp_files/2063.got.cif
#   From: 2010.03.12/outbox.cif.g09.slc.cpg/sg57_2_cif.got.tgz:2063.got - 2010.04.16 15:48:40.
