data_PCOD8233021
_publ_section_title
;
Structure prediction by ZEFSAII (Michael W. Deem and Ramdas Pophale) SiO2 
 PCOD8233021
Probable space group: P B C M
;
_chemical_formula_sum "Si O2"
_cell_formula_units_Z 48
_cell_length_a 30.165394
_cell_length_b 9.516879
_cell_length_c 8.721966
_cell_angle_alpha 90.000000
_cell_angle_beta 90.000000
_cell_angle_gamma 90.000000
_cell_volume 2503.905529
_symmetry_space_group_name_H-M "P B C M"
_symmetry_group_IT_number 57
_symmetry_cell_setting 'orthorhombic'
loop_
_space_group_symop_operation_xyz
x,y,z
-x,-y,1/2+z
x,1/2-y,-z
-x,1/2+y,1/2-z
-x,-y,-z
x,y,1/2-z
-x,1/2+y,z
x,1/2-y,1/2+z
loop_
_atom_site_type_symbol
_atom_site_label
_atom_site_fract_x
_atom_site_fract_y
_atom_site_fract_z
Si Si1 0.635034 0.897367 0.429323
Si Si2 0.464522 0.397668 0.430936
Si Si3 0.136124 0.901676 0.569794
Si Si4 0.286008 0.905096 0.931932
Si Si5 0.791350 0.594422 0.432536
Si Si6 0.034611 0.896837 0.572255
O O1 0.650989 0.750000 0.500000
O O2 0.636491 0.872711 0.250000
O O3 0.585416 0.938906 0.483116
O O4 0.667393 0.023391 0.478514
O O5 0.477636 0.250000 0.500000
O O6 0.500000 0.500000 0.500000
O O7 0.468846 0.394557 0.250000
O O8 0.148796 0.750000 0.500000
O O9 0.147118 0.897834 0.750000
O O10 0.085128 0.940323 0.536889
O O11 0.162860 0.025029 0.486916
O O12 0.279166 0.898363 0.750000
O O13 0.284902 0.750000 0.000000
O O14 0.247790 0.997568 0.005806
O O15 0.786769 0.750000 0.500000
O O16 0.789730 0.602781 0.250000
O O17 0.023245 0.750000 0.500000
O O18 0.025617 0.887499 0.750000
O O19 0.000000 0.000000 0.500000
#
# Coordination Sequence:
#
# PCOD8233021 Si02
#       6
#     8   8   8   8   8   8
#     4   9  20  37  58  82 111 146 187 231 280 334
#     4  10  20  36  56  82 113 149 189 232 281 334
#     4  10  21  39  61  86 115 151 191 234 282 335
#     4  11  23  40  60  85 115 149 187 230 278 333
#     4  12  25  41  61  86 115 149 187 232 281 335
#     4  10  21  37  59  85 116 152 192 235 283 335
#
# _framework density 19.170054
#
# number of rings (size 3 to 8) (size 9 to 14) (size 15 to 20)
#    0.000    1.667    0.000    4.500    0.000    6.667 
#    0.000    1.667    0.000    0.000    0.000    0.000 
#    0.000    0.000    0.000    0.000    0.000    0.000 
#
# Total GULP energy -595273.863604 kJ/mol
# GULP energy per Si atom -12401.538825 kJ/mol
# Density = 1.912642 g / cm^3
# Si number density = 19.170054 Si / 1000 Ang^3
#
#
#
# Elastic Constant Matrix: (Units=GPa)
#
#
# Indices 1 2 3 4 5 6 
#
# 1 133.8860 110.5180 67.5744 0.0000 0.0000 0.0000
# 2 110.5180 178.0044 85.9388 0.0000 0.0000 0.0000
# 3 67.5744 85.9388 110.3290 0.0000 0.0000 0.0000
# 4 0.0000 0.0000 0.0000 41.3189 0.0000 0.0000
# 5 0.0000 0.0000 0.0000 0.0000 30.0270 0.0000
# 6 0.0000 0.0000 0.0000 0.0000 0.0000 40.7681
#
#
#
# Elastic Compliance Matrix: (Units=1/GPa)
#
#
# Indices 1 2 3 4 5 6 
#
# 1 0.016043 -0.008361 -0.003313 0.000000 0.000000 0.000000
# 2 -0.008361 0.013361 -0.005287 0.000000 0.000000 0.000000
# 3 -0.003313 -0.005287 0.015211 0.000000 0.000000 0.000000
# 4 0.000000 0.000000 0.000000 0.024202 0.000000 0.000000
# 5 0.000000 0.000000 0.000000 0.000000 0.033303 0.000000
# 6 0.000000 0.000000 0.000000 0.000000 0.000000 0.024529
#
#
# Mechanical properties :
#
#
# Convention : Reuss Voigt Hill
#
# Bulk Modulus (GPa) = 93.51526 105.58684 99.55105
# Shear Modulus (GPa) = 30.46249 32.96867 31.71558
#
# Velocity S-wave (km/s) = 3.99063 4.15155 4.07189
# Velocity P-wave (km/s) = 8.37385 8.84189 8.61105
#
# Compressibility (1/GPa) = 0.01069344
#
# Stress axis : x y z
#
# Youngs Moduli (GPa) = 62.33205 74.84327 65.74158
#
# Poissons Ratio (x) = 0.62577 0.21783
# Poissons Ratio (y) = 0.52116 0.34755
# Poissons Ratio (z) = 0.20653 0.39566
#
# Static dielectric constant tensor:
#      x y z
#    x 3.857950 0.000000 0.000000 
#    y 0.000000 3.305790 0.000000 
#    z 0.000000 0.000000 3.704570 
# 
# 
# High freq. dielectric constant tensor:
#      x y z
#    x 1.760400 0.000000 0.000000 
#    y 0.000000 1.749700 0.000000 
#    z 0.000000 0.000000 1.761360 
# 
# From -- ./inp_files/9907.got.cif
#   From: 2010.03.12/outbox.cif.g09.slc.cpg/sg57_5_cif.got.tgz:9907.got - 2010.04.16 15:48:40.
