data_PCOD8233622
_publ_section_title
;
Structure prediction by ZEFSAII (Michael W. Deem and Ramdas Pophale) SiO2 
 PCOD8233622
Probable space group: P B C M
;
_chemical_formula_sum "Si O2"
_cell_formula_units_Z 48
_cell_length_a 9.672474
_cell_length_b 30.698606
_cell_length_c 8.649766
_cell_angle_alpha 90.000000
_cell_angle_beta 90.000000
_cell_angle_gamma 90.000000
_cell_volume 2568.387719
_symmetry_space_group_name_H-M "P B C M"
_symmetry_group_IT_number 57
_symmetry_cell_setting 'orthorhombic'
loop_
_space_group_symop_operation_xyz
x,y,z
-x,-y,1/2+z
x,1/2-y,-z
-x,1/2+y,1/2-z
-x,-y,-z
x,y,1/2-z
-x,1/2+y,z
x,1/2-y,1/2+z
loop_
_atom_site_type_symbol
_atom_site_label
_atom_site_fract_x
_atom_site_fract_y
_atom_site_fract_z
Si Si1 0.707718 0.069391 0.570746
Si Si2 0.498689 0.869278 0.930804
Si Si3 0.076230 0.860868 0.432538
Si Si4 0.142342 0.017282 0.431070
Si Si5 0.214186 0.390899 0.066952
Si Si6 0.304772 0.797318 0.432190
O O1 0.680724 0.079969 0.750000
O O2 0.571948 0.084783 0.478032
O O3 0.839003 0.096998 0.508409
O O4 0.738059 0.018734 0.543282
O O5 0.486221 0.862183 0.750000
O O6 0.657778 0.869946 0.979143
O O7 0.427466 0.828678 0.014541
O O8 0.070186 0.863022 0.250000
O O9 0.156438 0.817188 0.487490
O O10 0.919352 0.863510 0.493766
O O11 0.123037 0.027570 0.250000
O O12 0.194088 0.058919 0.523479
O O13 0.000000 0.000000 0.500000
O O14 0.235866 0.387249 0.250000
O O15 0.326068 0.750000 0.500000
O O16 0.310524 0.793999 0.250000
#
# Coordination Sequence:
#
# PCOD8233622 Si02
#       6
#     8   8   8   8   8   8
#     4   9  18  36  56  77 108 151 194 235 279 332
#     4  11  23  38  56  84 115 150 191 235 286 342
#     4   8  16  33  57  81 108 142 182 225 275 329
#     4  11  21  34  54  82 114 150 196 243 286 335
#     4  11  21  37  57  81 114 155 192 235 287 335
#     4  10  20  39  64  89 113 142 180 226 277 341
#
# _framework density 18.688768
#
# number of rings (size 3 to 8) (size 9 to 14) (size 15 to 20)
#    0.000    2.000    1.667    4.000    0.000    2.000 
#    0.000    3.333    0.000    2.000    0.000    0.000 
#    0.000    0.000    0.000    0.000    0.000    0.000 
#
# Total GULP energy -595128.950118 kJ/mol
# GULP energy per Si atom -12398.519794 kJ/mol
# Density = 1.864623 g / cm^3
# Si number density = 18.688768 Si / 1000 Ang^3
#
#
#
# Elastic Constant Matrix: (Units=GPa)
#
#
# Indices 1 2 3 4 5 6 
#
# 1 130.8580 46.0941 20.0710 0.0000 0.0000 0.0000
# 2 46.0941 101.6772 22.7432 0.0000 0.0000 0.0000
# 3 20.0710 22.7432 57.9874 0.0000 0.0000 0.0000
# 4 0.0000 0.0000 0.0000 28.5200 0.0000 0.0000
# 5 0.0000 0.0000 0.0000 0.0000 26.4072 0.0000
# 6 0.0000 0.0000 0.0000 0.0000 0.0000 51.2350
#
#
#
# Elastic Compliance Matrix: (Units=1/GPa)
#
#
# Indices 1 2 3 4 5 6 
#
# 1 0.009245 -0.003810 -0.001706 0.000000 0.000000 0.000000
# 2 -0.003810 0.012351 -0.003525 0.000000 0.000000 0.000000
# 3 -0.001706 -0.003525 0.019218 0.000000 0.000000 0.000000
# 4 0.000000 0.000000 0.000000 0.035063 0.000000 0.000000
# 5 0.000000 0.000000 0.000000 0.000000 0.037869 0.000000
# 6 0.000000 0.000000 0.000000 0.000000 0.000000 0.019518
#
#
# Mechanical properties :
#
#
# Convention : Reuss Voigt Hill
#
# Bulk Modulus (GPa) = 43.99012 52.03769 48.01390
# Shear Modulus (GPa) = 31.46166 34.67339 33.06753
#
# Velocity S-wave (km/s) = 4.10744 4.31200 4.21096
# Velocity P-wave (km/s) = 6.78853 7.25920 7.02780
#
# Compressibility (1/GPa) = 0.02273238
#
# Stress axis : x y z
#
# Youngs Moduli (GPa) = 108.16090 80.96700 52.03385
#
# Poissons Ratio (x) = 0.30846 0.08876
# Poissons Ratio (y) = 0.41207 0.18344
# Poissons Ratio (z) = 0.18451 0.28544
#
# Static dielectric constant tensor:
#      x y z
#    x 3.317530 0.000000 0.000000 
#    y 0.000000 3.604540 0.000000 
#    z 0.000000 0.000000 3.376800 
# 
# 
# High freq. dielectric constant tensor:
#      x y z
#    x 1.728630 0.000000 0.000000 
#    y 0.000000 1.713150 0.000000 
#    z 0.000000 0.000000 1.721600 
# 
# From -- ./inp_files/2013.got.cif
#   From: 2010.03.12/outbox.cif.g09.slc.cpg/sg57_2_cif.got.tgz:2013.got - 2010.04.16 15:48:40.
