data_PCOD8233130
_publ_section_title
;
Structure prediction by ZEFSAII (Michael W. Deem and Ramdas Pophale) SiO2 
 PCOD8233130
Probable space group: P B C M
;
_chemical_formula_sum "Si O2"
_cell_formula_units_Z 40
_cell_length_a 12.635143
_cell_length_b 10.200871
_cell_length_c 17.018483
_cell_angle_alpha 90.000000
_cell_angle_beta 90.000000
_cell_angle_gamma 90.000000
_cell_volume 2193.503149
_symmetry_space_group_name_H-M "P B C M"
_symmetry_group_IT_number 57
_symmetry_cell_setting 'orthorhombic'
loop_
_space_group_symop_operation_xyz
x,y,z
-x,-y,1/2+z
x,1/2-y,-z
-x,1/2+y,1/2-z
-x,-y,-z
x,y,1/2-z
-x,1/2+y,z
x,1/2-y,1/2+z
loop_
_atom_site_type_symbol
_atom_site_label
_atom_site_fract_x
_atom_site_fract_y
_atom_site_fract_z
Si Si1 0.185928 0.733773 0.592965
Si Si2 0.191558 0.013346 0.841073
Si Si3 0.420400 0.780164 0.091615
Si Si4 0.981940 0.876095 0.445907
Si Si5 0.565322 0.001011 0.341274
O O1 0.191162 0.750000 0.500000
O O2 0.157146 0.866804 0.637733
O O3 0.301099 0.682335 0.620591
O O4 0.087292 0.636590 0.609509
O O5 0.171321 0.040760 0.750000
O O6 0.314134 0.033512 0.863539
O O7 0.121050 0.113255 0.891247
O O8 0.460885 0.651543 0.137588
O O9 0.492698 0.904440 0.108764
O O10 0.423636 0.750000 0.000000
O O11 0.964703 0.750000 0.500000
O O12 0.000000 0.000000 0.500000
O O13 0.542099 0.979061 0.250000
#
# Coordination Sequence:
#
# PCOD8233130 Si02
#       5
#     8   8   8   8   8
#     4   9  18  36  60  81 112 146 186 223 282 333
#     4  10  21  37  57  83 114 149 186 231 280 332
#     4  10  20  36  59  85 110 145 193 233 270 332
#     4  11  20  38  61  82 111 149 185 227 279 334
#     4  10  21  38  57  80 116 152 182 228 288 332
#
# _framework density 18.235672000000001
#
# number of rings (size 3 to 8) (size 9 to 14) (size 15 to 20)
#    0.000    2.000    4.000    1.200    0.000    2.400 
#    3.600    0.000    0.000    0.000    0.000    0.000 
#    0.000    0.000    0.000    0.000    0.000    0.000 
#
# Total GULP energy -495857.182294 kJ/mol
# GULP energy per Si atom -12396.429557 kJ/mol
# Density = 1.819417 g / cm^3
# Si number density = 18.235672 Si / 1000 Ang^3
#
#
#
# Elastic Constant Matrix: (Units=GPa)
#
#
# Indices 1 2 3 4 5 6 
#
# 1 109.8875 56.5620 23.2271 0.0000 0.0000 0.0000
# 2 56.5620 91.1311 20.6805 0.0000 0.0000 0.0000
# 3 23.2271 20.6805 46.5582 0.0000 0.0000 0.0000
# 4 0.0000 0.0000 0.0000 33.0056 0.0000 0.0000
# 5 0.0000 0.0000 0.0000 0.0000 -55.7784 0.0000
# 6 0.0000 0.0000 0.0000 0.0000 0.0000 36.7154
#
#
#
# Elastic Compliance Matrix: (Units=1/GPa)
#
#
# Indices 1 2 3 4 5 6 
#
# 1 0.013850 -0.007816 -0.003438 0.000000 0.000000 0.000000
# 2 -0.007816 0.016614 -0.003480 0.000000 0.000000 0.000000
# 3 -0.003438 -0.003480 0.024739 0.000000 0.000000 0.000000
# 4 0.000000 0.000000 0.000000 0.030298 0.000000 0.000000
# 5 0.000000 0.000000 0.000000 0.000000 -0.017928 0.000000
# 6 0.000000 0.000000 0.000000 0.000000 0.000000 0.027237
#
#
# Mechanical properties :
#
#
# Convention : Reuss Voigt Hill
#
# Bulk Modulus (GPa) = 38.85745 49.83511 44.34628
# Shear Modulus (GPa) = 37.63443 12.59567 25.11505
#
# Velocity S-wave (km/s) = 4.54781 2.63100 3.71516
# Velocity P-wave (km/s) = 6.99511 6.05122 6.54021
#
# Compressibility (1/GPa) = 0.02573509
#
# Stress axis : x y z
#
# Youngs Moduli (GPa) = 72.20202 60.18935 40.42122
#
# Poissons Ratio (x) = 0.47045 0.13896
# Poissons Ratio (y) = 0.56434 0.14068
# Poissons Ratio (z) = 0.24821 0.20949
#
# Static dielectric constant tensor:
#      x y z
#    x 3.916760 0.000000 0.000000 
#    y 0.000000 3.053690 0.000000 
#    z 0.000000 0.000000 3.270320 
# 
# 
# High freq. dielectric constant tensor:
#      x y z
#    x 1.720480 0.000000 0.000000 
#    y 0.000000 1.693170 0.000000 
#    z 0.000000 0.000000 1.702370 
# 
# From -- ./inp_files/18239.got.cif
#   From: 2010.03.12/outbox.cif.g09.slc.cpg/sg57_10_cif.got.tgz:18239.got - 2010.04.16 15:48:40.
