data_PCOD8233739
_publ_section_title
;
Structure prediction by ZEFSAII (Michael W. Deem and Ramdas Pophale) SiO2 
 PCOD8233739
Probable space group: P B C M
;
_chemical_formula_sum "Si O2"
_cell_formula_units_Z 64
_cell_length_a 20.226556
_cell_length_b 19.424697
_cell_length_c 8.779601
_cell_angle_alpha 90.000000
_cell_angle_beta 90.000000
_cell_angle_gamma 90.000000
_cell_volume 3449.458891
_symmetry_space_group_name_H-M "P B C M"
_symmetry_group_IT_number 57
_symmetry_cell_setting 'orthorhombic'
loop_
_space_group_symop_operation_xyz
x,y,z
-x,-y,1/2+z
x,1/2-y,-z
-x,1/2+y,1/2-z
-x,-y,-z
x,y,1/2-z
-x,1/2+y,z
x,1/2-y,1/2+z
loop_
_atom_site_type_symbol
_atom_site_label
_atom_site_fract_x
_atom_site_fract_y
_atom_site_fract_z
Si Si1 0.842331 0.560317 0.575517
Si Si2 0.991673 0.926358 0.424932
Si Si3 0.621945 0.600172 0.928366
Si Si4 0.656547 0.044857 0.929790
Si Si5 0.199246 0.578534 0.569829
Si Si6 0.517196 0.428140 0.071714
Si Si7 0.904952 0.325076 0.930787
Si Si8 0.253581 0.321168 0.071871
O O1 0.825344 0.540202 0.750000
O O2 0.914771 0.593714 0.564886
O O3 0.837595 0.492116 0.473486
O O4 0.791795 0.616933 0.509779
O O5 0.016211 0.928400 0.250000
O O6 0.033035 0.870350 0.516746
O O7 0.000000 0.000000 0.500000
O O8 0.627560 0.584451 0.750000
O O9 0.545342 0.621114 0.972463
O O10 0.670091 0.662936 0.973361
O O11 0.647353 0.532047 0.010690
O O12 0.662154 0.039671 0.750000
O O13 0.724746 0.077531 0.991153
O O14 0.592277 0.092267 0.980099
O O15 0.194974 0.589131 0.750000
O O16 0.163646 0.642074 0.488156
O O17 0.519147 0.438942 0.250000
O O18 0.500000 0.500000 0.000000
O O19 0.904207 0.320699 0.750000
O O20 0.913048 0.250000 0.000000
O O21 0.243315 0.314142 0.250000
O O22 0.230749 0.250000 0.000000
#
# Coordination Sequence:
#
# PCOD8233739 Si02
#       8
#     8   8   8   8   8   8   8   8
#     4  10  21  37  57  81 112 146 185 230 275 330
#     4  11  22  38  62  91 119 151 189 229 276 332
#     4   9  16  28  48  70 100 141 182 224 274 331
#     4   9  17  28  47  78 109 137 175 225 276 326
#     4  11  21  34  57  86 115 148 186 229 282 341
#     4   8  14  25  42  69 102 134 170 217 271 322
#     4  12  26  44  64  87 117 151 188 236 284 338
#     4  10  21  35  50  73 105 145 189 230 277 329
#
# _framework density 18.553635
#
# number of rings (size 3 to 8) (size 9 to 14) (size 15 to 20)
#    0.000    2.000    2.500    1.875    0.000    2.500 
#    0.000    1.250    0.000    0.750    0.000    1.750 
#    0.000    0.000    0.000    0.000    0.000    0.000 
#
# Total GULP energy -793073.630539 kJ/mol
# GULP energy per Si atom -12391.775477 kJ/mol
# Density = 1.851141 g / cm^3
# Si number density = 18.553635 Si / 1000 Ang^3
#
#
#
# Elastic Constant Matrix: (Units=GPa)
#
#
# Indices 1 2 3 4 5 6 
#
# 1 138.2207 44.5222 36.1484 0.0000 0.0000 0.0000
# 2 44.5222 100.8927 33.5302 0.0000 0.0000 0.0000
# 3 36.1484 33.5302 66.7724 0.0000 0.0000 0.0000
# 4 0.0000 0.0000 0.0000 28.2045 0.0000 0.0000
# 5 0.0000 0.0000 0.0000 0.0000 22.1902 0.0000
# 6 0.0000 0.0000 0.0000 0.0000 0.0000 20.7724
#
#
#
# Elastic Compliance Matrix: (Units=1/GPa)
#
#
# Indices 1 2 3 4 5 6 
#
# 1 0.009060 -0.002842 -0.003477 0.000000 0.000000 0.000000
# 2 -0.002842 0.012789 -0.004883 0.000000 0.000000 0.000000
# 3 -0.003477 -0.004883 0.019311 0.000000 0.000000 0.000000
# 4 0.000000 0.000000 0.000000 0.035455 0.000000 0.000000
# 5 0.000000 0.000000 0.000000 0.000000 0.045065 0.000000
# 6 0.000000 0.000000 0.000000 0.000000 0.000000 0.048141
#
#
# Mechanical properties :
#
#
# Convention : Reuss Voigt Hill
#
# Bulk Modulus (GPa) = 53.32303 59.36526 56.34415
# Shear Modulus (GPa) = 25.19179 27.01241 26.10210
#
# Velocity S-wave (km/s) = 3.68881 3.81978 3.75486
# Velocity P-wave (km/s) = 6.85167 7.17776 7.01661
#
# Compressibility (1/GPa) = 0.01875362
#
# Stress axis : x y z
#
# Youngs Moduli (GPa) = 110.37824 78.19458 51.78410
#
# Poissons Ratio (x) = 0.22225 0.18007
# Poissons Ratio (y) = 0.31372 0.25287
# Poissons Ratio (z) = 0.38383 0.38184
#
# Static dielectric constant tensor:
#      x y z
#    x 3.492990 0.000000 0.000000 
#    y 0.000000 3.101210 0.000000 
#    z 0.000000 0.000000 3.381850 
# 
# 
# High freq. dielectric constant tensor:
#      x y z
#    x 1.749130 0.000000 0.000000 
#    y 0.000000 1.676950 0.000000 
#    z 0.000000 0.000000 1.719660 
# 
# From -- ./inp_files/8445.got.cif
#   From: 2010.03.12/outbox.cif.g09.slc.cpg/sg57_5_cif.got.tgz:8445.got - 2010.04.16 15:48:40.
