data_PCOD8233814
_publ_section_title
;
Structure prediction by ZEFSAII (Michael W. Deem and Ramdas Pophale) SiO2 
 PCOD8233814
Probable space group: P B C M
;
_chemical_formula_sum "Si O2"
_cell_formula_units_Z 48
_cell_length_a 12.060030
_cell_length_b 8.873511
_cell_length_c 21.011103
_cell_angle_alpha 90.000000
_cell_angle_beta 90.000000
_cell_angle_gamma 90.000000
_cell_volume 2248.499172
_symmetry_space_group_name_H-M "P B C M"
_symmetry_group_IT_number 57
_symmetry_cell_setting 'orthorhombic'
loop_
_space_group_symop_operation_xyz
x,y,z
-x,-y,1/2+z
x,1/2-y,-z
-x,1/2+y,1/2-z
-x,-y,-z
x,y,1/2-z
-x,1/2+y,z
x,1/2-y,1/2+z
loop_
_atom_site_type_symbol
_atom_site_label
_atom_site_fract_x
_atom_site_fract_y
_atom_site_fract_z
Si Si1 0.026280 0.117771 0.820489
Si Si2 0.058092 0.341359 0.560235
Si Si3 0.621598 0.933607 0.436277
Si Si4 0.163635 0.589512 0.102524
Si Si5 0.197858 0.926140 0.122784
Si Si6 0.404293 0.085128 0.417402
O O1 0.054432 0.179587 0.750000
O O2 0.054360 0.238877 0.875511
O O3 0.895035 0.070596 0.821300
O O4 0.100373 0.967567 0.833274
O O5 0.101840 0.250000 0.500000
O O6 0.142069 0.480779 0.565008
O O7 0.933242 0.404400 0.548482
O O8 0.620113 0.971076 0.511055
O O9 0.600152 0.763522 0.415592
O O10 0.743727 0.968717 0.412533
O O11 0.528653 0.032596 0.399843
O O12 0.222043 0.752010 0.107302
O O13 0.316957 0.008927 0.132826
#
# Coordination Sequence:
#
# PCOD8233814 Si02
#       6
#     8   8   8   8   8   8
#     4  10  23  42  61  87 125 170 212 255 314 384
#     4  10  23  38  59  91 126 169 211 263 315 375
#     4  10  21  36  56  82 120 158 203 250 307 367
#     4  10  22  35  57  85 119 159 200 252 305 369
#     4  10  22  35  58  86 120 157 202 253 306 366
#     4  10  21  36  55  83 117 160 201 252 305 367
#
# _framework density 21.347570999999999
#
# number of rings (size 3 to 8) (size 9 to 14) (size 15 to 20)
#    0.000    2.000    0.000    2.000    9.333   12.000 
#    0.000    0.000    0.000    1.000    0.000    2.333 
#    0.000    0.000    0.000    0.000    0.000    0.000 
#
# Total GULP energy -594680.675367 kJ/mol
# GULP energy per Si atom -12389.180737 kJ/mol
# Density = 2.129898 g / cm^3
# Si number density = 21.347571 Si / 1000 Ang^3
#
#
#
# Elastic Constant Matrix: (Units=GPa)
#
#
# Indices 1 2 3 4 5 6 
#
# 1 113.6730 47.3597 17.6961 0.0000 0.0000 0.0000
# 2 47.3597 109.7947 24.7339 0.0000 0.0000 0.0000
# 3 17.6961 24.7339 80.0398 0.0000 0.0000 0.0000
# 4 0.0000 0.0000 0.0000 20.6710 0.0000 0.0000
# 5 0.0000 0.0000 0.0000 0.0000 11.7873 0.0000
# 6 0.0000 0.0000 0.0000 0.0000 0.0000 44.9820
#
#
#
# Elastic Compliance Matrix: (Units=1/GPa)
#
#
# Indices 1 2 3 4 5 6 
#
# 1 0.010801 -0.004429 -0.001019 0.000000 0.000000 0.000000
# 2 -0.004429 0.011606 -0.002607 0.000000 0.000000 0.000000
# 3 -0.001019 -0.002607 0.013525 0.000000 0.000000 0.000000
# 4 0.000000 0.000000 0.000000 0.048377 0.000000 0.000000
# 5 0.000000 0.000000 0.000000 0.000000 0.084837 0.000000
# 6 0.000000 0.000000 0.000000 0.000000 0.000000 0.022231
#
#
# Mechanical properties :
#
#
# Convention : Reuss Voigt Hill
#
# Bulk Modulus (GPa) = 50.45364 53.67633 52.06498
# Shear Modulus (GPa) = 23.35404 29.73590 26.54497
#
# Velocity S-wave (km/s) = 3.31114 3.73626 3.53011
# Velocity P-wave (km/s) = 6.18901 6.61902 6.40763
#
# Compressibility (1/GPa) = 0.01982018
#
# Stress axis : x y z
#
# Youngs Moduli (GPa) = 92.58145 86.16321 73.93834
#
# Poissons Ratio (x) = 0.38166 0.07536
# Poissons Ratio (y) = 0.41009 0.19277
# Poissons Ratio (z) = 0.09437 0.22464
#
# Static dielectric constant tensor:
#      x y z
#    x 4.055360 0.000000 0.000000 
#    y 0.000000 4.074400 0.000000 
#    z 0.000000 0.000000 3.332410 
# 
# 
# High freq. dielectric constant tensor:
#      x y z
#    x 1.842370 0.000000 0.000000 
#    y 0.000000 1.863520 0.000000 
#    z 0.000000 0.000000 1.768820 
# 
# From -- ./inp_files/27081.got.cif
#   From: 2010.03.12/outbox.cif.g09.slc.cpg/sg57_14_cif.got.tgz:27081.got - 2010.04.16 15:48:40.
