data_PCOD8233757
_publ_section_title
;
Structure prediction by ZEFSAII (Michael W. Deem and Ramdas Pophale) SiO2 
 PCOD8233757
Probable space group: P B C M
;
_chemical_formula_sum "Si O2"
_cell_formula_units_Z 64
_cell_length_a 6.018172
_cell_length_b 18.783933
_cell_length_c 27.635422
_cell_angle_alpha 90.000000
_cell_angle_beta 90.000000
_cell_angle_gamma 90.000000
_cell_volume 3124.044612
_symmetry_space_group_name_H-M "P B C M"
_symmetry_group_IT_number 57
_symmetry_cell_setting 'orthorhombic'
loop_
_space_group_symop_operation_xyz
x,y,z
-x,-y,1/2+z
x,1/2-y,-z
-x,1/2+y,1/2-z
-x,-y,-z
x,y,1/2-z
-x,1/2+y,z
x,1/2-y,1/2+z
loop_
_atom_site_type_symbol
_atom_site_label
_atom_site_fract_x
_atom_site_fract_y
_atom_site_fract_z
Si Si1 0.923159 0.039660 0.933911
Si Si2 0.235849 0.581567 0.467951
Si Si3 0.319749 0.800534 0.376911
Si Si4 0.315260 0.309430 0.633204
Si Si5 0.555641 0.538179 0.387191
Si Si6 0.938674 0.698469 0.693000
Si Si7 0.301487 0.092544 0.629049
Si Si8 0.018181 0.725551 0.447477
O O1 0.766601 0.013396 0.890597
O O2 0.031657 0.968255 0.953858
O O3 0.106712 0.093927 0.911756
O O4 0.762883 0.077623 0.973631
O O5 0.464326 0.558120 0.441321
O O6 0.191572 0.661266 0.450748
O O7 0.448026 0.727974 0.366644
O O8 0.182952 0.817361 0.328028
O O9 0.485622 0.864318 0.391699
O O10 0.144213 0.790108 0.420496
O O11 0.370842 0.392471 0.643303
O O12 0.155311 0.274687 0.673900
O O13 0.200551 0.299243 0.581085
O O14 0.367701 0.490073 0.359838
O O15 0.952656 0.701269 0.750000
O O16 0.777323 0.633541 0.677134
O O17 0.935360 0.750000 0.500000
#
# Coordination Sequence:
#
# PCOD8233757 Si02
#       8
#     8   8   8   8   8   8   8   8
#     4  10  21  37  56  85 127 168 211 255 295 350
#     4  10  21  35  53  86 125 172 216 247 290 349
#     4  10  22  42  59  89 119 165 204 254 313 369
#     4  10  22  41  63  91 123 162 204 253 313 363
#     4  11  20  39  62  88 127 171 207 253 300 363
#     4  10  23  44  68  91 119 152 198 257 322 390
#     4  10  23  38  65  90 122 161 205 261 311 368
#     4  11  23  36  55  86 131 169 213 257 294 354
#
# _framework density 20.486263999999998
#
# number of rings (size 3 to 8) (size 9 to 14) (size 15 to 20)
#    0.000    1.750    2.500    1.125    7.000    2.500 
#    0.000    0.625    0.000    3.750    0.000    0.000 
#    0.000    0.000    0.000    0.000    0.000    0.000 
#
# Total GULP energy -793299.223823 kJ/mol
# GULP energy per Si atom -12395.300372 kJ/mol
# Density = 2.043964 g / cm^3
# Si number density = 20.486264 Si / 1000 Ang^3
#
#
#
# Elastic Constant Matrix: (Units=GPa)
#
#
# Indices 1 2 3 4 5 6 
#
# 1 88.2537 53.7777 28.7792 0.0000 0.0000 0.0000
# 2 53.7777 121.5157 54.9088 0.0000 0.0000 0.0000
# 3 28.7792 54.9088 103.5094 0.0000 0.0000 0.0000
# 4 0.0000 0.0000 0.0000 19.7838 0.0000 0.0000
# 5 0.0000 0.0000 0.0000 0.0000 20.5067 0.0000
# 6 0.0000 0.0000 0.0000 0.0000 0.0000 42.7231
#
#
#
# Elastic Compliance Matrix: (Units=1/GPa)
#
#
# Indices 1 2 3 4 5 6 
#
# 1 0.015577 -0.006493 -0.000886 0.000000 0.000000 0.000000
# 2 -0.006493 0.013530 -0.005372 0.000000 0.000000 0.000000
# 3 -0.000886 -0.005372 0.012757 0.000000 0.000000 0.000000
# 4 0.000000 0.000000 0.000000 0.050546 0.000000 0.000000
# 5 0.000000 0.000000 0.000000 0.000000 0.048764 0.000000
# 6 0.000000 0.000000 0.000000 0.000000 0.000000 0.023407
#
#
# Mechanical properties :
#
#
# Convention : Reuss Voigt Hill
#
# Bulk Modulus (GPa) = 61.12147 65.35670 63.23908
# Shear Modulus (GPa) = 25.57039 28.32360 26.94700
#
# Velocity S-wave (km/s) = 3.53678 3.72232 3.63074
# Velocity P-wave (km/s) = 6.82485 7.10255 6.96508
#
# Compressibility (1/GPa) = 0.01636086
#
# Stress axis : x y z
#
# Youngs Moduli (GPa) = 64.19906 73.90745 78.38674
#
# Poissons Ratio (x) = 0.47988 0.06949
# Poissons Ratio (y) = 0.41684 0.42111
# Poissons Ratio (z) = 0.05691 0.39705
#
# Static dielectric constant tensor:
#      x y z
#    x 3.794990 0.000000 0.000000 
#    y 0.000000 3.911910 0.000000 
#    z 0.000000 0.000000 3.242770 
# 
# 
# High freq. dielectric constant tensor:
#      x y z
#    x 1.813860 0.000000 0.000000 
#    y 0.000000 1.817400 0.000000 
#    z 0.000000 0.000000 1.746010 
# 
# From -- ./inp_files/29266.got.cif
#   From: 2010.03.12/outbox.cif.g09.slc.cpg/sg57_15_cif.got.tgz:29266.got - 2010.04.16 15:48:40.
