data_PCOD8233418
_publ_section_title
;
Structure prediction by ZEFSAII (Michael W. Deem and Ramdas Pophale) SiO2 
 PCOD8233418
Probable space group: P B C M
;
_chemical_formula_sum "Si O2"
_cell_formula_units_Z 48
_cell_length_a 18.601863
_cell_length_b 14.809243
_cell_length_c 8.776041
_cell_angle_alpha 90.000000
_cell_angle_beta 90.000000
_cell_angle_gamma 90.000000
_cell_volume 2417.619469
_symmetry_space_group_name_H-M "P B C M"
_symmetry_group_IT_number 57
_symmetry_cell_setting 'orthorhombic'
loop_
_space_group_symop_operation_xyz
x,y,z
-x,-y,1/2+z
x,1/2-y,-z
-x,1/2+y,1/2-z
-x,-y,-z
x,y,1/2-z
-x,1/2+y,z
x,1/2-y,1/2+z
loop_
_atom_site_type_symbol
_atom_site_label
_atom_site_fract_x
_atom_site_fract_y
_atom_site_fract_z
Si Si1 0.145840 0.658094 0.425330
Si Si2 0.508377 0.650425 0.070628
Si Si3 0.398750 0.519677 0.927618
Si Si4 0.766233 0.001767 0.927555
Si Si5 0.012135 0.095308 0.424063
Si Si6 0.155503 0.340279 0.428847
O O1 0.173181 0.750000 0.500000
O O2 0.171279 0.650467 0.250000
O O3 0.181088 0.581544 0.527060
O O4 0.059909 0.653718 0.436603
O O5 0.505323 0.664629 0.250000
O O6 0.571434 0.579475 0.022938
O O7 0.520895 0.750000 0.000000
O O8 0.434638 0.603507 0.015922
O O9 0.414006 0.534544 0.750000
O O10 0.315253 0.525624 0.968603
O O11 0.775533 0.979480 0.750000
O O12 0.788822 0.917060 0.027307
O O13 0.035130 0.080058 0.250000
O O14 0.075396 0.146485 0.509059
O O15 0.000000 0.000000 0.500000
O O16 0.188331 0.250000 0.500000
O O17 0.149914 0.332058 0.250000
#
# Coordination Sequence:
#
# PCOD8233418 Si02
#       6
#     8   8   8   8   8   8
#     4  11  24  40  60  87 117 155 201 248 300 358
#     4  10  20  37  63  92 122 155 194 238 287 344
#     4   9  21  40  61  89 121 156 197 240 290 346
#     4  11  23  41  63  87 121 158 197 247 299 356
#     4  11  22  38  62  88 117 153 199 252 305 358
#     4  12  25  41  61  87 119 157 204 251 302 360
#
# _framework density 19.854240999999998
#
# number of rings (size 3 to 8) (size 9 to 14) (size 15 to 20)
#    0.000    1.333    1.667    4.000    0.000    6.667 
#    0.000    1.667    0.000    0.000    0.000    0.000 
#    0.000    0.000    0.000    0.000    0.000    0.000 
#
# Total GULP energy -595320.727394 kJ/mol
# GULP energy per Si atom -12402.515154 kJ/mol
# Density = 1.980905 g / cm^3
# Si number density = 19.854241 Si / 1000 Ang^3
#
#
#
# Elastic Constant Matrix: (Units=GPa)
#
#
# Indices 1 2 3 4 5 6 
#
# 1 49.2131 -16.3691 28.6149 0.0000 0.0000 0.0000
# 2 -16.3691 98.4556 35.1363 0.0000 0.0000 0.0000
# 3 28.6149 35.1363 122.3484 0.0000 0.0000 0.0000
# 4 0.0000 0.0000 0.0000 38.0401 0.0000 0.0000
# 5 0.0000 0.0000 0.0000 0.0000 32.0864 0.0000
# 6 0.0000 0.0000 0.0000 0.0000 0.0000 21.2348
#
#
#
# Elastic Compliance Matrix: (Units=1/GPa)
#
#
# Indices 1 2 3 4 5 6 
#
# 1 0.028027 0.007798 -0.008795 0.000000 0.000000 0.000000
# 2 0.007798 0.013487 -0.005697 0.000000 0.000000 0.000000
# 3 -0.008795 -0.005697 0.011866 0.000000 0.000000 0.000000
# 4 0.000000 0.000000 0.000000 0.026288 0.000000 0.000000
# 5 0.000000 0.000000 0.000000 0.000000 0.031166 0.000000
# 6 0.000000 0.000000 0.000000 0.000000 0.000000 0.047093
#
#
# Mechanical properties :
#
#
# Convention : Reuss Voigt Hill
#
# Bulk Modulus (GPa) = 25.00393 40.53124 32.76758
# Shear Modulus (GPa) = 27.07910 33.11458 30.09684
#
# Velocity S-wave (km/s) = 3.69710 4.08840 3.89767
# Velocity P-wave (km/s) = 5.55390 6.53800 6.06594
#
# Compressibility (1/GPa) = 0.03999371
#
# Stress axis : x y z
#
# Youngs Moduli (GPa) = 35.67953 74.14815 84.27208
#
# Poissons Ratio (x) = -0.57823 0.74114
# Poissons Ratio (y) = -0.27824 0.48010
# Poissons Ratio (z) = 0.31379 0.42242
#
# Static dielectric constant tensor:
#      x y z
#    x 3.671790 0.000000 0.000000 
#    y 0.000000 3.659450 0.000000 
#    z 0.000000 0.000000 3.734500 
# 
# 
# High freq. dielectric constant tensor:
#      x y z
#    x 1.767970 0.000000 0.000000 
#    y 0.000000 1.785440 0.000000 
#    z 0.000000 0.000000 1.788280 
# 
# From -- ./inp_files/6528.got.cif
#   From: 2010.03.12/outbox.cif.g09.slc.cpg/sg57_4_cif.got.tgz:6528.got - 2010.04.16 15:48:40.
