data_PCOD8233444
_publ_section_title
;
Structure prediction by ZEFSAII (Michael W. Deem and Ramdas Pophale) SiO2 
 PCOD8233444
Probable space group: P B C M
;
_chemical_formula_sum "Si O2"
_cell_formula_units_Z 40
_cell_length_a 23.230676
_cell_length_b 9.291619
_cell_length_c 9.608088
_cell_angle_alpha 90.000000
_cell_angle_beta 90.000000
_cell_angle_gamma 90.000000
_cell_volume 2073.911468
_symmetry_space_group_name_H-M "P B C M"
_symmetry_group_IT_number 57
_symmetry_cell_setting 'orthorhombic'
loop_
_space_group_symop_operation_xyz
x,y,z
-x,-y,1/2+z
x,1/2-y,-z
-x,1/2+y,1/2-z
-x,-y,-z
x,y,1/2-z
-x,1/2+y,z
x,1/2-y,1/2+z
loop_
_atom_site_type_symbol
_atom_site_label
_atom_site_fract_x
_atom_site_fract_y
_atom_site_fract_z
Si Si1 0.857301 0.883380 0.590798
Si Si2 0.541869 0.143766 0.750000
Si Si3 0.428506 0.528234 0.250000
Si Si4 0.043717 0.899236 0.416583
Si Si5 0.727510 0.876849 0.905565
Si Si6 0.369235 0.587287 0.521537
O O1 0.881419 0.750000 0.500000
O O2 0.861371 0.832385 0.750000
O O3 0.791815 0.921291 0.545956
O O4 0.893979 0.027231 0.567621
O O5 0.541052 0.316349 0.750000
O O6 0.574093 0.080967 0.616338
O O7 0.476064 0.095502 0.750000
O O8 0.386610 0.507778 0.380365
O O9 0.045337 0.750000 0.500000
O O10 0.028218 0.880395 0.250000
O O11 0.000000 0.000000 0.500000
O O12 0.729681 0.816562 0.750000
O O13 0.702312 0.750000 0.000000
O O14 0.685692 0.012721 0.910903
O O15 0.349116 0.750000 0.500000
#
# Coordination Sequence:
#
# PCOD8233444 Si02
#       6
#     8   4   4   8   8   8
#     4   9  20  38  59  84 115 152 191 239 288 339
#     4  10  20  38  54  80 106 146 177 232 279 336
#     4  10  22  34  56  80 110 138 187 222 283 340
#     4  11  23  39  61  89 123 160 202 245 295 348
#     4  10  21  38  59  84 114 147 190 236 284 337
#     4  10  21  37  57  79 111 147 183 229 283 337
#
# _framework density 19.287226
#
# number of rings (size 3 to 8) (size 9 to 14) (size 15 to 20)
#    0.000    2.000    1.000    1.800    1.400    5.600 
#    0.000    0.000    0.000    0.000    0.000    0.000 
#    0.000    0.000    0.000    0.000    0.000    0.000 
#
# Total GULP energy -495969.716503 kJ/mol
# GULP energy per Si atom -12399.242913 kJ/mol
# Density = 1.924333 g / cm^3
# Si number density = 19.287226 Si / 1000 Ang^3
#
#
#
# Elastic Constant Matrix: (Units=GPa)
#
#
# Indices 1 2 3 4 5 6 
#
# 1 71.6168 43.9545 25.8204 0.0000 0.0000 0.0000
# 2 43.9545 97.9379 43.2288 0.0000 0.0000 0.0000
# 3 25.8204 43.2288 112.3332 0.0000 0.0000 0.0000
# 4 0.0000 0.0000 0.0000 -103.3919 0.0000 0.0000
# 5 0.0000 0.0000 0.0000 0.0000 42.9612 0.0000
# 6 0.0000 0.0000 0.0000 0.0000 0.0000 32.2006
#
#
#
# Elastic Compliance Matrix: (Units=1/GPa)
#
#
# Indices 1 2 3 4 5 6 
#
# 1 0.019437 -0.008133 -0.001338 0.000000 0.000000 0.000000
# 2 -0.008133 0.015703 -0.004173 0.000000 0.000000 0.000000
# 3 -0.001338 -0.004173 0.010816 0.000000 0.000000 0.000000
# 4 0.000000 0.000000 0.000000 -0.009672 0.000000 0.000000
# 5 0.000000 0.000000 0.000000 0.000000 0.023277 0.000000
# 6 0.000000 0.000000 0.000000 0.000000 0.000000 0.031055
#
#
# Mechanical properties :
#
#
# Convention : Reuss Voigt Hill
#
# Bulk Modulus (GPa) = 53.57054 56.43282 55.00168
# Shear Modulus (GPa) = 40.28153 5.61293 22.94723
#
# Velocity S-wave (km/s) = 4.57498 1.70778 3.45304
# Velocity P-wave (km/s) = 7.46610 5.76293 6.66911
#
# Compressibility (1/GPa) = 0.01866698
#
# Stress axis : x y z
#
# Youngs Moduli (GPa) = 51.44809 63.68352 92.45829
#
# Poissons Ratio (x) = 0.51792 0.12371
# Poissons Ratio (y) = 0.41842 0.38587
# Poissons Ratio (z) = 0.06884 0.26578
#
# Static dielectric constant tensor:
#      x y z
#    x 3.481290 0.000000 0.000000 
#    y 0.000000 3.419710 0.000000 
#    z 0.000000 0.000000 4.269810 
# 
# 
# High freq. dielectric constant tensor:
#      x y z
#    x 1.751460 0.000000 0.000000 
#    y 0.000000 1.739760 0.000000 
#    z 0.000000 0.000000 1.768530 
# 
# From -- ./inp_files/8932.got.cif
#   From: 2010.03.12/outbox.cif.g09.slc.cpg/sg57_5_cif.got.tgz:8932.got - 2010.04.16 15:48:40.
