data_PCOD8233735
_publ_section_title
;
Structure prediction by ZEFSAII (Michael W. Deem and Ramdas Pophale) SiO2 
 PCOD8233735
Probable space group: P B C M
;
_chemical_formula_sum "Si O2"
_cell_formula_units_Z 64
_cell_length_a 15.061814
_cell_length_b 9.101349
_cell_length_c 28.254408
_cell_angle_alpha 90.000000
_cell_angle_beta 90.000000
_cell_angle_gamma 90.000000
_cell_volume 3873.194090
_symmetry_space_group_name_H-M "P B C M"
_symmetry_group_IT_number 57
_symmetry_cell_setting 'orthorhombic'
loop_
_space_group_symop_operation_xyz
x,y,z
-x,-y,1/2+z
x,1/2-y,-z
-x,1/2+y,1/2-z
-x,-y,-z
x,y,1/2-z
-x,1/2+y,z
x,1/2-y,1/2+z
loop_
_atom_site_type_symbol
_atom_site_label
_atom_site_fract_x
_atom_site_fract_y
_atom_site_fract_z
Si Si1 0.233344 0.044635 0.194033
Si Si2 0.421183 0.545423 0.305977
Si Si3 0.101915 0.546250 0.132409
Si Si4 0.094092 0.357777 0.963674
Si Si5 0.593662 0.713753 0.193483
Si Si6 0.894879 0.373748 0.529008
Si Si7 0.913686 0.800165 0.862127
Si Si8 0.243598 0.709418 0.306027
O O1 0.237156 0.041623 0.250000
O O2 0.317951 0.134109 0.174092
O O3 0.144022 0.128288 0.179342
O O4 0.234936 0.876682 0.175308
O O5 0.428156 0.534503 0.250000
O O6 0.410208 0.380419 0.326603
O O7 0.509988 0.621477 0.326202
O O8 0.339465 0.648159 0.320983
O O9 0.143104 0.566632 0.078918
O O10 0.083165 0.375516 0.142205
O O11 0.171835 0.605309 0.169797
O O12 0.012287 0.636039 0.141195
O O13 0.134941 0.348626 0.911201
O O14 0.991422 0.307868 0.957373
O O15 0.144853 0.250000 0.000000
O O16 0.098093 0.515072 0.986022
O O17 0.592999 0.716356 0.250000
O O18 0.838582 0.250000 0.500000
O O19 0.228636 0.699247 0.250000
#
# Coordination Sequence:
#
# PCOD8233735 Si02
#       8
#     8   8   8   8   8   8   8   8
#     4  10  21  35  49  68  95 129 165 201 237 278
#     4   9  16  28  48  71  94 121 152 193 240 285
#     4  11  22  34  48  70  93 128 166 198 239 284
#     4   9  16  30  46  69  91 115 149 194 245 287
#     4   9  16  28  48  71  94 120 153 192 240 286
#     4   9  18  28  48  69  91 117 149 195 244 290
#     4  11  22  33  50  68  94 128 164 201 237 285
#     4  10  21  35  49  67  96 129 164 202 236 277
#
# _framework density 16.523828999999999
#
# number of rings (size 3 to 8) (size 9 to 14) (size 15 to 20)
#    0.000    2.250    1.250    2.250    7.000    5.000 
#    0.000    0.000    0.000    0.000    0.000    0.000 
#    0.000    2.000    0.000    0.125    0.000    0.125 
#
# Total GULP energy -793027.322145 kJ/mol
# GULP energy per Si atom -12391.051909 kJ/mol
# Density = 1.648622 g / cm^3
# Si number density = 16.523829 Si / 1000 Ang^3
#
#
#
# Elastic Constant Matrix: (Units=GPa)
#
#
# Indices 1 2 3 4 5 6 
#
# 1 63.7643 31.6016 18.7036 0.0000 0.0000 0.0000
# 2 31.6016 128.0482 21.7086 0.0000 0.0000 0.0000
# 3 18.7036 21.7086 27.0908 0.0000 0.0000 0.0000
# 4 0.0000 0.0000 0.0000 22.3366 0.0000 0.0000
# 5 0.0000 0.0000 0.0000 0.0000 0.8723 0.0000
# 6 0.0000 0.0000 0.0000 0.0000 0.0000 26.8887
#
#
#
# Elastic Compliance Matrix: (Units=1/GPa)
#
#
# Indices 1 2 3 4 5 6 
#
# 1 0.020680 -0.003105 -0.011789 0.000000 0.000000 0.000000
# 2 -0.003105 0.009503 -0.005472 0.000000 0.000000 0.000000
# 3 -0.011789 -0.005472 0.049437 0.000000 0.000000 0.000000
# 4 0.000000 0.000000 0.000000 0.044770 0.000000 0.000000
# 5 0.000000 0.000000 0.000000 0.000000 1.146354 0.000000
# 6 0.000000 0.000000 0.000000 0.000000 0.000000 0.037190
#
#
# Mechanical properties :
#
#
# Convention : Reuss Voigt Hill
#
# Bulk Modulus (GPa) = 25.71477 40.32565 33.02021
# Shear Modulus (GPa) = 3.67207 19.81216 11.74211
#
# Velocity S-wave (km/s) = 1.49235 3.46642 2.66863
# Velocity P-wave (km/s) = 4.30877 6.36231 5.43344
#
# Compressibility (1/GPa) = 0.03888815
#
# Stress axis : x y z
#
# Youngs Moduli (GPa) = 48.35672 105.22456 20.22783
#
# Poissons Ratio (x) = 0.32672 0.23847
# Poissons Ratio (y) = 0.15014 0.11068
# Poissons Ratio (z) = 0.57009 0.57576
#
# Static dielectric constant tensor:
#      x y z
#    x 2.925500 0.000000 0.000000 
#    y 0.000000 3.404930 0.000000 
#    z 0.000000 0.000000 3.045500 
# 
# 
# High freq. dielectric constant tensor:
#      x y z
#    x 1.600720 0.000000 0.000000 
#    y 0.000000 1.663720 0.000000 
#    z 0.000000 0.000000 1.604650 
# 
# From -- ./inp_files/27453.got.cif
#   From: 2010.03.12/outbox.cif.g09.slc.cpg/sg57_14_cif.got.tgz:27453.got - 2010.04.16 15:48:40.
