data_PCOD8233867
_publ_section_title
;
Structure prediction by ZEFSAII (Michael W. Deem and Ramdas Pophale) SiO2 
 PCOD8233867
Probable space group: P B C M
;
_chemical_formula_sum "Si O2"
_cell_formula_units_Z 56
_cell_length_a 21.514488
_cell_length_b 14.710599
_cell_length_c 9.135274
_cell_angle_alpha 90.000000
_cell_angle_beta 90.000000
_cell_angle_gamma 90.000000
_cell_volume 2891.232055
_symmetry_space_group_name_H-M "P B C M"
_symmetry_group_IT_number 57
_symmetry_cell_setting 'orthorhombic'
loop_
_space_group_symop_operation_xyz
x,y,z
-x,-y,1/2+z
x,1/2-y,-z
-x,1/2+y,1/2-z
-x,-y,-z
x,y,1/2-z
-x,1/2+y,z
x,1/2-y,1/2+z
loop_
_atom_site_type_symbol
_atom_site_label
_atom_site_fract_x
_atom_site_fract_y
_atom_site_fract_z
Si Si1 0.811033 0.337654 0.922425
Si Si2 0.508912 0.650825 0.576566
Si Si3 0.055068 0.889291 0.585807
Si Si4 0.196133 0.339309 0.421394
Si Si5 0.062376 0.395368 0.414136
Si Si6 0.717241 0.004875 0.079942
Si Si7 0.410253 0.003924 0.421610
O O1 0.813385 0.324308 0.750000
O O2 0.880617 0.354120 0.984875
O O3 0.766713 0.419600 0.965031
O O4 0.782268 0.250000 0.000000
O O5 0.502209 0.750000 0.500000
O O6 0.519950 0.665199 0.750000
O O7 0.448417 0.588639 0.545843
O O8 0.565679 0.593063 0.508333
O O9 0.048609 0.853268 0.750000
O O10 0.995381 0.850740 0.499913
O O11 0.057233 0.997162 0.581752
O O12 0.220279 0.250000 0.500000
O O13 0.189599 0.323937 0.250000
O O14 0.128483 0.367592 0.485405
O O15 0.249411 0.410983 0.456233
O O16 0.058269 0.358378 0.250000
O O17 0.697405 0.012275 0.250000
O O18 0.658518 0.016966 0.976192
O O19 0.411420 0.027075 0.250000
#
# Coordination Sequence:
#
# PCOD8233867 Si02
#       7
#     8   8   8   8   8   8   8
#     4  10  21  37  56  78 107 145 188 234 284 342
#     4  10  21  39  64  93 125 158 192 233 278 328
#     4   9  17  32  53  75 101 136 179 227 283 342
#     4  10  21  37  56  78 106 143 186 231 281 338
#     4   9  17  32  53  75 101 135 178 227 282 341
#     4  10  21  40  60  78 112 157 192 228 280 336
#     4  10  22  39  61  91 123 155 194 236 280 331
#
# _framework density 19.368905000000002
#
# number of rings (size 3 to 8) (size 9 to 14) (size 15 to 20)
#    0.000    2.286    1.429    0.857    0.000    5.714 
#    0.000    7.143    0.000    0.000    0.000    0.000 
#    0.000    0.000    0.000    0.000    0.000    0.000 
#
# Total GULP energy -694283.621174 kJ/mol
# GULP energy per Si atom -12397.921807 kJ/mol
# Density = 1.932482 g / cm^3
# Si number density = 19.368905 Si / 1000 Ang^3
#
#
#
# Elastic Constant Matrix: (Units=GPa)
#
#
# Indices 1 2 3 4 5 6 
#
# 1 98.9967 27.4690 47.9881 0.0000 0.0000 0.0000
# 2 27.4690 93.6850 46.7792 0.0000 0.0000 0.0000
# 3 47.9881 46.7792 70.3381 0.0000 0.0000 0.0000
# 4 0.0000 0.0000 0.0000 33.4580 0.0000 0.0000
# 5 0.0000 0.0000 0.0000 0.0000 35.0693 0.0000
# 6 0.0000 0.0000 0.0000 0.0000 0.0000 -20.7107
#
#
#
# Elastic Compliance Matrix: (Units=1/GPa)
#
#
# Indices 1 2 3 4 5 6 
#
# 1 0.015165 0.001078 -0.011063 0.000000 0.000000 0.000000
# 2 0.001078 0.016058 -0.011415 0.000000 0.000000 0.000000
# 3 -0.011063 -0.011415 0.029356 0.000000 0.000000 0.000000
# 4 0.000000 0.000000 0.000000 0.029888 0.000000 0.000000
# 5 0.000000 0.000000 0.000000 0.000000 0.028515 0.000000
# 6 0.000000 0.000000 0.000000 0.000000 0.000000 -0.048284
#
#
# Mechanical properties :
#
#
# Convention : Reuss Voigt Hill
#
# Bulk Modulus (GPa) = 56.24628 56.38805 56.31716
# Shear Modulus (GPa) = 41.86764 18.94891 30.40827
#
# Velocity S-wave (km/s) = 4.65433 3.13120 3.96656
# Velocity P-wave (km/s) = 7.61487 6.49988 7.07936
#
# Compressibility (1/GPa) = 0.01777895
#
# Stress axis : x y z
#
# Youngs Moduli (GPa) = 65.94092 62.27556 34.06443
#
# Poissons Ratio (x) = -0.06710 0.37686
# Poissons Ratio (y) = -0.07105 0.38883
# Poissons Ratio (z) = 0.72950 0.71084
#
# Static dielectric constant tensor:
#      x y z
#    x 3.603120 0.000000 0.000000 
#    y 0.000000 3.461030 0.000000 
#    z 0.000000 0.000000 3.528160 
# 
# 
# High freq. dielectric constant tensor:
#      x y z
#    x 1.756610 0.000000 0.000000 
#    y 0.000000 1.756320 0.000000 
#    z 0.000000 0.000000 1.745840 
# 
# From -- ./inp_files/8074.got.cif
#   From: 2010.03.12/outbox.cif.g09.slc.cpg/sg57_5_cif.got.tgz:8074.got - 2010.04.16 15:48:40.
