data_PCOD8233108
_publ_section_title
;
Structure prediction by ZEFSAII (Michael W. Deem and Ramdas Pophale) SiO2 
 PCOD8233108
Probable space group: P B C M
;
_chemical_formula_sum "Si O2"
_cell_formula_units_Z 48
_cell_length_a 14.826545
_cell_length_b 19.280966
_cell_length_c 8.649301
_cell_angle_alpha 90.000000
_cell_angle_beta 90.000000
_cell_angle_gamma 90.000000
_cell_volume 2472.576629
_symmetry_space_group_name_H-M "P B C M"
_symmetry_group_IT_number 57
_symmetry_cell_setting 'orthorhombic'
loop_
_space_group_symop_operation_xyz
x,y,z
-x,-y,1/2+z
x,1/2-y,-z
-x,1/2+y,1/2-z
-x,-y,-z
x,y,1/2-z
-x,1/2+y,z
x,1/2-y,1/2+z
loop_
_atom_site_type_symbol
_atom_site_label
_atom_site_fract_x
_atom_site_fract_y
_atom_site_fract_z
Si Si1 0.396556 0.326088 0.432002
Si Si2 0.768985 0.906199 0.570599
Si Si3 0.074670 0.323313 0.433541
Si Si4 0.271958 0.564693 0.929497
Si Si5 0.869864 0.178009 0.931730
Si Si6 0.463565 0.928843 0.568769
O O1 0.389139 0.250000 0.500000
O O2 0.406920 0.321435 0.250000
O O3 0.307171 0.368346 0.472329
O O4 0.483957 0.363645 0.499918
O O5 0.756320 0.887301 0.750000
O O6 0.866700 0.883586 0.510553
O O7 0.762836 0.987655 0.541196
O O8 0.109021 0.250000 0.500000
O O9 0.086391 0.324025 0.250000
O O10 0.971926 0.336897 0.487025
O O11 0.295871 0.576804 0.750000
O O12 0.193660 0.615867 0.988719
O O13 0.358966 0.580708 0.031654
O O14 0.867486 0.184950 0.750000
O O15 0.833251 0.250000 0.000000
O O16 0.480411 0.931127 0.750000
O O17 0.500000 0.000000 0.500000
#
# Coordination Sequence:
#
# PCOD8233108 Si02
#       6
#     8   8   8   8   8   8
#     4  12  25  42  64  91 123 158 202 252 302 360
#     4  11  22  37  59  87 121 159 200 246 302 362
#     4  10  20  36  58  84 118 157 201 247 300 357
#     4  10  22  40  62  87 120 159 201 247 302 360
#     4   9  20  39  61  86 117 157 200 250 300 353
#     4  12  24  41  64  90 121 160 202 246 301 360
#
# _framework density 19.412946999999999
#
# number of rings (size 3 to 8) (size 9 to 14) (size 15 to 20)
#    0.000    1.333    1.667    4.500    0.000    3.333 
#    0.000    1.667    0.000    0.000    0.000    0.000 
#    0.000    0.000    0.000    0.000    0.000    0.000 
#
# Total GULP energy -595485.927109 kJ/mol
# GULP energy per Si atom -12405.956815 kJ/mol
# Density = 1.936876 g / cm^3
# Si number density = 19.412947 Si / 1000 Ang^3
#
#
#
# Elastic Constant Matrix: (Units=GPa)
#
#
# Indices 1 2 3 4 5 6 
#
# 1 119.8265 67.2722 44.3666 0.0000 0.0000 0.0000
# 2 67.2722 129.1817 50.7147 0.0000 0.0000 0.0000
# 3 44.3666 50.7147 112.3821 0.0000 0.0000 0.0000
# 4 0.0000 0.0000 0.0000 31.2867 0.0000 0.0000
# 5 0.0000 0.0000 0.0000 0.0000 29.8321 0.0000
# 6 0.0000 0.0000 0.0000 0.0000 0.0000 41.6649
#
#
#
# Elastic Compliance Matrix: (Units=1/GPa)
#
#
# Indices 1 2 3 4 5 6 
#
# 1 0.012299 -0.005467 -0.002388 0.000000 0.000000 0.000000
# 2 -0.005467 0.011838 -0.003184 0.000000 0.000000 0.000000
# 3 -0.002388 -0.003184 0.011278 0.000000 0.000000 0.000000
# 4 0.000000 0.000000 0.000000 0.031962 0.000000 0.000000
# 5 0.000000 0.000000 0.000000 0.000000 0.033521 0.000000
# 6 0.000000 0.000000 0.000000 0.000000 0.000000 0.024001
#
#
# Mechanical properties :
#
#
# Convention : Reuss Voigt Hill
#
# Bulk Modulus (GPa) = 74.98304 76.23304 75.60804
# Shear Modulus (GPa) = 33.02002 33.82586 33.42294
#
# Velocity S-wave (km/s) = 4.12871 4.17878 4.15382
# Velocity P-wave (km/s) = 7.83820 7.91438 7.87638
#
# Compressibility (1/GPa) = 0.01333635
#
# Stress axis : x y z
#
# Youngs Moduli (GPa) = 81.30719 84.47354 88.66966
#
# Poissons Ratio (x) = 0.46183 0.21177
# Poissons Ratio (y) = 0.44452 0.28230
# Poissons Ratio (z) = 0.19418 0.26895
#
# Static dielectric constant tensor:
#      x y z
#    x 3.783630 0.000000 0.000000 
#    y 0.000000 3.565950 0.000000 
#    z 0.000000 0.000000 3.646840 
# 
# 
# High freq. dielectric constant tensor:
#      x y z
#    x 1.764870 0.000000 0.000000 
#    y 0.000000 1.761900 0.000000 
#    z 0.000000 0.000000 1.764270 
# 
# From -- ./inp_files/4623.got.cif
#   From: 2010.03.12/outbox.cif.g09.slc.cpg/sg57_3_cif.got.tgz:4623.got - 2010.04.16 15:48:40.
