data_PCOD8233213
_publ_section_title
;
Structure prediction by ZEFSAII (Michael W. Deem and Ramdas Pophale) SiO2 
 PCOD8233213
Probable space group: P B C M
;
_chemical_formula_sum "Si O2"
_cell_formula_units_Z 56
_cell_length_a 14.656113
_cell_length_b 22.432038
_cell_length_c 8.796668
_cell_angle_alpha 90.000000
_cell_angle_beta 90.000000
_cell_angle_gamma 90.000000
_cell_volume 2892.049607
_symmetry_space_group_name_H-M "P B C M"
_symmetry_group_IT_number 57
_symmetry_cell_setting 'orthorhombic'
loop_
_space_group_symop_operation_xyz
x,y,z
-x,-y,1/2+z
x,1/2-y,-z
-x,1/2+y,1/2-z
-x,-y,-z
x,y,1/2-z
-x,1/2+y,z
x,1/2-y,1/2+z
loop_
_atom_site_type_symbol
_atom_site_label
_atom_site_fract_x
_atom_site_fract_y
_atom_site_fract_z
Si Si1 0.795492 0.585383 0.429501
Si Si2 0.083939 0.311822 0.426947
Si Si3 0.620054 0.948789 0.073854
Si Si4 0.308114 0.688931 0.574086
Si Si5 0.904302 0.017209 0.428652
Si Si6 0.413125 0.572821 0.927372
Si Si7 0.886640 0.140669 0.924439
O O1 0.803997 0.586715 0.250000
O O2 0.858945 0.636315 0.496243
O O3 0.690628 0.592950 0.481548
O O4 0.826074 0.521770 0.494359
O O5 0.115076 0.250000 0.500000
O O6 0.106933 0.310925 0.250000
O O7 0.976835 0.321237 0.458088
O O8 0.646292 0.947409 0.250000
O O9 0.520888 0.920879 0.043425
O O10 0.626206 0.016863 0.018397
O O11 0.343162 0.750000 0.500000
O O12 0.329891 0.694300 0.750000
O O13 0.364077 0.632269 0.509243
O O14 0.200573 0.681609 0.541340
O O15 0.907223 0.004842 0.250000
O O16 0.882271 0.085609 0.461180
O O17 0.000000 0.000000 0.500000
O O18 0.391246 0.562353 0.750000
O O19 0.885881 0.117591 0.750000
#
# Coordination Sequence:
#
# PCOD8233213 Si02
#       7
#     8   8   8   8   8   8   8
#     4  12  24  39  59  84 116 154 195 242 292 345
#     4  11  23  39  58  80 112 153 198 241 285 341
#     4  10  20  36  61  90 117 149 191 242 297 355
#     4  10  21  37  57  84 117 155 194 236 286 343
#     4  12  23  36  57  86 118 152 191 237 290 345
#     4   9  19  37  60  87 120 153 188 236 295 354
#     4  10  21  37  58  84 118 156 193 236 287 344
#
# _framework density 19.363430999999999
#
# number of rings (size 3 to 8) (size 9 to 14) (size 15 to 20)
#    0.000    1.429    1.429    4.714    0.000    3.429 
#    0.000    0.714    0.000    1.714    0.000    0.000 
#    0.000    0.000    0.000    0.000    0.000    0.000 
#
# Total GULP energy -694662.458583 kJ/mol
# GULP energy per Si atom -12404.686760 kJ/mol
# Density = 1.931936 g / cm^3
# Si number density = 19.363431 Si / 1000 Ang^3
#
#
#
# Elastic Constant Matrix: (Units=GPa)
#
#
# Indices 1 2 3 4 5 6 
#
# 1 100.3071 32.9300 45.5961 0.0000 0.0000 0.0000
# 2 32.9300 87.2749 45.1673 0.0000 0.0000 0.0000
# 3 45.5961 45.1673 117.8043 0.0000 0.0000 0.0000
# 4 0.0000 0.0000 0.0000 37.0241 0.0000 0.0000
# 5 0.0000 0.0000 0.0000 0.0000 28.8238 0.0000
# 6 0.0000 0.0000 0.0000 0.0000 0.0000 23.1722
#
#
#
# Elastic Compliance Matrix: (Units=1/GPa)
#
#
# Indices 1 2 3 4 5 6 
#
# 1 0.012619 -0.002786 -0.003816 0.000000 0.000000 0.000000
# 2 -0.002786 0.014910 -0.004638 0.000000 0.000000 0.000000
# 3 -0.003816 -0.004638 0.011744 0.000000 0.000000 0.000000
# 4 0.000000 0.000000 0.000000 0.027009 0.000000 0.000000
# 5 0.000000 0.000000 0.000000 0.000000 0.034694 0.000000
# 6 0.000000 0.000000 0.000000 0.000000 0.000000 0.043155
#
#
# Mechanical properties :
#
#
# Convention : Reuss Voigt Hill
#
# Bulk Modulus (GPa) = 59.55289 61.41923 60.48606
# Shear Modulus (GPa) = 29.03466 29.91687 29.47576
#
# Velocity S-wave (km/s) = 3.87648 3.93494 3.90582
# Velocity P-wave (km/s) = 7.13150 7.24106 7.18649
#
# Compressibility (1/GPa) = 0.01679180
#
# Stress axis : x y z
#
# Youngs Moduli (GPa) = 79.24786 67.07030 85.15143
#
# Poissons Ratio (x) = 0.18689 0.32491
# Poissons Ratio (y) = 0.22082 0.39494
# Poissons Ratio (z) = 0.30239 0.31107
#
# Static dielectric constant tensor:
#      x y z
#    x 3.644930 0.000000 0.000000 
#    y 0.000000 3.349280 0.000000 
#    z 0.000000 0.000000 5.051040 
# 
# 
# High freq. dielectric constant tensor:
#      x y z
#    x 1.760010 0.000000 0.000000 
#    y 0.000000 1.745980 0.000000 
#    z 0.000000 0.000000 1.758560 
# 
# From -- ./inp_files/5279.got.cif
#   From: 2010.03.12/outbox.cif.g09.slc.cpg/sg57_3_cif.got.tgz:5279.got - 2010.04.16 15:48:40.
