data_PCOD8233405
_publ_section_title
;
Structure prediction by ZEFSAII (Michael W. Deem and Ramdas Pophale) SiO2 
 PCOD8233405
Probable space group: P B C M
;
_chemical_formula_sum "Si O2"
_cell_formula_units_Z 64
_cell_length_a 10.708799
_cell_length_b 16.039110
_cell_length_c 18.095114
_cell_angle_alpha 90.000000
_cell_angle_beta 90.000000
_cell_angle_gamma 90.000000
_cell_volume 3108.009635
_symmetry_space_group_name_H-M "P B C M"
_symmetry_group_IT_number 57
_symmetry_cell_setting 'orthorhombic'
loop_
_space_group_symop_operation_xyz
x,y,z
-x,-y,1/2+z
x,1/2-y,-z
-x,1/2+y,1/2-z
-x,-y,-z
x,y,1/2-z
-x,1/2+y,z
x,1/2-y,1/2+z
loop_
_atom_site_type_symbol
_atom_site_label
_atom_site_fract_x
_atom_site_fract_y
_atom_site_fract_z
Si Si1 0.409038 0.115955 0.669148
Si Si2 0.604366 0.702992 0.166892
Si Si3 0.793163 0.476203 0.667124
Si Si4 0.324055 0.803207 0.838066
Si Si5 0.416830 0.555755 0.943948
Si Si6 0.795004 0.176969 0.556518
Si Si7 0.251947 0.450765 0.661661
Si Si8 0.027300 0.530885 0.918905
O O1 0.477577 0.115784 0.750000
O O2 0.337404 0.204277 0.662311
O O3 0.496371 0.120914 0.598024
O O4 0.326133 0.034763 0.663985
O O5 0.581306 0.672700 0.250000
O O6 0.466358 0.693124 0.129902
O O7 0.711863 0.642758 0.135761
O O8 0.843540 0.465592 0.750000
O O9 0.752346 0.385723 0.635889
O O10 0.895617 0.525651 0.621219
O O11 0.322489 0.794755 0.750000
O O12 0.258887 0.720269 0.870005
O O13 0.305344 0.611247 0.980580
O O14 0.360839 0.504338 0.875548
O O15 0.500000 0.500000 0.000000
O O16 0.830445 0.250000 0.500000
O O17 0.918594 0.125092 0.579201
O O18 0.245590 0.465750 0.750000
O O19 0.119604 0.469503 0.624753
O O20 0.000000 0.500000 0.000000
#
# Coordination Sequence:
#
# PCOD8233405 Si02
#       8
#     8   8   8   8   8   8   8   8
#     4  10  20  37  62  92 130 164 204 259 320 387
#     4   9  18  36  62  98 130 157 203 264 323 385
#     4  10  22  40  66  93 124 168 215 261 317 383
#     4  10  20  38  66  97 126 161 207 265 326 388
#     4  11  24  35  62  95 131 169 205 261 326 389
#     4  11  25  42  62  91 126 169 212 265 316 387
#     4  10  22  41  67  94 124 168 217 263 316 384
#     4  11  25  45  65  86 126 171 221 274 317 374
#
# _framework density 20.591957000000001
#
# number of rings (size 3 to 8) (size 9 to 14) (size 15 to 20)
#    0.000    1.750    1.250    2.250    7.000    4.500 
#    4.500    0.000    0.000    0.000    0.000    0.000 
#    0.000    0.000    0.000    0.000    0.000    0.000 
#
# Total GULP energy -792902.727405 kJ/mol
# GULP energy per Si atom -12389.105116 kJ/mol
# Density = 2.054509 g / cm^3
# Si number density = 20.591957 Si / 1000 Ang^3
#
#
#
# Elastic Constant Matrix: (Units=GPa)
#
#
# Indices 1 2 3 4 5 6 
#
# 1 53.5274 31.0896 30.6619 0.0000 0.0000 0.0000
# 2 31.0896 127.9935 30.8069 0.0000 0.0000 0.0000
# 3 30.6619 30.8069 82.6180 0.0000 0.0000 0.0000
# 4 0.0000 0.0000 0.0000 32.7026 0.0000 0.0000
# 5 0.0000 0.0000 0.0000 0.0000 32.7037 0.0000
# 6 0.0000 0.0000 0.0000 0.0000 0.0000 38.3186
#
#
#
# Elastic Compliance Matrix: (Units=1/GPa)
#
#
# Indices 1 2 3 4 5 6 
#
# 1 0.025752 -0.004345 -0.007937 0.000000 0.000000 0.000000
# 2 -0.004345 0.009316 -0.001861 0.000000 0.000000 0.000000
# 3 -0.007937 -0.001861 0.015744 0.000000 0.000000 0.000000
# 4 0.000000 0.000000 0.000000 0.030579 0.000000 0.000000
# 5 0.000000 0.000000 0.000000 0.000000 0.030578 0.000000
# 6 0.000000 0.000000 0.000000 0.000000 0.000000 0.026097
#
#
# Mechanical properties :
#
#
# Convention : Reuss Voigt Hill
#
# Bulk Modulus (GPa) = 44.39454 49.91728 47.15591
# Shear Modulus (GPa) = 28.75864 32.18369 30.47116
#
# Velocity S-wave (km/s) = 3.74116 3.95767 3.85094
# Velocity P-wave (km/s) = 6.34568 6.72146 6.53627
#
# Compressibility (1/GPa) = 0.02252529
#
# Stress axis : x y z
#
# Youngs Moduli (GPa) = 38.83157 107.33913 63.51730
#
# Poissons Ratio (x) = 0.46636 0.50416
# Poissons Ratio (y) = 0.16871 0.11823
# Poissons Ratio (z) = 0.30822 0.19980
#
# Static dielectric constant tensor:
#      x y z
#    x 3.748690 0.000000 0.000000 
#    y 0.000000 3.945720 0.000000 
#    z 0.000000 0.000000 3.734220 
# 
# 
# High freq. dielectric constant tensor:
#      x y z
#    x 1.784600 0.000000 0.000000 
#    y 0.000000 1.819980 0.000000 
#    z 0.000000 0.000000 1.804380 
# 
# From -- ./inp_files/22097.got.cif
#   From: 2010.03.12/outbox.cif.g09.slc.cpg/sg57_12_cif.got.tgz:22097.got - 2010.04.16 15:48:40.
