data_PCOD8233306
_publ_section_title
;
Structure prediction by ZEFSAII (Michael W. Deem and Ramdas Pophale) SiO2 
 PCOD8233306
Probable space group: P B C M
;
_chemical_formula_sum "Si O2"
_cell_formula_units_Z 40
_cell_length_a 25.553433
_cell_length_b 9.211099
_cell_length_c 8.536775
_cell_angle_alpha 90.000000
_cell_angle_beta 90.000000
_cell_angle_gamma 90.000000
_cell_volume 2009.345133
_symmetry_space_group_name_H-M "P B C M"
_symmetry_group_IT_number 57
_symmetry_cell_setting 'orthorhombic'
loop_
_space_group_symop_operation_xyz
x,y,z
-x,-y,1/2+z
x,1/2-y,-z
-x,1/2+y,1/2-z
-x,-y,-z
x,y,1/2-z
-x,1/2+y,z
x,1/2-y,1/2+z
loop_
_atom_site_type_symbol
_atom_site_label
_atom_site_fract_x
_atom_site_fract_y
_atom_site_fract_z
Si Si1 0.851991 0.090282 0.565536
Si Si2 0.358730 0.091742 0.935447
Si Si3 0.246472 0.094168 0.435962
Si Si4 0.548038 0.409821 0.064626
Si Si5 0.048535 0.411376 0.935744
O O1 0.858334 0.250000 0.500000
O O2 0.854823 0.099449 0.750000
O O3 0.796928 0.021982 0.511725
O O4 0.898846 0.989381 0.502640
O O5 0.363800 0.093373 0.750000
O O6 0.373291 0.250000 0.000000
O O7 0.300605 0.045054 0.985667
O O8 0.397429 0.974705 0.007212
O O9 0.228520 0.250000 0.500000
O O10 0.253631 0.103617 0.250000
O O11 0.546279 0.408793 0.250000
O O12 0.542324 0.250000 0.000000
O O13 0.500000 0.500000 0.000000
O O14 0.046057 0.406889 0.750000
O O15 0.047122 0.250000 0.000000
O O16 0.000000 0.500000 0.000000
#
# Coordination Sequence:
#
# PCOD8233306 Si02
#       5
#     8   8   8   8   8
#     4  10  23  39  58  84 117 153 195 241 292 348
#     4  11  22  39  62  90 121 158 198 243 294 350
#     4  10  20  37  59  86 116 152 195 242 291 348
#     4  12  25  43  64  90 121 157 198 244 294 350
#     4  11  23  40  61  88 118 154 195 242 294 352
#
# _framework density 19.906984000000001
#
# number of rings (size 3 to 8) (size 9 to 14) (size 15 to 20)
#    0.000    1.200    0.000    7.800    0.000    5.600 
#    0.000    2.000    0.000    0.000    0.000    0.000 
#    0.000    0.000    0.000    0.000    0.000    0.000 
#
# Total GULP energy -496202.261425 kJ/mol
# GULP energy per Si atom -12405.056536 kJ/mol
# Density = 1.986167 g / cm^3
# Si number density = 19.906984 Si / 1000 Ang^3
#
#
#
# Elastic Constant Matrix: (Units=GPa)
#
#
# Indices 1 2 3 4 5 6 
#
# 1 146.9849 108.1851 60.5182 0.0000 0.0000 0.0000
# 2 108.1851 185.4417 61.1541 0.0000 0.0000 0.0000
# 3 60.5182 61.1541 138.3813 0.0000 0.0000 0.0000
# 4 0.0000 0.0000 0.0000 40.3975 0.0000 0.0000
# 5 0.0000 0.0000 0.0000 0.0000 35.1395 0.0000
# 6 0.0000 0.0000 0.0000 0.0000 0.0000 47.9123
#
#
#
# Elastic Compliance Matrix: (Units=1/GPa)
#
#
# Indices 1 2 3 4 5 6 
#
# 1 0.012714 -0.006536 -0.002672 0.000000 0.000000 0.000000
# 2 -0.006536 0.009673 -0.001416 0.000000 0.000000 0.000000
# 3 -0.002672 -0.001416 0.009021 0.000000 0.000000 0.000000
# 4 0.000000 0.000000 0.000000 0.024754 0.000000 0.000000
# 5 0.000000 0.000000 0.000000 0.000000 0.028458 0.000000
# 6 0.000000 0.000000 0.000000 0.000000 0.000000 0.020871
#
#
# Mechanical properties :
#
#
# Convention : Reuss Voigt Hill
#
# Bulk Modulus (GPa) = 98.43166 103.39143 100.91155
# Shear Modulus (GPa) = 38.42415 40.75324 39.58869
#
# Velocity S-wave (km/s) = 4.39815 4.52949 4.46430
# Velocity P-wave (km/s) = 8.68014 8.91095 8.79630
#
# Compressibility (1/GPa) = 0.01015933
#
# Stress axis : x y z
#
# Youngs Moduli (GPa) = 78.65045 103.38252 110.85649
#
# Poissons Ratio (x) = 0.67575 0.29619
# Poissons Ratio (y) = 0.51409 0.15698
# Poissons Ratio (z) = 0.21014 0.14640
#
# Static dielectric constant tensor:
#      x y z
#    x 3.954400 0.000000 0.000000 
#    y 0.000000 3.671710 0.000000 
#    z 0.000000 0.000000 3.761370 
# 
# 
# High freq. dielectric constant tensor:
#      x y z
#    x 1.796420 0.000000 0.000000 
#    y 0.000000 1.784820 0.000000 
#    z 0.000000 0.000000 1.791210 
# 
# From -- ./inp_files/8886.got.cif
#   From: 2010.03.12/outbox.cif.g09.slc.cpg/sg57_5_cif.got.tgz:8886.got - 2010.04.16 15:48:40.
