data_PCOD8233960
_publ_section_title
;
Structure prediction by ZEFSAII (Michael W. Deem and Ramdas Pophale) SiO2 
 PCOD8233960
Probable space group: P B C M
;
_chemical_formula_sum "Si O2"
_cell_formula_units_Z 48
_cell_length_a 30.531625
_cell_length_b 9.408240
_cell_length_c 8.592638
_cell_angle_alpha 90.000000
_cell_angle_beta 90.000000
_cell_angle_gamma 90.000000
_cell_volume 2468.225432
_symmetry_space_group_name_H-M "P B C M"
_symmetry_group_IT_number 57
_symmetry_cell_setting 'orthorhombic'
loop_
_space_group_symop_operation_xyz
x,y,z
-x,-y,1/2+z
x,1/2-y,-z
-x,1/2+y,1/2-z
-x,-y,-z
x,y,1/2-z
-x,1/2+y,z
x,1/2-y,1/2+z
loop_
_atom_site_type_symbol
_atom_site_label
_atom_site_fract_x
_atom_site_fract_y
_atom_site_fract_z
Si Si1 0.130369 0.404354 0.433843
Si Si2 0.380404 0.402806 0.066744
Si Si3 0.712207 0.599523 0.431562
Si Si4 0.460952 0.907240 0.933747
Si Si5 0.793996 0.093946 0.567120
Si Si6 0.038313 0.094910 0.434578
O O1 0.142915 0.250000 0.500000
O O2 0.125147 0.391796 0.250000
O O3 0.167479 0.515421 0.477066
O O4 0.085129 0.462293 0.506381
O O5 0.378374 0.387862 0.250000
O O6 0.415494 0.520134 0.013856
O O7 0.394196 0.250000 0.000000
O O8 0.333230 0.452901 0.005419
O O9 0.727688 0.750000 0.500000
O O10 0.704900 0.620016 0.250000
O O11 0.748550 0.483360 0.470681
O O12 0.465447 0.900537 0.750000
O O13 0.462936 0.750000 0.000000
O O14 0.500000 0.000000 0.000000
O O15 0.789860 0.250000 0.500000
O O16 0.804297 0.095486 0.750000
O O17 0.030021 0.250000 0.500000
O O18 0.037605 0.095655 0.250000
O O19 0.000000 0.000000 0.500000
#
# Coordination Sequence:
#
# PCOD8233960 Si02
#       6
#     8   8   8   8   8   8
#     4  11  22  39  62  87 115 152 194 237 285 342
#     4  10  21  37  59  86 115 148 189 234 284 338
#     4  10  21  37  60  86 114 150 192 234 283 341
#     4  11  24  40  60  86 116 153 193 238 288 343
#     4  11  24  40  58  85 117 152 192 239 291 342
#     4  11  22  39  61  88 119 153 193 238 287 342
#
# _framework density 19.44717
#
# number of rings (size 3 to 8) (size 9 to 14) (size 15 to 20)
#    0.000    1.333    0.000    8.000    0.000    9.333 
#    0.000    6.667    0.000    0.000    0.000    0.000 
#    0.000    0.000    0.000    0.000    0.000    0.000 
#
# Total GULP energy -595417.271287 kJ/mol
# GULP energy per Si atom -12404.526485 kJ/mol
# Density = 1.940291 g / cm^3
# Si number density = 19.447170 Si / 1000 Ang^3
#
#
#
# Elastic Constant Matrix: (Units=GPa)
#
#
# Indices 1 2 3 4 5 6 
#
# 1 144.3981 93.5925 71.3486 0.0000 0.0000 0.0000
# 2 93.5925 133.7841 58.1587 0.0000 0.0000 0.0000
# 3 71.3486 58.1587 144.0903 0.0000 0.0000 0.0000
# 4 0.0000 0.0000 0.0000 36.1985 0.0000 0.0000
# 5 0.0000 0.0000 0.0000 0.0000 31.4949 0.0000
# 6 0.0000 0.0000 0.0000 0.0000 0.0000 56.0508
#
#
#
# Elastic Compliance Matrix: (Units=1/GPa)
#
#
# Indices 1 2 3 4 5 6 
#
# 1 0.014083 -0.008272 -0.003634 0.000000 0.000000 0.000000
# 2 -0.008272 0.013924 -0.001524 0.000000 0.000000 0.000000
# 3 -0.003634 -0.001524 0.009355 0.000000 0.000000 0.000000
# 4 0.000000 0.000000 0.000000 0.027625 0.000000 0.000000
# 5 0.000000 0.000000 0.000000 0.000000 0.031751 0.000000
# 6 0.000000 0.000000 0.000000 0.000000 0.000000 0.017841
#
#
# Mechanical properties :
#
#
# Convention : Reuss Voigt Hill
#
# Bulk Modulus (GPa) = 95.23268 96.49690 95.86479
# Shear Modulus (GPa) = 34.49687 38.02703 36.26195
#
# Velocity S-wave (km/s) = 4.21631 4.42679 4.32283
# Velocity P-wave (km/s) = 8.53108 8.70956 8.62078
#
# Compressibility (1/GPa) = 0.01050060
#
# Stress axis : x y z
#
# Youngs Moduli (GPa) = 71.00953 71.81749 106.89515
#
# Poissons Ratio (x) = 0.59407 0.38851
# Poissons Ratio (y) = 0.58739 0.16293
# Poissons Ratio (z) = 0.25808 0.10946
#
# Static dielectric constant tensor:
#      x y z
#    x 3.845090 0.000000 0.000000 
#    y 0.000000 3.595330 0.000000 
#    z 0.000000 0.000000 3.777510 
# 
# 
# High freq. dielectric constant tensor:
#      x y z
#    x 1.774080 0.000000 0.000000 
#    y 0.000000 1.757030 0.000000 
#    z 0.000000 0.000000 1.779790 
# 
# From -- ./inp_files/10079.got.cif
#   From: 2010.03.12/outbox.cif.g09.slc.cpg/sg57_6_cif.got.tgz:10079.got - 2010.04.16 15:48:40.
