data_PCOD8233705
_publ_section_title
;
Structure prediction by ZEFSAII (Michael W. Deem and Ramdas Pophale) SiO2 
 PCOD8233705
Probable space group: P B C M
;
_chemical_formula_sum "Si O2"
_cell_formula_units_Z 48
_cell_length_a 31.049858
_cell_length_b 7.555479
_cell_length_c 9.604226
_cell_angle_alpha 90.000000
_cell_angle_beta 90.000000
_cell_angle_gamma 90.000000
_cell_volume 2253.118286
_symmetry_space_group_name_H-M "P B C M"
_symmetry_group_IT_number 57
_symmetry_cell_setting 'orthorhombic'
loop_
_space_group_symop_operation_xyz
x,y,z
-x,-y,1/2+z
x,1/2-y,-z
-x,1/2+y,1/2-z
-x,-y,-z
x,y,1/2-z
-x,1/2+y,z
x,1/2-y,1/2+z
loop_
_atom_site_type_symbol
_atom_site_label
_atom_site_fract_x
_atom_site_fract_y
_atom_site_fract_z
Si Si1 0.755457 0.732449 0.750000
Si Si2 0.630358 0.043235 0.017578
Si Si3 0.870760 0.417337 0.591208
Si Si4 0.304743 0.919232 0.750000
Si Si5 0.816982 0.750000 0.000000
Si Si6 0.322230 0.502074 0.750000
Si Si7 0.539516 0.423119 0.585476
Si Si8 0.038935 0.080579 0.587516
O O1 0.741306 0.522795 0.750000
O O2 0.785135 0.786331 0.624130
O O3 0.715109 0.861112 0.750000
O O4 0.669462 0.005187 0.119982
O O5 0.584184 0.964078 0.071920
O O6 0.624941 0.250000 0.000000
O O7 0.645338 0.957575 0.874654
O O8 0.857311 0.250000 0.500000
O O9 0.855218 0.389508 0.750000
O O10 0.847520 0.584238 0.525027
O O11 0.922182 0.441740 0.587544
O O12 0.302050 0.703347 0.750000
O O13 0.550470 0.250000 0.500000
O O14 0.500000 0.500000 0.500000
O O15 0.528034 0.394705 0.750000
O O16 0.054425 0.250000 0.500000
O O17 0.026300 0.125390 0.750000
O O18 0.000000 0.000000 0.500000
#
# Coordination Sequence:
#
# PCOD8233705 Si02
#       8
#     4   8   8   4   4   4   8   8
#     4  12  26  42  72 100 136 176 232 290 354 414
#     4   9  19  37  64  87 123 167 215 267 342 399
#     4  11  26  46  73 103 140 192 244 288 356 427
#     4  10  20  42  63  93 130 164 219 280 339 415
#     4  12  26  48  68 102 144 186 228 294 356 426
#     4  10  22  40  65  97 124 174 217 282 347 411
#     4  11  23  40  62  91 130 174 220 270 326 399
#     4  11  23  41  67 104 146 190 239 300 355 418
#
# _framework density 21.303806999999999
#
# number of rings (size 3 to 8) (size 9 to 14) (size 15 to 20)
#    0.000    1.333    2.500    2.500    5.833    4.000 
#    3.000    0.000    0.000    0.000    0.000    0.000 
#    0.000    0.000    0.000    0.000    0.000    0.000 
#
# Total GULP energy -594718.060500 kJ/mol
# GULP energy per Si atom -12389.959594 kJ/mol
# Density = 2.125532 g / cm^3
# Si number density = 21.303807 Si / 1000 Ang^3
#
#
#
# Elastic Constant Matrix: (Units=GPa)
#
#
# Indices 1 2 3 4 5 6 
#
# 1 112.4033 34.2494 55.7603 0.0000 0.0000 0.0000
# 2 34.2494 91.6753 46.0598 0.0000 0.0000 0.0000
# 3 55.7603 46.0598 191.3870 0.0000 0.0000 0.0000
# 4 0.0000 0.0000 0.0000 36.6904 0.0000 0.0000
# 5 0.0000 0.0000 0.0000 0.0000 67.0941 0.0000
# 6 0.0000 0.0000 0.0000 0.0000 0.0000 34.1800
#
#
#
# Elastic Compliance Matrix: (Units=1/GPa)
#
#
# Indices 1 2 3 4 5 6 
#
# 1 0.011016 -0.002847 -0.002524 0.000000 0.000000 0.000000
# 2 -0.002847 0.013144 -0.002334 0.000000 0.000000 0.000000
# 3 -0.002524 -0.002334 0.006522 0.000000 0.000000 0.000000
# 4 0.000000 0.000000 0.000000 0.027255 0.000000 0.000000
# 5 0.000000 0.000000 0.000000 0.000000 0.014904 0.000000
# 6 0.000000 0.000000 0.000000 0.000000 0.000000 0.029257
#
#
# Mechanical properties :
#
#
# Convention : Reuss Voigt Hill
#
# Bulk Modulus (GPa) = 65.47982 74.17830 69.82906
# Shear Modulus (GPa) = 40.78272 44.88599 42.83436
#
# Velocity S-wave (km/s) = 4.38006 4.59513 4.48888
# Velocity P-wave (km/s) = 7.50885 7.94031 7.72759
#
# Compressibility (1/GPa) = 0.01527188
#
# Stress axis : x y z
#
# Youngs Moduli (GPa) = 90.77378 76.07811 153.32401
#
# Poissons Ratio (x) = 0.21662 0.38704
# Poissons Ratio (y) = 0.25847 0.35783
# Poissons Ratio (z) = 0.22914 0.17755
#
# Static dielectric constant tensor:
#      x y z
#    x 4.728740 0.000000 0.000000 
#    y 0.000000 3.636040 0.000000 
#    z 0.000000 0.000000 3.410550 
# 
# 
# High freq. dielectric constant tensor:
#      x y z
#    x 1.848800 0.000000 0.000000 
#    y 0.000000 1.817720 0.000000 
#    z 0.000000 0.000000 1.856940 
# 
# From -- ./inp_files/10205.got.cif
#   From: 2010.03.12/outbox.cif.g09.slc.cpg/sg57_6_cif.got.tgz:10205.got - 2010.04.16 15:48:40.
