data_PCOD8233170
_publ_section_title
;
Structure prediction by ZEFSAII (Michael W. Deem and Ramdas Pophale) SiO2 
 PCOD8233170
Probable space group: P B C M
;
_chemical_formula_sum "Si O2"
_cell_formula_units_Z 56
_cell_length_a 21.335530
_cell_length_b 14.898211
_cell_length_c 8.596586
_cell_angle_alpha 90.000000
_cell_angle_beta 90.000000
_cell_angle_gamma 90.000000
_cell_volume 2732.521380
_symmetry_space_group_name_H-M "P B C M"
_symmetry_group_IT_number 57
_symmetry_cell_setting 'orthorhombic'
loop_
_space_group_symop_operation_xyz
x,y,z
-x,-y,1/2+z
x,1/2-y,-z
-x,1/2+y,1/2-z
-x,-y,-z
x,y,1/2-z
-x,1/2+y,z
x,1/2-y,1/2+z
loop_
_atom_site_type_symbol
_atom_site_label
_atom_site_fract_x
_atom_site_fract_y
_atom_site_fract_z
Si Si1 0.566553 0.606559 0.928900
Si Si2 0.438222 0.603113 0.429407
Si Si3 0.766022 0.004167 0.431017
Si Si4 0.910066 0.511581 0.932407
Si Si5 0.692179 0.842203 0.567779
Si Si6 0.309960 0.839106 0.431192
Si Si7 0.001918 0.649518 0.067051
O O1 0.580545 0.630117 0.750000
O O2 0.571581 0.501372 0.963176
O O3 0.497400 0.641069 0.974293
O O4 0.617623 0.653958 0.037949
O O5 0.451530 0.622092 0.250000
O O6 0.376000 0.652584 0.482086
O O7 0.758617 0.028942 0.250000
O O8 0.837778 0.991739 0.479570
O O9 0.727272 0.915798 0.466609
O O10 0.738023 0.081823 0.536485
O O11 0.920241 0.524348 0.750000
O O12 0.941988 0.417654 0.987629
O O13 0.938097 0.600286 0.014274
O O14 0.719180 0.750000 0.500000
O O15 0.706565 0.852624 0.750000
O O16 0.277620 0.750000 0.500000
O O17 0.323019 0.832216 0.250000
O O18 0.001439 0.661020 0.250000
O O19 0.009675 0.750000 0.000000
#
# Coordination Sequence:
#
# PCOD8233170 Si02
#       7
#     8   8   8   8   8   8   8
#     4  10  20  36  60  87 118 153 195 249 309 368
#     4  10  20  36  60  87 118 153 196 249 308 368
#     4  11  23  43  65  89 124 161 203 252 303 358
#     4   9  21  40  63  91 124 164 204 246 295 351
#     4  12  25  41  62  88 119 158 205 252 307 366
#     4  12  25  41  62  88 120 159 205 252 306 365
#     4  10  20  37  63  95 129 163 201 246 294 346
#
# _framework density 20.493893
#
# number of rings (size 3 to 8) (size 9 to 14) (size 15 to 20)
#    0.000    1.429    1.429    4.286    0.000    4.571 
#    0.000    4.286    0.000    0.000    0.000    0.000 
#    0.000    0.000    0.000    0.000    0.000    0.000 
#
# Total GULP energy -694578.229646 kJ/mol
# GULP energy per Si atom -12403.182672 kJ/mol
# Density = 2.044725 g / cm^3
# Si number density = 20.493893 Si / 1000 Ang^3
#
#
#
# Elastic Constant Matrix: (Units=GPa)
#
#
# Indices 1 2 3 4 5 6 
#
# 1 95.7701 24.4636 11.1234 0.0000 0.0000 0.0000
# 2 24.4636 111.9580 22.6901 0.0000 0.0000 0.0000
# 3 11.1234 22.6901 54.4577 0.0000 0.0000 0.0000
# 4 0.0000 0.0000 0.0000 33.6556 0.0000 0.0000
# 5 0.0000 0.0000 0.0000 0.0000 4.6266 0.0000
# 6 0.0000 0.0000 0.0000 0.0000 0.0000 131.7324
#
#
#
# Elastic Compliance Matrix: (Units=1/GPa)
#
#
# Indices 1 2 3 4 5 6 
#
# 1 0.011153 -0.002157 -0.001379 0.000000 0.000000 0.000000
# 2 -0.002157 0.010173 -0.003798 0.000000 0.000000 0.000000
# 3 -0.001379 -0.003798 0.020227 0.000000 0.000000 0.000000
# 4 0.000000 0.000000 0.000000 0.029713 0.000000 0.000000
# 5 0.000000 0.000000 0.000000 0.000000 0.216139 0.000000
# 6 0.000000 0.000000 0.000000 0.000000 0.000000 0.007591
#
#
# Mechanical properties :
#
#
# Convention : Reuss Voigt Hill
#
# Bulk Modulus (GPa) = 37.19708 42.08222 39.63965
# Shear Modulus (GPa) = 15.69235 47.59685 31.64460
#
# Velocity S-wave (km/s) = 2.77015 4.82445 3.93377
# Velocity P-wave (km/s) = 5.33117 7.18417 6.32589
#
# Compressibility (1/GPa) = 0.02688383
#
# Stress axis : x y z
#
# Youngs Moduli (GPa) = 89.66225 98.29874 49.43878
#
# Poissons Ratio (x) = 0.21208 0.06818
# Poissons Ratio (y) = 0.19345 0.18777
# Poissons Ratio (z) = 0.12366 0.37334
#
# Static dielectric constant tensor:
#      x y z
#    x 3.734280 0.000000 0.000000 
#    y 0.000000 3.832500 0.000000 
#    z 0.000000 0.000000 3.709590 
# 
# 
# High freq. dielectric constant tensor:
#      x y z
#    x 1.795160 0.000000 0.000000 
#    y 0.000000 1.809700 0.000000 
#    z 0.000000 0.000000 1.809300 
# 
# From -- ./inp_files/8070.got.cif
#   From: 2010.03.12/outbox.cif.g09.slc.cpg/sg57_5_cif.got.tgz:8070.got - 2010.04.16 15:48:40.
