data_PCOD8233235
_publ_section_title
;
Structure prediction by ZEFSAII (Michael W. Deem and Ramdas Pophale) SiO2 
 PCOD8233235
Probable space group: P B C M
;
_chemical_formula_sum "Si O2"
_cell_formula_units_Z 40
_cell_length_a 9.127428
_cell_length_b 15.049364
_cell_length_c 12.130307
_cell_angle_alpha 90.000000
_cell_angle_beta 90.000000
_cell_angle_gamma 90.000000
_cell_volume 1666.243065
_symmetry_space_group_name_H-M "P B C M"
_symmetry_group_IT_number 57
_symmetry_cell_setting 'orthorhombic'
loop_
_space_group_symop_operation_xyz
x,y,z
-x,-y,1/2+z
x,1/2-y,-z
-x,1/2+y,1/2-z
-x,-y,-z
x,y,1/2-z
-x,1/2+y,z
x,1/2-y,1/2+z
loop_
_atom_site_type_symbol
_atom_site_label
_atom_site_fract_x
_atom_site_fract_y
_atom_site_fract_z
Si Si1 0.569360 0.190062 0.381520
Si Si2 0.396840 0.478333 0.879058
Si Si3 0.404933 0.362824 0.379110
Si Si4 0.911545 0.906933 0.123875
Si Si5 0.825423 0.419516 0.977857
O O1 0.581834 0.186653 0.250000
O O2 0.520905 0.288619 0.425384
O O3 0.726227 0.159364 0.428695
O O4 0.438752 0.121831 0.420200
O O5 0.366319 0.477950 0.750000
O O6 0.540249 0.537645 0.908780
O O7 0.252741 0.516366 0.933796
O O8 0.412599 0.348270 0.250000
O O9 0.235667 0.354519 0.414825
O O10 0.951280 0.884148 0.250000
O O11 0.886474 0.014077 0.116084
O O12 0.040717 0.873475 0.043616
#
# Coordination Sequence:
#
# PCOD8233235 Si02
#       5
#     8   8   8   8   8
#     4  10  20  36  63  96 128 165 213 262 313 374
#     4  10  20  37  60  89 126 165 211 265 312 375
#     4   9  19  37  63  89 124 170 208 260 320 369
#     4  10  21  39  62  92 131 168 208 263 329 389
#     4  11  21  35  63  96 124 165 212 260 326 385
#
# _framework density 24.006101999999998
#
# number of rings (size 3 to 8) (size 9 to 14) (size 15 to 20)
#    0.000    2.000    2.000    1.800    0.000    0.800 
#    0.000    0.000   17.600    0.000    0.000    4.200 
#    0.000    0.000    0.000    0.000    0.000    0.000 
#
# Total GULP energy -496091.664003 kJ/mol
# GULP energy per Si atom -12402.291600 kJ/mol
# Density = 2.395146 g / cm^3
# Si number density = 24.006102 Si / 1000 Ang^3
#
#
#
# Elastic Constant Matrix: (Units=GPa)
#
#
# Indices 1 2 3 4 5 6 
#
# 1 151.5004 56.4387 38.3766 0.0000 0.0000 0.0000
# 2 56.4387 122.7948 38.3884 0.0000 0.0000 0.0000
# 3 38.3766 38.3884 74.8036 0.0000 0.0000 0.0000
# 4 0.0000 0.0000 0.0000 39.6744 0.0000 0.0000
# 5 0.0000 0.0000 0.0000 0.0000 43.9633 0.0000
# 6 0.0000 0.0000 0.0000 0.0000 0.0000 35.2656
#
#
#
# Elastic Compliance Matrix: (Units=1/GPa)
#
#
# Indices 1 2 3 4 5 6 
#
# 1 0.008423 -0.003002 -0.002781 0.000000 0.000000 0.000000
# 2 -0.003002 0.010770 -0.003987 0.000000 0.000000 0.000000
# 3 -0.002781 -0.003987 0.016841 0.000000 0.000000 0.000000
# 4 0.000000 0.000000 0.000000 0.025205 0.000000 0.000000
# 5 0.000000 0.000000 0.000000 0.000000 0.022746 0.000000
# 6 0.000000 0.000000 0.000000 0.000000 0.000000 0.028356
#
#
# Mechanical properties :
#
#
# Convention : Reuss Voigt Hill
#
# Bulk Modulus (GPa) = 60.62538 68.38958 64.50748
# Shear Modulus (GPa) = 36.39546 38.17367 37.28456
#
# Velocity S-wave (km/s) = 3.89793 3.99201 3.94525
# Velocity P-wave (km/s) = 6.75036 7.05680 6.90528
#
# Compressibility (1/GPa) = 0.01649474
#
# Stress axis : x y z
#
# Youngs Moduli (GPa) = 118.71588 92.85144 59.37909
#
# Poissons Ratio (x) = 0.27876 0.16512
# Poissons Ratio (y) = 0.35641 0.23673
# Poissons Ratio (z) = 0.33012 0.37018
#
# Static dielectric constant tensor:
#      x y z
#    x 4.212980 0.000000 0.000000 
#    y 0.000000 4.290170 0.000000 
#    z 0.000000 0.000000 4.965810 
# 
# 
# High freq. dielectric constant tensor:
#      x y z
#    x 1.940100 0.000000 0.000000 
#    y 0.000000 1.932140 0.000000 
#    z 0.000000 0.000000 2.008900 
# 
# From -- ./inp_files/15877.got.cif
#   From: 2010.03.12/outbox.cif.g09.slc.cpg/sg57_8_cif.got.tgz:15877.got - 2010.04.16 15:48:40.
