data_PCOD8233409
_publ_section_title
;
Structure prediction by ZEFSAII (Michael W. Deem and Ramdas Pophale) SiO2 
 PCOD8233409
Probable space group: P B C M
;
_chemical_formula_sum "Si O2"
_cell_formula_units_Z 48
_cell_length_a 7.429809
_cell_length_b 19.221656
_cell_length_c 17.041599
_cell_angle_alpha 90.000000
_cell_angle_beta 90.000000
_cell_angle_gamma 90.000000
_cell_volume 2433.765844
_symmetry_space_group_name_H-M "P B C M"
_symmetry_group_IT_number 57
_symmetry_cell_setting 'orthorhombic'
loop_
_space_group_symop_operation_xyz
x,y,z
-x,-y,1/2+z
x,1/2-y,-z
-x,1/2+y,1/2-z
-x,-y,-z
x,y,1/2-z
-x,1/2+y,z
x,1/2-y,1/2+z
loop_
_atom_site_type_symbol
_atom_site_label
_atom_site_fract_x
_atom_site_fract_y
_atom_site_fract_z
Si Si1 0.237029 0.429490 0.157732
Si Si2 0.263975 0.915989 0.659224
Si Si3 0.968111 0.820710 0.595792
Si Si4 0.944450 0.167516 0.585539
Si Si5 0.566654 0.167876 0.658647
Si Si6 0.418962 0.180662 0.342761
O O1 0.202508 0.430586 0.250000
O O2 0.250791 0.507217 0.121495
O O3 0.419642 0.389626 0.136820
O O4 0.065987 0.393024 0.119938
O O5 0.302333 0.925701 0.750000
O O6 0.432330 0.873090 0.624609
O O7 0.080098 0.873794 0.648605
O O8 0.758859 0.837088 0.608127
O O9 0.028390 0.830813 0.507001
O O10 0.004525 0.741742 0.624081
O O11 0.738365 0.150588 0.605490
O O12 0.621497 0.165340 0.750000
O O13 0.486712 0.242563 0.635999
O O14 0.380914 0.173931 0.250000
#
# Coordination Sequence:
#
# PCOD8233409 Si02
#       6
#     8   8   8   8   8   8
#     4  10  22  40  62  90 120 152 199 254 299 346
#     4  10  22  40  62  90 120 152 199 254 299 346
#     4  11  23  38  58  90 124 161 197 241 292 357
#     4  11  23  38  58  90 124 161 197 241 292 357
#     4  10  20  37  63  87 113 155 205 248 289 343
#     4  10  20  37  63  87 113 155 205 248 289 343
#
# _framework density 19.722522000000001
#
# number of rings (size 3 to 8) (size 9 to 14) (size 15 to 20)
#    0.000    1.667    3.333    1.000    0.000    4.667 
#    0.000    5.000    0.000    0.000    0.000    0.000 
#    0.000    0.000    0.000    0.000    0.000    0.000 
#
# Total GULP energy -595378.753564 kJ/mol
# GULP energy per Si atom -12403.724033 kJ/mol
# Density = 1.967763 g / cm^3
# Si number density = 19.722522 Si / 1000 Ang^3
#
#
#
# Elastic Constant Matrix: (Units=GPa)
#
#
# Indices 1 2 3 4 5 6 
#
# 1 146.6827 53.0952 27.9082 0.0000 0.0000 0.0000
# 2 53.0952 147.3435 10.6945 0.0000 0.0000 0.0000
# 3 27.9082 10.6945 34.1908 0.0000 0.0000 0.0000
# 4 0.0000 0.0000 0.0000 14.4525 0.0000 0.0000
# 5 0.0000 0.0000 0.0000 0.0000 30.5011 0.0000
# 6 0.0000 0.0000 0.0000 0.0000 0.0000 32.9869
#
#
#
# Elastic Compliance Matrix: (Units=1/GPa)
#
#
# Indices 1 2 3 4 5 6 
#
# 1 0.009072 -0.002795 -0.006531 0.000000 0.000000 0.000000
# 2 -0.002795 0.007806 -0.000160 0.000000 0.000000 0.000000
# 3 -0.006531 -0.000160 0.034628 0.000000 0.000000 0.000000
# 4 0.000000 0.000000 0.000000 0.069192 0.000000 0.000000
# 5 0.000000 0.000000 0.000000 0.000000 0.032786 0.000000
# 6 0.000000 0.000000 0.000000 0.000000 0.000000 0.030315
#
#
# Mechanical properties :
#
#
# Convention : Reuss Voigt Hill
#
# Bulk Modulus (GPa) = 30.73670 56.84585 43.79128
# Shear Modulus (GPa) = 23.40665 31.35603 27.38134
#
# Velocity S-wave (km/s) = 3.44873 3.99163 3.73007
# Velocity P-wave (km/s) = 5.61041 7.08022 6.38773
#
# Compressibility (1/GPa) = 0.03253440
#
# Stress axis : x y z
#
# Youngs Moduli (GPa) = 110.23344 128.11224 28.87813
#
# Poissons Ratio (x) = 0.35807 0.18859
# Poissons Ratio (y) = 0.30810 0.00462
# Poissons Ratio (z) = 0.71988 0.02051
#
# Static dielectric constant tensor:
#      x y z
#    x 3.580850 0.000000 0.000000 
#    y 0.000000 3.912230 0.000000 
#    z 0.000000 0.000000 3.340500 
# 
# 
# High freq. dielectric constant tensor:
#      x y z
#    x 1.780390 0.000000 0.000000 
#    y 0.000000 1.773850 0.000000 
#    z 0.000000 0.000000 1.749250 
# 
# From -- ./inp_files/23685.got.cif
#   From: 2010.03.12/outbox.cif.g09.slc.cpg/sg57_12_cif.got.tgz:23685.got - 2010.04.16 15:48:40.
