data_PCOD8233328
_publ_section_title
;
Structure prediction by ZEFSAII (Michael W. Deem and Ramdas Pophale) SiO2 
 PCOD8233328
Probable space group: P B C M
;
_chemical_formula_sum "Si O2"
_cell_formula_units_Z 56
_cell_length_a 14.638360
_cell_length_b 8.913549
_cell_length_c 21.117023
_cell_angle_alpha 90.000000
_cell_angle_beta 90.000000
_cell_angle_gamma 90.000000
_cell_volume 2755.343652
_symmetry_space_group_name_H-M "P B C M"
_symmetry_group_IT_number 57
_symmetry_cell_setting 'orthorhombic'
loop_
_space_group_symop_operation_xyz
x,y,z
-x,-y,1/2+z
x,1/2-y,-z
-x,1/2+y,1/2-z
-x,-y,-z
x,y,1/2-z
-x,1/2+y,z
x,1/2-y,1/2+z
loop_
_atom_site_type_symbol
_atom_site_label
_atom_site_fract_x
_atom_site_fract_y
_atom_site_fract_z
Si Si1 0.072126 0.109921 0.580978
Si Si2 0.522097 0.163433 0.250000
Si Si3 0.544487 0.800576 0.929727
Si Si4 0.225625 0.395129 0.324779
Si Si5 0.591477 0.497505 0.872475
Si Si6 0.716917 0.929932 0.867497
Si Si7 0.367364 0.962309 0.250000
Si Si8 0.892647 0.954201 0.942467
O O1 0.128720 0.061750 0.643571
O O2 0.112840 0.026963 0.518579
O O3 0.076912 0.287068 0.573690
O O4 0.966461 0.065261 0.589030
O O5 0.555991 0.072614 0.190857
O O6 0.553569 0.335442 0.250000
O O7 0.412198 0.132544 0.250000
O O8 0.544938 0.660078 0.881862
O O9 0.446512 0.886721 0.927818
O O10 0.626189 0.910695 0.909404
O O11 0.566517 0.750000 0.000000
O O12 0.225284 0.436472 0.250000
O O13 0.299522 0.490090 0.365896
O O14 0.247192 0.220719 0.334149
O O15 0.794646 0.996090 0.913290
O O16 0.695377 0.051579 0.812485
#
# Coordination Sequence:
#
# PCOD8233328 Si02
#       8
#     8   4   8   8   8   8   4   8
#     4   9  19  38  63  84 114 155 196 248 301 371
#     4  12  24  40  62  85 117 172 206 249 293 367
#     4  11  24  39  60  88 122 161 204 258 305 363
#     4  10  20  37  60  86 117 159 202 245 304 369
#     4  11  23  40  60  84 121 160 207 248 303 365
#     4  10  22  36  63  88 117 157 203 249 301 369
#     4  12  24  40  62  87 125 160 214 251 305 359
#     4   9  19  39  63  87 113 152 201 243 305 367
#
# _framework density 20.324145000000001
#
# number of rings (size 3 to 8) (size 9 to 14) (size 15 to 20)
#    0.000    1.714    2.857    1.286    8.000    0.000 
#    3.857    0.000    3.143    0.000    0.000    0.000 
#    0.000    0.000    0.000    0.000    0.000    0.000 
#
# Total GULP energy -694109.333838 kJ/mol
# GULP energy per Si atom -12394.809533 kJ/mol
# Density = 2.027789 g / cm^3
# Si number density = 20.324145 Si / 1000 Ang^3
#
#
#
# Elastic Constant Matrix: (Units=GPa)
#
#
# Indices 1 2 3 4 5 6 
#
# 1 93.2167 40.3905 58.6034 0.0000 0.0000 0.0000
# 2 40.3905 45.1741 19.7488 0.0000 0.0000 0.0000
# 3 58.6034 19.7488 95.4929 0.0000 0.0000 0.0000
# 4 0.0000 0.0000 0.0000 22.0863 0.0000 0.0000
# 5 0.0000 0.0000 0.0000 0.0000-1349.1193 0.0000
# 6 0.0000 0.0000 0.0000 0.0000 0.0000 28.6818
#
#
#
# Elastic Compliance Matrix: (Units=1/GPa)
#
#
# Indices 1 2 3 4 5 6 
#
# 1 0.026454 -0.018201 -0.012471 0.000000 0.000000 0.000000
# 2 -0.018201 0.036860 0.003547 0.000000 0.000000 0.000000
# 3 -0.012471 0.003547 0.017392 0.000000 0.000000 0.000000
# 4 0.000000 0.000000 0.000000 0.045277 0.000000 0.000000
# 5 0.000000 0.000000 0.000000 0.000000 -0.000741 0.000000
# 6 0.000000 0.000000 0.000000 0.000000 0.000000 0.034865
#
#
# Mechanical properties :
#
#
# Convention : Reuss Voigt Hill
#
# Bulk Modulus (GPa) = 37.79866 52.37436 45.08651
# Shear Modulus (GPa) = 22.40400 -251.99418 -114.79509
#
# Velocity S-wave (km/s) = 3.32374 -11.14705 -7.52361
# Velocity P-wave (km/s) = 5.77650 11.82583 7.29665
#
# Compressibility (1/GPa) = 0.02645596
#
# Stress axis : x y z
#
# Youngs Moduli (GPa) = 37.80126 27.12997 57.49906
#
# Poissons Ratio (x) = 0.49379 0.71705
# Poissons Ratio (y) = 0.68802 -0.20395
# Poissons Ratio (z) = 0.47140 -0.09623
#
# Static dielectric constant tensor:
#      x y z
#    x 3.848550 0.000000 0.000000 
#    y 0.000000 3.654080 0.000000 
#    z 0.000000 0.000000 3.851850 
# 
# 
# High freq. dielectric constant tensor:
#      x y z
#    x 1.785800 0.000000 0.000000 
#    y 0.000000 1.772430 0.000000 
#    z 0.000000 0.000000 1.800460 
# 
# From -- ./inp_files/25474.got.cif
#   From: 2010.03.12/outbox.cif.g09.slc.cpg/sg57_13_cif.got.tgz:25474.got - 2010.04.16 15:48:40.
