data_PCOD8233531
_publ_section_title
;
Structure prediction by ZEFSAII (Michael W. Deem and Ramdas Pophale) SiO2 
 PCOD8233531
Probable space group: P B C M
;
_chemical_formula_sum "Si O2"
_cell_formula_units_Z 64
_cell_length_a 11.636750
_cell_length_b 9.307300
_cell_length_c 29.522885
_cell_angle_alpha 90.000000
_cell_angle_beta 90.000000
_cell_angle_gamma 90.000000
_cell_volume 3197.526936
_symmetry_space_group_name_H-M "P B C M"
_symmetry_group_IT_number 57
_symmetry_cell_setting 'orthorhombic'
loop_
_space_group_symop_operation_xyz
x,y,z
-x,-y,1/2+z
x,1/2-y,-z
-x,1/2+y,1/2-z
-x,-y,-z
x,y,1/2-z
-x,1/2+y,z
x,1/2-y,1/2+z
loop_
_atom_site_type_symbol
_atom_site_label
_atom_site_fract_x
_atom_site_fract_y
_atom_site_fract_z
Si Si1 0.310590 0.040994 0.698471
Si Si2 0.104726 0.711501 0.120554
Si Si3 0.739061 0.209825 0.801204
Si Si4 0.273630 0.166360 0.957277
Si Si5 0.128346 0.379347 0.372207
Si Si6 0.510297 0.717640 0.409201
Si Si7 0.283466 0.841598 0.544485
Si Si8 0.451604 0.959704 0.151913
O O1 0.305347 0.093388 0.750000
O O2 0.203510 0.121519 0.674107
O O3 0.429964 0.083973 0.676142
O O4 0.313846 0.868536 0.694381
O O5 0.156129 0.792142 0.164175
O O6 0.087122 0.541889 0.123256
O O7 0.186606 0.733974 0.076524
O O8 0.979353 0.777229 0.121109
O O9 0.782619 0.181539 0.750000
O O10 0.650379 0.082297 0.813681
O O11 0.208795 0.185928 0.910477
O O12 0.399094 0.234638 0.947512
O O13 0.255756 0.001667 0.971326
O O14 0.219335 0.250000 0.000000
O O15 0.405099 0.631118 0.431053
O O16 0.560748 0.622095 0.367269
O O17 0.446515 0.859733 0.391889
O O18 0.297923 0.750000 0.500000
#
# Coordination Sequence:
#
# PCOD8233531 Si02
#       8
#     8   8   8   8   8   8   8   8
#     4  10  20  38  62  88 122 160 196 247 304 359
#     4  10  22  42  63  85 119 161 203 253 306 359
#     4  10  21  38  62  91 123 160 201 247 303 362
#     4  11  25  41  61  91 123 160 205 254 306 366
#     4  10  22  42  62  85 118 157 203 253 306 359
#     4  12  22  38  64  89 127 163 199 244 299 362
#     4  11  24  41  61  91 125 161 202 252 313 367
#     4  12  20  38  63  90 124 164 197 240 300 362
#
# _framework density 20.015469
#
# number of rings (size 3 to 8) (size 9 to 14) (size 15 to 20)
#    0.000    1.250    5.000    1.500    1.750    4.000 
#    0.000    2.500    0.000    0.000    0.000    0.000 
#    0.000    0.000    0.000    0.000    0.000    0.000 
#
# Total GULP energy -792955.510093 kJ/mol
# GULP energy per Si atom -12389.929845 kJ/mol
# Density = 1.996991 g / cm^3
# Si number density = 20.015469 Si / 1000 Ang^3
#
#
#
# Elastic Constant Matrix: (Units=GPa)
#
#
# Indices 1 2 3 4 5 6 
#
# 1 71.9073 28.2065 23.9452 0.0000 0.0000 0.0000
# 2 28.2065 51.4715 38.4975 0.0000 0.0000 0.0000
# 3 23.9452 38.4975 117.6046 0.0000 0.0000 0.0000
# 4 0.0000 0.0000 0.0000 17.9970 0.0000 0.0000
# 5 0.0000 0.0000 0.0000 0.0000 19.9821 0.0000
# 6 0.0000 0.0000 0.0000 0.0000 0.0000 22.5371
#
#
#
# Elastic Compliance Matrix: (Units=1/GPa)
#
#
# Indices 1 2 3 4 5 6 
#
# 1 0.017743 -0.009298 -0.000569 0.000000 0.000000 0.000000
# 2 -0.009298 0.030599 -0.008123 0.000000 0.000000 0.000000
# 3 -0.000569 -0.008123 0.011278 0.000000 0.000000 0.000000
# 4 0.000000 0.000000 0.000000 0.055565 0.000000 0.000000
# 5 0.000000 0.000000 0.000000 0.000000 0.050045 0.000000
# 6 0.000000 0.000000 0.000000 0.000000 0.000000 0.044371
#
#
# Mechanical properties :
#
#
# Convention : Reuss Voigt Hill
#
# Bulk Modulus (GPa) = 42.30091 46.92017 44.61054
# Shear Modulus (GPa) = 19.72678 22.12553 20.92615
#
# Velocity S-wave (km/s) = 3.14280 3.32839 3.23693
# Velocity P-wave (km/s) = 5.86085 6.18577 6.02550
#
# Compressibility (1/GPa) = 0.02364015
#
# Stress axis : x y z
#
# Youngs Moduli (GPa) = 56.35878 32.68048 88.66715
#
# Poissons Ratio (x) = 0.30386 0.05046
# Poissons Ratio (y) = 0.52401 0.72029
# Poissons Ratio (z) = 0.03207 0.26548
#
# Static dielectric constant tensor:
#      x y z
#    x 3.523060 0.000000 0.000000 
#    y 0.000000 3.400550 0.000000 
#    z 0.000000 0.000000 3.728940 
# 
# 
# High freq. dielectric constant tensor:
#      x y z
#    x 1.769670 0.000000 0.000000 
#    y 0.000000 1.779610 0.000000 
#    z 0.000000 0.000000 1.788290 
# 
# From -- ./inp_files/29782.got.cif
#   From: 2010.03.12/outbox.cif.g09.slc.cpg/sg57_15_cif.got.tgz:29782.got - 2010.04.16 15:48:40.
