data_PCOD8233894
_publ_section_title
;
Structure prediction by ZEFSAII (Michael W. Deem and Ramdas Pophale) SiO2 
 PCOD8233894
Probable space group: P B C M
;
_chemical_formula_sum "Si O2"
_cell_formula_units_Z 64
_cell_length_a 14.954119
_cell_length_b 23.854281
_cell_length_c 8.658232
_cell_angle_alpha 90.000000
_cell_angle_beta 90.000000
_cell_angle_gamma 90.000000
_cell_volume 3088.562413
_symmetry_space_group_name_H-M "P B C M"
_symmetry_group_IT_number 57
_symmetry_cell_setting 'orthorhombic'
loop_
_space_group_symop_operation_xyz
x,y,z
-x,-y,1/2+z
x,1/2-y,-z
-x,1/2+y,1/2-z
-x,-y,-z
x,y,1/2-z
-x,1/2+y,z
x,1/2-y,1/2+z
loop_
_atom_site_type_symbol
_atom_site_label
_atom_site_fract_x
_atom_site_fract_y
_atom_site_fract_z
Si Si1 0.484035 0.811501 0.430592
Si Si2 0.179869 0.191166 0.426428
Si Si3 0.337298 0.888507 0.925491
Si Si4 0.096624 0.987981 0.428922
Si Si5 0.643656 0.879171 0.925303
Si Si6 0.009046 0.191026 0.930831
Si Si7 0.281728 0.487022 0.067611
Si Si8 0.860985 0.375067 0.574810
O O1 0.466554 0.750000 0.500000
O O2 0.490919 0.803042 0.250000
O O3 0.404592 0.854811 0.466964
O O4 0.575296 0.838566 0.489139
O O5 0.211520 0.250000 0.500000
O O6 0.149742 0.201881 0.250000
O O7 0.260517 0.148514 0.434956
O O8 0.099731 0.158093 0.520803
O O9 0.373362 0.887105 0.750000
O O10 0.241998 0.857105 0.938336
O O11 0.323427 0.952768 0.981371
O O12 0.093839 0.003562 0.250000
O O13 0.113386 0.922352 0.452255
O O14 0.180496 0.020973 0.503831
O O15 0.000000 0.000000 0.500000
O O16 0.611090 0.887429 0.750000
O O17 0.650583 0.940207 0.003877
O O18 0.988964 0.188877 0.750000
O O19 0.040164 0.250000 0.000000
O O20 0.921067 0.177278 0.028188
O O21 0.275172 0.482918 0.250000
O O22 0.881221 0.395514 0.750000
#
# Coordination Sequence:
#
# PCOD8233894 Si02
#       8
#     8   8   8   8   8   8   8   8
#     4  12  26  44  69  97 126 162 206 260 318 383
#     4  10  21  37  57  82 116 158 203 254 311 369
#     4   9  21  43  67  91 124 163 205 259 314 373
#     4  11  22  37  58  86 122 164 209 256 305 361
#     4  11  24  41  64  93 127 165 208 259 313 378
#     4  11  22  36  56  83 117 159 204 252 306 369
#     4  10  22  41  64  93 128 167 212 259 315 375
#     4  10  21  39  61  86 119 157 201 254 307 364
#
# _framework density 20.721613000000001
#
# number of rings (size 3 to 8) (size 9 to 14) (size 15 to 20)
#    0.000    1.500    0.000    6.750    1.750    7.000 
#    0.000    0.000    0.000    0.000    0.000    0.000 
#    0.000    0.000    0.000    0.000    0.000    0.000 
#
# Total GULP energy -793441.142029 kJ/mol
# GULP energy per Si atom -12397.517844 kJ/mol
# Density = 2.067445 g / cm^3
# Si number density = 20.721613 Si / 1000 Ang^3
#
#
#
# Elastic Constant Matrix: (Units=GPa)
#
#
# Indices 1 2 3 4 5 6 
#
# 1 79.7936 37.7926 43.1216 0.0000 0.0000 0.0000
# 2 37.7926 83.2139 44.3172 0.0000 0.0000 0.0000
# 3 43.1216 44.3172 141.7231 0.0000 0.0000 0.0000
# 4 0.0000 0.0000 0.0000 32.5235 0.0000 0.0000
# 5 0.0000 0.0000 0.0000 0.0000 38.4697 0.0000
# 6 0.0000 0.0000 0.0000 0.0000 0.0000 31.6370
#
#
#
# Elastic Compliance Matrix: (Units=1/GPa)
#
#
# Indices 1 2 3 4 5 6 
#
# 1 0.017196 -0.006027 -0.003347 0.000000 0.000000 0.000000
# 2 -0.006027 0.016531 -0.003335 0.000000 0.000000 0.000000
# 3 -0.003347 -0.003335 0.009118 0.000000 0.000000 0.000000
# 4 0.000000 0.000000 0.000000 0.030747 0.000000 0.000000
# 5 0.000000 0.000000 0.000000 0.000000 0.025994 0.000000
# 6 0.000000 0.000000 0.000000 0.000000 0.000000 0.031609
#
#
# Mechanical properties :
#
#
# Convention : Reuss Voigt Hill
#
# Bulk Modulus (GPa) = 57.39049 61.68814 59.53932
# Shear Modulus (GPa) = 30.78397 32.49265 31.63831
#
# Velocity S-wave (km/s) = 3.85853 3.96416 3.91170
# Velocity P-wave (km/s) = 6.89979 7.12653 7.01407
#
# Compressibility (1/GPa) = 0.01742449
#
# Stress axis : x y z
#
# Youngs Moduli (GPa) = 58.15339 60.49319 109.67875
#
# Poissons Ratio (x) = 0.36459 0.36715
# Poissons Ratio (y) = 0.35049 0.36582
# Poissons Ratio (z) = 0.19467 0.20177
#
# Static dielectric constant tensor:
#      x y z
#    x 3.855110 0.000000 0.000000 
#    y 0.000000 3.777490 0.000000 
#    z 0.000000 0.000000 3.932900 
# 
# 
# High freq. dielectric constant tensor:
#      x y z
#    x 1.820690 0.000000 0.000000 
#    y 0.000000 1.803650 0.000000 
#    z 0.000000 0.000000 1.820650 
# 
# From -- ./inp_files/5757.got.cif
#   From: 2010.03.12/outbox.cif.g09.slc.cpg/sg57_3_cif.got.tgz:5757.got - 2010.04.16 15:48:40.
