data_PCOD8233340
_publ_section_title
;
Structure prediction by ZEFSAII (Michael W. Deem and Ramdas Pophale) SiO2 
 PCOD8233340
Probable space group: P B C M
;
_chemical_formula_sum "Si O2"
_cell_formula_units_Z 56
_cell_length_a 11.898741
_cell_length_b 14.540612
_cell_length_c 15.501612
_cell_angle_alpha 90.000000
_cell_angle_beta 90.000000
_cell_angle_gamma 90.000000
_cell_volume 2682.011031
_symmetry_space_group_name_H-M "P B C M"
_symmetry_group_IT_number 57
_symmetry_cell_setting 'orthorhombic'
loop_
_space_group_symop_operation_xyz
x,y,z
-x,-y,1/2+z
x,1/2-y,-z
-x,1/2+y,1/2-z
-x,-y,-z
x,y,1/2-z
-x,1/2+y,z
x,1/2-y,1/2+z
loop_
_atom_site_type_symbol
_atom_site_label
_atom_site_fract_x
_atom_site_fract_y
_atom_site_fract_z
Si Si1 0.327924 0.352423 0.500504
Si Si2 0.508082 0.129644 0.152219
Si Si3 0.532497 0.925711 0.151733
Si Si4 0.284409 0.591183 0.652520
Si Si5 0.258192 0.788416 0.850299
Si Si6 0.067691 0.647233 0.463777
Si Si7 0.132786 0.032255 0.064368
O O1 0.277959 0.250000 0.500000
O O2 0.408524 0.363068 0.583486
O O3 0.392585 0.364053 0.410395
O O4 0.223868 0.423226 0.499369
O O5 0.460523 0.145408 0.250000
O O6 0.609120 0.199771 0.130520
O O7 0.570688 0.031367 0.148660
O O8 0.541477 0.886896 0.250000
O O9 0.406387 0.926669 0.111468
O O10 0.310625 0.614575 0.750000
O O11 0.229176 0.685102 0.614626
O O12 0.204822 0.501894 0.646669
O O13 0.230526 0.803912 0.750000
O O14 0.177509 0.855662 0.903668
O O15 0.042969 0.750000 0.500000
O O16 0.080565 0.564843 0.532577
O O17 0.958258 0.610265 0.410231
#
# Coordination Sequence:
#
# PCOD8233340 Si02
#       7
#     8   8   8   8   8   8   8
#     4  12  24  37  60  90 130 170 206 250 310 377
#     4  10  21  37  60  92 127 160 203 255 310 370
#     4  10  21  38  60  90 128 164 205 256 305 367
#     4  10  20  37  60  87 119 154 198 248 299 365
#     4  10  21  37  60  89 116 152 203 249 298 362
#     4  11  23  41  64  86 116 155 202 259 306 352
#     4  11  24  40  60  89 119 158 205 250 305 374
#
# _framework density 20.879854000000002
#
# number of rings (size 3 to 8) (size 9 to 14) (size 15 to 20)
#    0.000    1.429    2.857    2.571    2.000    2.857 
#    0.000    0.000    0.000    3.429    0.000    0.000 
#    0.000    0.000    0.000    0.000    0.000    0.000 
#
# Total GULP energy -693807.177702 kJ/mol
# GULP energy per Si atom -12389.413888 kJ/mol
# Density = 2.083233 g / cm^3
# Si number density = 20.879854 Si / 1000 Ang^3
#
#
#
# Elastic Constant Matrix: (Units=GPa)
#
#
# Indices 1 2 3 4 5 6 
#
# 1 85.6788 30.9793 17.5638 0.0000 0.0000 0.0000
# 2 30.9793 119.4839 19.7789 0.0000 0.0000 0.0000
# 3 17.5638 19.7789 56.9605 0.0000 0.0000 0.0000
# 4 0.0000 0.0000 0.0000 23.1980 0.0000 0.0000
# 5 0.0000 0.0000 0.0000 0.0000 18.7994 0.0000
# 6 0.0000 0.0000 0.0000 0.0000 0.0000 40.4607
#
#
#
# Elastic Compliance Matrix: (Units=1/GPa)
#
#
# Indices 1 2 3 4 5 6 
#
# 1 0.013375 -0.002955 -0.003098 0.000000 0.000000 0.000000
# 2 -0.002955 0.009533 -0.002399 0.000000 0.000000 0.000000
# 3 -0.003098 -0.002399 0.019344 0.000000 0.000000 0.000000
# 4 0.000000 0.000000 0.000000 0.043107 0.000000 0.000000
# 5 0.000000 0.000000 0.000000 0.000000 0.053193 0.000000
# 6 0.000000 0.000000 0.000000 0.000000 0.000000 0.024715
#
#
# Mechanical properties :
#
#
# Convention : Reuss Voigt Hill
#
# Bulk Modulus (GPa) = 39.45094 44.30746 41.87920
# Shear Modulus (GPa) = 26.50820 29.41171 27.95995
#
# Velocity S-wave (km/s) = 3.56695 3.75723 3.66332
# Velocity P-wave (km/s) = 5.99162 6.33156 6.16393
#
# Compressibility (1/GPa) = 0.02534794
#
# Stress axis : x y z
#
# Youngs Moduli (GPa) = 74.76615 104.90326 51.69477
#
# Poissons Ratio (x) = 0.30999 0.16016
# Poissons Ratio (y) = 0.22093 0.12401
# Poissons Ratio (z) = 0.23163 0.25166
#
# Static dielectric constant tensor:
#      x y z
#    x 3.863810 0.000000 0.000000 
#    y 0.000000 4.133290 0.000000 
#    z 0.000000 0.000000 3.536160 
# 
# 
# High freq. dielectric constant tensor:
#      x y z
#    x 1.807210 0.000000 0.000000 
#    y 0.000000 1.838470 0.000000 
#    z 0.000000 0.000000 1.794910 
# 
# From -- ./inp_files/17697.got.cif
#   From: 2010.03.12/outbox.cif.g09.slc.cpg/sg57_9_cif.got.tgz:17697.got - 2010.04.16 15:48:40.
