data_PCOD8233612
_publ_section_title
;
Structure prediction by ZEFSAII (Michael W. Deem and Ramdas Pophale) SiO2 
 PCOD8233612
Probable space group: P B C M
;
_chemical_formula_sum "Si O2"
_cell_formula_units_Z 48
_cell_length_a 15.075841
_cell_length_b 19.084607
_cell_length_c 8.829358
_cell_angle_alpha 90.000000
_cell_angle_beta 90.000000
_cell_angle_gamma 90.000000
_cell_volume 2540.351987
_symmetry_space_group_name_H-M "P B C M"
_symmetry_group_IT_number 57
_symmetry_cell_setting 'orthorhombic'
loop_
_space_group_symop_operation_xyz
x,y,z
-x,-y,1/2+z
x,1/2-y,-z
-x,1/2+y,1/2-z
-x,-y,-z
x,y,1/2-z
-x,1/2+y,z
x,1/2-y,1/2+z
loop_
_atom_site_type_symbol
_atom_site_label
_atom_site_fract_x
_atom_site_fract_y
_atom_site_fract_z
Si Si1 0.022066 0.425471 0.929552
Si Si2 0.878999 0.325742 0.428104
Si Si3 0.468909 0.927837 0.571801
Si Si4 0.625056 0.674511 0.428415
Si Si5 0.283983 0.575321 0.927585
Si Si6 0.222140 0.074912 0.071152
O O1 0.009986 0.430204 0.750000
O O2 0.122414 0.405500 0.975968
O O3 0.000000 0.500000 0.000000
O O4 0.961077 0.365365 0.997144
O O5 0.870669 0.250000 0.500000
O O6 0.896400 0.320393 0.250000
O O7 0.788562 0.366164 0.464846
O O8 0.466420 0.938455 0.750000
O O9 0.537406 0.867548 0.524192
O O10 0.373542 0.903439 0.512493
O O11 0.500000 0.000000 0.500000
O O12 0.620697 0.750000 0.500000
O O13 0.632535 0.682783 0.250000
O O14 0.711006 0.633415 0.493596
O O15 0.304056 0.570499 0.750000
O O16 0.248703 0.501391 0.993164
O O17 0.231250 0.070509 0.250000
#
# Coordination Sequence:
#
# PCOD8233612 Si02
#       6
#     8   8   8   8   8   8
#     4  11  21  37  63  92 122 159 203 250 302 363
#     4  11  24  42  62  88 124 163 201 252 313 365
#     4  11  22  37  61  90 119 155 200 246 295 355
#     4  10  22  40  59  83 119 154 190 238 295 351
#     4  10  20  39  63  86 118 157 198 246 300 354
#     4   9  18  37  61  85 117 155 193 241 296 348
#
# _framework density 18.895018
#
# number of rings (size 3 to 8) (size 9 to 14) (size 15 to 20)
#    0.000    1.667    3.333    1.500    0.000    4.000 
#    0.000    6.667    0.000    0.000    0.000    0.000 
#    0.000    0.000    0.000    0.000    0.000    0.000 
#
# Total GULP energy -595329.007584 kJ/mol
# GULP energy per Si atom -12402.687658 kJ/mol
# Density = 1.885201 g / cm^3
# Si number density = 18.895018 Si / 1000 Ang^3
#
#
#
# Elastic Constant Matrix: (Units=GPa)
#
#
# Indices 1 2 3 4 5 6 
#
# 1 192.1554 97.0797 69.0678 0.0000 0.0000 0.0000
# 2 97.0797 179.8516 59.2518 0.0000 0.0000 0.0000
# 3 69.0678 59.2518 67.2305 0.0000 0.0000 0.0000
# 4 0.0000 0.0000 0.0000 35.3549 0.0000 0.0000
# 5 0.0000 0.0000 0.0000 0.0000 31.0335 0.0000
# 6 0.0000 0.0000 0.0000 0.0000 0.0000 22.2534
#
#
#
# Elastic Compliance Matrix: (Units=1/GPa)
#
#
# Indices 1 2 3 4 5 6 
#
# 1 0.009015 -0.002557 -0.007007 0.000000 0.000000 0.000000
# 2 -0.002557 0.008561 -0.004917 0.000000 0.000000 0.000000
# 3 -0.007007 -0.004917 0.026407 0.000000 0.000000 0.000000
# 4 0.000000 0.000000 0.000000 0.028285 0.000000 0.000000
# 5 0.000000 0.000000 0.000000 0.000000 0.032223 0.000000
# 6 0.000000 0.000000 0.000000 0.000000 0.000000 0.044937
#
#
# Mechanical properties :
#
#
# Convention : Reuss Voigt Hill
#
# Bulk Modulus (GPa) = 66.58637 98.89290 82.73963
# Shear Modulus (GPa) = 27.26325 31.98424 29.62374
#
# Velocity S-wave (km/s) = 3.80265 4.11875 3.96385
# Velocity P-wave (km/s) = 7.38897 8.66432 8.05194
#
# Compressibility (1/GPa) = 0.01501809
#
# Stress axis : x y z
#
# Youngs Moduli (GPa) = 110.92786 116.81421 37.86926
#
# Poissons Ratio (x) = 0.29875 0.26536
# Poissons Ratio (y) = 0.28370 0.18621
# Poissons Ratio (z) = 0.77730 0.57441
#
# Static dielectric constant tensor:
#      x y z
#    x 3.167930 0.000000 0.000000 
#    y 0.000000 6.641370 0.000000 
#    z 0.000000 0.000000 3.451650 
# 
# 
# High freq. dielectric constant tensor:
#      x y z
#    x 1.753730 0.000000 0.000000 
#    y 0.000000 1.736690 0.000000 
#    z 0.000000 0.000000 1.723790 
# 
# From -- ./inp_files/4610.got.cif
#   From: 2010.03.12/outbox.cif.g09.slc.cpg/sg57_3_cif.got.tgz:4610.got - 2010.04.16 15:48:40.
