data_PCOD8233138
_publ_section_title
;
Structure prediction by ZEFSAII (Michael W. Deem and Ramdas Pophale) SiO2 
 PCOD8233138
Probable space group: P B C M
;
_chemical_formula_sum "Si O2"
_cell_formula_units_Z 48
_cell_length_a 30.167943
_cell_length_b 9.126249
_cell_length_c 8.916891
_cell_angle_alpha 90.000000
_cell_angle_beta 90.000000
_cell_angle_gamma 90.000000
_cell_volume 2454.999854
_symmetry_space_group_name_H-M "P B C M"
_symmetry_group_IT_number 57
_symmetry_cell_setting 'orthorhombic'
loop_
_space_group_symop_operation_xyz
x,y,z
-x,-y,1/2+z
x,1/2-y,-z
-x,1/2+y,1/2-z
-x,-y,-z
x,y,1/2-z
-x,1/2+y,z
x,1/2-y,1/2+z
loop_
_atom_site_type_symbol
_atom_site_label
_atom_site_fract_x
_atom_site_fract_y
_atom_site_fract_z
Si Si1 0.538034 0.406489 0.076053
Si Si2 0.624365 0.902270 0.924104
Si Si3 0.124008 0.096675 0.575422
Si Si4 0.961184 0.407830 0.926720
Si Si5 0.797170 0.400680 0.925356
Si Si6 0.695901 0.096429 0.073273
O O1 0.526386 0.386604 0.250000
O O2 0.584534 0.485683 0.051689
O O3 0.541206 0.250000 0.000000
O O4 0.500000 0.500000 0.000000
O O5 0.634670 0.876145 0.750000
O O6 0.610806 0.750000 0.000000
O O7 0.667824 0.965041 0.003994
O O8 0.113952 0.250000 0.500000
O O9 0.126656 0.127507 0.750000
O O10 0.085159 0.984574 0.535337
O O11 0.170543 0.029283 0.516303
O O12 0.969529 0.394120 0.750000
O O13 0.960318 0.250000 0.000000
O O14 0.000000 0.500000 0.000000
O O15 0.803274 0.377300 0.750000
O O16 0.746721 0.440994 0.966607
O O17 0.812021 0.250000 0.000000
O O18 0.687469 0.107541 0.250000
O O19 0.681417 0.250000 0.000000
#
# Coordination Sequence:
#
# PCOD8233138 Si02
#       6
#     8   8   8   8   8   8
#     4  11  24  41  63  89 118 152 190 234 283 336
#     4  11  24  40  59  85 117 153 192 235 284 337
#     4  10  22  38  56  81 113 148 187 231 280 334
#     4  11  23  39  60  85 114 148 187 232 282 336
#     4   9  19  36  57  83 112 145 187 232 280 334
#     4  10  20  36  59  85 115 150 190 236 284 337
#
# _framework density 19.551936000000001
#
# number of rings (size 3 to 8) (size 9 to 14) (size 15 to 20)
#    0.000    1.667    0.000    4.000    0.000   10.000 
#    0.000    1.667    0.000    0.000    0.000    0.000 
#    0.000    0.000    0.000    0.000    0.000    0.000 
#
# Total GULP energy -595440.731787 kJ/mol
# GULP energy per Si atom -12405.015246 kJ/mol
# Density = 1.950743 g / cm^3
# Si number density = 19.551936 Si / 1000 Ang^3
#
#
#
# Elastic Constant Matrix: (Units=GPa)
#
#
# Indices 1 2 3 4 5 6 
#
# 1 107.2569 65.7364 66.2646 0.0000 0.0000 0.0000
# 2 65.7364 162.5599 81.5763 0.0000 0.0000 0.0000
# 3 66.2646 81.5763 108.3306 0.0000 0.0000 0.0000
# 4 0.0000 0.0000 0.0000 41.7916 0.0000 0.0000
# 5 0.0000 0.0000 0.0000 0.0000 30.6893 0.0000
# 6 0.0000 0.0000 0.0000 0.0000 0.0000 27.7270
#
#
#
# Elastic Compliance Matrix: (Units=1/GPa)
#
#
# Indices 1 2 3 4 5 6 
#
# 1 0.015566 -0.002438 -0.007686 0.000000 0.000000 0.000000
# 2 -0.002438 0.010270 -0.006243 0.000000 0.000000 0.000000
# 3 -0.007686 -0.006243 0.018633 0.000000 0.000000 0.000000
# 4 0.000000 0.000000 0.000000 0.023928 0.000000 0.000000
# 5 0.000000 0.000000 0.000000 0.000000 0.032585 0.000000
# 6 0.000000 0.000000 0.000000 0.000000 0.000000 0.036066
#
#
# Mechanical properties :
#
#
# Convention : Reuss Voigt Hill
#
# Bulk Modulus (GPa) = 85.20092 89.47800 87.33946
# Shear Modulus (GPa) = 28.78661 31.01294 29.89977
#
# Velocity S-wave (km/s) = 3.84124 3.98701 3.91480
# Velocity P-wave (km/s) = 7.95895 8.18893 8.07476
#
# Compressibility (1/GPa) = 0.01173696
#
# Stress axis : x y z
#
# Youngs Moduli (GPa) = 64.24355 97.37152 53.66785
#
# Poissons Ratio (x) = 0.23735 0.41248
# Poissons Ratio (y) = 0.15660 0.33502
# Poissons Ratio (z) = 0.49376 0.60784
#
# Static dielectric constant tensor:
#      x y z
#    x 3.847720 0.000000 0.000000 
#    y 0.000000 3.484910 0.000000 
#    z 0.000000 0.000000 3.666750 
# 
# 
# High freq. dielectric constant tensor:
#      x y z
#    x 1.776380 0.000000 0.000000 
#    y 0.000000 1.769630 0.000000 
#    z 0.000000 0.000000 1.770810 
# 
# From -- ./inp_files/9961.got.cif
#   From: 2010.03.12/outbox.cif.g09.slc.cpg/sg57_5_cif.got.tgz:9961.got - 2010.04.16 15:48:40.
