data_PCOD8233484
_publ_section_title
;
Structure prediction by ZEFSAII (Michael W. Deem and Ramdas Pophale) SiO2 
 PCOD8233484
Probable space group: P B C M
;
_chemical_formula_sum "Si O2"
_cell_formula_units_Z 40
_cell_length_a 14.562170
_cell_length_b 8.705222
_cell_length_c 15.720596
_cell_angle_alpha 90.000000
_cell_angle_beta 90.000000
_cell_angle_gamma 90.000000
_cell_volume 1992.851577
_symmetry_space_group_name_H-M "P B C M"
_symmetry_group_IT_number 57
_symmetry_cell_setting 'orthorhombic'
loop_
_space_group_symop_operation_xyz
x,y,z
-x,-y,1/2+z
x,1/2-y,-z
-x,1/2+y,1/2-z
-x,-y,-z
x,y,1/2-z
-x,1/2+y,z
x,1/2-y,1/2+z
loop_
_atom_site_type_symbol
_atom_site_label
_atom_site_fract_x
_atom_site_fract_y
_atom_site_fract_z
Si Si1 0.437930 0.014850 0.346204
Si Si2 0.265269 0.840991 0.413129
Si Si3 0.601226 0.831338 0.408910
Si Si4 0.901638 0.427178 0.505267
Si Si5 0.227667 0.526678 0.345888
O O1 0.451353 0.955638 0.250000
O O2 0.345069 0.954072 0.387817
O O3 0.522456 0.961486 0.405173
O O4 0.429814 0.198969 0.343506
O O5 0.287942 0.750000 0.500000
O O6 0.174415 0.949511 0.429245
O O7 0.255748 0.707292 0.342748
O O8 0.610581 0.750000 0.500000
O O9 0.694967 0.913757 0.382678
O O10 0.923069 0.250000 0.500000
O O11 0.861318 0.488262 0.594513
O O12 0.000000 0.500000 0.500000
O O13 0.203702 0.475434 0.250000
#
# Coordination Sequence:
#
# PCOD8233484 Si02
#       5
#     8   8   8   8   8
#     4  12  23  36  55  85 116 149 191 240 287 339
#     4   9  19  37  59  82 111 149 189 228 284 350
#     4  12  24  39  58  81 116 157 197 236 290 356
#     4   9  20  38  60  83 112 149 188 229 286 351
#     4  10  20  38  60  85 114 150 192 243 291 338
#
# _framework density 20.071742
#
# number of rings (size 3 to 8) (size 9 to 14) (size 15 to 20)
#    0.000    2.000    0.000    7.200    0.000    2.400 
#    0.000    5.000    0.000    0.000    0.000    0.000 
#    0.000    0.000    0.000    0.000    0.000    0.000 
#
# Total GULP energy -495568.662827 kJ/mol
# GULP energy per Si atom -12389.216571 kJ/mol
# Density = 2.002606 g / cm^3
# Si number density = 20.071742 Si / 1000 Ang^3
#
#
#
# Elastic Constant Matrix: (Units=GPa)
#
#
# Indices 1 2 3 4 5 6 
#
# 1 161.8559 73.5406 68.5023 0.0000 0.0000 0.0000
# 2 73.5406 78.6719 35.9606 0.0000 0.0000 0.0000
# 3 68.5023 35.9606 122.2776 0.0000 0.0000 0.0000
# 4 0.0000 0.0000 0.0000 26.2940 0.0000 0.0000
# 5 0.0000 0.0000 0.0000 0.0000 14.5522 0.0000
# 6 0.0000 0.0000 0.0000 0.0000 0.0000 37.2178
#
#
#
# Elastic Compliance Matrix: (Units=1/GPa)
#
#
# Indices 1 2 3 4 5 6 
#
# 1 0.012253 -0.009608 -0.004039 0.000000 0.000000 0.000000
# 2 -0.009608 0.022219 -0.001152 0.000000 0.000000 0.000000
# 3 -0.004039 -0.001152 0.010780 0.000000 0.000000 0.000000
# 4 0.000000 0.000000 0.000000 0.038031 0.000000 0.000000
# 5 0.000000 0.000000 0.000000 0.000000 0.068718 0.000000
# 6 0.000000 0.000000 0.000000 0.000000 0.000000 0.026869
#
#
# Mechanical properties :
#
#
# Convention : Reuss Voigt Hill
#
# Bulk Modulus (GPa) = 63.88015 79.86805 71.87410
# Shear Modulus (GPa) = 23.39900 27.93294 25.66597
#
# Velocity S-wave (km/s) = 3.41804 3.73454 3.57979
# Velocity P-wave (km/s) = 6.89002 7.64679 7.27824
#
# Compressibility (1/GPa) = 0.01565431
#
# Stress axis : x y z
#
# Youngs Moduli (GPa) = 81.61239 45.00744 92.76857
#
# Poissons Ratio (x) = 0.43242 0.37468
# Poissons Ratio (y) = 0.78411 0.10685
# Poissons Ratio (z) = 0.32962 0.05184
#
# Static dielectric constant tensor:
#      x y z
#    x 2.993420 0.000000 0.000000 
#    y 0.000000 3.861670 0.000000 
#    z 0.000000 0.000000 3.703430 
# 
# 
# High freq. dielectric constant tensor:
#      x y z
#    x 1.779440 0.000000 0.000000 
#    y 0.000000 1.786980 0.000000 
#    z 0.000000 0.000000 1.781270 
# 
# From -- ./inp_files/22301.got.cif
#   From: 2010.03.12/outbox.cif.g09.slc.cpg/sg57_12_cif.got.tgz:22301.got - 2010.04.16 15:48:40.
