data_PCOD8233795
_publ_section_title
;
Structure prediction by ZEFSAII (Michael W. Deem and Ramdas Pophale) SiO2 
 PCOD8233795
Probable space group: P B C M
;
_chemical_formula_sum "Si O2"
_cell_formula_units_Z 48
_cell_length_a 26.174773
_cell_length_b 5.109531
_cell_length_c 17.379570
_cell_angle_alpha 90.000000
_cell_angle_beta 90.000000
_cell_angle_gamma 90.000000
_cell_volume 2324.357840
_symmetry_space_group_name_H-M "P B C M"
_symmetry_group_IT_number 57
_symmetry_cell_setting 'orthorhombic'
loop_
_space_group_symop_operation_xyz
x,y,z
-x,-y,1/2+z
x,1/2-y,-z
-x,1/2+y,1/2-z
-x,-y,-z
x,y,1/2-z
-x,1/2+y,z
x,1/2-y,1/2+z
loop_
_atom_site_type_symbol
_atom_site_label
_atom_site_fract_x
_atom_site_fract_y
_atom_site_fract_z
Si Si1 0.362245 0.235471 0.911287
Si Si2 0.528812 0.728424 0.159114
Si Si3 0.189453 0.729600 0.659985
Si Si4 0.032800 0.260081 0.161280
Si Si5 0.140209 0.229687 0.589946
Si Si6 0.702793 0.235605 0.910911
O O1 0.411939 0.282010 0.860916
O O2 0.320427 0.453937 0.890689
O O3 0.339142 0.953770 0.890799
O O4 0.378296 0.250000 0.000000
O O5 0.523531 0.727975 0.250000
O O6 0.498892 0.481618 0.123417
O O7 0.179424 0.755193 0.750000
O O8 0.175874 0.438501 0.632649
O O9 0.248319 0.786577 0.641687
O O10 0.153613 0.938660 0.617619
O O11 0.050358 0.240818 0.250000
O O12 0.081260 0.211459 0.107517
O O13 0.009189 0.541524 0.142233
O O14 0.150778 0.250000 0.500000
O O15 0.719515 0.250000 0.000000
#
# Coordination Sequence:
#
# PCOD8233795 Si02
#       6
#     8   8   8   8   8   8
#     4  10  21  36  57  83 112 148 189 236 289 350
#     4  10  21  36  54  78 109 145 185 232 285 341
#     4  12  25  42  65  93 124 162 209 254 303 366
#     4  10  21  38  61  89 123 161 201 250 305 359
#     4  12  25  42  65  93 127 165 205 254 309 363
#     4  10  21  38  58  84 117 151 191 240 297 353
#
# _framework density 20.650863000000001
#
# number of rings (size 3 to 8) (size 9 to 14) (size 15 to 20)
#    0.000    1.333    0.000    6.000    0.000    5.333 
#    0.000    0.000    0.000    0.000    0.000    0.000 
#    0.000    0.000    0.000    0.000    0.000    0.000 
#
# Total GULP energy -595576.993297 kJ/mol
# GULP energy per Si atom -12407.854027 kJ/mol
# Density = 2.060386 g / cm^3
# Si number density = 20.650863 Si / 1000 Ang^3
#
#
#
# Elastic Constant Matrix: (Units=GPa)
#
#
# Indices 1 2 3 4 5 6 
#
# 1 89.8853 16.1195 29.6261 0.0000 0.0000 0.0000
# 2 16.1195 107.7113 26.7159 0.0000 0.0000 0.0000
# 3 29.6261 26.7159 80.0420 0.0000 0.0000 0.0000
# 4 0.0000 0.0000 0.0000 20.2427 0.0000 0.0000
# 5 0.0000 0.0000 0.0000 0.0000 34.5912 0.0000
# 6 0.0000 0.0000 0.0000 0.0000 0.0000 26.8016
#
#
#
# Elastic Compliance Matrix: (Units=1/GPa)
#
#
# Indices 1 2 3 4 5 6 
#
# 1 0.012735 -0.000803 -0.004445 0.000000 0.000000 0.000000
# 2 -0.000803 0.010173 -0.003098 0.000000 0.000000 0.000000
# 3 -0.004445 -0.003098 0.015173 0.000000 0.000000 0.000000
# 4 0.000000 0.000000 0.000000 0.049400 0.000000 0.000000
# 5 0.000000 0.000000 0.000000 0.000000 0.028909 0.000000
# 6 0.000000 0.000000 0.000000 0.000000 0.000000 0.037311
#
#
# Mechanical properties :
#
#
# Convention : Reuss Voigt Hill
#
# Bulk Modulus (GPa) = 46.75783 46.95130 46.85456
# Shear Modulus (GPa) = 28.16534 30.00557 29.08546
#
# Velocity S-wave (km/s) = 3.69708 3.81595 3.75699
# Velocity P-wave (km/s) = 6.39655 6.49619 6.44656
#
# Compressibility (1/GPa) = 0.02138679
#
# Stress axis : x y z
#
# Youngs Moduli (GPa) = 78.52672 98.30227 65.90706
#
# Poissons Ratio (x) = 0.07895 0.29298
# Poissons Ratio (y) = 0.06307 0.20419
# Poissons Ratio (z) = 0.34908 0.30455
#
# Static dielectric constant tensor:
#      x y z
#    x 3.582410 0.000000 0.000000 
#    y 0.000000 4.111280 0.000000 
#    z 0.000000 0.000000 3.657920 
# 
# 
# High freq. dielectric constant tensor:
#      x y z
#    x 1.815650 0.000000 0.000000 
#    y 0.000000 1.828890 0.000000 
#    z 0.000000 0.000000 1.795670 
# 
# From -- ./inp_files/23123.got.cif
#   From: 2010.03.12/outbox.cif.g09.slc.cpg/sg57_12_cif.got.tgz:23123.got - 2010.04.16 15:48:40.
