data_PCOD8233821
_publ_section_title
;
Structure prediction by ZEFSAII (Michael W. Deem and Ramdas Pophale) SiO2 
 PCOD8233821
Probable space group: P B C M
;
_chemical_formula_sum "Si O2"
_cell_formula_units_Z 40
_cell_length_a 14.089763
_cell_length_b 9.527066
_cell_length_c 15.412004
_cell_angle_alpha 90.000000
_cell_angle_beta 90.000000
_cell_angle_gamma 90.000000
_cell_volume 2068.816517
_symmetry_space_group_name_H-M "P B C M"
_symmetry_group_IT_number 57
_symmetry_cell_setting 'orthorhombic'
loop_
_space_group_symop_operation_xyz
x,y,z
-x,-y,1/2+z
x,1/2-y,-z
-x,1/2+y,1/2-z
-x,-y,-z
x,y,1/2-z
-x,1/2+y,z
x,1/2-y,1/2+z
loop_
_atom_site_type_symbol
_atom_site_label
_atom_site_fract_x
_atom_site_fract_y
_atom_site_fract_z
Si Si1 0.082511 0.149000 0.750000
Si Si2 0.228361 0.841275 0.917090
Si Si3 0.422651 0.301024 0.094755
Si Si4 0.893004 0.321850 0.750000
Si Si5 0.574352 0.104513 0.347081
Si Si6 0.793725 0.832666 0.415106
O O1 0.137590 0.201538 0.835353
O O2 0.979813 0.215969 0.750000
O O3 0.071342 0.981711 0.750000
O O4 0.168294 0.788847 0.835143
O O5 0.339532 0.819425 0.896932
O O6 0.207175 0.003292 0.938024
O O7 0.198751 0.750000 0.000000
O O8 0.454400 0.461487 0.104932
O O9 0.483226 0.205060 0.159878
O O10 0.311031 0.281199 0.112869
O O11 0.451557 0.250000 0.000000
O O12 0.609225 0.066897 0.250000
O O13 0.829990 0.750000 0.500000
#
# Coordination Sequence:
#
# PCOD8233821 Si02
#       6
#     4   8   8   4   8   8
#     4  10  22  40  65  80 120 146 187 240 291 342
#     4  10  21  39  62  82 118 153 190 235 285 341
#     4  10  21  36  56  82 117 155 193 232 280 334
#     4  10  22  42  59  90 108 154 187 236 293 346
#     4  11  21  35  57  85 117 155 195 232 281 334
#     4   9  21  39  60  85 114 154 191 231 287 340
#
# _framework density 19.334726
#
# number of rings (size 3 to 8) (size 9 to 14) (size 15 to 20)
#    0.000    2.000    1.000    1.800    5.600    5.600 
#    0.000    4.000    0.000    0.000    0.000    0.000 
#    0.000    0.000    0.000    0.000    0.000    0.000 
#
# Total GULP energy -496133.731018 kJ/mol
# GULP energy per Si atom -12403.343275 kJ/mol
# Density = 1.929072 g / cm^3
# Si number density = 19.334726 Si / 1000 Ang^3
#
#
#
# Elastic Constant Matrix: (Units=GPa)
#
#
# Indices 1 2 3 4 5 6 
#
# 1 95.4870 69.3544 60.1364 0.0000 0.0000 0.0000
# 2 69.3544 84.0273 66.0003 0.0000 0.0000 0.0000
# 3 60.1364 66.0003 149.1267 0.0000 0.0000 0.0000
# 4 0.0000 0.0000 0.0000 31.3120 0.0000 0.0000
# 5 0.0000 0.0000 0.0000 0.0000 21.7000 0.0000
# 6 0.0000 0.0000 0.0000 0.0000 0.0000 35.5764
#
#
#
# Elastic Compliance Matrix: (Units=1/GPa)
#
#
# Indices 1 2 3 4 5 6 
#
# 1 0.026376 -0.020564 -0.001535 0.000000 0.000000 0.000000
# 2 -0.020564 0.034276 -0.006877 0.000000 0.000000 0.000000
# 3 -0.001535 -0.006877 0.010368 0.000000 0.000000 0.000000
# 4 0.000000 0.000000 0.000000 0.031937 0.000000 0.000000
# 5 0.000000 0.000000 0.000000 0.000000 0.046083 0.000000
# 6 0.000000 0.000000 0.000000 0.000000 0.000000 0.028108
#
#
# Mechanical properties :
#
#
# Convention : Reuss Voigt Hill
#
# Bulk Modulus (GPa) = 76.52653 79.95814 78.24233
# Shear Modulus (GPa) = 20.88063 26.59433 23.73748
#
# Velocity S-wave (km/s) = 3.28983 3.71276 3.50767
# Velocity P-wave (km/s) = 7.35503 7.73459 7.54719
#
# Compressibility (1/GPa) = 0.01306736
#
# Stress axis : x y z
#
# Youngs Moduli (GPa) = 37.91382 29.17495 96.44799
#
# Poissons Ratio (x) = 0.59996 0.14803
# Poissons Ratio (y) = 0.77967 0.66328
# Poissons Ratio (z) = 0.05819 0.20064
#
# Static dielectric constant tensor:
#      x y z
#    x 3.409890 0.000000 0.000000 
#    y 0.000000 3.409060 0.000000 
#    z 0.000000 0.000000 3.582520 
# 
# 
# High freq. dielectric constant tensor:
#      x y z
#    x 1.746880 0.000000 0.000000 
#    y 0.000000 1.746400 0.000000 
#    z 0.000000 0.000000 1.764400 
# 
# From -- ./inp_files/18248.got.cif
#   From: 2010.03.12/outbox.cif.g09.slc.cpg/sg57_10_cif.got.tgz:18248.got - 2010.04.16 15:48:40.
