data_PCOD8233873
_publ_section_title
;
Structure prediction by ZEFSAII (Michael W. Deem and Ramdas Pophale) SiO2 
 PCOD8233873
Probable space group: P B C M
;
_chemical_formula_sum "Si O2"
_cell_formula_units_Z 64
_cell_length_a 19.660031
_cell_length_b 18.910515
_cell_length_c 8.729724
_cell_angle_alpha 90.000000
_cell_angle_beta 90.000000
_cell_angle_gamma 90.000000
_cell_volume 3245.548234
_symmetry_space_group_name_H-M "P B C M"
_symmetry_group_IT_number 57
_symmetry_cell_setting 'orthorhombic'
loop_
_space_group_symop_operation_xyz
x,y,z
-x,-y,1/2+z
x,1/2-y,-z
-x,1/2+y,1/2-z
-x,-y,-z
x,y,1/2-z
-x,1/2+y,z
x,1/2-y,1/2+z
loop_
_atom_site_type_symbol
_atom_site_label
_atom_site_fract_x
_atom_site_fract_y
_atom_site_fract_z
Si Si1 0.464318 0.827563 0.431666
Si Si2 0.591745 0.582820 0.931439
Si Si3 0.636360 0.068354 0.068956
Si Si4 0.162469 0.404346 0.571777
Si Si5 0.216114 0.556551 0.569874
Si Si6 0.121048 0.674422 0.432272
Si Si7 0.283899 0.325261 0.430446
Si Si8 0.967955 0.676695 0.428277
O O1 0.472387 0.750000 0.500000
O O2 0.464889 0.821666 0.250000
O O3 0.525386 0.877007 0.495586
O O4 0.394059 0.862661 0.486747
O O5 0.591606 0.586644 0.750000
O O6 0.593767 0.501030 0.984783
O O7 0.659399 0.620764 0.995035
O O8 0.632598 0.079180 0.250000
O O9 0.713854 0.058738 0.021093
O O10 0.176567 0.390946 0.750000
O O11 0.176692 0.484864 0.525932
O O12 0.209955 0.351589 0.478149
O O13 0.084502 0.385776 0.527629
O O14 0.230433 0.562404 0.750000
O O15 0.169540 0.619636 0.514283
O O16 0.141432 0.750000 0.500000
O O17 0.131564 0.673002 0.250000
O O18 0.043732 0.655445 0.482165
O O19 0.300984 0.250000 0.500000
O O20 0.287423 0.318904 0.250000
O O21 0.942954 0.750000 0.500000
O O22 0.969062 0.690831 0.250000
#
# Coordination Sequence:
#
# PCOD8233873 Si02
#       8
#     8   8   8   8   8   8   8   8
#     4  11  23  41  62  90 121 154 195 243 294 348
#     4   9  20  38  61  87 119 154 194 239 288 346
#     4  11  22  41  64  88 118 156 197 242 294 351
#     4  10  21  37  56  83 119 156 195 241 289 345
#     4  11  23  39  60  88 120 154 195 243 293 349
#     4  10  21  39  62  86 114 151 195 244 297 351
#     4  11  21  35  55  84 119 158 198 239 284 340
#     4   9  19  36  57  83 116 154 196 241 291 347
#
# _framework density 19.71932
#
# number of rings (size 3 to 8) (size 9 to 14) (size 15 to 20)
#    0.000    1.750    1.250    3.000    0.000    3.500 
#    0.000    6.250    0.000    0.000    0.000    0.000 
#    0.000    0.000    0.000    0.000    0.000    0.000 
#
# Total GULP energy -793762.322935 kJ/mol
# GULP energy per Si atom -12402.536296 kJ/mol
# Density = 1.967444 g / cm^3
# Si number density = 19.719320 Si / 1000 Ang^3
#
#
#
# Elastic Constant Matrix: (Units=GPa)
#
#
# Indices 1 2 3 4 5 6 
#
# 1 100.1988 74.7714 30.6296 0.0000 0.0000 0.0000
# 2 74.7714 112.1376 29.2172 0.0000 0.0000 0.0000
# 3 30.6296 29.2172 52.7375 0.0000 0.0000 0.0000
# 4 0.0000 0.0000 0.0000 29.9151 0.0000 0.0000
# 5 0.0000 0.0000 0.0000 0.0000 25.6922 0.0000
# 6 0.0000 0.0000 0.0000 0.0000 0.0000 45.8254
#
#
#
# Elastic Compliance Matrix: (Units=1/GPa)
#
#
# Indices 1 2 3 4 5 6 
#
# 1 0.021014 -0.012659 -0.005191 0.000000 0.000000 0.000000
# 2 -0.012659 0.018048 -0.002647 0.000000 0.000000 0.000000
# 3 -0.005191 -0.002647 0.023443 0.000000 0.000000 0.000000
# 4 0.000000 0.000000 0.000000 0.033428 0.000000 0.000000
# 5 0.000000 0.000000 0.000000 0.000000 0.038922 0.000000
# 6 0.000000 0.000000 0.000000 0.000000 0.000000 0.021822
#
#
# Mechanical properties :
#
#
# Convention : Reuss Voigt Hill
#
# Bulk Modulus (GPa) = 46.48779 59.36782 52.92780
# Shear Modulus (GPa) = 24.40921 28.98359 26.69640
#
# Velocity S-wave (km/s) = 3.52210 3.83797 3.68342
# Velocity P-wave (km/s) = 6.33768 7.05774 6.70738
#
# Compressibility (1/GPa) = 0.02151102
#
# Stress axis : x y z
#
# Youngs Moduli (GPa) = 47.58836 55.40817 42.65633
#
# Poissons Ratio (x) = 0.70140 0.22144
# Poissons Ratio (y) = 0.60241 0.11289
# Poissons Ratio (z) = 0.24705 0.14664
#
# Static dielectric constant tensor:
#      x y z
#    x 3.778060 0.000000 0.000000 
#    y 0.000000 4.087250 0.000000 
#    z 0.000000 0.000000 3.510610 
# 
# 
# High freq. dielectric constant tensor:
#      x y z
#    x 1.777220 0.000000 0.000000 
#    y 0.000000 1.775630 0.000000 
#    z 0.000000 0.000000 1.764020 
# 
# From -- ./inp_files/8406.got.cif
#   From: 2010.03.12/outbox.cif.g09.slc.cpg/sg57_5_cif.got.tgz:8406.got - 2010.04.16 15:48:40.
