data_PCOD8233141
_publ_section_title
;
Structure prediction by ZEFSAII (Michael W. Deem and Ramdas Pophale) SiO2 
 PCOD8233141
Probable space group: P B C M
;
_chemical_formula_sum "Si O2"
_cell_formula_units_Z 64
_cell_length_a 12.308541
_cell_length_b 14.608874
_cell_length_c 17.709724
_cell_angle_alpha 90.000000
_cell_angle_beta 90.000000
_cell_angle_gamma 90.000000
_cell_volume 3184.454976
_symmetry_space_group_name_H-M "P B C M"
_symmetry_group_IT_number 57
_symmetry_cell_setting 'orthorhombic'
loop_
_space_group_symop_operation_xyz
x,y,z
-x,-y,1/2+z
x,1/2-y,-z
-x,1/2+y,1/2-z
-x,-y,-z
x,y,1/2-z
-x,1/2+y,z
x,1/2-y,1/2+z
loop_
_atom_site_type_symbol
_atom_site_label
_atom_site_fract_x
_atom_site_fract_y
_atom_site_fract_z
Si Si1 0.404849 0.780200 0.915599
Si Si2 0.819811 0.242714 0.160352
Si Si3 0.093704 0.548099 0.160868
Si Si4 0.680359 0.947724 0.837871
Si Si5 0.714936 0.912455 0.338143
Si Si6 0.651442 0.758629 0.911254
Si Si7 0.532725 0.484754 0.585367
Si Si8 0.111214 0.561333 0.661058
O O1 0.305873 0.745664 0.864039
O O2 0.523479 0.742088 0.890593
O O3 0.406870 0.888894 0.906383
O O4 0.377692 0.750000 0.000000
O O5 0.818237 0.238636 0.250000
O O6 0.887225 0.332624 0.132002
O O7 0.876985 0.149534 0.127822
O O8 0.082191 0.558383 0.250000
O O9 0.185345 0.475549 0.138487
O O10 0.984035 0.502930 0.125907
O O11 0.684039 0.921433 0.750000
O O12 0.691298 0.858548 0.888890
O O13 0.568154 0.996616 0.858324
O O14 0.775173 0.016507 0.861321
O O15 0.689174 0.922060 0.250000
O O16 0.731207 0.807216 0.362764
O O17 0.613344 0.936799 0.389899
O O18 0.670285 0.750000 0.000000
O O19 0.500000 0.500000 0.500000
O O20 0.093250 0.563908 0.750000
#
# Coordination Sequence:
#
# PCOD8233141 Si02
#       8
#     8   8   8   8   8   8   8   8
#     4  10  21  36  54  81 116 156 200 237 288 356
#     4  10  20  36  59  86 115 151 195 248 295 346
#     4   9  19  37  58  87 121 152 196 250 303 351
#     4  10  21  37  58  88 118 151 201 252 293 349
#     4  11  21  35  60  90 116 155 205 249 294 358
#     4  10  22  39  56  84 123 165 196 236 305 367
#     4  11  22  36  56  83 124 164 194 242 308 363
#     4   9  20  36  59  89 118 154 198 250 308 351
#
# _framework density 20.097629999999999
#
# number of rings (size 3 to 8) (size 9 to 14) (size 15 to 20)
#    0.000    2.000    1.250    3.000    3.500    3.500 
#    0.000    3.750    0.000    8.250    0.000    0.000 
#    0.000    0.000    0.000    0.000    0.000    0.000 
#
# Total GULP energy -793286.691525 kJ/mol
# GULP energy per Si atom -12395.104555 kJ/mol
# Density = 2.005189 g / cm^3
# Si number density = 20.097630 Si / 1000 Ang^3
#
#
#
# Elastic Constant Matrix: (Units=GPa)
#
#
# Indices 1 2 3 4 5 6 
#
# 1 86.7975 62.1055 22.6829 0.0000 0.0000 0.0000
# 2 62.1055 98.9004 17.4186 0.0000 0.0000 0.0000
# 3 22.6829 17.4186 44.8831 0.0000 0.0000 0.0000
# 4 0.0000 0.0000 0.0000 29.4281 0.0000 0.0000
# 5 0.0000 0.0000 0.0000 0.0000 -1.4117 0.0000
# 6 0.0000 0.0000 0.0000 0.0000 0.0000 31.1750
#
#
#
# Elastic Compliance Matrix: (Units=1/GPa)
#
#
# Indices 1 2 3 4 5 6 
#
# 1 0.022472 -0.013000 -0.006312 0.000000 0.000000 0.000000
# 2 -0.013000 0.018373 -0.000561 0.000000 0.000000 0.000000
# 3 -0.006312 -0.000561 0.025688 0.000000 0.000000 0.000000
# 4 0.000000 0.000000 0.000000 0.033981 0.000000 0.000000
# 5 0.000000 0.000000 0.000000 0.000000 -0.708363 0.000000
# 6 0.000000 0.000000 0.000000 0.000000 0.000000 0.032077
#
#
# Mechanical properties :
#
#
# Convention : Reuss Voigt Hill
#
# Bulk Modulus (GPa) = 37.32971 48.33278 42.83124
# Shear Modulus (GPa) = -9.48592 20.39655 5.45531
#
# Velocity S-wave (km/s) = -2.17489 3.18916 1.64933
# Velocity P-wave (km/s) = 3.50822 6.13696 4.99849
#
# Compressibility (1/GPa) = 0.02678832
#
# Stress axis : x y z
#
# Youngs Moduli (GPa) = 44.49904 54.42634 38.92943
#
# Poissons Ratio (x) = 0.70755 0.24572
# Poissons Ratio (y) = 0.57849 0.02182
# Poissons Ratio (z) = 0.28087 0.03051
#
# Static dielectric constant tensor:
#      x y z
#    x 3.803150 0.000000 0.000000 
#    y 0.000000 4.012370 0.000000 
#    z 0.000000 0.000000 3.337970 
# 
# 
# High freq. dielectric constant tensor:
#      x y z
#    x 1.775010 0.000000 0.000000 
#    y 0.000000 1.806080 0.000000 
#    z 0.000000 0.000000 1.756150 
# 
# From -- ./inp_files/22050.got.cif
#   From: 2010.03.12/outbox.cif.g09.slc.cpg/sg57_12_cif.got.tgz:22050.got - 2010.04.16 15:48:40.
