data_PCOD8233682
_publ_section_title
;
Structure prediction by ZEFSAII (Michael W. Deem and Ramdas Pophale) SiO2 
 PCOD8233682
Probable space group: P B C M
;
_chemical_formula_sum "Si O2"
_cell_formula_units_Z 36
_cell_length_a 8.320794
_cell_length_b 21.205770
_cell_length_c 9.764746
_cell_angle_alpha 90.000000
_cell_angle_beta 90.000000
_cell_angle_gamma 90.000000
_cell_volume 1722.978142
_symmetry_space_group_name_H-M "P B C M"
_symmetry_group_IT_number 57
_symmetry_cell_setting 'orthorhombic'
loop_
_space_group_symop_operation_xyz
x,y,z
-x,-y,1/2+z
x,1/2-y,-z
-x,1/2+y,1/2-z
-x,-y,-z
x,y,1/2-z
-x,1/2+y,z
x,1/2-y,1/2+z
loop_
_atom_site_type_symbol
_atom_site_label
_atom_site_fract_x
_atom_site_fract_y
_atom_site_fract_z
Si Si1 0.057470 0.819113 0.980281
Si Si2 0.851452 0.521678 0.750000
Si Si3 0.120894 0.157194 0.750000
Si Si4 0.766353 0.473954 0.250000
Si Si5 0.293245 0.927373 0.544460
Si Si6 0.431698 0.095117 0.250000
Si Si7 0.803893 0.796196 0.750000
O O1 0.191491 0.865032 0.919163
O O2 0.903461 0.814701 0.883220
O O3 0.135752 0.750000 0.000000
O O4 0.998575 0.846712 0.122629
O O5 0.775015 0.592597 0.750000
O O6 0.794253 0.487102 0.887116
O O7 0.042716 0.528084 0.750000
O O8 0.230454 0.220430 0.750000
O O9 0.690951 0.439124 0.382566
O O10 0.717027 0.547165 0.250000
O O11 0.466905 0.916956 0.611984
O O12 0.364159 0.166511 0.250000
#
# Coordination Sequence:
#
# PCOD8233682 Si02
#       7
#     8   4   4   4   8   4   4
#     4  10  20  40  67  92 117 155 210 268 309 356
#     4  11  22  37  68  97 123 156 217 264 316 356
#     4  10  21  38  64  99 118 149 210 272 311 350
#     4  12  22  39  63  93 125 164 208 260 309 361
#     4  11  23  40  62  93 125 168 203 259 308 373
#     4  11  25  40  58  86 133 171 200 235 317 383
#     4  10  22  40  65  87 125 164 201 259 313 376
#
# _framework density 20.894054000000001
#
# number of rings (size 3 to 8) (size 9 to 14) (size 15 to 20)
#    0.000    1.333    2.222    4.000    3.111    0.000 
#    0.000    3.333    0.000    0.000    0.000    0.000 
#    0.000    0.000    0.000    0.000    0.000    0.000 
#
# Total GULP energy -446478.916265 kJ/mol
# GULP energy per Si atom -12402.192118 kJ/mol
# Density = 2.084650 g / cm^3
# Si number density = 20.894054 Si / 1000 Ang^3
#
#
#
# Elastic Constant Matrix: (Units=GPa)
#
#
# Indices 1 2 3 4 5 6 
#
# 1 79.2159 56.4818 31.1148 0.0000 0.0000 0.0000
# 2 56.4818 186.1461 41.7393 0.0000 0.0000 0.0000
# 3 31.1148 41.7393 143.8943 0.0000 0.0000 0.0000
# 4 0.0000 0.0000 0.0000 57.8748 0.0000 0.0000
# 5 0.0000 0.0000 0.0000 0.0000 8.9415 0.0000
# 6 0.0000 0.0000 0.0000 0.0000 0.0000 31.4739
#
#
#
# Elastic Compliance Matrix: (Units=1/GPa)
#
#
# Indices 1 2 3 4 5 6 
#
# 1 0.016793 -0.004579 -0.002303 0.000000 0.000000 0.000000
# 2 -0.004579 0.006994 -0.001039 0.000000 0.000000 0.000000
# 3 -0.002303 -0.001039 0.007749 0.000000 0.000000 0.000000
# 4 0.000000 0.000000 0.000000 0.017279 0.000000 0.000000
# 5 0.000000 0.000000 0.000000 0.000000 0.111838 0.000000
# 6 0.000000 0.000000 0.000000 0.000000 0.000000 0.031772
#
#
# Mechanical properties :
#
#
# Convention : Reuss Voigt Hill
#
# Bulk Modulus (GPa) = 63.71508 74.21422 68.96465
# Shear Modulus (GPa) = 23.41932 38.31939 30.86935
#
# Velocity S-wave (km/s) = 3.35156 4.28715 3.84790
# Velocity P-wave (km/s) = 6.74817 7.75259 7.26775
#
# Compressibility (1/GPa) = 0.01569487
#
# Stress axis : x y z
#
# Youngs Moduli (GPa) = 59.54756 142.97000 129.05166
#
# Poissons Ratio (x) = 0.65468 0.29721
# Poissons Ratio (y) = 0.27268 0.13405
# Poissons Ratio (z) = 0.13714 0.14851
#
# Static dielectric constant tensor:
#      x y z
#    x 3.390580 0.000000 0.000000 
#    y 0.000000 4.124980 0.000000 
#    z 0.000000 0.000000 3.957700 
# 
# 
# High freq. dielectric constant tensor:
#      x y z
#    x 1.783180 0.000000 0.000000 
#    y 0.000000 1.836940 0.000000 
#    z 0.000000 0.000000 1.837120 
# 
# From -- ./inp_files/1395.got.cif
#   From: 2010.03.12/outbox.cif.g09.slc.cpg/sg57_1_cif.got.tgz:1395.got - 2010.04.16 15:48:40.
