data_PCOD8233836
_publ_section_title
;
Structure prediction by ZEFSAII (Michael W. Deem and Ramdas Pophale) SiO2 
 PCOD8233836
Probable space group: P B C M
;
_chemical_formula_sum "Si O2"
_cell_formula_units_Z 48
_cell_length_a 13.066578
_cell_length_b 19.870985
_cell_length_c 9.914469
_cell_angle_alpha 90.000000
_cell_angle_beta 90.000000
_cell_angle_gamma 90.000000
_cell_volume 2574.249992
_symmetry_space_group_name_H-M "P B C M"
_symmetry_group_IT_number 57
_symmetry_cell_setting 'orthorhombic'
loop_
_space_group_symop_operation_xyz
x,y,z
-x,-y,1/2+z
x,1/2-y,-z
-x,1/2+y,1/2-z
-x,-y,-z
x,y,1/2-z
-x,1/2+y,z
x,1/2-y,1/2+z
loop_
_atom_site_type_symbol
_atom_site_label
_atom_site_fract_x
_atom_site_fract_y
_atom_site_fract_z
Si Si1 0.649551 0.348004 0.015283
Si Si2 0.357990 0.444735 0.250000
Si Si3 0.870714 0.309778 0.404483
Si Si4 0.452649 0.816346 0.750000
Si Si5 0.703951 0.497505 0.017017
Si Si6 0.554994 0.959913 0.750000
Si Si7 0.494832 0.173112 0.750000
Si Si8 0.924833 0.040034 0.596410
O O1 0.619766 0.307757 0.880468
O O2 0.668778 0.424136 0.969919
O O3 0.748586 0.314731 0.082036
O O4 0.557118 0.348933 0.118946
O O5 0.289456 0.458165 0.381760
O O6 0.460754 0.489186 0.250000
O O7 0.387596 0.366079 0.250000
O O8 0.913719 0.250000 0.500000
O O9 0.897485 0.291938 0.250000
O O10 0.921152 0.381201 0.446463
O O11 0.518498 0.883330 0.750000
O O12 0.529239 0.752638 0.750000
O O13 0.622088 0.529463 0.117485
O O14 0.813620 0.493993 0.088007
O O15 0.963463 0.033607 0.750000
O O16 0.000000 0.000000 0.500000
#
# Coordination Sequence:
#
# PCOD8233836 Si02
#       8
#     8   4   8   4   8   4   4   8
#     4  11  20  34  51  79 118 153 190 234 291 349
#     4  12  22  34  59  82 113 160 201 230 277 347
#     4  10  21  36  57  87 123 154 183 234 302 368
#     4  12  24  32  50  80 114 158 203 238 279 339
#     4  11  21  38  59  87 113 153 200 244 287 345
#     4  12  20  38  57  80 117 156 201 232 277 341
#     4  12  22  34  50  76 118 158 193 240 281 327
#     4  10  23  42  65  91 120 150 195 254 307 351
#
# _framework density 18.646207
#
# number of rings (size 3 to 8) (size 9 to 14) (size 15 to 20)
#    0.000    1.000    5.000    3.000    2.333    0.667 
#    0.000    0.000    0.000    2.000    0.000    0.000 
#    0.000    0.000    0.000    0.000    0.000    0.000 
#
# Total GULP energy -595330.938614 kJ/mol
# GULP energy per Si atom -12402.727888 kJ/mol
# Density = 1.860377 g / cm^3
# Si number density = 18.646207 Si / 1000 Ang^3
#
#
#
# Elastic Constant Matrix: (Units=GPa)
#
#
# Indices 1 2 3 4 5 6 
#
# 1 43.4488 35.5375 21.5154 0.0000 0.0000 0.0000
# 2 35.5375 122.2271 38.6669 0.0000 0.0000 0.0000
# 3 21.5154 38.6669 126.2975 0.0000 0.0000 0.0000
# 4 0.0000 0.0000 0.0000 36.5769 0.0000 0.0000
# 5 0.0000 0.0000 0.0000 0.0000 31.6279 0.0000
# 6 0.0000 0.0000 0.0000 0.0000 0.0000 23.8727
#
#
#
# Elastic Compliance Matrix: (Units=1/GPa)
#
#
# Indices 1 2 3 4 5 6 
#
# 1 0.031064 -0.008147 -0.002798 0.000000 0.000000 0.000000
# 2 -0.008147 0.011195 -0.002040 0.000000 0.000000 0.000000
# 3 -0.002798 -0.002040 0.009019 0.000000 0.000000 0.000000
# 4 0.000000 0.000000 0.000000 0.027340 0.000000 0.000000
# 5 0.000000 0.000000 0.000000 0.000000 0.031618 0.000000
# 6 0.000000 0.000000 0.000000 0.000000 0.000000 0.041889
#
#
# Mechanical properties :
#
#
# Convention : Reuss Voigt Hill
#
# Bulk Modulus (GPa) = 39.50990 53.71254 46.61122
# Shear Modulus (GPa) = 26.80528 31.49909 29.15219
#
# Velocity S-wave (km/s) = 3.79565 4.11457 3.95832
# Velocity P-wave (km/s) = 6.35960 7.17228 6.77813
#
# Compressibility (1/GPa) = 0.02531011
#
# Stress axis : x y z
#
# Youngs Moduli (GPa) = 32.19112 89.32185 110.87836
#
# Poissons Ratio (x) = 0.72770 0.31021
# Poissons Ratio (y) = 0.26226 0.22616
# Poissons Ratio (z) = 0.09006 0.18219
#
# Static dielectric constant tensor:
#      x y z
#    x 3.123280 0.000000 0.000000 
#    y 0.000000 3.601270 0.000000 
#    z 0.000000 0.000000 3.511130 
# 
# 
# High freq. dielectric constant tensor:
#      x y z
#    x 1.679270 0.000000 0.000000 
#    y 0.000000 1.729800 0.000000 
#    z 0.000000 0.000000 1.742900 
# 
# From -- ./inp_files/3237.got.cif
#   From: 2010.03.12/outbox.cif.g09.slc.cpg/sg57_2_cif.got.tgz:3237.got - 2010.04.16 15:48:40.
