data_PCOD8233249
_publ_section_title
;
Structure prediction by ZEFSAII (Michael W. Deem and Ramdas Pophale) SiO2 
 PCOD8233249
Probable space group: P B C M
;
_chemical_formula_sum "Si O2"
_cell_formula_units_Z 56
_cell_length_a 11.397246
_cell_length_b 22.723418
_cell_length_c 11.052163
_cell_angle_alpha 90.000000
_cell_angle_beta 90.000000
_cell_angle_gamma 90.000000
_cell_volume 2862.337636
_symmetry_space_group_name_H-M "P B C M"
_symmetry_group_IT_number 57
_symmetry_cell_setting 'orthorhombic'
loop_
_space_group_symop_operation_xyz
x,y,z
-x,-y,1/2+z
x,1/2-y,-z
-x,1/2+y,1/2-z
-x,-y,-z
x,y,1/2-z
-x,1/2+y,z
x,1/2-y,1/2+z
loop_
_atom_site_type_symbol
_atom_site_label
_atom_site_fract_x
_atom_site_fract_y
_atom_site_fract_z
Si Si1 0.376775 0.089336 0.389124
Si Si2 0.632828 0.412499 0.612036
Si Si3 0.005191 0.814535 0.554167
Si Si4 0.753710 0.704491 0.387590
Si Si5 0.253408 0.791253 0.617778
Si Si6 0.195297 0.501687 0.519638
Si Si7 0.013100 0.074333 0.885935
O O1 0.402453 0.099284 0.250000
O O2 0.504331 0.075447 0.448347
O O3 0.325165 0.150938 0.436782
O O4 0.287216 0.036057 0.404362
O O5 0.636980 0.434158 0.750000
O O6 0.653050 0.342821 0.600352
O O7 0.734855 0.446650 0.544579
O O8 0.007298 0.750000 0.500000
O O9 0.886162 0.819929 0.631020
O O10 0.124071 0.820388 0.630998
O O11 0.007984 0.865455 0.455323
O O12 0.745107 0.750000 0.500000
O O13 0.717239 0.727188 0.250000
O O14 0.265611 0.750000 0.500000
O O15 0.277108 0.759889 0.750000
O O16 0.097936 0.530638 0.605770
O O17 0.130949 0.459101 0.425194
O O18 0.031498 0.094310 0.750000
#
# Coordination Sequence:
#
# PCOD8233249 Si02
#       7
#     8   8   8   8   8   8   8
#     4  10  21  38  60  85 118 159 202 247 295 350
#     4  10  21  38  60  85 118 159 202 247 295 350
#     4  10  20  37  56  86 116 151 187 242 301 356
#     4  10  21  38  60  88 120 157 198 248 304 361
#     4  10  21  38  60  88 120 157 198 248 304 361
#     4  11  21  40  58  86 119 157 202 242 298 353
#     4  11  23  37  61  90 121 155 196 248 301 358
#
# _framework density 19.564427999999999
#
# number of rings (size 3 to 8) (size 9 to 14) (size 15 to 20)
#    0.000    1.714    2.857    1.714    0.000    5.143 
#    0.000    0.000    0.000    3.429    0.000    0.000 
#    0.000    0.000    0.000    0.000    0.000    0.000 
#
# Total GULP energy -693824.369947 kJ/mol
# GULP energy per Si atom -12389.720892 kJ/mol
# Density = 1.951990 g / cm^3
# Si number density = 19.564428 Si / 1000 Ang^3
#
#
#
# Elastic Constant Matrix: (Units=GPa)
#
#
# Indices 1 2 3 4 5 6 
#
# 1 94.9454 20.9240 3.7544 0.0000 0.0000 0.0000
# 2 20.9240 84.3978 40.4952 0.0000 0.0000 0.0000
# 3 3.7544 40.4952 95.4143 0.0000 0.0000 0.0000
# 4 0.0000 0.0000 0.0000 30.2992 0.0000 0.0000
# 5 0.0000 0.0000 0.0000 0.0000 17.9206 0.0000
# 6 0.0000 0.0000 0.0000 0.0000 0.0000 25.4634
#
#
#
# Elastic Compliance Matrix: (Units=1/GPa)
#
#
# Indices 1 2 3 4 5 6 
#
# 1 0.011206 -0.003223 0.000927 0.000000 0.000000 0.000000
# 2 -0.003223 0.015805 -0.006581 0.000000 0.000000 0.000000
# 3 0.000927 -0.006581 0.013237 0.000000 0.000000 0.000000
# 4 0.000000 0.000000 0.000000 0.033004 0.000000 0.000000
# 5 0.000000 0.000000 0.000000 0.000000 0.055802 0.000000
# 6 0.000000 0.000000 0.000000 0.000000 0.000000 0.039272
#
#
# Mechanical properties :
#
#
# Convention : Reuss Voigt Hill
#
# Bulk Modulus (GPa) = 44.45587 45.01164 44.73375
# Shear Modulus (GPa) = 25.82920 28.70890 27.26905
#
# Velocity S-wave (km/s) = 3.63741 3.83483 3.73742
# Velocity P-wave (km/s) = 6.35714 6.53182 6.44507
#
# Compressibility (1/GPa) = 0.02249422
#
# Stress axis : x y z
#
# Youngs Moduli (GPa) = 89.23796 63.26924 75.54404
#
# Poissons Ratio (x) = 0.20391 -0.07002
# Poissons Ratio (y) = 0.28761 0.49717
# Poissons Ratio (z) = -0.08272 0.41639
#
# Static dielectric constant tensor:
#      x y z
#    x 4.155350 0.000000 0.000000 
#    y 0.000000 3.496170 0.000000 
#    z 0.000000 0.000000 3.487230 
# 
# 
# High freq. dielectric constant tensor:
#      x y z
#    x 1.777320 0.000000 0.000000 
#    y 0.000000 1.758350 0.000000 
#    z 0.000000 0.000000 1.748350 
# 
# From -- ./inp_files/13109.got.cif
#   From: 2010.03.12/outbox.cif.g09.slc.cpg/sg57_7_cif.got.tgz:13109.got - 2010.04.16 15:48:40.
