data_PCOD8233474
_publ_section_title
;
Structure prediction by ZEFSAII (Michael W. Deem and Ramdas Pophale) SiO2 
 PCOD8233474
Probable space group: P B C M
;
_chemical_formula_sum "Si O2"
_cell_formula_units_Z 48
_cell_length_a 10.920513
_cell_length_b 9.721118
_cell_length_c 23.172739
_cell_angle_alpha 90.000000
_cell_angle_beta 90.000000
_cell_angle_gamma 90.000000
_cell_volume 2460.008599
_symmetry_space_group_name_H-M "P B C M"
_symmetry_group_IT_number 57
_symmetry_cell_setting 'orthorhombic'
loop_
_space_group_symop_operation_xyz
x,y,z
-x,-y,1/2+z
x,1/2-y,-z
-x,1/2+y,1/2-z
-x,-y,-z
x,y,1/2-z
-x,1/2+y,z
x,1/2-y,1/2+z
loop_
_atom_site_type_symbol
_atom_site_label
_atom_site_fract_x
_atom_site_fract_y
_atom_site_fract_z
Si Si1 0.254783 0.783683 0.432321
Si Si2 0.741429 0.793469 0.064997
Si Si3 0.627121 0.585942 0.250000
Si Si4 0.994267 0.872137 0.458035
Si Si5 0.645375 0.959928 0.873013
Si Si6 0.621360 0.581250 0.750000
Si Si7 0.363175 0.529140 0.128806
O O1 0.277979 0.750000 0.500000
O O2 0.273033 0.648643 0.393714
O O3 0.118135 0.844994 0.422251
O O4 0.346936 0.898479 0.408427
O O5 0.871017 0.870561 0.080502
O O6 0.732168 0.652648 0.099215
O O7 0.638278 0.902067 0.084081
O O8 0.716690 0.750000 0.000000
O O9 0.697496 0.534746 0.192602
O O10 0.506052 0.495506 0.250000
O O11 0.606973 0.752469 0.250000
O O12 0.966627 0.750000 0.500000
O O13 0.000000 0.000000 0.500000
O O14 0.502543 0.914518 0.870100
O O15 0.686187 0.527265 0.691009
#
# Coordination Sequence:
#
# PCOD8233474 Si02
#       7
#     8   8   4   8   8   4   8
#     4  11  23  38  58  90 123 155 199 246 298 361
#     4  11  21  36  60  86 117 159 194 243 307 354
#     4  10  22  40  62  85 115 160 212 243 282 362
#     4  10  20  38  60  81 114 159 208 238 275 354
#     4  11  23  37  59  87 121 157 195 245 302 361
#     4  10  22  40  62  85 115 162 210 243 284 358
#     4  11  23  37  59  87 123 155 195 245 302 358
#
# _framework density 19.512125000000001
#
# number of rings (size 3 to 8) (size 9 to 14) (size 15 to 20)
#    0.000    1.333    1.667    6.000    7.000    4.000 
#    0.000    0.000    0.000    6.000    0.000    0.000 
#    0.000    0.000    0.000    0.000    0.000    0.000 
#
# Total GULP energy -594664.016668 kJ/mol
# GULP energy per Si atom -12388.833681 kJ/mol
# Density = 1.946771 g / cm^3
# Si number density = 19.512125 Si / 1000 Ang^3
#
#
#
# Elastic Constant Matrix: (Units=GPa)
#
#
# Indices 1 2 3 4 5 6 
#
# 1 54.5748 19.6255 50.9424 0.0000 0.0000 0.0000
# 2 19.6255 134.0662 58.3039 0.0000 0.0000 0.0000
# 3 50.9424 58.3039 135.3813 0.0000 0.0000 0.0000
# 4 0.0000 0.0000 0.0000 38.3879 0.0000 0.0000
# 5 0.0000 0.0000 0.0000 0.0000 12.9440 0.0000
# 6 0.0000 0.0000 0.0000 0.0000 0.0000 29.9039
#
#
#
# Elastic Compliance Matrix: (Units=1/GPa)
#
#
# Indices 1 2 3 4 5 6 
#
# 1 0.028283 0.000601 -0.010901 0.000000 0.000000 0.000000
# 2 0.000601 0.009191 -0.004184 0.000000 0.000000 0.000000
# 3 -0.010901 -0.004184 0.013291 0.000000 0.000000 0.000000
# 4 0.000000 0.000000 0.000000 0.026050 0.000000 0.000000
# 5 0.000000 0.000000 0.000000 0.000000 0.077256 0.000000
# 6 0.000000 0.000000 0.000000 0.000000 0.000000 0.033440
#
#
# Mechanical properties :
#
#
# Convention : Reuss Voigt Hill
#
# Bulk Modulus (GPa) = 45.88251 64.64066 55.26159
# Shear Modulus (GPa) = 22.34686 29.25720 25.80203
#
# Velocity S-wave (km/s) = 3.38787 3.87646 3.64037
# Velocity P-wave (km/s) = 6.23454 7.29632 6.78623
#
# Compressibility (1/GPa) = 0.02179479
#
# Stress axis : x y z
#
# Youngs Moduli (GPa) = 35.35666 108.80562 75.24169
#
# Poissons Ratio (x) = -0.06534 0.82023
# Poissons Ratio (y) = -0.02123 0.31482
# Poissons Ratio (z) = 0.38543 0.45525
#
# Static dielectric constant tensor:
#      x y z
#    x 4.987910 0.000000 0.000000 
#    y 0.000000 3.837600 0.000000 
#    z 0.000000 0.000000 2.486920 
# 
# 
# High freq. dielectric constant tensor:
#      x y z
#    x 1.735350 0.000000 0.000000 
#    y 0.000000 1.782290 0.000000 
#    z 0.000000 0.000000 1.757540 
# 
# From -- ./inp_files/27152.got.cif
#   From: 2010.03.12/outbox.cif.g09.slc.cpg/sg57_14_cif.got.tgz:27152.got - 2010.04.16 15:48:40.
