data_PCOD8233541
_publ_section_title
;
Structure prediction by ZEFSAII (Michael W. Deem and Ramdas Pophale) SiO2 
 PCOD8233541
Probable space group: P B C M
;
_chemical_formula_sum "Si O2"
_cell_formula_units_Z 64
_cell_length_a 11.693121
_cell_length_b 30.621687
_cell_length_c 9.072407
_cell_angle_alpha 90.000000
_cell_angle_beta 90.000000
_cell_angle_gamma 90.000000
_cell_volume 3248.494096
_symmetry_space_group_name_H-M "P B C M"
_symmetry_group_IT_number 57
_symmetry_cell_setting 'orthorhombic'
loop_
_space_group_symop_operation_xyz
x,y,z
-x,-y,1/2+z
x,1/2-y,-z
-x,1/2+y,1/2-z
-x,-y,-z
x,y,1/2-z
-x,1/2+y,z
x,1/2-y,1/2+z
loop_
_atom_site_type_symbol
_atom_site_label
_atom_site_fract_x
_atom_site_fract_y
_atom_site_fract_z
Si Si1 0.010560 0.792503 0.918937
Si Si2 0.037085 0.956252 0.422385
Si Si3 0.496658 0.953948 0.920641
Si Si4 0.510558 0.293217 0.424107
Si Si5 0.105931 0.372045 0.079146
Si Si6 0.264475 0.818090 0.918517
Si Si7 0.628956 0.621347 0.922368
Si Si8 0.245825 0.582466 0.418692
O O1 0.973615 0.790009 0.750000
O O2 0.147191 0.791991 0.937249
O O3 0.960161 0.750000 0.000000
O O4 0.957335 0.835870 0.984992
O O5 0.040877 0.964734 0.250000
O O6 0.163390 0.944383 0.475800
O O7 0.946501 0.918748 0.464167
O O8 0.000000 0.000000 0.500000
O O9 0.527164 0.960312 0.750000
O O10 0.372460 0.934276 0.943954
O O11 0.588071 0.921067 0.990322
O O12 0.500000 0.000000 0.000000
O O13 0.456820 0.250000 0.500000
O O14 0.505825 0.287001 0.250000
O O15 0.641845 0.297367 0.474383
O O16 0.439329 0.335604 0.475041
O O17 0.084820 0.361544 0.250000
O O18 0.239015 0.371621 0.039576
O O19 0.309606 0.816312 0.750000
O O20 0.240984 0.867480 0.967439
O O21 0.609177 0.612656 0.750000
O O22 0.205718 0.576551 0.250000
#
# Coordination Sequence:
#
# PCOD8233541 Si02
#       8
#     8   8   8   8   8   8   8   8
#     4  11  23  39  62  90 121 157 197 246 298 358
#     4  11  24  40  63  92 124 161 204 253 304 363
#     4  11  24  41  64  92 124 161 202 251 303 361
#     4  11  23  38  61  89 120 157 199 247 297 358
#     4  10  23  43  63  86 120 160 202 250 302 354
#     4  10  20  38  62  90 123 156 196 246 302 357
#     4  10  23  43  63  87 121 160 203 250 302 358
#     4  10  21  40  64  90 124 160 198 249 305 357
#
# _framework density 19.701438
#
# number of rings (size 3 to 8) (size 9 to 14) (size 15 to 20)
#    0.000    1.500    2.500    1.875    1.750    5.500 
#    0.000    1.250    0.000    0.000    0.000    0.000 
#    0.000    0.000    0.000    0.000    0.000    0.000 
#
# Total GULP energy -793952.126536 kJ/mol
# GULP energy per Si atom -12405.501977 kJ/mol
# Density = 1.965660 g / cm^3
# Si number density = 19.701438 Si / 1000 Ang^3
#
#
#
# Elastic Constant Matrix: (Units=GPa)
#
#
# Indices 1 2 3 4 5 6 
#
# 1 75.3128 22.1358 41.0205 0.0000 0.0000 0.0000
# 2 22.1358 119.0753 64.6962 0.0000 0.0000 0.0000
# 3 41.0205 64.6962 97.3558 0.0000 0.0000 0.0000
# 4 0.0000 0.0000 0.0000 40.8759 0.0000 0.0000
# 5 0.0000 0.0000 0.0000 0.0000 30.0200 0.0000
# 6 0.0000 0.0000 0.0000 0.0000 0.0000 25.3918
#
#
#
# Elastic Compliance Matrix: (Units=1/GPa)
#
#
# Indices 1 2 3 4 5 6 
#
# 1 0.017336 0.001167 -0.008080 0.000000 0.000000 0.000000
# 2 0.001167 0.013222 -0.009279 0.000000 0.000000 0.000000
# 3 -0.008080 -0.009279 0.019842 0.000000 0.000000 0.000000
# 4 0.000000 0.000000 0.000000 0.024464 0.000000 0.000000
# 5 0.000000 0.000000 0.000000 0.000000 0.033311 0.000000
# 6 0.000000 0.000000 0.000000 0.000000 0.000000 0.039383
#
#
# Mechanical properties :
#
#
# Convention : Reuss Voigt Hill
#
# Bulk Modulus (GPa) = 55.50130 60.82767 58.16449
# Shear Modulus (GPa) = 26.88941 30.18364 28.53653
#
# Velocity S-wave (km/s) = 3.69839 3.91839 3.80998
# Velocity P-wave (km/s) = 6.81688 7.17032 6.99583
#
# Compressibility (1/GPa) = 0.01801760
#
# Stress axis : x y z
#
# Youngs Moduli (GPa) = 57.68389 75.63010 50.39797
#
# Poissons Ratio (x) = -0.08830 0.40723
# Poissons Ratio (y) = -0.06734 0.46762
# Poissons Ratio (z) = 0.46610 0.70174
#
# Static dielectric constant tensor:
#      x y z
#    x 3.365270 0.000000 0.000000 
#    y 0.000000 3.905000 0.000000 
#    z 0.000000 0.000000 3.624420 
# 
# 
# High freq. dielectric constant tensor:
#      x y z
#    x 1.766510 0.000000 0.000000 
#    y 0.000000 1.785240 0.000000 
#    z 0.000000 0.000000 1.771400 
# 
# From -- ./inp_files/3821.got.cif
#   From: 2010.03.12/outbox.cif.g09.slc.cpg/sg57_2_cif.got.tgz:3821.got - 2010.04.16 15:48:40.
