data_PCOD8233374
_publ_section_title
;
Structure prediction by ZEFSAII (Michael W. Deem and Ramdas Pophale) SiO2 
 PCOD8233374
Probable space group: P B C M
;
_chemical_formula_sum "Si O2"
_cell_formula_units_Z 56
_cell_length_a 14.651410
_cell_length_b 22.518499
_cell_length_c 8.842367
_cell_angle_alpha 90.000000
_cell_angle_beta 90.000000
_cell_angle_gamma 90.000000
_cell_volume 2917.342350
_symmetry_space_group_name_H-M "P B C M"
_symmetry_group_IT_number 57
_symmetry_cell_setting 'orthorhombic'
loop_
_space_group_symop_operation_xyz
x,y,z
-x,-y,1/2+z
x,1/2-y,-z
-x,1/2+y,1/2-z
-x,-y,-z
x,y,1/2-z
-x,1/2+y,z
x,1/2-y,1/2+z
loop_
_atom_site_type_symbol
_atom_site_label
_atom_site_fract_x
_atom_site_fract_y
_atom_site_fract_z
Si Si1 0.611737 0.457195 0.422757
Si Si2 0.587756 0.921921 0.072970
Si Si3 0.884730 0.638350 0.075324
Si Si4 0.903824 0.984178 0.071594
Si Si5 0.310214 0.188313 0.074722
Si Si6 0.802602 0.087912 0.923995
Si Si7 0.920292 0.311482 0.572994
O O1 0.603749 0.479240 0.250000
O O2 0.519274 0.423771 0.472215
O O3 0.632140 0.515741 0.521909
O O4 0.692980 0.409236 0.440738
O O5 0.603768 0.913987 0.250000
O O6 0.633736 0.866487 0.991594
O O7 0.890233 0.617181 0.250000
O O8 0.797902 0.680033 0.046805
O O9 0.975977 0.673221 0.027897
O O10 0.875394 0.582702 0.964724
O O11 0.907494 0.994846 0.250000
O O12 0.829006 0.025277 0.995211
O O13 0.000000 0.000000 0.000000
O O14 0.333474 0.192239 0.250000
O O15 0.341381 0.250000 0.000000
O O16 0.834095 0.091256 0.750000
O O17 0.849645 0.140105 0.014998
O O18 0.891336 0.250000 0.500000
O O19 0.908750 0.306184 0.750000
#
# Coordination Sequence:
#
# PCOD8233374 Si02
#       7
#     8   8   8   8   8   8   8
#     4   9  20  38  61  88 118 150 186 234 292 346
#     4  10  20  37  61  89 118 149 188 235 289 348
#     4  10  22  39  58  82 115 152 191 236 286 341
#     4  12  23  35  55  84 117 152 190 234 285 336
#     4  11  23  39  59  85 118 156 196 240 290 345
#     4  11  22  38  59  84 115 150 189 235 284 336
#     4  11  23  39  58  79 109 149 193 235 279 334
#
# _framework density 19.195551999999999
#
# number of rings (size 3 to 8) (size 9 to 14) (size 15 to 20)
#    0.000    1.429    1.429    4.286    0.000    6.857 
#    0.000    0.714    0.000    0.000    0.000    0.000 
#    0.000    0.000    0.000    0.000    0.000    0.000 
#
# Total GULP energy -694599.514978 kJ/mol
# GULP energy per Si atom -12403.562767 kJ/mol
# Density = 1.915186 g / cm^3
# Si number density = 19.195552 Si / 1000 Ang^3
#
#
#
# Elastic Constant Matrix: (Units=GPa)
#
#
# Indices 1 2 3 4 5 6 
#
# 1 103.4965 52.0874 39.1644 0.0000 0.0000 0.0000
# 2 52.0874 111.0990 55.6431 0.0000 0.0000 0.0000
# 3 39.1644 55.6431 88.4440 0.0000 0.0000 0.0000
# 4 0.0000 0.0000 0.0000 37.9194 0.0000 0.0000
# 5 0.0000 0.0000 0.0000 0.0000 27.5160 0.0000
# 6 0.0000 0.0000 0.0000 0.0000 0.0000 27.7476
#
#
#
# Elastic Compliance Matrix: (Units=1/GPa)
#
#
# Indices 1 2 3 4 5 6 
#
# 1 0.013114 -0.004731 -0.002831 0.000000 0.000000 0.000000
# 2 -0.004731 0.014848 -0.007247 0.000000 0.000000 0.000000
# 3 -0.002831 -0.007247 0.017119 0.000000 0.000000 0.000000
# 4 0.000000 0.000000 0.000000 0.026372 0.000000 0.000000
# 5 0.000000 0.000000 0.000000 0.000000 0.036342 0.000000
# 6 0.000000 0.000000 0.000000 0.000000 0.000000 0.036039
#
#
# Mechanical properties :
#
#
# Convention : Reuss Voigt Hill
#
# Bulk Modulus (GPa) = 64.66136 66.31436 65.48786
# Shear Modulus (GPa) = 27.99436 29.04624 28.52030
#
# Velocity S-wave (km/s) = 3.82301 3.89418 3.85876
# Velocity P-wave (km/s) = 7.29698 7.40548 7.35143
#
# Compressibility (1/GPa) = 0.01546519
#
# Stress axis : x y z
#
# Youngs Moduli (GPa) = 76.25292 67.34744 58.41302
#
# Poissons Ratio (x) = 0.31859 0.16537
# Poissons Ratio (y) = 0.36072 0.42331
# Poissons Ratio (z) = 0.21588 0.48806
#
# Static dielectric constant tensor:
#      x y z
#    x 3.610830 0.000000 0.000000 
#    y 0.000000 3.354380 0.000000 
#    z 0.000000 0.000000 3.711450 
# 
# 
# High freq. dielectric constant tensor:
#      x y z
#    x 1.751180 0.000000 0.000000 
#    y 0.000000 1.738980 0.000000 
#    z 0.000000 0.000000 1.758780 
# 
# From -- ./inp_files/5256.got.cif
#   From: 2010.03.12/outbox.cif.g09.slc.cpg/sg57_3_cif.got.tgz:5256.got - 2010.04.16 15:48:40.
