data_PCOD8233459
_publ_section_title
;
Structure prediction by ZEFSAII (Michael W. Deem and Ramdas Pophale) SiO2 
 PCOD8233459
Probable space group: P B C M
;
_chemical_formula_sum "Si O2"
_cell_formula_units_Z 56
_cell_length_a 14.143816
_cell_length_b 9.248346
_cell_length_c 23.739911
_cell_angle_alpha 90.000000
_cell_angle_beta 90.000000
_cell_angle_gamma 90.000000
_cell_volume 3105.344262
_symmetry_space_group_name_H-M "P B C M"
_symmetry_group_IT_number 57
_symmetry_cell_setting 'orthorhombic'
loop_
_space_group_symop_operation_xyz
x,y,z
-x,-y,1/2+z
x,1/2-y,-z
-x,1/2+y,1/2-z
-x,-y,-z
x,y,1/2-z
-x,1/2+y,z
x,1/2-y,1/2+z
loop_
_atom_site_type_symbol
_atom_site_label
_atom_site_fract_x
_atom_site_fract_y
_atom_site_fract_z
Si Si1 0.101212 0.193758 0.314598
Si Si2 0.588177 0.559717 0.250000
Si Si3 0.622600 0.106559 0.464642
Si Si4 0.076250 0.524445 0.185628
Si Si5 0.611875 0.287594 0.750000
Si Si6 0.585397 0.632081 0.044210
Si Si7 0.305803 0.275526 0.652627
Si Si8 0.718000 0.058574 0.348716
O O1 0.125305 0.152837 0.250000
O O2 0.062326 0.354652 0.318979
O O3 0.196944 0.173775 0.350309
O O4 0.018857 0.093683 0.340448
O O5 0.481815 0.616170 0.250000
O O6 0.590392 0.384493 0.250000
O O7 0.639105 0.622696 0.195448
O O8 0.637065 0.250000 0.500000
O O9 0.518495 0.075978 0.436557
O O10 0.693811 0.097894 0.412660
O O11 0.646748 0.987220 0.511869
O O12 0.087274 0.575898 0.250000
O O13 0.169190 0.577597 0.153238
O O14 0.669947 0.328501 0.693968
O O15 0.647470 0.702256 0.092509
O O16 0.554370 0.750000 0.000000
O O17 0.311465 0.105542 0.669004
#
# Coordination Sequence:
#
# PCOD8233459 Si02
#       8
#     8   4   8   8   4   8   8   8
#     4   9  18  34  55  82 112 147 186 234 287 347
#     4  12  26  38  55  86 119 156 185 236 286 350
#     4  10  22  36  58  83 116 149 198 239 278 337
#     4   9  18  34  56  81 112 147 187 234 287 346
#     4  12  26  38  55  84 121 154 189 228 296 344
#     4  10  20  38  58  83 108 154 196 235 281 334
#     4  11  21  38  62  83 117 149 194 238 291 346
#     4  11  21  39  60  84 117 154 186 241 294 343
#
# _framework density 18.033427
#
# number of rings (size 3 to 8) (size 9 to 14) (size 15 to 20)
#    0.000    1.714    2.857    2.143    2.000    1.143 
#    0.000    0.000    0.000    1.714    0.000    0.000 
#    0.000    0.000    0.000    0.000    0.000    0.000 
#
# Total GULP energy -694227.095162 kJ/mol
# GULP energy per Si atom -12396.912414 kJ/mol
# Density = 1.799238 g / cm^3
# Si number density = 18.033427 Si / 1000 Ang^3
#
#
#
# Elastic Constant Matrix: (Units=GPa)
#
#
# Indices 1 2 3 4 5 6 
#
# 1 103.9900 22.2178 34.0832 0.0000 0.0000 0.0000
# 2 22.2178 75.3961 13.6452 0.0000 0.0000 0.0000
# 3 34.0832 13.6452 59.6028 0.0000 0.0000 0.0000
# 4 0.0000 0.0000 0.0000 26.6689 0.0000 0.0000
# 5 0.0000 0.0000 0.0000 0.0000 40.9631 0.0000
# 6 0.0000 0.0000 0.0000 0.0000 0.0000 31.7895
#
#
#
# Elastic Compliance Matrix: (Units=1/GPa)
#
#
# Indices 1 2 3 4 5 6 
#
# 1 0.012251 -0.002444 -0.006446 0.000000 0.000000 0.000000
# 2 -0.002444 0.014324 -0.001882 0.000000 0.000000 0.000000
# 3 -0.006446 -0.001882 0.020895 0.000000 0.000000 0.000000
# 4 0.000000 0.000000 0.000000 0.037497 0.000000 0.000000
# 5 0.000000 0.000000 0.000000 0.000000 0.024412 0.000000
# 6 0.000000 0.000000 0.000000 0.000000 0.000000 0.031457
#
#
# Mechanical properties :
#
#
# Convention : Reuss Voigt Hill
#
# Bulk Modulus (GPa) = 38.57073 42.09793 40.33433
# Shear Modulus (GPa) = 29.23605 31.15380 30.19493
#
# Velocity S-wave (km/s) = 4.03080 4.16090 4.09637
# Velocity P-wave (km/s) = 6.56491 6.81756 6.69243
#
# Compressibility (1/GPa) = 0.02592639
#
# Stress axis : x y z
#
# Youngs Moduli (GPa) = 81.62473 69.81313 47.85870
#
# Poissons Ratio (x) = 0.17059 0.30851
# Poissons Ratio (y) = 0.19945 0.09007
# Poissons Ratio (z) = 0.52618 0.13138
#
# Static dielectric constant tensor:
#      x y z
#    x 3.411300 0.000000 0.000000 
#    y 0.000000 3.413620 0.000000 
#    z 0.000000 0.000000 3.695420 
# 
# 
# High freq. dielectric constant tensor:
#      x y z
#    x 1.697800 0.000000 0.000000 
#    y 0.000000 1.707860 0.000000 
#    z 0.000000 0.000000 1.677510 
# 
# From -- ./inp_files/25436.got.cif
#   From: 2010.03.12/outbox.cif.g09.slc.cpg/sg57_13_cif.got.tgz:25436.got - 2010.04.16 15:48:40.
