data_PCOD8233376
_publ_section_title
;
Structure prediction by ZEFSAII (Michael W. Deem and Ramdas Pophale) SiO2 
 PCOD8233376
Probable space group: P B C M
;
_chemical_formula_sum "Si O2"
_cell_formula_units_Z 64
_cell_length_a 23.808053
_cell_length_b 15.430931
_cell_length_c 8.865436
_cell_angle_alpha 90.000000
_cell_angle_beta 90.000000
_cell_angle_gamma 90.000000
_cell_volume 3256.987629
_symmetry_space_group_name_H-M "P B C M"
_symmetry_group_IT_number 57
_symmetry_cell_setting 'orthorhombic'
loop_
_space_group_symop_operation_xyz
x,y,z
-x,-y,1/2+z
x,1/2-y,-z
-x,1/2+y,1/2-z
-x,-y,-z
x,y,1/2-z
-x,1/2+y,z
x,1/2-y,1/2+z
loop_
_atom_site_type_symbol
_atom_site_label
_atom_site_fract_x
_atom_site_fract_y
_atom_site_fract_z
Si Si1 0.366689 0.161124 0.073601
Si Si2 0.248973 0.415369 0.923315
Si Si3 0.871737 0.659200 0.425444
Si Si4 0.364978 0.661324 0.928212
Si Si5 0.747060 0.097460 0.073245
Si Si6 0.439287 0.999959 0.428644
Si Si7 0.939040 0.996619 0.429569
Si Si8 0.868429 0.161445 0.426854
O O1 0.374605 0.170813 0.250000
O O2 0.302197 0.142617 0.030402
O O3 0.405421 0.083439 0.011753
O O4 0.387205 0.250000 0.000000
O O5 0.254624 0.447502 0.750000
O O6 0.194270 0.357349 0.948140
O O7 0.246908 0.497134 0.032339
O O8 0.887836 0.750000 0.500000
O O9 0.888295 0.660326 0.250000
O O10 0.906866 0.586480 0.509556
O O11 0.364821 0.670216 0.750000
O O12 0.405734 0.584787 0.983414
O O13 0.387841 0.750000 0.000000
O O14 0.301962 0.643305 0.981357
O O15 0.734763 0.105790 0.250000
O O16 0.804200 0.145172 0.025696
O O17 0.444623 0.001014 0.250000
O O18 0.500000 0.000000 0.500000
O O19 0.942363 0.991410 0.250000
O O20 0.906167 0.082026 0.485317
O O21 0.000000 0.000000 0.500000
O O22 0.890629 0.250000 0.500000
O O23 0.874716 0.170636 0.250000
#
# Coordination Sequence:
#
# PCOD8233376 Si02
#       8
#     8   8   8   8   8   8   8   8
#     4  10  21  39  60  88 121 156 194 242 297 354
#     4  10  20  37  61  89 125 161 196 242 303 363
#     4  11  23  39  64  94 124 164 203 248 307 365
#     4  11  23  41  62  89 123 159 199 248 300 359
#     4  11  21  36  61  93 124 159 197 243 302 361
#     4  10  23  42  62  83 118 157 201 251 300 352
#     4  11  24  44  64  88 122 160 208 260 305 360
#     4  10  23  40  61  90 123 156 196 245 299 358
#
# _framework density 19.650058999999999
#
# number of rings (size 3 to 8) (size 9 to 14) (size 15 to 20)
#    0.000    1.500    2.500    2.250    0.000    6.500 
#    0.000    3.750    0.000    0.000    0.000    0.000 
#    0.000    0.000    0.000    0.000    0.000    0.000 
#
# Total GULP energy -793927.275911 kJ/mol
# GULP energy per Si atom -12405.113686 kJ/mol
# Density = 1.960533 g / cm^3
# Si number density = 19.650059 Si / 1000 Ang^3
#
#
#
# Elastic Constant Matrix: (Units=GPa)
#
#
# Indices 1 2 3 4 5 6 
#
# 1 142.3990 76.5438 46.5410 0.0000 0.0000 0.0000
# 2 76.5438 189.8085 55.5104 0.0000 0.0000 0.0000
# 3 46.5410 55.5104 62.3699 0.0000 0.0000 0.0000
# 4 0.0000 0.0000 0.0000 40.3527 0.0000 0.0000
# 5 0.0000 0.0000 0.0000 0.0000 32.4054 0.0000
# 6 0.0000 0.0000 0.0000 0.0000 0.0000 4.5082
#
#
#
# Elastic Compliance Matrix: (Units=1/GPa)
#
#
# Indices 1 2 3 4 5 6 
#
# 1 0.010113 -0.002530 -0.005295 0.000000 0.000000 0.000000
# 2 -0.002530 0.007755 -0.005015 0.000000 0.000000 0.000000
# 3 -0.005295 -0.005015 0.024447 0.000000 0.000000 0.000000
# 4 0.000000 0.000000 0.000000 0.024781 0.000000 0.000000
# 5 0.000000 0.000000 0.000000 0.000000 0.030859 0.000000
# 6 0.000000 0.000000 0.000000 0.000000 0.000000 0.221816
#
#
# Mechanical properties :
#
#
# Convention : Reuss Voigt Hill
#
# Bulk Modulus (GPa) = 60.10584 83.52979 71.81781
# Shear Modulus (GPa) = 14.24517 29.85209 22.04863
#
# Velocity S-wave (km/s) = 2.69540 3.90190 3.35336
# Velocity P-wave (km/s) = 6.35149 7.93100 7.18478
#
# Compressibility (1/GPa) = 0.01663732
#
# Stress axis : x y z
#
# Youngs Moduli (GPa) = 98.88417 128.94670 40.90404
#
# Poissons Ratio (x) = 0.32620 0.21658
# Poissons Ratio (y) = 0.25015 0.20512
# Poissons Ratio (z) = 0.52357 0.64661
#
# Static dielectric constant tensor:
#      x y z
#    x 3.609230 0.000000 0.000000 
#    y 0.000000 3.779020 0.000000 
#    z 0.000000 0.000000 3.548980 
# 
# 
# High freq. dielectric constant tensor:
#      x y z
#    x 1.767360 0.000000 0.000000 
#    y 0.000000 1.780320 0.000000 
#    z 0.000000 0.000000 1.765230 
# 
# From -- ./inp_files/9385.got.cif
#   From: 2010.03.12/outbox.cif.g09.slc.cpg/sg57_5_cif.got.tgz:9385.got - 2010.04.16 15:48:40.
