data_PCOD8233445
_publ_section_title
;
Structure prediction by ZEFSAII (Michael W. Deem and Ramdas Pophale) SiO2 
 PCOD8233445
Probable space group: P B C M
;
_chemical_formula_sum "Si O2"
_cell_formula_units_Z 48
_cell_length_a 27.478759
_cell_length_b 8.659843
_cell_length_c 10.047749
_cell_angle_alpha 90.000000
_cell_angle_beta 90.000000
_cell_angle_gamma 90.000000
_cell_volume 2390.979823
_symmetry_space_group_name_H-M "P B C M"
_symmetry_group_IT_number 57
_symmetry_cell_setting 'orthorhombic'
loop_
_space_group_symop_operation_xyz
x,y,z
-x,-y,1/2+z
x,1/2-y,-z
-x,1/2+y,1/2-z
-x,-y,-z
x,y,1/2-z
-x,1/2+y,z
x,1/2-y,1/2+z
loop_
_atom_site_type_symbol
_atom_site_label
_atom_site_fract_x
_atom_site_fract_y
_atom_site_fract_z
Si Si1 0.608569 0.570878 0.518722
Si Si2 0.958106 0.073696 0.250000
Si Si3 0.302005 0.883872 0.900022
Si Si4 0.807956 0.109940 0.402810
Si Si5 0.540050 0.886191 0.250000
Si Si6 0.897444 0.568038 0.514915
Si Si7 0.436633 0.473580 0.750000
Si Si8 0.937118 0.437149 0.250000
O O1 0.615017 0.750000 0.500000
O O2 0.660012 0.520093 0.578117
O O3 0.564681 0.536395 0.620791
O O4 0.595735 0.487689 0.379587
O O5 0.949274 0.256407 0.250000
O O6 0.936331 0.996397 0.381064
O O7 0.015322 0.043768 0.250000
O O8 0.305590 0.819918 0.750000
O O9 0.247425 0.945125 0.928429
O O10 0.316754 0.750000 0.000000
O O11 0.821857 0.250000 0.500000
O O12 0.815570 0.164144 0.250000
O O13 0.842867 0.965749 0.433810
O O14 0.546499 0.702929 0.250000
O O15 0.482981 0.916072 0.250000
O O16 0.904729 0.750000 0.500000
O O17 0.904985 0.479305 0.377246
#
# Coordination Sequence:
#
# PCOD8233445 Si02
#       8
#     8   4   8   8   4   8   4   4
#     4  10  21  38  59  84 118 158 198 246 302 359
#     4  12  24  46  65  94 129 170 215 258 314 374
#     4  10  22  40  63  91 122 157 201 251 301 362
#     4  10  22  42  66  92 124 163 205 254 312 373
#     4  10  20  38  55  82 115 154 197 246 300 358
#     4  12  25  42  65  97 130 165 212 262 310 372
#     4  10  22  34  57  84 115 152 197 244 300 362
#     4  12  26  42  69  94 129 172 211 260 316 370
#
# _framework density 20.075453
#
# number of rings (size 3 to 8) (size 9 to 14) (size 15 to 20)
#    0.000    1.333    1.667    4.000    2.333    2.000 
#    0.000    0.000    0.000    0.000    0.000    0.000 
#    0.000    0.000    0.000    0.000    0.000    0.000 
#
# Total GULP energy -595368.766263 kJ/mol
# GULP energy per Si atom -12403.515964 kJ/mol
# Density = 2.002976 g / cm^3
# Si number density = 20.075453 Si / 1000 Ang^3
#
#
#
# Elastic Constant Matrix: (Units=GPa)
#
#
# Indices 1 2 3 4 5 6 
#
# 1 98.4814 31.8037 32.1579 0.0000 0.0000 0.0000
# 2 31.8037 85.5178 37.1465 0.0000 0.0000 0.0000
# 3 32.1579 37.1465 141.7609 0.0000 0.0000 0.0000
# 4 0.0000 0.0000 0.0000 30.3939 0.0000 0.0000
# 5 0.0000 0.0000 0.0000 0.0000 35.8590 0.0000
# 6 0.0000 0.0000 0.0000 0.0000 0.0000 29.7401
#
#
#
# Elastic Compliance Matrix: (Units=1/GPa)
#
#
# Indices 1 2 3 4 5 6 
#
# 1 0.011908 -0.003673 -0.001739 0.000000 0.000000 0.000000
# 2 -0.003673 0.014328 -0.002921 0.000000 0.000000 0.000000
# 3 -0.001739 -0.002921 0.008214 0.000000 0.000000 0.000000
# 4 0.000000 0.000000 0.000000 0.032901 0.000000 0.000000
# 5 0.000000 0.000000 0.000000 0.000000 0.027887 0.000000
# 6 0.000000 0.000000 0.000000 0.000000 0.000000 0.033625
#
#
# Mechanical properties :
#
#
# Convention : Reuss Voigt Hill
#
# Bulk Modulus (GPa) = 56.23052 58.66402 57.44727
# Shear Modulus (GPa) = 33.01232 34.17541 33.59386
#
# Velocity S-wave (km/s) = 4.05953 4.13043 4.09513
# Velocity P-wave (km/s) = 7.07414 7.21335 7.14409
#
# Compressibility (1/GPa) = 0.01778394
#
# Stress axis : x y z
#
# Youngs Moduli (GPa) = 83.97540 69.79102 121.74256
#
# Poissons Ratio (x) = 0.25637 0.21168
# Poissons Ratio (y) = 0.30847 0.35565
# Poissons Ratio (z) = 0.14602 0.20388
#
# Static dielectric constant tensor:
#      x y z
#    x 3.719180 0.000000 0.000000 
#    y 0.000000 3.410810 0.000000 
#    z 0.000000 0.000000 4.123250 
# 
# 
# High freq. dielectric constant tensor:
#      x y z
#    x 1.794640 0.000000 0.000000 
#    y 0.000000 1.765210 0.000000 
#    z 0.000000 0.000000 1.808170 
# 
# From -- ./inp_files/10210.got.cif
#   From: 2010.03.12/outbox.cif.g09.slc.cpg/sg57_6_cif.got.tgz:10210.got - 2010.04.16 15:48:40.
