data_PCOD8233504
_publ_section_title
;
Structure prediction by ZEFSAII (Michael W. Deem and Ramdas Pophale) SiO2 
 PCOD8233504
Probable space group: P B C M
;
_chemical_formula_sum "Si O2"
_cell_formula_units_Z 48
_cell_length_a 14.823192
_cell_length_b 8.560215
_cell_length_c 18.570057
_cell_angle_alpha 90.000000
_cell_angle_beta 90.000000
_cell_angle_gamma 90.000000
_cell_volume 2356.349157
_symmetry_space_group_name_H-M "P B C M"
_symmetry_group_IT_number 57
_symmetry_cell_setting 'orthorhombic'
loop_
_space_group_symop_operation_xyz
x,y,z
-x,-y,1/2+z
x,1/2-y,-z
-x,1/2+y,1/2-z
-x,-y,-z
x,y,1/2-z
-x,1/2+y,z
x,1/2-y,1/2+z
loop_
_atom_site_type_symbol
_atom_site_label
_atom_site_fract_x
_atom_site_fract_y
_atom_site_fract_z
Si Si1 0.075684 0.514069 0.335289
Si Si2 0.721685 0.028920 0.832780
Si Si3 0.110612 0.333419 0.834298
Si Si4 0.390184 0.026871 0.563129
Si Si5 0.432293 0.123886 0.405718
Si Si6 0.775002 0.317097 0.578743
O O1 0.095437 0.533193 0.250000
O O2 0.095563 0.340474 0.365583
O O3 0.134229 0.637597 0.379864
O O4 0.971983 0.552421 0.353205
O O5 0.741925 0.066061 0.750000
O O6 0.722316 0.187929 0.876414
O O7 0.798022 0.911220 0.865001
O O8 0.622688 0.952740 0.840134
O O9 0.119985 0.311552 0.750000
O O10 0.399494 0.036500 0.477551
O O11 0.409953 0.193956 0.597759
O O12 0.460221 0.903413 0.599018
O O13 0.289246 0.969095 0.577781
O O14 0.798201 0.250000 0.500000
#
# Coordination Sequence:
#
# PCOD8233504 Si02
#       6
#     8   8   8   8   8   8
#     4  10  20  38  61  86 116 156 201 246 296 357
#     4  11  22  39  61  89 122 156 198 251 300 351
#     4   9  19  37  63  88 116 156 198 240 301 365
#     4  10  21  37  62  86 117 152 198 237 293 354
#     4  10  20  38  63  88 112 155 198 241 288 357
#     4  12  23  38  58  89 120 161 200 246 295 360
#
# _framework density 20.370494999999998
#
# number of rings (size 3 to 8) (size 9 to 14) (size 15 to 20)
#    0.000    1.667    1.667    3.500    2.333    2.667 
#    0.000    8.333    0.000    0.000    0.000    0.000 
#    0.000    0.000    0.000    0.000    0.000    0.000 
#
# Total GULP energy -595234.612928 kJ/mol
# GULP energy per Si atom -12400.721103 kJ/mol
# Density = 2.032413 g / cm^3
# Si number density = 20.370495 Si / 1000 Ang^3
#
#
#
# Elastic Constant Matrix: (Units=GPa)
#
#
# Indices 1 2 3 4 5 6 
#
# 1 78.1498 16.9700 17.6666 0.0000 0.0000 0.0000
# 2 16.9700 98.2441 25.8463 0.0000 0.0000 0.0000
# 3 17.6666 25.8463 59.9327 0.0000 0.0000 0.0000
# 4 0.0000 0.0000 0.0000 24.2162 0.0000 0.0000
# 5 0.0000 0.0000 0.0000 0.0000 27.5368 0.0000
# 6 0.0000 0.0000 0.0000 0.0000 0.0000 40.6440
#
#
#
# Elastic Compliance Matrix: (Units=1/GPa)
#
#
# Indices 1 2 3 4 5 6 
#
# 1 0.013901 -0.001492 -0.003454 0.000000 0.000000 0.000000
# 2 -0.001492 0.011642 -0.004581 0.000000 0.000000 0.000000
# 3 -0.003454 -0.004581 0.019679 0.000000 0.000000 0.000000
# 4 0.000000 0.000000 0.000000 0.041295 0.000000 0.000000
# 5 0.000000 0.000000 0.000000 0.000000 0.036315 0.000000
# 6 0.000000 0.000000 0.000000 0.000000 0.000000 0.024604
#
#
# Mechanical properties :
#
#
# Convention : Reuss Voigt Hill
#
# Bulk Modulus (GPa) = 38.21555 39.69917 38.95736
# Shear Modulus (GPa) = 28.53696 30.20231 29.36963
#
# Velocity S-wave (km/s) = 3.74692 3.85470 3.80119
# Velocity P-wave (km/s) = 6.12537 6.27236 6.19930
#
# Compressibility (1/GPa) = 0.02616736
#
# Stress axis : x y z
#
# Youngs Moduli (GPa) = 71.93811 85.89887 50.81575
#
# Poissons Ratio (x) = 0.12820 0.17552
# Poissons Ratio (y) = 0.10736 0.23277
# Poissons Ratio (z) = 0.24847 0.39347
#
# Static dielectric constant tensor:
#      x y z
#    x 3.719890 0.000000 0.000000 
#    y 0.000000 3.833800 0.000000 
#    z 0.000000 0.000000 3.380600 
# 
# 
# High freq. dielectric constant tensor:
#      x y z
#    x 1.802540 0.000000 0.000000 
#    y 0.000000 1.810700 0.000000 
#    z 0.000000 0.000000 1.761670 
# 
# From -- ./inp_files/22453.got.cif
#   From: 2010.03.12/outbox.cif.g09.slc.cpg/sg57_12_cif.got.tgz:22453.got - 2010.04.16 15:48:40.
