data_PCOD8233707
_publ_section_title
;
Structure prediction by ZEFSAII (Michael W. Deem and Ramdas Pophale) SiO2 
 PCOD8233707
Probable space group: P B C M
;
_chemical_formula_sum "Si O2"
_cell_formula_units_Z 40
_cell_length_a 15.954505
_cell_length_b 8.380810
_cell_length_c 13.513598
_cell_angle_alpha 90.000000
_cell_angle_beta 90.000000
_cell_angle_gamma 90.000000
_cell_volume 1806.925825
_symmetry_space_group_name_H-M "P B C M"
_symmetry_group_IT_number 57
_symmetry_cell_setting 'orthorhombic'
loop_
_space_group_symop_operation_xyz
x,y,z
-x,-y,1/2+z
x,1/2-y,-z
-x,1/2+y,1/2-z
-x,-y,-z
x,y,1/2-z
-x,1/2+y,z
x,1/2-y,1/2+z
loop_
_atom_site_type_symbol
_atom_site_label
_atom_site_fract_x
_atom_site_fract_y
_atom_site_fract_z
Si Si1 0.713467 0.930834 0.020894
Si Si2 0.435988 0.547700 0.365063
Si Si3 0.608610 0.092153 0.634719
Si Si4 0.106154 0.013859 0.943251
Si Si5 0.040926 0.343744 0.865041
O O1 0.794392 0.012215 0.072415
O O2 0.634207 0.928506 0.093880
O O3 0.739871 0.750000 0.000000
O O4 0.690253 0.027786 0.921438
O O5 0.440131 0.515408 0.250000
O O6 0.528769 0.508036 0.405659
O O7 0.409149 0.725322 0.393901
O O8 0.625447 0.069927 0.750000
O O9 0.071086 0.164288 0.881578
O O10 0.091646 0.036976 0.061609
O O11 0.057123 0.861252 0.898285
O O12 0.054307 0.391598 0.750000
#
# Coordination Sequence:
#
# PCOD8233707 Si02
#       5
#     8   8   8   8   8
#     4  12  23  40  61  95 131 170 204 266 316 374
#     4  10  22  41  65  93 128 169 219 263 310 378
#     4  10  22  42  65  93 127 172 215 260 317 374
#     4  10  23  42  62  96 124 159 218 259 316 392
#     4  10  20  42  67  87 121 163 204 261 322 380
#
# _framework density 22.137046000000002
#
# number of rings (size 3 to 8) (size 9 to 14) (size 15 to 20)
#    0.000    1.600    2.000    3.000    0.000    4.800 
#   14.400    0.000    0.000    0.000    0.000    0.000 
#    0.000    0.000    0.000    0.000    0.000    0.000 
#
# Total GULP energy -495942.752053 kJ/mol
# GULP energy per Si atom -12398.568801 kJ/mol
# Density = 2.208666 g / cm^3
# Si number density = 22.137046 Si / 1000 Ang^3
#
#
#
# Elastic Constant Matrix: (Units=GPa)
#
#
# Indices 1 2 3 4 5 6 
#
# 1 142.1699 34.3379 18.6917 0.0000 0.0000 0.0000
# 2 34.3379 55.2078 9.9762 0.0000 0.0000 0.0000
# 3 18.6917 9.9762 85.2457 0.0000 0.0000 0.0000
# 4 0.0000 0.0000 0.0000 23.9281 0.0000 0.0000
# 5 0.0000 0.0000 0.0000 0.0000 20.1780 0.0000
# 6 0.0000 0.0000 0.0000 0.0000 0.0000 222.6015
#
#
#
# Elastic Compliance Matrix: (Units=1/GPa)
#
#
# Indices 1 2 3 4 5 6 
#
# 1 0.008407 -0.005002 -0.001258 0.000000 0.000000 0.000000
# 2 -0.005002 0.021480 -0.001417 0.000000 0.000000 0.000000
# 3 -0.001258 -0.001417 0.012172 0.000000 0.000000 0.000000
# 4 0.000000 0.000000 0.000000 0.041792 0.000000 0.000000
# 5 0.000000 0.000000 0.000000 0.000000 0.049559 0.000000
# 6 0.000000 0.000000 0.000000 0.000000 0.000000 0.004492
#
#
# Mechanical properties :
#
#
# Convention : Reuss Voigt Hill
#
# Bulk Modulus (GPa) = 37.44442 45.40390 41.42416
# Shear Modulus (GPa) = 30.83383 67.98268 49.40826
#
# Velocity S-wave (km/s) = 3.73615 5.54766 4.72945
# Velocity P-wave (km/s) = 5.96350 7.84795 6.96971
#
# Compressibility (1/GPa) = 0.02670625
#
# Stress axis : x y z
#
# Youngs Moduli (GPa) = 118.94400 46.55396 82.15243
#
# Poissons Ratio (x) = 0.23285 0.10336
# Poissons Ratio (y) = 0.59493 0.11642
# Poissons Ratio (z) = 0.14964 0.06597
#
# Static dielectric constant tensor:
#      x y z
#    x 4.028120 0.000000 0.000000 
#    y 0.000000 3.874650 0.000000 
#    z 0.000000 0.000000 3.994830 
# 
# 
# High freq. dielectric constant tensor:
#      x y z
#    x 1.869470 0.000000 0.000000 
#    y 0.000000 1.860180 0.000000 
#    z 0.000000 0.000000 1.878160 
# 
# From -- ./inp_files/18217.got.cif
#   From: 2010.03.12/outbox.cif.g09.slc.cpg/sg57_10_cif.got.tgz:18217.got - 2010.04.16 15:48:40.
