data_PCOD8233423
_publ_section_title
;
Structure prediction by ZEFSAII (Michael W. Deem and Ramdas Pophale) SiO2 
 PCOD8233423
Probable space group: P B C M
;
_chemical_formula_sum "Si O2"
_cell_formula_units_Z 64
_cell_length_a 23.644641
_cell_length_b 15.241011
_cell_length_c 8.847344
_cell_angle_alpha 90.000000
_cell_angle_beta 90.000000
_cell_angle_gamma 90.000000
_cell_volume 3188.301729
_symmetry_space_group_name_H-M "P B C M"
_symmetry_group_IT_number 57
_symmetry_cell_setting 'orthorhombic'
loop_
_space_group_symop_operation_xyz
x,y,z
-x,-y,1/2+z
x,1/2-y,-z
-x,1/2+y,1/2-z
-x,-y,-z
x,y,1/2-z
-x,1/2+y,z
x,1/2-y,1/2+z
loop_
_atom_site_type_symbol
_atom_site_label
_atom_site_fract_x
_atom_site_fract_y
_atom_site_fract_z
Si Si1 0.001425 0.150929 0.070982
Si Si2 0.501413 0.162988 0.927457
Si Si3 0.724159 0.159803 0.929347
Si Si4 0.386742 0.382379 0.578814
Si Si5 0.611701 0.076449 0.927794
Si Si6 0.790588 0.495239 0.926452
Si Si7 0.262181 0.336659 0.924508
Si Si8 0.077944 0.008972 0.574520
O O1 0.005399 0.164902 0.250000
O O2 0.949294 0.085474 0.026275
O O3 0.996347 0.250000 0.000000
O O4 0.055737 0.095279 0.014462
O O5 0.501422 0.170951 0.750000
O O6 0.547382 0.091908 0.986850
O O7 0.526305 0.250000 0.000000
O O8 0.436938 0.150902 0.974859
O O9 0.725136 0.165277 0.750000
O O10 0.660704 0.139618 0.993085
O O11 0.745462 0.250000 0.000000
O O12 0.767857 0.086324 0.979980
O O13 0.409773 0.381772 0.750000
O O14 0.370322 0.479476 0.524934
O O15 0.330125 0.326184 0.562520
O O16 0.611758 0.089041 0.750000
O O17 0.778669 0.481169 0.750000
O O18 0.856405 0.503156 0.962490
O O19 0.759211 0.581878 0.980954
O O20 0.243538 0.345352 0.750000
O O21 0.235351 0.250000 0.000000
O O22 0.065302 0.026022 0.750000
#
# Coordination Sequence:
#
# PCOD8233423 Si02
#       8
#     8   8   8   8   8   8   8   8
#     4  10  20  37  63  93 126 164 203 243 293 346
#     4  11  22  35  53  79 109 142 184 234 292 357
#     4  11  22  40  62  87 119 158 201 248 302 358
#     4  10  20  38  59  80 109 144 186 239 298 357
#     4   9  19  37  58  80 110 145 186 239 295 355
#     4  11  23  41  63  90 123 159 204 253 300 353
#     4  11  23  40  62  86 117 157 200 249 303 361
#     4   9  21  40  61  89 125 162 203 250 295 345
#
# _framework density 20.073381999999999
#
# number of rings (size 3 to 8) (size 9 to 14) (size 15 to 20)
#    0.000    1.750    1.250    3.000    0.000    4.500 
#    0.000    3.750    0.000    0.000    0.000    0.000 
#    0.000    0.000    0.000    0.000    0.000    0.000 
#
# Total GULP energy -793232.635579 kJ/mol
# GULP energy per Si atom -12394.259931 kJ/mol
# Density = 2.002769 g / cm^3
# Si number density = 20.073382 Si / 1000 Ang^3
#
#
#
# Elastic Constant Matrix: (Units=GPa)
#
#
# Indices 1 2 3 4 5 6 
#
# 1 83.0122 28.4039 35.1963 0.0000 0.0000 0.0000
# 2 28.4039 133.8173 43.9901 0.0000 0.0000 0.0000
# 3 35.1963 43.9901 82.2364 0.0000 0.0000 0.0000
# 4 0.0000 0.0000 0.0000 36.6873 0.0000 0.0000
# 5 0.0000 0.0000 0.0000 0.0000 45.3807 0.0000
# 6 0.0000 0.0000 0.0000 0.0000 0.0000 27.9911
#
#
#
# Elastic Compliance Matrix: (Units=1/GPa)
#
#
# Indices 1 2 3 4 5 6 
#
# 1 0.014899 -0.001294 -0.005685 0.000000 0.000000 0.000000
# 2 -0.001294 0.009180 -0.004357 0.000000 0.000000 0.000000
# 3 -0.005685 -0.004357 0.016924 0.000000 0.000000 0.000000
# 4 0.000000 0.000000 0.000000 0.027257 0.000000 0.000000
# 5 0.000000 0.000000 0.000000 0.000000 0.022036 0.000000
# 6 0.000000 0.000000 0.000000 0.000000 0.000000 0.035726
#
#
# Mechanical properties :
#
#
# Convention : Reuss Voigt Hill
#
# Bulk Modulus (GPa) = 54.54868 57.13851 55.84360
# Shear Modulus (GPa) = 32.29921 34.77686 33.53804
#
# Velocity S-wave (km/s) = 4.01566 4.16683 4.09194
# Velocity P-wave (km/s) = 6.98100 7.18864 7.08558
#
# Compressibility (1/GPa) = 0.01833225
#
# Stress axis : x y z
#
# Youngs Moduli (GPa) = 67.11693 108.93630 59.08921
#
# Poissons Ratio (x) = 0.14094 0.33591
# Poissons Ratio (y) = 0.08683 0.25743
# Poissons Ratio (z) = 0.38154 0.47460
#
# Static dielectric constant tensor:
#      x y z
#    x 3.689610 0.000000 0.000000 
#    y 0.000000 3.723320 0.000000 
#    z 0.000000 0.000000 3.578670 
# 
# 
# High freq. dielectric constant tensor:
#      x y z
#    x 1.781820 0.000000 0.000000 
#    y 0.000000 1.795670 0.000000 
#    z 0.000000 0.000000 1.778150 
# 
# From -- ./inp_files/9499.got.cif
#   From: 2010.03.12/outbox.cif.g09.slc.cpg/sg57_5_cif.got.tgz:9499.got - 2010.04.16 15:48:40.
