data_PCOD8233320
_publ_section_title
;
Structure prediction by ZEFSAII (Michael W. Deem and Ramdas Pophale) SiO2 
 PCOD8233320
Probable space group: P B C M
;
_chemical_formula_sum "Si O2"
_cell_formula_units_Z 64
_cell_length_a 14.473680
_cell_length_b 8.829395
_cell_length_c 25.014468
_cell_angle_alpha 90.000000
_cell_angle_beta 90.000000
_cell_angle_gamma 90.000000
_cell_volume 3196.694867
_symmetry_space_group_name_H-M "P B C M"
_symmetry_group_IT_number 57
_symmetry_cell_setting 'orthorhombic'
loop_
_space_group_symop_operation_xyz
x,y,z
-x,-y,1/2+z
x,1/2-y,-z
-x,1/2+y,1/2-z
-x,-y,-z
x,y,1/2-z
-x,1/2+y,z
x,1/2-y,1/2+z
loop_
_atom_site_type_symbol
_atom_site_label
_atom_site_fract_x
_atom_site_fract_y
_atom_site_fract_z
Si Si1 0.589278 0.873430 0.398672
Si Si2 0.608076 0.979634 0.903013
Si Si3 0.712209 0.930147 0.005664
Si Si4 0.915145 0.585052 0.525433
Si Si5 0.731341 0.865555 0.310937
Si Si6 0.746510 0.516832 0.311197
Si Si7 0.921974 0.315738 0.189070
Si Si8 0.913796 0.505838 0.853363
O O1 0.585185 0.695745 0.408636
O O2 0.649234 0.963634 0.442704
O O3 0.635955 0.902071 0.341262
O O4 0.485382 0.928089 0.401179
O O5 0.662702 0.028634 0.849792
O O6 0.669143 0.018875 0.955182
O O7 0.816306 0.993813 0.012894
O O8 0.718007 0.750000 0.000000
O O9 0.915811 0.750000 0.500000
O O10 0.928919 0.581035 0.588981
O O11 0.000000 0.500000 0.500000
O O12 0.710098 0.903494 0.250000
O O13 0.767277 0.694389 0.319615
O O14 0.810025 0.973519 0.333252
O O15 0.717127 0.483721 0.250000
O O16 0.836977 0.423481 0.327793
O O17 0.909962 0.257910 0.250000
O O18 0.929692 0.174965 0.148353
O O19 0.014921 0.413795 0.186490
#
# Coordination Sequence:
#
# PCOD8233320 Si02
#       8
#     8   8   8   8   8   8   8   8
#     4  10  20  38  56  87 112 151 197 246 301 355
#     4  10  21  36  63  83 117 155 196 248 302 361
#     4   9  19  38  61  82 115 156 196 240 296 353
#     4  11  24  41  61  89 123 160 199 247 302 361
#     4  10  20  37  60  85 116 156 200 245 300 363
#     4   9  21  39  59  86 119 158 200 245 300 359
#     4  11  23  38  60  89 122 157 200 247 296 359
#     4  12  23  39  62  88 122 159 203 247 301 364
#
# _framework density 20.020679000000001
#
# number of rings (size 3 to 8) (size 9 to 14) (size 15 to 20)
#    0.000    1.750    1.250    3.000    3.500    2.500 
#    0.000    0.000    0.000    0.000    0.000    0.000 
#    0.000    0.000    0.000    0.000    0.000    0.000 
#
# Total GULP energy -793636.336458 kJ/mol
# GULP energy per Si atom -12400.567757 kJ/mol
# Density = 1.997511 g / cm^3
# Si number density = 20.020679 Si / 1000 Ang^3
#
#
#
# Elastic Constant Matrix: (Units=GPa)
#
#
# Indices 1 2 3 4 5 6 
#
# 1 121.7820 28.9405 45.3591 0.0000 0.0000 0.0000
# 2 28.9405 52.3285 28.9522 0.0000 0.0000 0.0000
# 3 45.3591 28.9522 125.4944 0.0000 0.0000 0.0000
# 4 0.0000 0.0000 0.0000 25.1096 0.0000 0.0000
# 5 0.0000 0.0000 0.0000 0.0000 36.2454 0.0000
# 6 0.0000 0.0000 0.0000 0.0000 0.0000 38.2547
#
#
#
# Elastic Compliance Matrix: (Units=1/GPa)
#
#
# Indices 1 2 3 4 5 6 
#
# 1 0.010214 -0.004134 -0.002738 0.000000 0.000000 0.000000
# 2 -0.004134 0.023579 -0.003946 0.000000 0.000000 0.000000
# 3 -0.002738 -0.003946 0.009868 0.000000 0.000000 0.000000
# 4 0.000000 0.000000 0.000000 0.039825 0.000000 0.000000
# 5 0.000000 0.000000 0.000000 0.000000 0.027590 0.000000
# 6 0.000000 0.000000 0.000000 0.000000 0.000000 0.026141
#
#
# Mechanical properties :
#
#
# Convention : Reuss Voigt Hill
#
# Bulk Modulus (GPa) = 45.40021 56.23427 50.81724
# Shear Modulus (GPa) = 30.08532 33.01215 31.54874
#
# Velocity S-wave (km/s) = 3.88069 4.06507 3.97395
# Velocity P-wave (km/s) = 6.54260 7.08394 6.81864
#
# Compressibility (1/GPa) = 0.02202633
#
# Stress axis : x y z
#
# Youngs Moduli (GPa) = 97.90936 42.41001 101.33371
#
# Poissons Ratio (x) = 0.17531 0.27744
# Poissons Ratio (y) = 0.40474 0.39984
# Poissons Ratio (z) = 0.26807 0.16734
#
# Static dielectric constant tensor:
#      x y z
#    x 3.754180 0.000000 0.000000 
#    y 0.000000 3.392930 0.000000 
#    z 0.000000 0.000000 4.430530 
# 
# 
# High freq. dielectric constant tensor:
#      x y z
#    x 1.790430 0.000000 0.000000 
#    y 0.000000 1.759300 0.000000 
#    z 0.000000 0.000000 1.792200 
# 
# From -- ./inp_files/27513.got.cif
#   From: 2010.03.12/outbox.cif.g09.slc.cpg/sg57_14_cif.got.tgz:27513.got - 2010.04.16 15:48:40.
