data_PCOD8233538
_publ_section_title
;
Structure prediction by ZEFSAII (Michael W. Deem and Ramdas Pophale) SiO2 
 PCOD8233538
Probable space group: P B C M
;
_chemical_formula_sum "Si O2"
_cell_formula_units_Z 40
_cell_length_a 9.057246
_cell_length_b 25.465913
_cell_length_c 8.314198
_cell_angle_alpha 90.000000
_cell_angle_beta 90.000000
_cell_angle_gamma 90.000000
_cell_volume 1917.678404
_symmetry_space_group_name_H-M "P B C M"
_symmetry_group_IT_number 57
_symmetry_cell_setting 'orthorhombic'
loop_
_space_group_symop_operation_xyz
x,y,z
-x,-y,1/2+z
x,1/2-y,-z
-x,1/2+y,1/2-z
-x,-y,-z
x,y,1/2-z
-x,1/2+y,z
x,1/2-y,1/2+z
loop_
_atom_site_type_symbol
_atom_site_label
_atom_site_fract_x
_atom_site_fract_y
_atom_site_fract_z
Si Si1 0.828258 0.306361 0.440575
Si Si2 0.648269 0.903470 0.062952
Si Si3 0.835871 0.996482 0.935768
Si Si4 0.672411 0.093343 0.434342
Si Si5 0.162874 0.194162 0.939780
O O1 0.771137 0.250000 0.500000
O O2 0.815342 0.310936 0.250000
O O3 0.722735 0.348302 0.523130
O O4 0.996049 0.315240 0.502340
O O5 0.607937 0.896911 0.250000
O O6 0.732756 0.852127 0.995005
O O7 0.751353 0.953792 0.041832
O O8 0.501710 0.911747 0.960699
O O9 0.834842 0.979646 0.750000
O O10 0.758480 0.052767 0.952857
O O11 0.000000 0.000000 0.000000
O O12 0.708394 0.080243 0.250000
O O13 0.162102 0.193889 0.750000
O O14 0.224828 0.250000 0.000000
#
# Coordination Sequence:
#
# PCOD8233538 Si02
#       5
#     8   8   8   8   8
#     4  10  20  38  62  90 121 158 203 253 304 362
#     4  11  23  41  62  89 124 162 201 249 304 361
#     4  12  25  43  66  92 120 156 200 249 302 364
#     4  12  25  41  61  89 123 162 203 250 305 363
#     4   9  20  37  61  88 118 154 197 245 296 352
#
# _framework density 20.858556
#
# number of rings (size 3 to 8) (size 9 to 14) (size 15 to 20)
#    0.000    1.200    0.000    6.600    0.000    4.800 
#    0.000    2.000    0.000    0.000    0.000    0.000 
#    0.000    0.000    0.000    0.000    0.000    0.000 
#
# Total GULP energy -496302.967861 kJ/mol
# GULP energy per Si atom -12407.574197 kJ/mol
# Density = 2.081108 g / cm^3
# Si number density = 20.858556 Si / 1000 Ang^3
#
#
#
# Elastic Constant Matrix: (Units=GPa)
#
#
# Indices 1 2 3 4 5 6 
#
# 1 123.0236 59.5533 12.2695 0.0000 0.0000 0.0000
# 2 59.5533 134.6928 7.9499 0.0000 0.0000 0.0000
# 3 12.2695 7.9499 68.0875 0.0000 0.0000 0.0000
# 4 0.0000 0.0000 0.0000 36.2617 0.0000 0.0000
# 5 0.0000 0.0000 0.0000 0.0000 26.0233 0.0000
# 6 0.0000 0.0000 0.0000 0.0000 0.0000 27.4811
#
#
#
# Elastic Compliance Matrix: (Units=1/GPa)
#
#
# Indices 1 2 3 4 5 6 
#
# 1 0.010465 -0.004547 -0.001355 0.000000 0.000000 0.000000
# 2 -0.004547 0.009451 -0.000284 0.000000 0.000000 0.000000
# 3 -0.001355 -0.000284 0.014964 0.000000 0.000000 0.000000
# 4 0.000000 0.000000 0.000000 0.027577 0.000000 0.000000
# 5 0.000000 0.000000 0.000000 0.000000 0.038427 0.000000
# 6 0.000000 0.000000 0.000000 0.000000 0.000000 0.036389
#
#
# Mechanical properties :
#
#
# Convention : Reuss Voigt Hill
#
# Bulk Modulus (GPa) = 44.42758 53.92770 49.17764
# Shear Modulus (GPa) = 31.81705 34.35528 33.08616
#
# Velocity S-wave (km/s) = 3.90984 4.06280 3.98705
# Velocity P-wave (km/s) = 6.45973 6.92233 6.69503
#
# Compressibility (1/GPa) = 0.02250854
#
# Stress axis : x y z
#
# Youngs Moduli (GPa) = 95.55910 105.80371 66.82568
#
# Poissons Ratio (x) = 0.48108 0.09054
# Poissons Ratio (y) = 0.43450 0.01899
# Poissons Ratio (z) = 0.12947 0.03007
#
# Static dielectric constant tensor:
#      x y z
#    x 3.855210 0.000000 0.000000 
#    y 0.000000 1.133850 0.000000 
#    z 0.000000 0.000000 3.744180 
# 
# 
# High freq. dielectric constant tensor:
#      x y z
#    x 1.818710 0.000000 0.000000 
#    y 0.000000 1.830620 0.000000 
#    z 0.000000 0.000000 1.820110 
# 
# From -- ./inp_files/1484.got.cif
#   From: 2010.03.12/outbox.cif.g09.slc.cpg/sg57_1_cif.got.tgz:1484.got - 2010.04.16 15:48:40.
