data_PCOD8233031
_publ_section_title
;
Structure prediction by ZEFSAII (Michael W. Deem and Ramdas Pophale) SiO2 
 PCOD8233031
Probable space group: P B C M
;
_chemical_formula_sum "Si O2"
_cell_formula_units_Z 64
_cell_length_a 11.853718
_cell_length_b 11.713581
_cell_length_c 23.041542
_cell_angle_alpha 90.000000
_cell_angle_beta 90.000000
_cell_angle_gamma 90.000000
_cell_volume 3199.306262
_symmetry_space_group_name_H-M "P B C M"
_symmetry_group_IT_number 57
_symmetry_cell_setting 'orthorhombic'
loop_
_space_group_symop_operation_xyz
x,y,z
-x,-y,1/2+z
x,1/2-y,-z
-x,1/2+y,1/2-z
-x,-y,-z
x,y,1/2-z
-x,1/2+y,z
x,1/2-y,1/2+z
loop_
_atom_site_type_symbol
_atom_site_label
_atom_site_fract_x
_atom_site_fract_y
_atom_site_fract_z
Si Si1 0.433044 0.066192 0.683263
Si Si2 0.905402 0.519610 0.622849
Si Si3 0.852335 0.559886 0.121357
Si Si4 0.173801 0.384304 0.007013
Si Si5 0.624816 0.043523 0.006602
Si Si6 0.337443 0.885434 0.379955
Si Si7 0.305042 0.869748 0.876121
Si Si8 0.779664 0.712794 0.683529
O O1 0.470718 0.066264 0.750000
O O2 0.541300 0.076200 0.642892
O O3 0.348199 0.171523 0.670104
O O4 0.372243 0.946429 0.670025
O O5 0.909309 0.581678 0.559821
O O6 0.824479 0.409426 0.619270
O O7 0.862940 0.607993 0.671137
O O8 0.026415 0.477163 0.645735
O O9 0.758358 0.471011 0.143236
O O10 0.811859 0.683222 0.142328
O O11 0.870281 0.560123 0.052190
O O12 0.298532 0.432501 0.020258
O O13 0.181408 0.250000 0.000000
O O14 0.634024 0.127182 0.061334
O O15 0.663699 0.111653 0.949712
O O16 0.500000 0.000000 0.000000
O O17 0.307445 0.760831 0.355413
O O18 0.792808 0.750643 0.750000
#
# Coordination Sequence:
#
# PCOD8233031 Si02
#       8
#     8   8   8   8   8   8   8   8
#     4  10  23  43  64  88 122 163 207 253 310 371
#     4  10  22  42  65  90 126 164 205 254 310 367
#     4  11  24  39  64  97 123 157 209 257 303 368
#     4  10  20  36  61  93 122 164 203 243 313 378
#     4  10  20  36  56  92 126 160 201 249 308 371
#     4  11  24  37  62  96 124 157 201 254 310 370
#     4  10  22  40  62  90 125 164 201 249 312 371
#     4  10  23  43  66  88 119 166 210 255 309 365
#
# _framework density 20.004337
#
# number of rings (size 3 to 8) (size 9 to 14) (size 15 to 20)
#    0.000    1.750    2.500    0.750    3.500    2.500 
#    0.000    0.000    0.000    0.000    0.000    0.000 
#    0.000    0.000    0.000    0.000    0.000    0.000 
#
# Total GULP energy -793746.830817 kJ/mol
# GULP energy per Si atom -12402.294232 kJ/mol
# Density = 1.995881 g / cm^3
# Si number density = 20.004337 Si / 1000 Ang^3
#
#
#
# Elastic Constant Matrix: (Units=GPa)
#
#
# Indices 1 2 3 4 5 6 
#
# 1 122.3268 39.3166 19.0762 0.0000 0.0000 0.0000
# 2 39.3166 111.9889 6.6028 0.0000 0.0000 0.0000
# 3 19.0762 6.6028 67.5094 0.0000 0.0000 0.0000
# 4 0.0000 0.0000 0.0000 19.6754 0.0000 0.0000
# 5 0.0000 0.0000 0.0000 0.0000 18.0535 0.0000
# 6 0.0000 0.0000 0.0000 0.0000 0.0000 22.7553
#
#
#
# Elastic Compliance Matrix: (Units=1/GPa)
#
#
# Indices 1 2 3 4 5 6 
#
# 1 0.009584 -0.003224 -0.002393 0.000000 0.000000 0.000000
# 2 -0.003224 0.010066 -0.000074 0.000000 0.000000 0.000000
# 3 -0.002393 -0.000074 0.015496 0.000000 0.000000 0.000000
# 4 0.000000 0.000000 0.000000 0.050825 0.000000 0.000000
# 5 0.000000 0.000000 0.000000 0.000000 0.055391 0.000000
# 6 0.000000 0.000000 0.000000 0.000000 0.000000 0.043946
#
#
# Mechanical properties :
#
#
# Convention : Reuss Voigt Hill
#
# Bulk Modulus (GPa) = 42.07774 47.97958 45.02866
# Shear Modulus (GPa) = 24.43679 27.88546 26.16113
#
# Velocity S-wave (km/s) = 3.49889 3.73764 3.62024
# Velocity P-wave (km/s) = 6.11580 6.53171 6.32717
#
# Compressibility (1/GPa) = 0.02376554
#
# Stress axis : x y z
#
# Youngs Moduli (GPa) = 104.33959 99.34881 64.53232
#
# Poissons Ratio (x) = 0.32027 0.15442
# Poissons Ratio (y) = 0.33636 0.00475
# Poissons Ratio (z) = 0.24967 0.00731
#
# Static dielectric constant tensor:
#      x y z
#    x 3.576180 0.000000 0.000000 
#    y 0.000000 3.555200 0.000000 
#    z 0.000000 0.000000 3.694390 
# 
# 
# High freq. dielectric constant tensor:
#      x y z
#    x 1.778250 0.000000 0.000000 
#    y 0.000000 1.779390 0.000000 
#    z 0.000000 0.000000 1.777720 
# 
# From -- ./inp_files/27259.got.cif
#   From: 2010.03.12/outbox.cif.g09.slc.cpg/sg57_14_cif.got.tgz:27259.got - 2010.04.16 15:48:40.
