data_PCOD8233231
_publ_section_title
;
Structure prediction by ZEFSAII (Michael W. Deem and Ramdas Pophale) SiO2 
 PCOD8233231
Probable space group: P B C M
;
_chemical_formula_sum "Si O2"
_cell_formula_units_Z 64
_cell_length_a 16.704321
_cell_length_b 10.414363
_cell_length_c 18.081578
_cell_angle_alpha 90.000000
_cell_angle_beta 90.000000
_cell_angle_gamma 90.000000
_cell_volume 3145.559232
_symmetry_space_group_name_H-M "P B C M"
_symmetry_group_IT_number 57
_symmetry_cell_setting 'orthorhombic'
loop_
_space_group_symop_operation_xyz
x,y,z
-x,-y,1/2+z
x,1/2-y,-z
-x,1/2+y,1/2-z
-x,-y,-z
x,y,1/2-z
-x,1/2+y,z
x,1/2-y,1/2+z
loop_
_atom_site_type_symbol
_atom_site_label
_atom_site_fract_x
_atom_site_fract_y
_atom_site_fract_z
Si Si1 0.074736 0.720093 0.833063
Si Si2 0.313116 0.787330 0.919127
Si Si3 0.419966 0.302907 0.162810
Si Si4 0.804463 0.062059 0.900203
Si Si5 0.896485 0.857451 0.168884
Si Si6 0.158427 0.924825 0.565921
Si Si7 0.456432 0.910269 0.662420
Si Si8 0.744240 0.684736 0.167715
O O1 0.087113 0.775416 0.750000
O O2 0.124588 0.586087 0.840057
O O3 0.109285 0.809265 0.897611
O O4 0.981461 0.704533 0.849569
O O5 0.263957 0.667696 0.888008
O O6 0.253356 0.908897 0.921762
O O7 0.381869 0.825889 0.863355
O O8 0.347634 0.750000 0.000000
O O9 0.429578 0.313523 0.250000
O O10 0.467853 0.175374 0.134461
O O11 0.452497 0.441680 0.130537
O O12 0.327063 0.279465 0.139856
O O13 0.756571 0.930427 0.889427
O O14 0.851800 0.069379 0.977956
O O15 0.900667 0.926538 0.250000
O O16 0.829235 0.751246 0.171863
O O17 0.874252 0.947826 0.101971
O O18 0.454382 0.917371 0.750000
O O19 0.720932 0.634017 0.250000
#
# Coordination Sequence:
#
# PCOD8233231 Si02
#       8
#     8   8   8   8   8   8   8   8
#     4  10  21  37  58  86 116 152 200 253 307 365
#     4   9  20  38  59  81 118 153 197 246 301 363
#     4   9  20  36  59  91 125 156 200 254 308 366
#     4  10  22  38  58  86 118 157 199 247 305 372
#     4  10  22  37  59  83 112 155 201 249 305 366
#     4  10  21  40  58  82 118 155 200 249 300 367
#     4  10  20  36  62  92 120 157 204 253 304 370
#     4  10  21  38  58  85 120 155 197 253 309 361
#
# _framework density 20.346143999999999
#
# number of rings (size 3 to 8) (size 9 to 14) (size 15 to 20)
#    0.000    2.250    0.000    2.625    3.500    5.000 
#    2.250    0.625    2.750    0.000    0.000    0.000 
#    0.000    0.000    0.000    0.000    0.000    0.000 
#
# Total GULP energy -792952.980418 kJ/mol
# GULP energy per Si atom -12389.890319 kJ/mol
# Density = 2.029984 g / cm^3
# Si number density = 20.346144 Si / 1000 Ang^3
#
#
#
# Elastic Constant Matrix: (Units=GPa)
#
#
# Indices 1 2 3 4 5 6 
#
# 1 106.9657 48.7137 28.6689 0.0000 0.0000 0.0000
# 2 48.7137 115.1089 42.4145 0.0000 0.0000 0.0000
# 3 28.6689 42.4145 63.7328 0.0000 0.0000 0.0000
# 4 0.0000 0.0000 0.0000 28.4528 0.0000 0.0000
# 5 0.0000 0.0000 0.0000 0.0000 27.4497 0.0000
# 6 0.0000 0.0000 0.0000 0.0000 0.0000 211.0717
#
#
#
# Elastic Compliance Matrix: (Units=1/GPa)
#
#
# Indices 1 2 3 4 5 6 
#
# 1 0.011910 -0.004062 -0.002654 0.000000 0.000000 0.000000
# 2 -0.004062 0.012896 -0.006755 0.000000 0.000000 0.000000
# 3 -0.002654 -0.006755 0.021380 0.000000 0.000000 0.000000
# 4 0.000000 0.000000 0.000000 0.035146 0.000000 0.000000
# 5 0.000000 0.000000 0.000000 0.000000 0.036430 0.000000
# 6 0.000000 0.000000 0.000000 0.000000 0.000000 0.004738
#
#
# Mechanical properties :
#
#
# Convention : Reuss Voigt Hill
#
# Bulk Modulus (GPa) = 51.96639 58.37796 55.17217
# Shear Modulus (GPa) = 32.08093 64.46219 48.27156
#
# Velocity S-wave (km/s) = 3.97515 5.63485 4.87613
# Velocity P-wave (km/s) = 6.83123 8.43149 7.67319
#
# Compressibility (1/GPa) = 0.01924321
#
# Stress axis : x y z
#
# Youngs Moduli (GPa) = 83.96166 77.54621 46.77349
#
# Poissons Ratio (x) = 0.31503 0.12414
# Poissons Ratio (y) = 0.34109 0.31594
# Poissons Ratio (z) = 0.22283 0.52380
#
# Static dielectric constant tensor:
#      x y z
#    x 3.760410 0.000000 0.000000 
#    y 0.000000 3.909390 0.000000 
#    z 0.000000 0.000000 3.674810 
# 
# 
# High freq. dielectric constant tensor:
#      x y z
#    x 1.799920 0.000000 0.000000 
#    y 0.000000 1.791110 0.000000 
#    z 0.000000 0.000000 1.776770 
# 
# From -- ./inp_files/22649.got.cif
#   From: 2010.03.12/outbox.cif.g09.slc.cpg/sg57_12_cif.got.tgz:22649.got - 2010.04.16 15:48:40.
