data_PCOD8233503
_publ_section_title
;
Structure prediction by ZEFSAII (Michael W. Deem and Ramdas Pophale) SiO2 
 PCOD8233503
Probable space group: P B C M
;
_chemical_formula_sum "Si O2"
_cell_formula_units_Z 56
_cell_length_a 11.577074
_cell_length_b 14.558222
_cell_length_c 15.797566
_cell_angle_alpha 90.000000
_cell_angle_beta 90.000000
_cell_angle_gamma 90.000000
_cell_volume 2662.547261
_symmetry_space_group_name_H-M "P B C M"
_symmetry_group_IT_number 57
_symmetry_cell_setting 'orthorhombic'
loop_
_space_group_symop_operation_xyz
x,y,z
-x,-y,1/2+z
x,1/2-y,-z
-x,1/2+y,1/2-z
-x,-y,-z
x,y,1/2-z
-x,1/2+y,z
x,1/2-y,1/2+z
loop_
_atom_site_type_symbol
_atom_site_label
_atom_site_fract_x
_atom_site_fract_y
_atom_site_fract_z
Si Si1 0.431725 0.999535 0.915135
Si Si2 0.933560 0.802594 0.412875
Si Si3 0.821207 0.340122 0.448738
Si Si4 0.186973 0.467215 0.487569
Si Si5 0.597577 0.360392 0.154219
Si Si6 0.779477 0.648930 0.347586
Si Si7 0.482661 0.318685 0.650545
O O1 0.307205 0.038859 0.937004
O O2 0.505035 0.057626 0.847300
O O3 0.428790 0.896670 0.879812
O O4 0.500000 0.000000 0.000000
O O5 0.918539 0.750000 0.500000
O O6 0.891586 0.907274 0.424453
O O7 0.858814 0.741662 0.347139
O O8 0.069892 0.810124 0.389655
O O9 0.781703 0.250000 0.500000
O O10 0.856724 0.426523 0.509359
O O11 0.714731 0.381471 0.396094
O O12 0.181181 0.427373 0.584087
O O13 0.635201 0.342083 0.250000
O O14 0.534033 0.274119 0.111050
O O15 0.781914 0.610971 0.250000
O O16 0.649596 0.671141 0.378381
O O17 0.486096 0.311114 0.750000
#
# Coordination Sequence:
#
# PCOD8233503 Si02
#       7
#     8   8   8   8   8   8   8
#     4  12  21  35  58  90 117 152 196 241 294 358
#     4   9  21  38  59  85 114 151 198 247 293 345
#     4  11  22  38  60  85 118 158 203 247 289 354
#     4  11  21  37  59  88 118 154 196 247 297 353
#     4  11  24  38  57  85 120 157 193 241 300 352
#     4  10  20  38  61  86 115 151 194 244 299 353
#     4  10  21  37  56  82 119 154 188 238 294 351
#
# _framework density 21.032489000000002
#
# number of rings (size 3 to 8) (size 9 to 14) (size 15 to 20)
#    0.000    1.429    2.857    2.571    0.000    2.286 
#    0.000    0.714    0.000    0.857    0.000    0.000 
#    0.000    0.000    0.000    0.000    0.000    0.000 
#
# Total GULP energy -693978.518953 kJ/mol
# GULP energy per Si atom -12392.473553 kJ/mol
# Density = 2.098462 g / cm^3
# Si number density = 21.032489 Si / 1000 Ang^3
#
#
#
# Elastic Constant Matrix: (Units=GPa)
#
#
# Indices 1 2 3 4 5 6 
#
# 1 93.6291 12.0868 21.3055 0.0000 0.0000 0.0000
# 2 12.0868 115.9872 16.0948 0.0000 0.0000 0.0000
# 3 21.3055 16.0948 30.8838 0.0000 0.0000 0.0000
# 4 0.0000 0.0000 0.0000 29.4616 0.0000 0.0000
# 5 0.0000 0.0000 0.0000 0.0000 16.4423 0.0000
# 6 0.0000 0.0000 0.0000 0.0000 0.0000 34.1416
#
#
#
# Elastic Compliance Matrix: (Units=1/GPa)
#
#
# Indices 1 2 3 4 5 6 
#
# 1 0.012671 -0.000116 -0.008681 0.000000 0.000000 0.000000
# 2 -0.000116 0.009295 -0.004764 0.000000 0.000000 0.000000
# 3 -0.008681 -0.004764 0.040851 0.000000 0.000000 0.000000
# 4 0.000000 0.000000 0.000000 0.033943 0.000000 0.000000
# 5 0.000000 0.000000 0.000000 0.000000 0.060819 0.000000
# 6 0.000000 0.000000 0.000000 0.000000 0.000000 0.029290
#
#
# Mechanical properties :
#
#
# Convention : Reuss Voigt Hill
#
# Bulk Modulus (GPa) = 28.01500 37.71935 32.86718
# Shear Modulus (GPa) = 22.13503 28.74331 25.43917
#
# Velocity S-wave (km/s) = 3.24762 3.70079 3.48158
# Velocity P-wave (km/s) = 5.23560 6.01946 5.64116
#
# Compressibility (1/GPa) = 0.03569516
#
# Stress axis : x y z
#
# Youngs Moduli (GPa) = 78.92220 107.58730 24.47943
#
# Poissons Ratio (x) = 0.01246 0.21250
# Poissons Ratio (y) = 0.00914 0.11662
# Poissons Ratio (z) = 0.68510 0.51254
#
# Static dielectric constant tensor:
#      x y z
#    x 3.570860 0.000000 0.000000 
#    y 0.000000 3.994580 0.000000 
#    z 0.000000 0.000000 3.415040 
# 
# 
# High freq. dielectric constant tensor:
#      x y z
#    x 1.827490 0.000000 0.000000 
#    y 0.000000 1.838770 0.000000 
#    z 0.000000 0.000000 1.794410 
# 
# From -- ./inp_files/17771.got.cif
#   From: 2010.03.12/outbox.cif.g09.slc.cpg/sg57_9_cif.got.tgz:17771.got - 2010.04.16 15:48:40.
