data_PCOD8233250
_publ_section_title
;
Structure prediction by ZEFSAII (Michael W. Deem and Ramdas Pophale) SiO2 
 PCOD8233250
Probable space group: P B C M
;
_chemical_formula_sum "Si O2"
_cell_formula_units_Z 48
_cell_length_a 26.882228
_cell_length_b 9.713643
_cell_length_c 9.909737
_cell_angle_alpha 90.000000
_cell_angle_beta 90.000000
_cell_angle_gamma 90.000000
_cell_volume 2587.673790
_symmetry_space_group_name_H-M "P B C M"
_symmetry_group_IT_number 57
_symmetry_cell_setting 'orthorhombic'
loop_
_space_group_symop_operation_xyz
x,y,z
-x,-y,1/2+z
x,1/2-y,-z
-x,1/2+y,1/2-z
-x,-y,-z
x,y,1/2-z
-x,1/2+y,z
x,1/2-y,1/2+z
loop_
_atom_site_type_symbol
_atom_site_label
_atom_site_fract_x
_atom_site_fract_y
_atom_site_fract_z
Si Si1 0.025485 0.383177 0.910982
Si Si2 0.291448 0.889233 0.250000
Si Si3 0.779963 0.408640 0.491195
Si Si4 0.281643 0.570656 0.250000
Si Si5 0.614088 0.920793 0.750000
Si Si6 0.618578 0.896986 0.250000
Si Si7 0.141768 0.124027 0.404274
Si Si8 0.548666 0.591285 0.997775
O O1 0.008214 0.374877 0.750000
O O2 0.083955 0.411023 0.913784
O O3 0.012001 0.250000 0.000000
O O4 0.000000 0.500000 0.000000
O O5 0.260985 0.935055 0.379022
O O6 0.301867 0.726448 0.250000
O O7 0.342105 0.970962 0.250000
O O8 0.796176 0.250000 0.500000
O O9 0.754085 0.462604 0.625699
O O10 0.829849 0.490444 0.458050
O O11 0.329390 0.474443 0.250000
O O12 0.633263 0.763836 0.750000
O O13 0.580174 0.953152 0.875612
O O14 0.584835 0.940797 0.374594
O O15 0.156893 0.250000 0.500000
O O16 0.156662 0.159432 0.250000
O O17 0.531883 0.750000 0.000000
O O18 0.500000 0.500000 0.000000
#
# Coordination Sequence:
#
# PCOD8233250 Si02
#       8
#     8   4   8   4   4   4   8   8
#     4  10  21  39  61  89 122 160 203 253 305 363
#     4  10  20  37  57  78 110 145 188 232 280 336
#     4  10  21  38  57  82 115 152 191 239 290 341
#     4  10  22  35  55  84 110 145 190 232 280 344
#     4  10  21  35  55  78 104 143 177 222 279 328
#     4  10  21  37  53  78 110 137 179 228 275 338
#     4  10  22  39  60  87 120 155 198 246 294 350
#     4  10  21  36  54  78 106 137 176 221 273 333
#
# _framework density 18.549479999999999
#
# number of rings (size 3 to 8) (size 9 to 14) (size 15 to 20)
#    0.000    2.000    0.833    2.000    1.167    4.000 
#    0.000    0.000    0.000    0.000    0.000    0.000 
#    0.000    0.000    0.000    0.000    0.000    0.000 
#
# Total GULP energy -595058.753467 kJ/mol
# GULP energy per Si atom -12397.057364 kJ/mol
# Density = 1.850726 g / cm^3
# Si number density = 18.549480 Si / 1000 Ang^3
#
#
#
# Elastic Constant Matrix: (Units=GPa)
#
#
# Indices 1 2 3 4 5 6 
#
# 1 80.2835 71.1889 58.8609 0.0000 0.0000 0.0000
# 2 71.1889 105.1697 65.2350 0.0000 0.0000 0.0000
# 3 58.8609 65.2350 184.2049 0.0000 0.0000 0.0000
# 4 0.0000 0.0000 0.0000 37.8346 0.0000 0.0000
# 5 0.0000 0.0000 0.0000 0.0000 91.9907 0.0000
# 6 0.0000 0.0000 0.0000 0.0000 0.0000 42.6099
#
#
#
# Elastic Compliance Matrix: (Units=1/GPa)
#
#
# Indices 1 2 3 4 5 6 
#
# 1 0.032688 -0.020052 -0.003344 0.000000 0.000000 0.000000
# 2 -0.020052 0.024486 -0.002264 0.000000 0.000000 0.000000
# 3 -0.003344 -0.002264 0.007299 0.000000 0.000000 0.000000
# 4 0.000000 0.000000 0.000000 0.026431 0.000000 0.000000
# 5 0.000000 0.000000 0.000000 0.000000 0.010871 0.000000
# 6 0.000000 0.000000 0.000000 0.000000 0.000000 0.023469
#
#
# Mechanical properties :
#
#
# Convention : Reuss Voigt Hill
#
# Bulk Modulus (GPa) = 76.02877 84.46972 80.24925
# Shear Modulus (GPa) = 27.63216 46.11192 36.87204
#
# Velocity S-wave (km/s) = 3.86378 4.99128 4.46327
# Velocity P-wave (km/s) = 7.80904 8.87995 8.36165
#
# Compressibility (1/GPa) = 0.01315291
#
# Stress axis : x y z
#
# Youngs Moduli (GPa) = 30.59203 40.83932 137.00482
#
# Poissons Ratio (x) = 0.81893 0.45811
# Poissons Ratio (y) = 0.61344 0.31019
# Poissons Ratio (z) = 0.10229 0.09246
#
# Static dielectric constant tensor:
#      x y z
#    x 3.264570 0.000000 0.000000 
#    y 0.000000 2.536030 0.000000 
#    z 0.000000 0.000000 3.873070 
# 
# 
# High freq. dielectric constant tensor:
#      x y z
#    x 1.718910 0.000000 0.000000 
#    y 0.000000 1.718810 0.000000 
#    z 0.000000 0.000000 1.747560 
# 
# From -- ./inp_files/10201.got.cif
#   From: 2010.03.12/outbox.cif.g09.slc.cpg/sg57_6_cif.got.tgz:10201.got - 2010.04.16 15:48:40.
