data_PCOD8233722
_publ_section_title
;
Structure prediction by ZEFSAII (Michael W. Deem and Ramdas Pophale) SiO2 
 PCOD8233722
Probable space group: P B C M
;
_chemical_formula_sum "Si O2"
_cell_formula_units_Z 40
_cell_length_a 24.422497
_cell_length_b 5.177954
_cell_length_c 15.120731
_cell_angle_alpha 90.000000
_cell_angle_beta 90.000000
_cell_angle_gamma 90.000000
_cell_volume 1912.145960
_symmetry_space_group_name_H-M "P B C M"
_symmetry_group_IT_number 57
_symmetry_cell_setting 'orthorhombic'
loop_
_space_group_symop_operation_xyz
x,y,z
-x,-y,1/2+z
x,1/2-y,-z
-x,1/2+y,1/2-z
-x,-y,-z
x,y,1/2-z
-x,1/2+y,z
x,1/2-y,1/2+z
loop_
_atom_site_type_symbol
_atom_site_label
_atom_site_fract_x
_atom_site_fract_y
_atom_site_fract_z
Si Si1 0.305710 0.230391 0.250000
Si Si2 0.376898 0.730430 0.250000
Si Si3 0.025853 0.776277 0.350027
Si Si4 0.783287 0.742996 0.396395
Si Si5 0.535099 0.236296 0.101645
Si Si6 0.851764 0.256867 0.602651
O O1 0.353317 0.442056 0.250000
O O2 0.271248 0.270148 0.160705
O O3 0.329288 0.941953 0.250000
O O4 0.412055 0.771582 0.338163
O O5 0.003694 0.781384 0.250000
O O6 0.091224 0.769382 0.347518
O O7 0.998798 0.528958 0.398827
O O8 0.767317 0.750000 0.500000
O O9 0.812298 0.476554 0.369650
O O10 0.823570 0.975520 0.370472
O O11 0.492160 0.461990 0.123410
O O12 0.554436 0.250000 0.000000
O O13 0.865333 0.250000 0.500000
#
# Coordination Sequence:
#
# PCOD8233722 Si02
#       6
#     4   4   8   8   8   8
#     4  12  26  39  62  88 116 163 194 242 314 330
#     4  12  24  39  60  94 124 155 204 244 290 344
#     4  10  21  34  51  82 114 141 176 225 288 353
#     4  10  23  41  59  84 112 147 201 245 285 350
#     4  10  21  39  64  92 125 166 201 236 286 339
#     4  10  21  38  60  81 107 148 189 236 290 344
#
# _framework density 20.918907000000001
#
# number of rings (size 3 to 8) (size 9 to 14) (size 15 to 20)
#    0.000    1.600    0.000    4.200    2.800    2.400 
#    0.000    0.000    0.000    0.000    0.000    0.000 
#    0.000    0.000    0.000    0.000    0.000    0.000 
#
# Total GULP energy -496152.057939 kJ/mol
# GULP energy per Si atom -12403.801448 kJ/mol
# Density = 2.087129 g / cm^3
# Si number density = 20.918907 Si / 1000 Ang^3
#
#
#
# Elastic Constant Matrix: (Units=GPa)
#
#
# Indices 1 2 3 4 5 6 
#
# 1 93.6014 17.2838 49.1960 0.0000 0.0000 0.0000
# 2 17.2838 119.5581 28.4267 0.0000 0.0000 0.0000
# 3 49.1960 28.4267 76.8394 0.0000 0.0000 0.0000
# 4 0.0000 0.0000 0.0000 13.5314 0.0000 0.0000
# 5 0.0000 0.0000 0.0000 0.0000 86.3667 0.0000
# 6 0.0000 0.0000 0.0000 0.0000 0.0000 41.0023
#
#
#
# Elastic Compliance Matrix: (Units=1/GPa)
#
#
# Indices 1 2 3 4 5 6 
#
# 1 0.016104 0.000135 -0.010361 0.000000 0.000000 0.000000
# 2 0.000135 0.009172 -0.003480 0.000000 0.000000 0.000000
# 3 -0.010361 -0.003480 0.020935 0.000000 0.000000 0.000000
# 4 0.000000 0.000000 0.000000 0.073902 0.000000 0.000000
# 5 0.000000 0.000000 0.000000 0.000000 0.011579 0.000000
# 6 0.000000 0.000000 0.000000 0.000000 0.000000 0.024389
#
#
# Mechanical properties :
#
#
# Convention : Reuss Voigt Hill
#
# Bulk Modulus (GPa) = 53.18957 53.31243 53.25100
# Shear Modulus (GPa) = 26.34945 41.18623 33.76784
#
# Velocity S-wave (km/s) = 3.55293 4.44199 4.02210
# Velocity P-wave (km/s) = 6.50483 7.20062 6.86155
#
# Compressibility (1/GPa) = 0.01880068
#
# Stress axis : x y z
#
# Youngs Moduli (GPa) = 62.09624 109.02811 47.76735
#
# Poissons Ratio (x) = -0.01475 0.49490
# Poissons Ratio (y) = -0.00840 0.16622
# Poissons Ratio (z) = 0.64335 0.37940
#
# Static dielectric constant tensor:
#      x y z
#    x 3.508620 0.000000 0.000000 
#    y 0.000000 4.274460 0.000000 
#    z 0.000000 0.000000 3.862170 
# 
# 
# High freq. dielectric constant tensor:
#      x y z
#    x 1.810490 0.000000 0.000000 
#    y 0.000000 1.845800 0.000000 
#    z 0.000000 0.000000 1.820280 
# 
# From -- ./inp_files/19440.got.cif
#   From: 2010.03.12/outbox.cif.g09.slc.cpg/sg57_10_cif.got.tgz:19440.got - 2010.04.16 15:48:40.
