data_PCOD8233671
_publ_section_title
;
Structure prediction by ZEFSAII (Michael W. Deem and Ramdas Pophale) SiO2 
 PCOD8233671
Probable space group: P B C M
;
_chemical_formula_sum "Si O2"
_cell_formula_units_Z 40
_cell_length_a 8.425950
_cell_length_b 15.992088
_cell_length_c 14.147837
_cell_angle_alpha 90.000000
_cell_angle_beta 90.000000
_cell_angle_gamma 90.000000
_cell_volume 1906.400293
_symmetry_space_group_name_H-M "P B C M"
_symmetry_group_IT_number 57
_symmetry_cell_setting 'orthorhombic'
loop_
_space_group_symop_operation_xyz
x,y,z
-x,-y,1/2+z
x,1/2-y,-z
-x,1/2+y,1/2-z
-x,-y,-z
x,y,1/2-z
-x,1/2+y,z
x,1/2-y,1/2+z
loop_
_atom_site_type_symbol
_atom_site_label
_atom_site_fract_x
_atom_site_fract_y
_atom_site_fract_z
Si Si1 0.050520 0.655071 0.854779
Si Si2 0.828932 0.041338 0.503242
Si Si3 0.261890 0.702133 0.096369
Si Si4 0.736695 0.634533 0.524731
Si Si5 0.606081 0.766688 0.643975
O O1 0.995023 0.627138 0.750000
O O2 0.907819 0.656477 0.930122
O O3 0.182099 0.589176 0.895453
O O4 0.128926 0.746782 0.846019
O O5 0.800530 0.107794 0.419221
O O6 0.705439 0.964676 0.489263
O O7 0.000000 0.000000 0.500000
O O8 0.428194 0.697929 0.151518
O O9 0.296426 0.750000 0.000000
O O10 0.605953 0.673507 0.596605
O O11 0.720829 0.676323 0.421138
O O12 0.677890 0.763370 0.750000
#
# Coordination Sequence:
#
# PCOD8233671 Si02
#       5
#     8   8   8   8   8
#     4  10  21  39  66  96 125 168 219 263 319 384
#     4   9  21  38  66  90 125 167 207 268 327 364
#     4  10  20  40  65  88 127 167 208 262 321 379
#     4  10  22  41  62  93 130 169 210 270 323 378
#     4  11  23  40  62  90 127 173 215 254 321 393
#
# _framework density 20.981953000000001
#
# number of rings (size 3 to 8) (size 9 to 14) (size 15 to 20)
#    0.000    2.000    2.000    1.200   14.000    1.600 
#    0.000   10.000    0.000    0.000    0.000    0.000 
#    0.000    0.000    0.000    0.000    0.000    0.000 
#
# Total GULP energy -495600.964429 kJ/mol
# GULP energy per Si atom -12390.024111 kJ/mol
# Density = 2.093420 g / cm^3
# Si number density = 20.981953 Si / 1000 Ang^3
#
#
#
# Elastic Constant Matrix: (Units=GPa)
#
#
# Indices 1 2 3 4 5 6 
#
# 1 80.9731 47.0053 32.6931 0.0000 0.0000 0.0000
# 2 47.0053 165.4579 49.0056 0.0000 0.0000 0.0000
# 3 32.6931 49.0056 145.7950 0.0000 0.0000 0.0000
# 4 0.0000 0.0000 0.0000 15.6511 0.0000 0.0000
# 5 0.0000 0.0000 0.0000 0.0000 24.4101 0.0000
# 6 0.0000 0.0000 0.0000 0.0000 0.0000 30.5655
#
#
#
# Elastic Compliance Matrix: (Units=1/GPa)
#
#
# Indices 1 2 3 4 5 6 
#
# 1 0.015400 -0.003723 -0.002202 0.000000 0.000000 0.000000
# 2 -0.003723 0.007612 -0.001724 0.000000 0.000000 0.000000
# 3 -0.002202 -0.001724 0.007932 0.000000 0.000000 0.000000
# 4 0.000000 0.000000 0.000000 0.063893 0.000000 0.000000
# 5 0.000000 0.000000 0.000000 0.000000 0.040967 0.000000
# 6 0.000000 0.000000 0.000000 0.000000 0.000000 0.032717
#
#
# Mechanical properties :
#
#
# Convention : Reuss Voigt Hill
#
# Bulk Modulus (GPa) = 63.91022 72.18156 68.04589
# Shear Modulus (GPa) = 26.45036 31.69347 29.07192
#
# Velocity S-wave (km/s) = 3.55438 3.89075 3.72636
# Velocity P-wave (km/s) = 6.88263 7.39326 7.14251
#
# Compressibility (1/GPa) = 0.01564695
#
# Stress axis : x y z
#
# Youngs Moduli (GPa) = 64.93532 131.37124 126.06961
#
# Poissons Ratio (x) = 0.48907 0.27760
# Poissons Ratio (y) = 0.24174 0.21732
# Poissons Ratio (z) = 0.14298 0.22646
#
# Static dielectric constant tensor:
#      x y z
#    x 3.700920 0.000000 0.000000 
#    y 0.000000 4.701650 0.000000 
#    z 0.000000 0.000000 3.720490 
# 
# 
# High freq. dielectric constant tensor:
#      x y z
#    x 1.807210 0.000000 0.000000 
#    y 0.000000 1.822270 0.000000 
#    z 0.000000 0.000000 1.810590 
# 
# From -- ./inp_files/16125.got.cif
#   From: 2010.03.12/outbox.cif.g09.slc.cpg/sg57_9_cif.got.tgz:16125.got - 2010.04.16 15:48:40.
