data_PCOD8233051
_publ_section_title
;
Structure prediction by ZEFSAII (Michael W. Deem and Ramdas Pophale) SiO2 
 PCOD8233051
Probable space group: P B C M
;
_chemical_formula_sum "Si O2"
_cell_formula_units_Z 48
_cell_length_a 31.005493
_cell_length_b 9.072592
_cell_length_c 8.593709
_cell_angle_alpha 90.000000
_cell_angle_beta 90.000000
_cell_angle_gamma 90.000000
_cell_volume 2417.411955
_symmetry_space_group_name_H-M "P B C M"
_symmetry_group_IT_number 57
_symmetry_cell_setting 'orthorhombic'
loop_
_space_group_symop_operation_xyz
x,y,z
-x,-y,1/2+z
x,1/2-y,-z
-x,1/2+y,1/2-z
-x,-y,-z
x,y,1/2-z
-x,1/2+y,z
x,1/2-y,1/2+z
loop_
_atom_site_type_symbol
_atom_site_label
_atom_site_fract_x
_atom_site_fract_y
_atom_site_fract_z
Si Si1 0.871170 0.588168 0.934524
Si Si2 0.620460 0.413249 0.934095
Si Si3 0.540360 0.913079 0.565840
Si Si4 0.039872 0.087812 0.434305
Si Si5 0.212506 0.588076 0.066083
Si Si6 0.705504 0.588760 0.567189
O O1 0.875722 0.598240 0.750000
O O2 0.832573 0.482299 0.988184
O O3 0.861833 0.750000 0.000000
O O4 0.914949 0.519129 0.006348
O O5 0.612874 0.411148 0.750000
O O6 0.665674 0.486255 0.981111
O O7 0.619496 0.250000 0.000000
O O8 0.583762 0.507464 0.015326
O O9 0.540056 0.750000 0.500000
O O10 0.537278 0.907204 0.750000
O O11 0.500000 0.000000 0.500000
O O12 0.036221 0.250000 0.500000
O O13 0.038675 0.087896 0.250000
O O14 0.000000 0.000000 0.500000
O O15 0.215354 0.597431 0.250000
O O16 0.251156 0.486624 0.999977
O O17 0.217209 0.750000 0.000000
O O18 0.698966 0.750000 0.500000
O O19 0.708920 0.605354 0.750000
#
# Coordination Sequence:
#
# PCOD8233051 Si02
#       6
#     8   8   8   8   8   8
#     4  10  20  36  57  82 112 147 190 235 283 340
#     4  11  23  40  62  90 123 159 200 245 296 350
#     4  12  25  43  65  91 123 159 201 247 298 353
#     4  11  22  38  59  84 114 149 190 235 287 343
#     4  10  22  38  57  84 116 150 190 236 285 340
#     4  10  22  39  60  87 118 154 196 240 288 344
#
# _framework density 19.855945999999999
#
# number of rings (size 3 to 8) (size 9 to 14) (size 15 to 20)
#    0.000    1.333    0.000    7.000    0.000    5.333 
#    0.000    1.667    0.000    0.000    0.000    0.000 
#    0.000    0.000    0.000    0.000    0.000    0.000 
#
# Total GULP energy -595381.086218 kJ/mol
# GULP energy per Si atom -12403.772630 kJ/mol
# Density = 1.981075 g / cm^3
# Si number density = 19.855946 Si / 1000 Ang^3
#
#
#
# Elastic Constant Matrix: (Units=GPa)
#
#
# Indices 1 2 3 4 5 6 
#
# 1 174.2133 84.5277 74.8338 0.0000 0.0000 0.0000
# 2 84.5277 151.8807 56.7617 0.0000 0.0000 0.0000
# 3 74.8338 56.7617 119.3677 0.0000 0.0000 0.0000
# 4 0.0000 0.0000 0.0000 39.9439 0.0000 0.0000
# 5 0.0000 0.0000 0.0000 0.0000 32.1573 0.0000
# 6 0.0000 0.0000 0.0000 0.0000 0.0000 56.9710
#
#
#
# Elastic Compliance Matrix: (Units=1/GPa)
#
#
# Indices 1 2 3 4 5 6 
#
# 1 0.009249 -0.003625 -0.004075 0.000000 0.000000 0.000000
# 2 -0.003625 0.009428 -0.002211 0.000000 0.000000 0.000000
# 3 -0.004075 -0.002211 0.011983 0.000000 0.000000 0.000000
# 4 0.000000 0.000000 0.000000 0.025035 0.000000 0.000000
# 5 0.000000 0.000000 0.000000 0.000000 0.031097 0.000000
# 6 0.000000 0.000000 0.000000 0.000000 0.000000 0.017553
#
#
# Mechanical properties :
#
#
# Convention : Reuss Voigt Hill
#
# Bulk Modulus (GPa) = 92.25353 97.52311 94.88832
# Shear Modulus (GPa) = 39.13023 41.10367 40.11695
#
# Velocity S-wave (km/s) = 4.44408 4.55476 4.49976
# Velocity P-wave (km/s) = 8.53788 8.76830 8.65386
#
# Compressibility (1/GPa) = 0.01083969
#
# Stress axis : x y z
#
# Youngs Moduli (GPa) = 108.11845 106.07227 83.44956
#
# Poissons Ratio (x) = 0.38447 0.34005
# Poissons Ratio (y) = 0.39189 0.18448
# Poissons Ratio (z) = 0.44057 0.23449
#
# Static dielectric constant tensor:
#      x y z
#    x 4.613190 0.000000 0.000000 
#    y 0.000000 3.718370 0.000000 
#    z 0.000000 0.000000 3.725840 
# 
# 
# High freq. dielectric constant tensor:
#      x y z
#    x 1.798930 0.000000 0.000000 
#    y 0.000000 1.782260 0.000000 
#    z 0.000000 0.000000 1.783470 
# 
# From -- ./inp_files/10066.got.cif
#   From: 2010.03.12/outbox.cif.g09.slc.cpg/sg57_6_cif.got.tgz:10066.got - 2010.04.16 15:48:40.
