data_PCOD8233997
_publ_section_title
;
Structure prediction by ZEFSAII (Michael W. Deem and Ramdas Pophale) SiO2 
 PCOD8233997
Probable space group: P B C M
;
_chemical_formula_sum "Si O2"
_cell_formula_units_Z 56
_cell_length_a 5.621347
_cell_length_b 31.203869
_cell_length_c 14.035854
_cell_angle_alpha 90.000000
_cell_angle_beta 90.000000
_cell_angle_gamma 90.000000
_cell_volume 2461.997926
_symmetry_space_group_name_H-M "P B C M"
_symmetry_group_IT_number 57
_symmetry_cell_setting 'orthorhombic'
loop_
_space_group_symop_operation_xyz
x,y,z
-x,-y,1/2+z
x,1/2-y,-z
-x,1/2+y,1/2-z
-x,-y,-z
x,y,1/2-z
-x,1/2+y,z
x,1/2-y,1/2+z
loop_
_atom_site_type_symbol
_atom_site_label
_atom_site_fract_x
_atom_site_fract_y
_atom_site_fract_z
Si Si1 0.750100 0.299900 0.508730
Si Si2 0.005671 0.346254 0.354500
Si Si3 0.251482 0.020888 0.139498
Si Si4 0.381847 0.367074 0.001622
Si Si5 0.331343 0.578025 0.643806
Si Si6 0.248081 0.944052 0.640363
Si Si7 0.995276 0.359355 0.859884
O O1 0.700319 0.250000 0.500000
O O2 0.813191 0.315232 0.402692
O O3 0.526236 0.327396 0.542971
O O4 0.949411 0.313726 0.587538
O O5 0.054621 0.328216 0.250000
O O6 0.911103 0.394943 0.353902
O O7 0.246035 0.344263 0.412143
O O8 0.245203 0.034502 0.250000
O O9 0.996373 0.036124 0.094017
O O10 0.498441 0.040943 0.094314
O O11 0.261845 0.970367 0.123346
O O12 0.518891 0.406415 0.052037
O O13 0.213496 0.383245 0.914853
O O14 0.455868 0.582420 0.750000
O O15 0.251335 0.958566 0.750000
O O16 0.230128 0.892038 0.629466
O O17 0.061967 0.351616 0.750000
#
# Coordination Sequence:
#
# PCOD8233997 Si02
#       7
#     8   8   8   8   8   8   8
#     4  10  23  42  62  88 121 152 195 256 318 385
#     4   9  19  37  62  88 122 158 196 246 311 384
#     4   9  18  32  56  90 128 171 222 270 312 367
#     4  10  21  37  61  90 124 158 206 254 317 375
#     4   9  18  33  58  91 128 171 208 252 315 372
#     4   9  19  35  57  88 125 171 222 269 312 367
#     4  10  23  42  65  87 119 167 212 256 314 375
#
# _framework density 22.745754000000002
#
# number of rings (size 3 to 8) (size 9 to 14) (size 15 to 20)
#    0.000    2.571    0.000    0.429    4.000    4.000 
#    0.000    1.429    0.000    0.000    0.000    0.000 
#    0.000    0.000    0.000    0.000    0.000    0.000 
#
# Total GULP energy -693734.344926 kJ/mol
# GULP energy per Si atom -12388.113302 kJ/mol
# Density = 2.269398 g / cm^3
# Si number density = 22.745754 Si / 1000 Ang^3
#
#
#
# Elastic Constant Matrix: (Units=GPa)
#
#
# Indices 1 2 3 4 5 6 
#
# 1 110.5071 31.2870 12.8334 0.0000 0.0000 0.0000
# 2 31.2870 113.1755 23.3259 0.0000 0.0000 0.0000
# 3 12.8334 23.3259 115.4304 0.0000 0.0000 0.0000
# 4 0.0000 0.0000 0.0000 18.7510 0.0000 0.0000
# 5 0.0000 0.0000 0.0000 0.0000 19.4577 0.0000
# 6 0.0000 0.0000 0.0000 0.0000 0.0000 10.7730
#
#
#
# Elastic Compliance Matrix: (Units=1/GPa)
#
#
# Indices 1 2 3 4 5 6 
#
# 1 0.009853 -0.002607 -0.000569 0.000000 0.000000 0.000000
# 2 -0.002607 0.009909 -0.001713 0.000000 0.000000 0.000000
# 3 -0.000569 -0.001713 0.009073 0.000000 0.000000 0.000000
# 4 0.000000 0.000000 0.000000 0.053330 0.000000 0.000000
# 5 0.000000 0.000000 0.000000 0.000000 0.051394 0.000000
# 6 0.000000 0.000000 0.000000 0.000000 0.000000 0.092824
#
#
# Mechanical properties :
#
#
# Convention : Reuss Voigt Hill
#
# Bulk Modulus (GPa) = 52.46839 52.66728 52.56784
# Shear Modulus (GPa) = 20.61747 27.90745 24.26246
#
# Velocity S-wave (km/s) = 3.01397 3.50656 3.26955
# Velocity P-wave (km/s) = 5.93544 6.29282 6.11674
#
# Compressibility (1/GPa) = 0.01905909
#
# Stress axis : x y z
#
# Youngs Moduli (GPa) = 101.48933 100.91396 110.22255
#
# Poissons Ratio (x) = 0.26305 0.06269
# Poissons Ratio (y) = 0.26455 0.18877
# Poissons Ratio (z) = 0.05772 0.17283
#
# Static dielectric constant tensor:
#      x y z
#    x 4.307840 0.000000 0.000000 
#    y 0.000000 3.695630 0.000000 
#    z 0.000000 0.000000 4.197780 
# 
# 
# High freq. dielectric constant tensor:
#      x y z
#    x 1.898170 0.000000 0.000000 
#    y 0.000000 1.871720 0.000000 
#    z 0.000000 0.000000 1.897320 
# 
# From -- ./inp_files/15257.got.cif
#   From: 2010.03.12/outbox.cif.g09.slc.cpg/sg57_8_cif.got.tgz:15257.got - 2010.04.16 15:48:40.
