data_PCOD8233976
_publ_section_title
;
Structure prediction by ZEFSAII (Michael W. Deem and Ramdas Pophale) SiO2 
 PCOD8233976
Probable space group: P B C M
;
_chemical_formula_sum "Si O2"
_cell_formula_units_Z 48
_cell_length_a 9.030314
_cell_length_b 30.697318
_cell_length_c 8.710862
_cell_angle_alpha 90.000000
_cell_angle_beta 90.000000
_cell_angle_gamma 90.000000
_cell_volume 2414.706874
_symmetry_space_group_name_H-M "P B C M"
_symmetry_group_IT_number 57
_symmetry_cell_setting 'orthorhombic'
loop_
_space_group_symop_operation_xyz
x,y,z
-x,-y,1/2+z
x,1/2-y,-z
-x,1/2+y,1/2-z
-x,-y,-z
x,y,1/2-z
-x,1/2+y,z
x,1/2-y,1/2+z
loop_
_atom_site_type_symbol
_atom_site_label
_atom_site_fract_x
_atom_site_fract_y
_atom_site_fract_z
Si Si1 0.919954 0.795072 0.928868
Si Si2 0.417345 0.203738 0.432359
Si Si3 0.917021 0.126063 0.573316
Si Si4 0.572069 0.378199 0.428635
Si Si5 0.911072 0.539816 0.931488
Si Si6 0.587093 0.540328 0.431168
O O1 0.926050 0.788470 0.750000
O O2 0.752299 0.806089 0.980825
O O3 0.976404 0.750000 0.000000
O O4 0.030356 0.833132 0.975300
O O5 0.467497 0.250000 0.500000
O O6 0.439718 0.202952 0.250000
O O7 0.520818 0.168538 0.512492
O O8 0.948536 0.136815 0.750000
O O9 0.745757 0.117038 0.542480
O O10 0.006262 0.083800 0.519189
O O11 0.531503 0.383958 0.250000
O O12 0.492514 0.414912 0.527509
O O13 0.901776 0.534660 0.750000
O O14 0.749801 0.540961 0.001627
O O15 0.000000 0.500000 0.000000
O O16 0.500000 0.500000 0.500000
O O17 0.595374 0.534884 0.250000
#
# Coordination Sequence:
#
# PCOD8233976 Si02
#       6
#     8   8   8   8   8   8
#     4  10  21  37  60  86 115 151 195 243 294 351
#     4  10  21  38  60  88 118 155 200 247 299 357
#     4  10  23  40  59  85 119 156 196 240 292 351
#     4  11  23  40  61  88 121 158 199 246 298 357
#     4  11  23  41  65  92 123 160 200 247 299 356
#     4  12  25  42  64  91 122 158 201 249 301 360
#
# _framework density 19.878188000000002
#
# number of rings (size 3 to 8) (size 9 to 14) (size 15 to 20)
#    0.000    1.333    0.000    5.500    0.000    9.333 
#    0.000    0.000    0.000    0.000    0.000    0.000 
#    0.000    0.000    0.000    0.000    0.000    0.000 
#
# Total GULP energy -595510.144994 kJ/mol
# GULP energy per Si atom -12406.461354 kJ/mol
# Density = 1.983294 g / cm^3
# Si number density = 19.878188 Si / 1000 Ang^3
#
#
#
# Elastic Constant Matrix: (Units=GPa)
#
#
# Indices 1 2 3 4 5 6 
#
# 1 115.7063 69.1494 44.4049 0.0000 0.0000 0.0000
# 2 69.1494 148.6204 51.8298 0.0000 0.0000 0.0000
# 3 44.4049 51.8298 82.8520 0.0000 0.0000 0.0000
# 4 0.0000 0.0000 0.0000 41.6461 0.0000 0.0000
# 5 0.0000 0.0000 0.0000 0.0000 34.8423 0.0000
# 6 0.0000 0.0000 0.0000 0.0000 0.0000 37.6021
#
#
#
# Elastic Compliance Matrix: (Units=1/GPa)
#
#
# Indices 1 2 3 4 5 6 
#
# 1 0.012957 -0.004613 -0.004059 0.000000 0.000000 0.000000
# 2 -0.004613 0.010249 -0.003939 0.000000 0.000000 0.000000
# 3 -0.004059 -0.003939 0.016709 0.000000 0.000000 0.000000
# 4 0.000000 0.000000 0.000000 0.024012 0.000000 0.000000
# 5 0.000000 0.000000 0.000000 0.000000 0.028701 0.000000
# 6 0.000000 0.000000 0.000000 0.000000 0.000000 0.026594
#
#
# Mechanical properties :
#
#
# Convention : Reuss Voigt Hill
#
# Bulk Modulus (GPa) = 68.05698 75.32743 71.69220
# Shear Modulus (GPa) = 33.48061 34.93776 34.20918
#
# Velocity S-wave (km/s) = 4.10846 4.19691 4.15292
# Velocity P-wave (km/s) = 7.53772 7.83978 7.69024
#
# Compressibility (1/GPa) = 0.01469357
#
# Stress axis : x y z
#
# Youngs Moduli (GPa) = 77.17754 97.57455 59.84861
#
# Poissons Ratio (x) = 0.45014 0.24290
# Poissons Ratio (y) = 0.35604 0.23573
# Poissons Ratio (z) = 0.31323 0.38432
#
# Static dielectric constant tensor:
#      x y z
#    x 3.700710 0.000000 0.000000 
#    y 0.000000 3.807120 0.000000 
#    z 0.000000 0.000000 3.796440 
# 
# 
# High freq. dielectric constant tensor:
#      x y z
#    x 1.784140 0.000000 0.000000 
#    y 0.000000 1.792820 0.000000 
#    z 0.000000 0.000000 1.788550 
# 
# From -- ./inp_files/1965.got.cif
#   From: 2010.03.12/outbox.cif.g09.slc.cpg/sg57_1_cif.got.tgz:1965.got - 2010.04.16 15:48:40.
