data_PCOD8234739
_publ_section_title
;
Structure prediction by ZEFSAII (Michael W. Deem and Ramdas Pophale) SiO2 
 PCOD8234739
Probable space group: P B C M
;
_chemical_formula_sum "Si O2"
_cell_formula_units_Z 56
_cell_length_a 8.045492
_cell_length_b 21.054602
_cell_length_c 15.032040
_cell_angle_alpha 90.000000
_cell_angle_beta 90.000000
_cell_angle_gamma 90.000000
_cell_volume 2546.346883
_symmetry_space_group_name_H-M "P B C M"
_symmetry_group_IT_number 57
_symmetry_cell_setting 'orthorhombic'
loop_
_space_group_symop_operation_xyz
x,y,z
-x,-y,1/2+z
x,1/2-y,-z
-x,1/2+y,1/2-z
-x,-y,-z
x,y,1/2-z
-x,1/2+y,z
x,1/2-y,1/2+z
loop_
_atom_site_type_symbol
_atom_site_label
_atom_site_fract_x
_atom_site_fract_y
_atom_site_fract_z
Si Si1 0.666842 0.803542 0.572816
Si Si2 0.031298 0.627431 0.847379
Si Si3 0.791390 0.574544 0.510566
Si Si4 0.611249 0.015671 0.352383
Si Si5 0.670533 0.340116 0.851499
Si Si6 0.982890 0.264882 0.599558
Si Si7 0.772098 0.006193 0.849384
O O1 0.639084 0.750000 0.500000
O O2 0.666158 0.873097 0.527692
O O3 0.501023 0.801932 0.633001
O O4 0.836729 0.793084 0.632549
O O5 0.946199 0.614049 0.750000
O O6 0.076851 0.702067 0.847738
O O7 0.190760 0.581339 0.855023
O O8 0.926086 0.614091 0.934999
O O9 0.710350 0.528978 0.582286
O O10 0.867928 0.533964 0.426734
O O11 0.660014 0.001419 0.250000
O O12 0.651967 0.087128 0.379474
O O13 0.419606 0.002680 0.369798
O O14 0.719406 0.332849 0.750000
O O15 0.830929 0.313885 0.903247
O O16 0.030687 0.250000 0.500000
O O17 0.817862 0.980051 0.750000
#
# Coordination Sequence:
#
# PCOD8234739 Si02
#       7
#     8   8   8   8   8   8   8
#     4  11  24  45  67 103 131 178 236 281 341 415
#     4  11  24  43  66  98 135 174 228 282 342 418
#     4  12  22  42  70  94 135 178 221 280 351 395
#     4  10  23  42  64 102 139 171 226 282 343 418
#     4  11  25  44  69 100 138 182 228 283 344 409
#     4  11  24  45  69  99 140 180 232 287 342 411
#     4  10  23  41  66  98 133 176 226 280 343 414
#
# _framework density 21.992290000000001
#
# number of rings (size 3 to 8) (size 9 to 14) (size 15 to 20)
#    0.000    1.143    4.286    2.143    2.000    3.429 
#    0.000    2.857    0.000    0.000    0.000    0.000 
#    0.000    0.000    0.000    0.000    0.000    0.000 
#
# Total GULP energy -693953.313537 kJ/mol
# GULP energy per Si atom -12392.023456 kJ/mol
# Density = 2.194223 g / cm^3
# Si number density = 21.992290 Si / 1000 Ang^3
#
#
#
# Elastic Constant Matrix: (Units=GPa)
#
#
# Indices 1 2 3 4 5 6 
#
# 1 102.4995 39.4151 21.7431 0.0000 0.0000 0.0000
# 2 39.4151 127.5658 35.0710 0.0000 0.0000 0.0000
# 3 21.7431 35.0710 78.9413 0.0000 0.0000 0.0000
# 4 0.0000 0.0000 0.0000 27.3405 0.0000 0.0000
# 5 0.0000 0.0000 0.0000 0.0000 17.1450 0.0000
# 6 0.0000 0.0000 0.0000 0.0000 0.0000 38.2670
#
#
#
# Elastic Compliance Matrix: (Units=1/GPa)
#
#
# Indices 1 2 3 4 5 6 
#
# 1 0.011286 -0.002999 -0.001776 0.000000 0.000000 0.000000
# 2 -0.002999 0.009727 -0.003495 0.000000 0.000000 0.000000
# 3 -0.001776 -0.003495 0.014710 0.000000 0.000000 0.000000
# 4 0.000000 0.000000 0.000000 0.036576 0.000000 0.000000
# 5 0.000000 0.000000 0.000000 0.000000 0.058326 0.000000
# 6 0.000000 0.000000 0.000000 0.000000 0.000000 0.026132
#
#
# Mechanical properties :
#
#
# Convention : Reuss Voigt Hill
#
# Bulk Modulus (GPa) = 52.13298 55.71833 53.92566
# Shear Modulus (GPa) = 27.82557 30.73567 29.28062
#
# Velocity S-wave (km/s) = 3.56088 3.74246 3.65280
# Velocity P-wave (km/s) = 6.37676 6.63815 6.50877
#
# Compressibility (1/GPa) = 0.01918172
#
# Stress axis : x y z
#
# Youngs Moduli (GPa) = 88.60448 102.81107 67.98235
#
# Poissons Ratio (x) = 0.30831 0.12076
# Poissons Ratio (y) = 0.26571 0.23761
# Poissons Ratio (z) = 0.15739 0.35935
#
# Static dielectric constant tensor:
#      x y z
#    x 2.678290 0.000000 0.000000 
#    y 0.000000 1.536400 0.000000 
#    z 0.000000 0.000000 4.209430 
# 
# 
# High freq. dielectric constant tensor:
#      x y z
#    x 1.850860 0.000000 0.000000 
#    y 0.000000 1.877280 0.000000 
#    z 0.000000 0.000000 1.873900 
# 
# From -- ./inp_files/16696.got.cif
#   From: 2010.03.12/outbox.cif.g09.slc.cpg/sg57_9_cif.got.tgz:16696.got - 2010.04.16 15:48:40.
