data_PCOD8234132
_publ_section_title
;
Structure prediction by ZEFSAII (Michael W. Deem and Ramdas Pophale) SiO2 
 PCOD8234132
Probable space group: P B C M
;
_chemical_formula_sum "Si O2"
_cell_formula_units_Z 40
_cell_length_a 25.187920
_cell_length_b 9.207774
_cell_length_c 8.548358
_cell_angle_alpha 90.000000
_cell_angle_beta 90.000000
_cell_angle_gamma 90.000000
_cell_volume 1982.575150
_symmetry_space_group_name_H-M "P B C M"
_symmetry_group_IT_number 57
_symmetry_cell_setting 'orthorhombic'
loop_
_space_group_symop_operation_xyz
x,y,z
-x,-y,1/2+z
x,1/2-y,-z
-x,1/2+y,1/2-z
-x,-y,-z
x,y,1/2-z
-x,1/2+y,z
x,1/2-y,1/2+z
loop_
_atom_site_type_symbol
_atom_site_label
_atom_site_fract_x
_atom_site_fract_y
_atom_site_fract_z
Si Si1 0.358292 0.592570 0.434428
Si Si2 0.451535 0.090644 0.065353
Si Si3 0.951188 0.089293 0.433819
Si Si4 0.143794 0.089987 0.068338
Si Si5 0.245183 0.598401 0.568198
O O1 0.373690 0.750000 0.500000
O O2 0.366372 0.591363 0.250000
O O3 0.395594 0.473667 0.511828
O O4 0.298038 0.551287 0.477153
O O5 0.454445 0.093127 0.250000
O O6 0.457176 0.250000 0.000000
O O7 0.500000 0.000000 0.000000
O O8 0.952087 0.250000 0.500000
O O9 0.956779 0.098131 0.250000
O O10 0.896545 0.012573 0.477817
O O11 0.000000 0.000000 0.500000
O O12 0.128154 0.092868 0.250000
O O13 0.202496 0.027539 0.041908
O O14 0.141088 0.250000 0.000000
O O15 0.222834 0.750000 0.500000
O O16 0.258834 0.621096 0.750000
#
# Coordination Sequence:
#
# PCOD8234132 Si02
#       5
#     8   8   8   8   8
#     4  11  22  39  63  91 123 161 203 249 301 358
#     4  12  25  43  64  90 122 158 201 248 301 359
#     4  12  25  43  66  92 124 160 202 249 302 360
#     4  11  24  41  62  90 124 162 205 251 303 358
#     4  10  21  38  61  89 121 159 203 251 302 359
#
# _framework density 20.175781000000001
#
# number of rings (size 3 to 8) (size 9 to 14) (size 15 to 20)
#    0.000    0.800    0.000    9.600    0.000    5.600 
#    0.000    2.000    0.000    0.000    0.000    0.000 
#    0.000    0.000    0.000    0.000    0.000    0.000 
#
# Total GULP energy -496275.287555 kJ/mol
# GULP energy per Si atom -12406.882189 kJ/mol
# Density = 2.012986 g / cm^3
# Si number density = 20.175781 Si / 1000 Ang^3
#
#
#
# Elastic Constant Matrix: (Units=GPa)
#
#
# Indices 1 2 3 4 5 6 
#
# 1 102.9877 77.7190 58.2597 0.0000 0.0000 0.0000
# 2 77.7190 176.4313 77.6236 0.0000 0.0000 0.0000
# 3 58.2597 77.6236 197.9462 0.0000 0.0000 0.0000
# 4 0.0000 0.0000 0.0000 41.0983 0.0000 0.0000
# 5 0.0000 0.0000 0.0000 0.0000 39.0886 0.0000
# 6 0.0000 0.0000 0.0000 0.0000 0.0000 46.0142
#
#
#
# Elastic Compliance Matrix: (Units=1/GPa)
#
#
# Indices 1 2 3 4 5 6 
#
# 1 0.015334 -0.005763 -0.002253 0.000000 0.000000 0.000000
# 2 -0.005763 0.009016 -0.001839 0.000000 0.000000 0.000000
# 3 -0.002253 -0.001839 0.006436 0.000000 0.000000 0.000000
# 4 0.000000 0.000000 0.000000 0.024332 0.000000 0.000000
# 5 0.000000 0.000000 0.000000 0.000000 0.025583 0.000000
# 6 0.000000 0.000000 0.000000 0.000000 0.000000 0.021732
#
#
# Mechanical properties :
#
#
# Convention : Reuss Voigt Hill
#
# Bulk Modulus (GPa) = 90.29610 100.50775 95.40192
# Shear Modulus (GPa) = 39.73432 42.82440 41.27936
#
# Velocity S-wave (km/s) = 4.44261 4.61213 4.52816
# Velocity P-wave (km/s) = 8.43609 8.84796 8.64448
#
# Compressibility (1/GPa) = 0.01107468
#
# Stress axis : x y z
#
# Youngs Moduli (GPa) = 65.21604 110.91480 155.37040
#
# Poissons Ratio (x) = 0.63924 0.35004
# Poissons Ratio (y) = 0.37586 0.28577
# Poissons Ratio (z) = 0.14693 0.20400
#
# Static dielectric constant tensor:
#      x y z
#    x 3.814410 0.000000 0.000000 
#    y 0.000000 3.795030 0.000000 
#    z 0.000000 0.000000 3.920600 
# 
# 
# High freq. dielectric constant tensor:
#      x y z
#    x 1.803250 0.000000 0.000000 
#    y 0.000000 1.797450 0.000000 
#    z 0.000000 0.000000 1.813250 
# 
# From -- ./inp_files/8930.got.cif
#   From: 2010.03.12/outbox.cif.g09.slc.cpg/sg57_5_cif.got.tgz:8930.got - 2010.04.16 15:48:40.
