data_PCOD8234372
_publ_section_title
;
Structure prediction by ZEFSAII (Michael W. Deem and Ramdas Pophale) SiO2 
 PCOD8234372
Probable space group: P B C M
;
_chemical_formula_sum "Si O2"
_cell_formula_units_Z 28
_cell_length_a 7.691362
_cell_length_b 11.278335
_cell_length_c 13.968977
_cell_angle_alpha 90.000000
_cell_angle_beta 90.000000
_cell_angle_gamma 90.000000
_cell_volume 1211.749488
_symmetry_space_group_name_H-M "P B C M"
_symmetry_group_IT_number 57
_symmetry_cell_setting 'orthorhombic'
loop_
_space_group_symop_operation_xyz
x,y,z
-x,-y,1/2+z
x,1/2-y,-z
-x,1/2+y,1/2-z
-x,-y,-z
x,y,1/2-z
-x,1/2+y,z
x,1/2-y,1/2+z
loop_
_atom_site_type_symbol
_atom_site_label
_atom_site_fract_x
_atom_site_fract_y
_atom_site_fract_z
Si Si1 0.310086 0.690831 0.250000
Si Si2 0.986242 0.385443 0.250000
Si Si3 0.850145 0.941777 0.595012
Si Si4 0.694693 0.720097 0.250000
Si Si5 0.788159 0.128870 0.452071
O O1 0.150331 0.779690 0.250000
O O2 0.493874 0.760600 0.250000
O O3 0.292493 0.611318 0.154212
O O4 0.957826 0.462628 0.343571
O O5 0.181497 0.333813 0.250000
O O6 0.721844 0.860999 0.656318
O O7 0.001026 0.861052 0.549031
O O8 0.736910 0.013437 0.515878
O O9 0.716011 0.250000 0.500000
#
# Coordination Sequence:
#
# PCOD8234372 Si02
#       5
#     4   4   8   4   8
#     4  12  23  40  63  91 135 165 200 277 315 372
#     4  11  20  45  65  93 132 163 214 266 315 377
#     4  10  21  40  71  91 124 176 213 260 316 384
#     4  11  23  41  66  98 127 170 210 251 330 381
#     4  11  21  41  67  93 128 168 214 268 318 368
#
# _framework density 23.107085999999999
#
# number of rings (size 3 to 8) (size 9 to 14) (size 15 to 20)
#    0.000    1.143    5.714    0.857    0.000    1.143 
#   10.286    7.143    0.000    0.000    0.000    0.000 
#    0.000    0.000    0.000    0.000    0.000    0.000 
#
# Total GULP energy -347157.215408 kJ/mol
# GULP energy per Si atom -12398.471979 kJ/mol
# Density = 2.305449 g / cm^3
# Si number density = 23.107086 Si / 1000 Ang^3
#
#
#
# Elastic Constant Matrix: (Units=GPa)
#
#
# Indices 1 2 3 4 5 6 
#
# 1 69.8450 -2.6170 -2.2787 0.0000 0.0000 0.0000
# 2 -2.6170 50.2057 26.9344 0.0000 0.0000 0.0000
# 3 -2.2787 26.9344 141.7352 0.0000 0.0000 0.0000
# 4 0.0000 0.0000 0.0000 15.1467 0.0000 0.0000
# 5 0.0000 0.0000 0.0000 0.0000 20.2977 0.0000
# 6 0.0000 0.0000 0.0000 0.0000 0.0000 9.3551
#
#
#
# Elastic Compliance Matrix: (Units=1/GPa)
#
#
# Indices 1 2 3 4 5 6 
#
# 1 0.014347 0.000695 0.000099 0.000000 0.000000 0.000000
# 2 0.000695 0.022213 -0.004210 0.000000 0.000000 0.000000
# 3 0.000099 -0.004210 0.007857 0.000000 0.000000 0.000000
# 4 0.000000 0.000000 0.000000 0.066021 0.000000 0.000000
# 5 0.000000 0.000000 0.000000 0.000000 0.049267 0.000000
# 6 0.000000 0.000000 0.000000 0.000000 0.000000 0.106894
#
#
# Mechanical properties :
#
#
# Convention : Reuss Voigt Hill
#
# Bulk Modulus (GPa) = 26.60734 33.98482 30.29608
# Shear Modulus (GPa) = 17.48504 24.94303 21.21404
#
# Velocity S-wave (km/s) = 2.75380 3.28907 3.03326
# Velocity P-wave (km/s) = 4.65306 5.40032 5.04056
#
# Compressibility (1/GPa) = 0.03758361
#
# Stress axis : x y z
#
# Youngs Moduli (GPa) = 69.70254 45.01889 127.27434
#
# Poissons Ratio (x) = -0.03128 -0.01255
# Poissons Ratio (y) = -0.04844 0.53583
# Poissons Ratio (z) = -0.00687 0.18953
#
# Static dielectric constant tensor:
#      x y z
#    x 3.669620 0.000000 0.000000 
#    y 0.000000 4.078550 0.000000 
#    z 0.000000 0.000000 4.837540 
# 
# 
# High freq. dielectric constant tensor:
#      x y z
#    x 1.874320 0.000000 0.000000 
#    y 0.000000 1.901840 0.000000 
#    z 0.000000 0.000000 1.936130 
# 
# From -- ./inp_files/15470.got.cif
#   From: 2010.03.12/outbox.cif.g09.slc.cpg/sg57_8_cif.got.tgz:15470.got - 2010.04.16 15:48:40.
