data_PCOD8234385
_publ_section_title
;
Structure prediction by ZEFSAII (Michael W. Deem and Ramdas Pophale) SiO2 
 PCOD8234385
Probable space group: P B C M
;
_chemical_formula_sum "Si O2"
_cell_formula_units_Z 48
_cell_length_a 11.773107
_cell_length_b 11.780876
_cell_length_c 17.287371
_cell_angle_alpha 90.000000
_cell_angle_beta 90.000000
_cell_angle_gamma 90.000000
_cell_volume 2397.715376
_symmetry_space_group_name_H-M "P B C M"
_symmetry_group_IT_number 57
_symmetry_cell_setting 'orthorhombic'
loop_
_space_group_symop_operation_xyz
x,y,z
-x,-y,1/2+z
x,1/2-y,-z
-x,1/2+y,1/2-z
-x,-y,-z
x,y,1/2-z
-x,1/2+y,z
x,1/2-y,1/2+z
loop_
_atom_site_type_symbol
_atom_site_label
_atom_site_fract_x
_atom_site_fract_y
_atom_site_fract_z
Si Si1 0.269571 0.067191 0.598471
Si Si2 0.085542 0.212977 0.661867
Si Si3 0.778728 0.901533 0.577356
Si Si4 0.438516 0.257978 0.911595
Si Si5 0.332060 0.830620 0.661233
Si Si6 0.840205 0.369806 0.160301
O O1 0.174534 0.108708 0.659016
O O2 0.215704 0.094112 0.515003
O O3 0.385697 0.136826 0.612330
O O4 0.298501 0.935803 0.607363
O O5 0.076256 0.256912 0.750000
O O6 0.123587 0.317374 0.607934
O O7 0.964546 0.167820 0.632286
O O8 0.655119 0.855748 0.601853
O O9 0.796299 0.025212 0.611213
O O10 0.542953 0.285212 0.856605
O O11 0.480476 0.250000 0.000000
O O12 0.327031 0.869598 0.750000
O O13 0.243704 0.732693 0.642879
O O14 0.840783 0.404759 0.250000
#
# Coordination Sequence:
#
# PCOD8234385 Si02
#       6
#     8   8   8   8   8   8
#     4  10  23  42  63  92 124 160 205 255 310 367
#     4  10  21  41  65  87 124 166 203 254 308 364
#     4  10  22  42  64  92 122 161 209 253 306 370
#     4   9  22  41  64  87 122 162 204 252 310 364
#     4  11  25  40  60  93 126 160 207 255 307 367
#     4  10  24  40  60  91 125 163 209 256 306 363
#
# _framework density 20.019055999999999
#
# number of rings (size 3 to 8) (size 9 to 14) (size 15 to 20)
#    0.000    2.000    0.000    2.500    7.000    6.000 
#    3.000    0.000    0.000    0.000    0.000    0.000 
#    0.000    0.000    0.000    0.000    0.000    0.000 
#
# Total GULP energy -595403.565125 kJ/mol
# GULP energy per Si atom -12404.240940 kJ/mol
# Density = 1.997349 g / cm^3
# Si number density = 20.019056 Si / 1000 Ang^3
#
#
#
# Elastic Constant Matrix: (Units=GPa)
#
#
# Indices 1 2 3 4 5 6 
#
# 1 100.6758 49.2131 27.2003 0.0000 0.0000 0.0000
# 2 49.2131 123.3670 45.5797 0.0000 0.0000 0.0000
# 3 27.2003 45.5797 56.4625 0.0000 0.0000 0.0000
# 4 0.0000 0.0000 0.0000 35.9104 0.0000 0.0000
# 5 0.0000 0.0000 0.0000 0.0000 20.9106 0.0000
# 6 0.0000 0.0000 0.0000 0.0000 0.0000 21.2890
#
#
#
# Elastic Compliance Matrix: (Units=1/GPa)
#
#
# Indices 1 2 3 4 5 6 
#
# 1 0.012660 -0.003986 -0.002881 0.000000 0.000000 0.000000
# 2 -0.003986 0.012806 -0.008418 0.000000 0.000000 0.000000
# 3 -0.002881 -0.008418 0.025894 0.000000 0.000000 0.000000
# 4 0.000000 0.000000 0.000000 0.027847 0.000000 0.000000
# 5 0.000000 0.000000 0.000000 0.000000 0.047823 0.000000
# 6 0.000000 0.000000 0.000000 0.000000 0.000000 0.046973
#
#
# Mechanical properties :
#
#
# Convention : Reuss Voigt Hill
#
# Bulk Modulus (GPa) = 48.09856 58.27680 53.18768
# Shear Modulus (GPa) = 23.64059 26.18948 24.91504
#
# Velocity S-wave (km/s) = 3.44016 3.62087 3.53167
# Velocity P-wave (km/s) = 6.31333 6.83043 6.57696
#
# Compressibility (1/GPa) = 0.02079064
#
# Stress axis : x y z
#
# Youngs Moduli (GPa) = 78.99152 78.08974 38.61900
#
# Poissons Ratio (x) = 0.31123 0.11127
# Poissons Ratio (y) = 0.31483 0.32508
# Poissons Ratio (z) = 0.22759 0.65732
#
# Static dielectric constant tensor:
#      x y z
#    x 3.647670 0.000000 0.000000 
#    y 0.000000 3.636970 0.000000 
#    z 0.000000 0.000000 3.607410 
# 
# 
# High freq. dielectric constant tensor:
#      x y z
#    x 1.786800 0.000000 0.000000 
#    y 0.000000 1.787010 0.000000 
#    z 0.000000 0.000000 1.781380 
# 
# From -- ./inp_files/21791.got.cif
#   From: 2010.03.12/outbox.cif.g09.slc.cpg/sg57_11_cif.got.tgz:21791.got - 2010.04.16 15:48:40.
