data_PCOD8234274
_publ_section_title
;
Structure prediction by ZEFSAII (Michael W. Deem and Ramdas Pophale) SiO2 
 PCOD8234274
Probable space group: P B C M
;
_chemical_formula_sum "Si O2"
_cell_formula_units_Z 64
_cell_length_a 23.674037
_cell_length_b 15.068443
_cell_length_c 8.881584
_cell_angle_alpha 90.000000
_cell_angle_beta 90.000000
_cell_angle_gamma 90.000000
_cell_volume 3168.335250
_symmetry_space_group_name_H-M "P B C M"
_symmetry_group_IT_number 57
_symmetry_cell_setting 'orthorhombic'
loop_
_space_group_symop_operation_xyz
x,y,z
-x,-y,1/2+z
x,1/2-y,-z
-x,1/2+y,1/2-z
-x,-y,-z
x,y,1/2-z
-x,1/2+y,z
x,1/2-y,1/2+z
loop_
_atom_site_type_symbol
_atom_site_label
_atom_site_fract_x
_atom_site_fract_y
_atom_site_fract_z
Si Si1 0.502297 0.849222 0.928437
Si Si2 0.879729 0.615374 0.080865
Si Si3 0.420147 0.986373 0.073380
Si Si4 0.891322 0.087410 0.580180
Si Si5 0.231285 0.163989 0.925988
Si Si6 0.699497 0.005478 0.073971
Si Si7 0.215582 0.837436 0.925723
Si Si8 0.005041 0.657990 0.071222
O O1 0.496846 0.835747 0.750000
O O2 0.553737 0.916804 0.970240
O O3 0.509827 0.750000 0.000000
O O4 0.447432 0.901525 0.989034
O O5 0.873151 0.653355 0.250000
O O6 0.867969 0.511466 0.080047
O O7 0.941824 0.636279 0.016102
O O8 0.834092 0.660269 0.973906
O O9 0.427259 0.969502 0.250000
O O10 0.355384 0.987101 0.027432
O O11 0.899753 0.122616 0.750000
O O12 0.845853 0.147422 0.496222
O O13 0.951245 0.086190 0.493921
O O14 0.233824 0.173190 0.750000
O O15 0.266955 0.080648 0.981601
O O16 0.260082 0.250000 0.000000
O O17 0.683172 0.001130 0.250000
O O18 0.740197 0.086438 0.036883
O O19 0.206835 0.824795 0.750000
O O20 0.242084 0.750000 0.000000
O O21 0.008687 0.658474 0.250000
O O22 0.025144 0.750000 0.000000
#
# Coordination Sequence:
#
# PCOD8234274 Si02
#       8
#     8   8   8   8   8   8   8   8
#     4  10  21  39  64  95 131 170 211 254 303 358
#     4  10  22  39  60  85 112 147 193 244 302 365
#     4  10  22  39  63  94 128 168 210 256 307 356
#     4  11  22  38  60  85 112 147 191 243 302 364
#     4  11  23  40  62  88 119 159 202 250 305 362
#     4  10  23  42  62  87 124 165 206 253 304 358
#     4  11  23  41  62  87 117 156 202 248 305 363
#     4  11  23  38  55  80 112 146 188 240 298 365
#
# _framework density 20.199883
#
# number of rings (size 3 to 8) (size 9 to 14) (size 15 to 20)
#    0.000    1.500    1.250    3.375    0.000    7.000 
#    0.000    3.750    0.000    0.000    0.000    0.000 
#    0.000    0.000    0.000    0.000    0.000    0.000 
#
# Total GULP energy -793670.308428 kJ/mol
# GULP energy per Si atom -12401.098569 kJ/mol
# Density = 2.015391 g / cm^3
# Si number density = 20.199883 Si / 1000 Ang^3
#
#
#
# Elastic Constant Matrix: (Units=GPa)
#
#
# Indices 1 2 3 4 5 6 
#
# 1 103.9225 33.1789 45.8895 0.0000 0.0000 0.0000
# 2 33.1789 126.3533 48.8757 0.0000 0.0000 0.0000
# 3 45.8895 48.8757 95.0699 0.0000 0.0000 0.0000
# 4 0.0000 0.0000 0.0000 35.0662 0.0000 0.0000
# 5 0.0000 0.0000 0.0000 0.0000 36.7276 0.0000
# 6 0.0000 0.0000 0.0000 0.0000 0.0000 -123.0599
#
#
#
# Elastic Compliance Matrix: (Units=1/GPa)
#
#
# Indices 1 2 3 4 5 6 
#
# 1 0.012366 -0.001171 -0.005367 0.000000 0.000000 0.000000
# 2 -0.001171 0.009990 -0.004570 0.000000 0.000000 0.000000
# 3 -0.005367 -0.004570 0.015459 0.000000 0.000000 0.000000
# 4 0.000000 0.000000 0.000000 0.028517 0.000000 0.000000
# 5 0.000000 0.000000 0.000000 0.000000 0.027228 0.000000
# 6 0.000000 0.000000 0.000000 0.000000 0.000000 -0.008126
#
#
# Mechanical properties :
#
#
# Convention : Reuss Voigt Hill
#
# Bulk Modulus (GPa) = 64.11205 64.58154 64.34680
# Shear Modulus (GPa) = 44.30634 2.90687 23.60660
#
# Velocity S-wave (km/s) = 4.68845 1.20091 3.42226
# Velocity P-wave (km/s) = 7.81770 5.82783 6.89493
#
# Compressibility (1/GPa) = 0.01559769
#
# Stress axis : x y z
#
# Youngs Moduli (GPa) = 80.86404 100.10215 64.68765
#
# Poissons Ratio (x) = 0.11724 0.34718
# Poissons Ratio (y) = 0.09471 0.29565
# Poissons Ratio (z) = 0.43400 0.45751
#
# Static dielectric constant tensor:
#      x y z
#    x 3.568650 0.000000 0.000000 
#    y 0.000000 3.775600 0.000000 
#    z 0.000000 0.000000 3.686570 
# 
# 
# High freq. dielectric constant tensor:
#      x y z
#    x 1.782810 0.000000 0.000000 
#    y 0.000000 1.802420 0.000000 
#    z 0.000000 0.000000 1.795490 
# 
# From -- ./inp_files/9396.got.cif
#   From: 2010.03.12/outbox.cif.g09.slc.cpg/sg57_5_cif.got.tgz:9396.got - 2010.04.16 15:48:40.
