data_PCOD8234275
_publ_section_title
;
Structure prediction by ZEFSAII (Michael W. Deem and Ramdas Pophale) SiO2 
 PCOD8234275
Probable space group: P B C M
;
_chemical_formula_sum "Si O2"
_cell_formula_units_Z 56
_cell_length_a 32.747067
_cell_length_b 5.069369
_cell_length_c 15.559494
_cell_angle_alpha 90.000000
_cell_angle_beta 90.000000
_cell_angle_gamma 90.000000
_cell_volume 2582.984396
_symmetry_space_group_name_H-M "P B C M"
_symmetry_group_IT_number 57
_symmetry_cell_setting 'orthorhombic'
loop_
_space_group_symop_operation_xyz
x,y,z
-x,-y,1/2+z
x,1/2-y,-z
-x,1/2+y,1/2-z
-x,-y,-z
x,y,1/2-z
-x,1/2+y,z
x,1/2-y,1/2+z
loop_
_atom_site_type_symbol
_atom_site_label
_atom_site_fract_x
_atom_site_fract_y
_atom_site_fract_z
Si Si1 0.836834 0.197898 0.902642
Si Si2 0.526916 0.278175 0.902884
Si Si3 0.642166 0.718263 0.250000
Si Si4 0.296571 0.281533 0.595553
Si Si5 0.975798 0.756407 0.647618
Si Si6 0.411444 0.719096 0.250000
Si Si7 0.251912 0.713401 0.347511
Si Si8 0.884254 0.800797 0.149651
O O1 0.796095 0.226770 0.846936
O O2 0.870617 0.400750 0.868095
O O3 0.854291 0.903040 0.897006
O O4 0.824531 0.250000 0.000000
O O5 0.509184 0.569044 0.887377
O O6 0.562818 0.227616 0.835842
O O7 0.544324 0.250000 0.000000
O O8 0.667993 0.767420 0.164128
O O9 0.626232 0.419789 0.250000
O O10 0.604657 0.920912 0.250000
O O11 0.315090 0.250000 0.500000
O O12 0.277272 0.570182 0.600695
O O13 0.260286 0.071558 0.611048
O O14 0.974763 0.746362 0.750000
O O15 0.929835 0.732175 0.612016
O O16 0.003871 0.521351 0.611963
O O17 0.267694 0.718694 0.250000
O O18 0.883165 0.737664 0.250000
#
# Coordination Sequence:
#
# PCOD8234275 Si02
#       8
#     8   8   4   8   8   4   8   8
#     4  12  25  40  60  91 125 160 195 245 319 379
#     4  10  21  39  64  95 131 172 221 275 333 395
#     4  12  26  43  62  96 130 176 220 278 318 395
#     4  12  25  45  68  93 128 171 217 270 328 386
#     4   9  17  31  55  84 111 146 195 246 290 347
#     4  12  24  39  66  92 134 172 224 270 336 383
#     4  12  23  44  69  93 123 158 212 265 318 388
#     4  11  22  39  61  89 121 154 198 250 305 361
#
# _framework density 21.680347000000001
#
# number of rings (size 3 to 8) (size 9 to 14) (size 15 to 20)
#    0.000    0.857    1.429    6.857    0.000    3.429 
#    0.000    0.000    0.000    8.571    0.000    0.000 
#    0.000    0.000    0.000    0.000    0.000    0.000 
#
# Total GULP energy -694826.787405 kJ/mol
# GULP energy per Si atom -12407.621204 kJ/mol
# Density = 2.163100 g / cm^3
# Si number density = 21.680347 Si / 1000 Ang^3
#
#
#
# Elastic Constant Matrix: (Units=GPa)
#
#
# Indices 1 2 3 4 5 6 
#
# 1 92.0988 10.5689 37.2082 0.0000 0.0000 0.0000
# 2 10.5689 89.1485 13.9072 0.0000 0.0000 0.0000
# 3 37.2082 13.9072 121.8430 0.0000 0.0000 0.0000
# 4 0.0000 0.0000 0.0000 27.9502 0.0000 0.0000
# 5 0.0000 0.0000 0.0000 0.0000 3.6236 0.0000
# 6 0.0000 0.0000 0.0000 0.0000 0.0000 39.3085
#
#
#
# Elastic Compliance Matrix: (Units=1/GPa)
#
#
# Indices 1 2 3 4 5 6 
#
# 1 0.012456 -0.000899 -0.003701 0.000000 0.000000 0.000000
# 2 -0.000899 0.011486 -0.001036 0.000000 0.000000 0.000000
# 3 -0.003701 -0.001036 0.009456 0.000000 0.000000 0.000000
# 4 0.000000 0.000000 0.000000 0.035778 0.000000 0.000000
# 5 0.000000 0.000000 0.000000 0.000000 0.275970 0.000000
# 6 0.000000 0.000000 0.000000 0.000000 0.000000 0.025440
#
#
# Mechanical properties :
#
#
# Convention : Reuss Voigt Hill
#
# Bulk Modulus (GPa) = 45.19994 47.38433 46.29214
# Shear Modulus (GPa) = 12.84574 30.27019 21.55797
#
# Velocity S-wave (km/s) = 2.43679 3.74064 3.15676
# Velocity P-wave (km/s) = 5.36757 6.36866 5.88942
#
# Compressibility (1/GPa) = 0.02212392
#
# Stress axis : x y z
#
# Youngs Moduli (GPa) = 80.27981 87.06611 105.75461
#
# Poissons Ratio (x) = 0.07830 0.39143
# Poissons Ratio (y) = 0.07220 0.10960
# Poissons Ratio (z) = 0.29714 0.09023
#
# Static dielectric constant tensor:
#      x y z
#    x 3.762930 0.000000 0.000000 
#    y 0.000000 4.012450 0.000000 
#    z 0.000000 0.000000 3.911000 
# 
# 
# High freq. dielectric constant tensor:
#      x y z
#    x 1.845330 0.000000 0.000000 
#    y 0.000000 1.868250 0.000000 
#    z 0.000000 0.000000 1.853280 
# 
# From -- ./inp_files/19674.got.cif
#   From: 2010.03.12/outbox.cif.g09.slc.cpg/sg57_10_cif.got.tgz:19674.got - 2010.04.16 15:48:40.
