data_PCOD8234241
_publ_section_title
;
Structure prediction by ZEFSAII (Michael W. Deem and Ramdas Pophale) SiO2 
 PCOD8234241
Probable space group: P B C M
;
_chemical_formula_sum "Si O2"
_cell_formula_units_Z 48
_cell_length_a 29.987279
_cell_length_b 9.150332
_cell_length_c 8.660056
_cell_angle_alpha 90.000000
_cell_angle_beta 90.000000
_cell_angle_gamma 90.000000
_cell_volume 2376.263584
_symmetry_space_group_name_H-M "P B C M"
_symmetry_group_IT_number 57
_symmetry_cell_setting 'orthorhombic'
loop_
_space_group_symop_operation_xyz
x,y,z
-x,-y,1/2+z
x,1/2-y,-z
-x,1/2+y,1/2-z
-x,-y,-z
x,y,1/2-z
-x,1/2+y,z
x,1/2-y,1/2+z
loop_
_atom_site_type_symbol
_atom_site_label
_atom_site_fract_x
_atom_site_fract_y
_atom_site_fract_z
Si Si1 0.615233 0.095840 0.430277
Si Si2 0.540270 0.908638 0.932627
Si Si3 0.127658 0.591653 0.431731
Si Si4 0.959671 0.909970 0.069224
Si Si5 0.793104 0.908553 0.567574
Si Si6 0.718746 0.404993 0.930209
O O1 0.600222 0.250000 0.500000
O O2 0.604028 0.095550 0.250000
O O3 0.666985 0.065568 0.463155
O O4 0.587924 0.970648 0.515592
O O5 0.537329 0.905510 0.750000
O O6 0.535071 0.750000 0.000000
O O7 0.500000 0.000000 0.000000
O O8 0.117627 0.750000 0.500000
O O9 0.135814 0.603312 0.250000
O O10 0.086102 0.489732 0.473369
O O11 0.171095 0.525383 0.510574
O O12 0.967050 0.897539 0.250000
O O13 0.958206 0.750000 0.000000
O O14 0.000000 0.000000 0.000000
O O15 0.804041 0.750000 0.500000
O O16 0.794134 0.897295 0.750000
O O17 0.744806 0.963183 0.511774
O O18 0.729939 0.403350 0.750000
O O19 0.733913 0.250000 0.000000
#
# Coordination Sequence:
#
# PCOD8234241 Si02
#       6
#     8   8   8   8   8   8
#     4  10  21  39  63  91 122 158 199 244 296 353
#     4  12  25  42  63  88 120 157 199 246 297 354
#     4  11  24  42  64  91 122 159 202 248 300 357
#     4  11  24  41  64  92 125 162 202 249 300 357
#     4  12  25  41  62  88 121 159 201 250 302 357
#     4  10  21  39  63  90 122 159 200 245 295 354
#
# _framework density 20.199781000000002
#
# number of rings (size 3 to 8) (size 9 to 14) (size 15 to 20)
#    0.000    1.000    0.000    7.000    0.000    8.000 
#    0.000    0.000    0.000    0.000    0.000    0.000 
#    0.000    0.000    0.000    0.000    0.000    0.000 
#
# Total GULP energy -595569.451684 kJ/mol
# GULP energy per Si atom -12407.696910 kJ/mol
# Density = 2.015381 g / cm^3
# Si number density = 20.199781 Si / 1000 Ang^3
#
#
#
# Elastic Constant Matrix: (Units=GPa)
#
#
# Indices 1 2 3 4 5 6 
#
# 1 105.4554 66.7021 67.3292 0.0000 0.0000 0.0000
# 2 66.7021 165.8021 76.4117 0.0000 0.0000 0.0000
# 3 67.3292 76.4117 157.1878 0.0000 0.0000 0.0000
# 4 0.0000 0.0000 0.0000 43.7791 0.0000 0.0000
# 5 0.0000 0.0000 0.0000 0.0000 34.5129 0.0000
# 6 0.0000 0.0000 0.0000 0.0000 0.0000 12.4628
#
#
#
# Elastic Compliance Matrix: (Units=1/GPa)
#
#
# Indices 1 2 3 4 5 6 
#
# 1 0.014783 -0.003903 -0.004435 0.000000 0.000000 0.000000
# 2 -0.003903 0.008803 -0.002607 0.000000 0.000000 0.000000
# 3 -0.004435 -0.002607 0.009529 0.000000 0.000000 0.000000
# 4 0.000000 0.000000 0.000000 0.022842 0.000000 0.000000
# 5 0.000000 0.000000 0.000000 0.000000 0.028975 0.000000
# 6 0.000000 0.000000 0.000000 0.000000 0.000000 0.080239
#
#
# Mechanical properties :
#
#
# Convention : Reuss Voigt Hill
#
# Bulk Modulus (GPa) = 89.09327 94.37013 91.73170
# Shear Modulus (GPa) = 26.20509 32.68444 29.44476
#
# Velocity S-wave (km/s) = 3.60571 4.02687 3.82210
# Velocity P-wave (km/s) = 7.84453 8.27289 8.06156
#
# Compressibility (1/GPa) = 0.01122419
#
# Stress axis : x y z
#
# Youngs Moduli (GPa) = 67.64544 113.59347 104.94488
#
# Poissons Ratio (x) = 0.44341 0.46538
# Poissons Ratio (y) = 0.26405 0.27364
# Poissons Ratio (z) = 0.29998 0.29619
#
# Static dielectric constant tensor:
#      x y z
#    x 3.964770 0.000000 0.000000 
#    y 0.000000 3.787690 0.000000 
#    z 0.000000 0.000000 3.881070 
# 
# 
# High freq. dielectric constant tensor:
#      x y z
#    x 1.804300 0.000000 0.000000 
#    y 0.000000 1.800330 0.000000 
#    z 0.000000 0.000000 1.809760 
# 
# From -- ./inp_files/10059.got.cif
#   From: 2010.03.12/outbox.cif.g09.slc.cpg/sg57_6_cif.got.tgz:10059.got - 2010.04.16 15:48:40.
