data_PCOD8234935
_publ_section_title
;
Structure prediction by ZEFSAII (Michael W. Deem and Ramdas Pophale) SiO2 
 PCOD8234935
Probable space group: P B C M
;
_chemical_formula_sum "Si O2"
_cell_formula_units_Z 56
_cell_length_a 15.129636
_cell_length_b 20.799517
_cell_length_c 8.408359
_cell_angle_alpha 90.000000
_cell_angle_beta 90.000000
_cell_angle_gamma 90.000000
_cell_volume 2646.019104
_symmetry_space_group_name_H-M "P B C M"
_symmetry_group_IT_number 57
_symmetry_cell_setting 'orthorhombic'
loop_
_space_group_symop_operation_xyz
x,y,z
-x,-y,1/2+z
x,1/2-y,-z
-x,1/2+y,1/2-z
-x,-y,-z
x,y,1/2-z
-x,1/2+y,z
x,1/2-y,1/2+z
loop_
_atom_site_type_symbol
_atom_site_label
_atom_site_fract_x
_atom_site_fract_y
_atom_site_fract_z
Si Si1 0.948187 0.062209 0.563674
Si Si2 0.795577 0.611977 0.568901
Si Si3 0.454935 0.816242 0.437746
Si Si4 0.762643 0.484870 0.069982
Si Si5 0.578916 0.453413 0.935096
Si Si6 0.952948 0.682678 0.435623
Si Si7 0.647398 0.816058 0.934505
O O1 0.969059 0.066934 0.750000
O O2 0.841863 0.064776 0.532926
O O3 0.980170 0.125763 0.475360
O O4 0.000000 0.000000 0.500000
O O5 0.811070 0.592353 0.750000
O O6 0.815321 0.551367 0.457201
O O7 0.858692 0.670277 0.519205
O O8 0.693330 0.629120 0.538434
O O9 0.405867 0.750000 0.500000
O O10 0.471005 0.810367 0.250000
O O11 0.409084 0.884212 0.476937
O O12 0.544142 0.819997 0.537454
O O13 0.728437 0.478522 0.250000
O O14 0.676609 0.483196 0.956809
O O15 0.559190 0.442937 0.750000
O O16 0.500000 0.500000 0.000000
O O17 0.991511 0.750000 0.500000
O O18 0.937684 0.687666 0.250000
O O19 0.669565 0.825050 0.750000
O O20 0.686975 0.750000 0.000000
#
# Coordination Sequence:
#
# PCOD8234935 Si02
#       7
#     8   8   8   8   8   8   8
#     4  11  23  42  69  97 130 169 215 264 319 383
#     4  12  23  37  58  87 124 164 209 259 322 390
#     4  11  22  40  63  89 122 165 215 267 327 391
#     4  11  24  42  65  95 127 166 215 266 322 386
#     4  12  25  43  66  96 133 173 219 275 332 389
#     4  12  25  42  64  93 130 170 216 269 328 388
#     4  11  21  35  54  81 118 159 206 256 316 385
#
# _framework density 21.163868000000001
#
# number of rings (size 3 to 8) (size 9 to 14) (size 15 to 20)
#    0.000    0.571    1.429    9.429    0.000    1.714 
#    0.000    0.714    0.000    3.429    0.000    0.000 
#    0.000    0.000    0.000    0.000    0.000    0.000 
#
# Total GULP energy -694154.722148 kJ/mol
# GULP energy per Si atom -12395.620038 kJ/mol
# Density = 2.111570 g / cm^3
# Si number density = 21.163868 Si / 1000 Ang^3
#
#
#
# Elastic Constant Matrix: (Units=GPa)
#
#
# Indices 1 2 3 4 5 6 
#
# 1 82.8880 27.3361 32.0196 0.0000 0.0000 0.0000
# 2 27.3361 130.3721 28.8002 0.0000 0.0000 0.0000
# 3 32.0196 28.8002 102.1150 0.0000 0.0000 0.0000
# 4 0.0000 0.0000 0.0000 37.2490 0.0000 0.0000
# 5 0.0000 0.0000 0.0000 0.0000 32.7802 0.0000
# 6 0.0000 0.0000 0.0000 0.0000 0.0000 29.3127
#
#
#
# Elastic Compliance Matrix: (Units=1/GPa)
#
#
# Indices 1 2 3 4 5 6 
#
# 1 0.014264 -0.002136 -0.003870 0.000000 0.000000 0.000000
# 2 -0.002136 0.008500 -0.001728 0.000000 0.000000 0.000000
# 3 -0.003870 -0.001728 0.011494 0.000000 0.000000 0.000000
# 4 0.000000 0.000000 0.000000 0.026846 0.000000 0.000000
# 5 0.000000 0.000000 0.000000 0.000000 0.030506 0.000000
# 6 0.000000 0.000000 0.000000 0.000000 0.000000 0.034115
#
#
# Mechanical properties :
#
#
# Convention : Reuss Voigt Hill
#
# Bulk Modulus (GPa) = 53.21942 54.63187 53.92565
# Shear Modulus (GPa) = 33.90851 35.01634 34.46242
#
# Velocity S-wave (km/s) = 4.00708 4.07201 4.03967
# Velocity P-wave (km/s) = 6.82714 6.92662 6.87706
#
# Compressibility (1/GPa) = 0.01879013
#
# Stress axis : x y z
#
# Youngs Moduli (GPa) = 70.10683 117.64957 87.00430
#
# Poissons Ratio (x) = 0.25128 0.33673
# Poissons Ratio (y) = 0.14974 0.15030
# Poissons Ratio (z) = 0.27133 0.20324
#
# Static dielectric constant tensor:
#      x y z
#    x 3.660990 0.000000 0.000000 
#    y 0.000000 4.512060 0.000000 
#    z 0.000000 0.000000 3.749600 
# 
# 
# High freq. dielectric constant tensor:
#      x y z
#    x 1.814650 0.000000 0.000000 
#    y 0.000000 1.837930 0.000000 
#    z 0.000000 0.000000 1.844900 
# 
# From -- ./inp_files/5264.got.cif
#   From: 2010.03.12/outbox.cif.g09.slc.cpg/sg57_3_cif.got.tgz:5264.got - 2010.04.16 15:48:40.
