data_PCOD8234415
_publ_section_title
;
Structure prediction by ZEFSAII (Michael W. Deem and Ramdas Pophale) SiO2 
 PCOD8234415
Probable space group: P B C M
;
_chemical_formula_sum "Si O2"
_cell_formula_units_Z 40
_cell_length_a 14.103499
_cell_length_b 8.567023
_cell_length_c 15.540108
_cell_angle_alpha 90.000000
_cell_angle_beta 90.000000
_cell_angle_gamma 90.000000
_cell_volume 1877.633554
_symmetry_space_group_name_H-M "P B C M"
_symmetry_group_IT_number 57
_symmetry_cell_setting 'orthorhombic'
loop_
_space_group_symop_operation_xyz
x,y,z
-x,-y,1/2+z
x,1/2-y,-z
-x,1/2+y,1/2-z
-x,-y,-z
x,y,1/2-z
-x,1/2+y,z
x,1/2-y,1/2+z
loop_
_atom_site_type_symbol
_atom_site_label
_atom_site_fract_x
_atom_site_fract_y
_atom_site_fract_z
Si Si1 0.905827 0.552914 0.844578
Si Si2 0.931411 0.862039 0.918192
Si Si3 0.715259 0.414772 0.898485
Si Si4 0.577915 0.368886 0.750000
Si Si5 0.257376 0.558877 0.910678
Si Si6 0.376801 0.509205 0.750000
O O1 0.925918 0.484214 0.750000
O O2 0.925448 0.738752 0.840162
O O3 0.796854 0.532872 0.870343
O O4 0.972144 0.462465 0.913224
O O5 0.845489 0.983327 0.917932
O O6 0.928797 0.750000 0.000000
O O7 0.625042 0.440988 0.836392
O O8 0.756407 0.240187 0.886628
O O9 0.687293 0.452128 0.997645
O O10 0.466670 0.397415 0.750000
O O11 0.588169 0.184875 0.750000
O O12 0.316514 0.472474 0.836037
#
# Coordination Sequence:
#
# PCOD8234415 Si02
#       6
#     8   8   8   4   8   4
#     4  12  25  39  60  94 127 175 212 262 315 379
#     4  12  25  41  61  93 132 169 221 260 316 377
#     4  10  21  42  67  89 128 168 213 261 323 378
#     4  10  22  44  65  96 125 164 209 268 322 394
#     4  10  23  41  64  94 127 168 210 267 318 382
#     4  10  24  42  67  94 125 162 211 266 328 382
#
# _framework density 21.303414
#
# number of rings (size 3 to 8) (size 9 to 14) (size 15 to 20)
#    0.000    1.200    3.000    2.400    5.600    2.400 
#    0.000    0.000    0.000    0.000    0.000    0.000 
#    0.000    0.000    0.000    0.000    0.000    0.000 
#
# Total GULP energy -496034.013248 kJ/mol
# GULP energy per Si atom -12400.850331 kJ/mol
# Density = 2.125493 g / cm^3
# Si number density = 21.303414 Si / 1000 Ang^3
#
#
#
# Elastic Constant Matrix: (Units=GPa)
#
#
# Indices 1 2 3 4 5 6 
#
# 1 71.0820 7.5543 31.4434 0.0000 0.0000 0.0000
# 2 7.5543 48.2599 6.9981 0.0000 0.0000 0.0000
# 3 31.4434 6.9981 136.4110 0.0000 0.0000 0.0000
# 4 0.0000 0.0000 0.0000 26.1767 0.0000 0.0000
# 5 0.0000 0.0000 0.0000 0.0000 27.0313 0.0000
# 6 0.0000 0.0000 0.0000 0.0000 0.0000 36.2323
#
#
#
# Elastic Compliance Matrix: (Units=1/GPa)
#
#
# Indices 1 2 3 4 5 6 
#
# 1 0.015849 -0.001966 -0.003552 0.000000 0.000000 0.000000
# 2 -0.001966 0.021120 -0.000630 0.000000 0.000000 0.000000
# 3 -0.003552 -0.000630 0.008182 0.000000 0.000000 0.000000
# 4 0.000000 0.000000 0.000000 0.038202 0.000000 0.000000
# 5 0.000000 0.000000 0.000000 0.000000 0.036994 0.000000
# 6 0.000000 0.000000 0.000000 0.000000 0.000000 0.027600
#
#
# Mechanical properties :
#
#
# Convention : Reuss Voigt Hill
#
# Bulk Modulus (GPa) = 30.43780 38.63829 34.53804
# Shear Modulus (GPa) = 29.20652 31.87186 30.53919
#
# Velocity S-wave (km/s) = 3.70669 3.87213 3.79031
# Velocity P-wave (km/s) = 5.71298 6.17800 5.95004
#
# Compressibility (1/GPa) = 0.03285388
#
# Stress axis : x y z
#
# Youngs Moduli (GPa) = 63.09728 47.34798 122.22015
#
# Poissons Ratio (x) = 0.09307 0.43417
# Poissons Ratio (y) = 0.12403 0.07705
# Poissons Ratio (z) = 0.22414 0.02985
#
# Static dielectric constant tensor:
#      x y z
#    x 3.585740 0.000000 0.000000 
#    y 0.000000 4.067390 0.000000 
#    z 0.000000 0.000000 4.341110 
# 
# 
# High freq. dielectric constant tensor:
#      x y z
#    x 1.813690 0.000000 0.000000 
#    y 0.000000 1.834900 0.000000 
#    z 0.000000 0.000000 1.857650 
# 
# From -- ./inp_files/18270.got.cif
#   From: 2010.03.12/outbox.cif.g09.slc.cpg/sg57_10_cif.got.tgz:18270.got - 2010.04.16 15:48:40.
