data_PCOD8234237
_publ_section_title
;
Structure prediction by ZEFSAII (Michael W. Deem and Ramdas Pophale) SiO2 
 PCOD8234237
Probable space group: P B C M
;
_chemical_formula_sum "Si O2"
_cell_formula_units_Z 48
_cell_length_a 28.739378
_cell_length_b 8.674919
_cell_length_c 9.679818
_cell_angle_alpha 90.000000
_cell_angle_beta 90.000000
_cell_angle_gamma 90.000000
_cell_volume 2413.292619
_symmetry_space_group_name_H-M "P B C M"
_symmetry_group_IT_number 57
_symmetry_cell_setting 'orthorhombic'
loop_
_space_group_symop_operation_xyz
x,y,z
-x,-y,1/2+z
x,1/2-y,-z
-x,1/2+y,1/2-z
-x,-y,-z
x,y,1/2-z
-x,1/2+y,z
x,1/2-y,1/2+z
loop_
_atom_site_type_symbol
_atom_site_label
_atom_site_fract_x
_atom_site_fract_y
_atom_site_fract_z
Si Si1 0.599603 0.431277 0.982994
Si Si2 0.963629 0.597319 0.588168
Si Si3 0.208455 0.102438 0.910580
Si Si4 0.560961 0.566159 0.250000
Si Si5 0.125834 0.609191 0.095274
Si Si6 0.461541 0.426810 0.250000
Si Si7 0.686447 0.892915 0.093346
O O1 0.593533 0.525689 0.122408
O O2 0.593102 0.250000 0.000000
O O3 0.559845 0.493332 0.883150
O O4 0.651399 0.464613 0.926893
O O5 0.957487 0.750000 0.500000
O O6 0.979546 0.624331 0.750000
O O7 0.913826 0.517918 0.588027
O O8 0.000000 0.500000 0.500000
O O9 0.201026 0.144504 0.750000
O O10 0.261403 0.050398 0.942380
O O11 0.174656 0.963608 0.954870
O O12 0.194894 0.250000 0.000000
O O13 0.516400 0.454908 0.250000
O O14 0.547247 0.744699 0.250000
O O15 0.130991 0.673519 0.250000
O O16 0.111365 0.750000 0.000000
O O17 0.683725 0.833747 0.250000
O O18 0.670938 0.750000 0.000000
#
# Coordination Sequence:
#
# PCOD8234237 Si02
#       7
#     8   8   8   4   8   4   8
#     4  12  25  41  62  92 123 158 197 245 298 354
#     4  11  23  39  60  88 120 160 204 255 310 370
#     4   9  19  37  60  87 117 153 196 244 295 354
#     4  12  26  42  68  90 120 160 198 244 293 358
#     4  10  22  38  58  85 120 159 202 251 304 359
#     4  12  24  46  64  90 122 156 200 244 297 352
#     4  10  21  39  63  89 120 157 198 245 298 358
#
# _framework density 19.889838000000001
#
# number of rings (size 3 to 8) (size 9 to 14) (size 15 to 20)
#    0.000    1.333    0.833    5.000    1.167    4.000 
#    0.000    0.000    0.000    0.000    0.000    0.000 
#    0.000    0.000    0.000    0.000    0.000    0.000 
#
# Total GULP energy -595280.339944 kJ/mol
# GULP energy per Si atom -12401.673749 kJ/mol
# Density = 1.984457 g / cm^3
# Si number density = 19.889838 Si / 1000 Ang^3
#
#
#
# Elastic Constant Matrix: (Units=GPa)
#
#
# Indices 1 2 3 4 5 6 
#
# 1 89.8405 27.2666 30.6248 0.0000 0.0000 0.0000
# 2 27.2666 120.5306 45.8262 0.0000 0.0000 0.0000
# 3 30.6248 45.8262 119.3368 0.0000 0.0000 0.0000
# 4 0.0000 0.0000 0.0000 36.2026 0.0000 0.0000
# 5 0.0000 0.0000 0.0000 0.0000 30.9575 0.0000
# 6 0.0000 0.0000 0.0000 0.0000 0.0000 31.0848
#
#
#
# Elastic Compliance Matrix: (Units=1/GPa)
#
#
# Indices 1 2 3 4 5 6 
#
# 1 0.012556 -0.001891 -0.002496 0.000000 0.000000 0.000000
# 2 -0.001891 0.010000 -0.003355 0.000000 0.000000 0.000000
# 3 -0.002496 -0.003355 0.010308 0.000000 0.000000 0.000000
# 4 0.000000 0.000000 0.000000 0.027622 0.000000 0.000000
# 5 0.000000 0.000000 0.000000 0.000000 0.032302 0.000000
# 6 0.000000 0.000000 0.000000 0.000000 0.000000 0.032170
#
#
# Mechanical properties :
#
#
# Convention : Reuss Voigt Hill
#
# Bulk Modulus (GPa) = 57.53676 59.68258 58.60967
# Shear Modulus (GPa) = 34.19132 34.71500 34.45316
#
# Velocity S-wave (km/s) = 4.15062 4.18229 4.16648
# Velocity P-wave (km/s) = 7.20838 7.30710 7.25791
#
# Compressibility (1/GPa) = 0.01738019
#
# Stress axis : x y z
#
# Youngs Moduli (GPa) = 79.64542 100.00007 97.00887
#
# Poissons Ratio (x) = 0.18915 0.24211
# Poissons Ratio (y) = 0.15065 0.32543
# Poissons Ratio (z) = 0.19878 0.33547
#
# Static dielectric constant tensor:
#      x y z
#    x 3.789670 0.000000 0.000000 
#    y 0.000000 3.726440 0.000000 
#    z 0.000000 0.000000 3.812130 
# 
# 
# High freq. dielectric constant tensor:
#      x y z
#    x 1.790890 0.000000 0.000000 
#    y 0.000000 1.767390 0.000000 
#    z 0.000000 0.000000 1.791690 
# 
# From -- ./inp_files/10104.got.cif
#   From: 2010.03.12/outbox.cif.g09.slc.cpg/sg57_6_cif.got.tgz:10104.got - 2010.04.16 15:48:40.
