data_PCOD8234832
_publ_section_title
;
Structure prediction by ZEFSAII (Michael W. Deem and Ramdas Pophale) SiO2 
 PCOD8234832
Probable space group: P B C M
;
_chemical_formula_sum "Si O2"
_cell_formula_units_Z 64
_cell_length_a 15.287827
_cell_length_b 11.880159
_cell_length_c 16.597769
_cell_angle_alpha 90.000000
_cell_angle_beta 90.000000
_cell_angle_gamma 90.000000
_cell_volume 3014.516939
_symmetry_space_group_name_H-M "P B C M"
_symmetry_group_IT_number 57
_symmetry_cell_setting 'orthorhombic'
loop_
_space_group_symop_operation_xyz
x,y,z
-x,-y,1/2+z
x,1/2-y,-z
-x,1/2+y,1/2-z
-x,-y,-z
x,y,1/2-z
-x,1/2+y,z
x,1/2-y,1/2+z
loop_
_atom_site_type_symbol
_atom_site_label
_atom_site_fract_x
_atom_site_fract_y
_atom_site_fract_z
Si Si1 0.734496 0.077488 0.079301
Si Si2 0.323389 0.951044 0.099725
Si Si3 0.892915 0.261776 0.594320
Si Si4 0.422316 0.732856 0.094102
Si Si5 0.086662 0.298817 0.589677
Si Si6 0.757909 0.838573 0.342546
Si Si7 0.605909 0.832063 0.656536
Si Si8 0.146205 0.519939 0.660921
O O1 0.814412 0.152042 0.115155
O O2 0.642402 0.127587 0.111001
O O3 0.748950 0.950528 0.105628
O O4 0.728941 0.079272 0.982350
O O5 0.378105 0.844624 0.129174
O O6 0.251077 0.981034 0.166170
O O7 0.386552 0.059757 0.097245
O O8 0.893567 0.250000 0.500000
O O9 0.883851 0.143211 0.637207
O O10 0.987818 0.304039 0.623283
O O11 0.510840 0.719172 0.142989
O O12 0.442500 0.750000 0.000000
O O13 0.092711 0.250000 0.500000
O O14 0.148564 0.220939 0.644596
O O15 0.116603 0.428664 0.594392
O O16 0.748563 0.872596 0.250000
O O17 0.680032 0.756386 0.369871
O O18 0.616100 0.865493 0.750000
O O19 0.110299 0.488580 0.750000
#
# Coordination Sequence:
#
# PCOD8234832 Si02
#       8
#     8   8   8   8   8   8   8   8
#     4  11  23  44  71  97 133 174 225 282 335 403
#     4  11  22  44  71  94 128 177 225 275 331 401
#     4  11  24  45  70 100 136 173 227 278 339 405
#     4  10  24  42  68  99 127 168 221 279 327 398
#     4  11  26  43  71  99 133 180 228 277 339 408
#     4  11  26  44  61  95 139 177 218 278 343 404
#     4  11  26  43  64  96 135 176 221 273 339 407
#     4  12  24  43  70  98 134 180 228 280 335 402
#
# _framework density 21.230598000000001
#
# number of rings (size 3 to 8) (size 9 to 14) (size 15 to 20)
#    0.000    1.000    3.750    1.875    5.250    5.000 
#    0.000    0.000    0.000    0.000    0.000    0.000 
#    0.000    0.000    0.000    0.000    0.000    0.000 
#
# Total GULP energy -793598.322113 kJ/mol
# GULP energy per Si atom -12399.973783 kJ/mol
# Density = 2.118228 g / cm^3
# Si number density = 21.230598 Si / 1000 Ang^3
#
#
#
# Elastic Constant Matrix: (Units=GPa)
#
#
# Indices 1 2 3 4 5 6 
#
# 1 140.1894 51.3978 26.9843 0.0000 0.0000 0.0000
# 2 51.3978 144.0040 32.3973 0.0000 0.0000 0.0000
# 3 26.9843 32.3973 56.8400 0.0000 0.0000 0.0000
# 4 0.0000 0.0000 0.0000 20.4126 0.0000 0.0000
# 5 0.0000 0.0000 0.0000 0.0000 25.7170 0.0000
# 6 0.0000 0.0000 0.0000 0.0000 0.0000 29.6471
#
#
#
# Elastic Compliance Matrix: (Units=1/GPa)
#
#
# Indices 1 2 3 4 5 6 
#
# 1 0.008544 -0.002451 -0.002659 0.000000 0.000000 0.000000
# 2 -0.002451 0.008669 -0.003777 0.000000 0.000000 0.000000
# 3 -0.002659 -0.003777 0.021009 0.000000 0.000000 0.000000
# 4 0.000000 0.000000 0.000000 0.048989 0.000000 0.000000
# 5 0.000000 0.000000 0.000000 0.000000 0.038885 0.000000
# 6 0.000000 0.000000 0.000000 0.000000 0.000000 0.033730
#
#
# Mechanical properties :
#
#
# Convention : Reuss Voigt Hill
#
# Bulk Modulus (GPa) = 48.90892 62.51024 55.70958
# Shear Modulus (GPa) = 27.11262 30.50559 28.80911
#
# Velocity S-wave (km/s) = 3.57747 3.79472 3.68769
# Velocity P-wave (km/s) = 6.33651 6.97906 6.66553
#
# Compressibility (1/GPa) = 0.02044617
#
# Stress axis : x y z
#
# Youngs Moduli (GPa) = 117.04529 115.35414 47.59967
#
# Poissons Ratio (x) = 0.28276 0.12656
# Poissons Ratio (y) = 0.28690 0.17980
# Poissons Ratio (z) = 0.31121 0.43574
#
# Static dielectric constant tensor:
#      x y z
#    x 4.185540 0.000000 0.000000 
#    y 0.000000 3.787420 0.000000 
#    z 0.000000 0.000000 3.658470 
# 
# 
# High freq. dielectric constant tensor:
#      x y z
#    x 1.845550 0.000000 0.000000 
#    y 0.000000 1.845180 0.000000 
#    z 0.000000 0.000000 1.817080 
# 
# From -- ./inp_files/22637.got.cif
#   From: 2010.03.12/outbox.cif.g09.slc.cpg/sg57_12_cif.got.tgz:22637.got - 2010.04.16 15:48:40.
