data_PCOD8234204
_publ_section_title
;
Structure prediction by ZEFSAII (Michael W. Deem and Ramdas Pophale) SiO2 
 PCOD8234204
Probable space group: P B C M
;
_chemical_formula_sum "Si O2"
_cell_formula_units_Z 48
_cell_length_a 9.999184
_cell_length_b 28.737443
_cell_length_c 8.552224
_cell_angle_alpha 90.000000
_cell_angle_beta 90.000000
_cell_angle_gamma 90.000000
_cell_volume 2457.489950
_symmetry_space_group_name_H-M "P B C M"
_symmetry_group_IT_number 57
_symmetry_cell_setting 'orthorhombic'
loop_
_space_group_symop_operation_xyz
x,y,z
-x,-y,1/2+z
x,1/2-y,-z
-x,1/2+y,1/2-z
-x,-y,-z
x,y,1/2-z
-x,1/2+y,z
x,1/2-y,1/2+z
loop_
_atom_site_type_symbol
_atom_site_label
_atom_site_fract_x
_atom_site_fract_y
_atom_site_fract_z
Si Si1 0.493630 0.801761 0.435575
Si Si2 0.633259 0.478411 0.934905
Si Si3 0.988960 0.868927 0.064355
Si Si4 0.226147 0.300992 0.564893
Si Si5 0.286161 0.624209 0.064065
Si Si6 0.887505 0.532204 0.565909
O O1 0.468130 0.750000 0.500000
O O2 0.492052 0.800141 0.250000
O O3 0.636499 0.821931 0.493668
O O4 0.378451 0.835472 0.496004
O O5 0.628042 0.478035 0.750000
O O6 0.659642 0.425899 0.995486
O O7 0.747442 0.513041 0.998807
O O8 0.500000 0.500000 0.000000
O O9 0.993201 0.863556 0.250000
O O10 0.913048 0.915521 0.009403
O O11 0.904833 0.827989 0.988247
O O12 0.137825 0.867802 0.998717
O O13 0.205929 0.250000 0.500000
O O14 0.239197 0.300678 0.750000
O O15 0.285039 0.626914 0.250000
O O16 0.891764 0.528774 0.750000
O O17 0.000000 0.500000 0.500000
#
# Coordination Sequence:
#
# PCOD8234204 Si02
#       6
#     8   8   8   8   8   8
#     4  11  23  42  66  92 123 159 201 250 305 366
#     4  10  23  40  59  88 123 161 204 251 301 359
#     4  11  23  39  62  93 124 162 206 252 305 363
#     4  11  23  42  66  93 124 159 201 250 304 364
#     4  11  23  41  62  90 125 162 206 254 305 363
#     4  10  21  39  61  87 121 161 202 247 300 357
#
# _framework density 19.532124
#
# number of rings (size 3 to 8) (size 9 to 14) (size 15 to 20)
#    0.000    1.333    1.667    5.000    2.333    3.333 
#    0.000    3.333    0.000    0.000    0.000    0.000 
#    0.000    0.000    0.000    0.000    0.000    0.000 
#
# Total GULP energy -595277.365956 kJ/mol
# GULP energy per Si atom -12401.611791 kJ/mol
# Density = 1.948767 g / cm^3
# Si number density = 19.532124 Si / 1000 Ang^3
#
#
#
# Elastic Constant Matrix: (Units=GPa)
#
#
# Indices 1 2 3 4 5 6 
#
# 1 196.7332 95.4203 56.8871 0.0000 0.0000 0.0000
# 2 95.4203 114.8105 48.5739 0.0000 0.0000 0.0000
# 3 56.8871 48.5739 104.7263 0.0000 0.0000 0.0000
# 4 0.0000 0.0000 0.0000 27.5081 0.0000 0.0000
# 5 0.0000 0.0000 0.0000 0.0000 38.1182 0.0000
# 6 0.0000 0.0000 0.0000 0.0000 0.0000 48.4813
#
#
#
# Elastic Compliance Matrix: (Units=1/GPa)
#
#
# Indices 1 2 3 4 5 6 
#
# 1 0.008758 -0.006551 -0.001718 0.000000 0.000000 0.000000
# 2 -0.006551 0.015738 -0.003741 0.000000 0.000000 0.000000
# 3 -0.001718 -0.003741 0.012217 0.000000 0.000000 0.000000
# 4 0.000000 0.000000 0.000000 0.036353 0.000000 0.000000
# 5 0.000000 0.000000 0.000000 0.000000 0.026234 0.000000
# 6 0.000000 0.000000 0.000000 0.000000 0.000000 0.020626
#
#
# Mechanical properties :
#
#
# Convention : Reuss Voigt Hill
#
# Bulk Modulus (GPa) = 78.79444 90.89252 84.84348
# Shear Modulus (GPa) = 33.74340 37.18079 35.46209
#
# Velocity S-wave (km/s) = 4.16093 4.36773 4.26558
# Velocity P-wave (km/s) = 7.96950 8.48952 8.23362
#
# Compressibility (1/GPa) = 0.01269125
#
# Stress axis : x y z
#
# Youngs Moduli (GPa) = 114.18738 63.54211 81.85258
#
# Poissons Ratio (x) = 0.41629 0.14065
# Poissons Ratio (y) = 0.74810 0.30618
# Poissons Ratio (z) = 0.19622 0.23769
#
# Static dielectric constant tensor:
#      x y z
#    x 3.929550 0.000000 0.000000 
#    y 0.000000 3.989880 0.000000 
#    z 0.000000 0.000000 3.643010 
# 
# 
# High freq. dielectric constant tensor:
#      x y z
#    x 1.776730 0.000000 0.000000 
#    y 0.000000 1.770740 0.000000 
#    z 0.000000 0.000000 1.769720 
# 
# From -- ./inp_files/2062.got.cif
#   From: 2010.03.12/outbox.cif.g09.slc.cpg/sg57_2_cif.got.tgz:2062.got - 2010.04.16 15:48:40.
