data_PCOD8234337
_publ_section_title
;
Structure prediction by ZEFSAII (Michael W. Deem and Ramdas Pophale) SiO2 
 PCOD8234337
Probable space group: P B C M
;
_chemical_formula_sum "Si O2"
_cell_formula_units_Z 56
_cell_length_a 15.299411
_cell_length_b 20.986088
_cell_length_c 8.413644
_cell_angle_alpha 90.000000
_cell_angle_beta 90.000000
_cell_angle_gamma 90.000000
_cell_volume 2701.408943
_symmetry_space_group_name_H-M "P B C M"
_symmetry_group_IT_number 57
_symmetry_cell_setting 'orthorhombic'
loop_
_space_group_symop_operation_xyz
x,y,z
-x,-y,1/2+z
x,1/2-y,-z
-x,1/2+y,1/2-z
-x,-y,-z
x,y,1/2-z
-x,1/2+y,z
x,1/2-y,1/2+z
loop_
_atom_site_type_symbol
_atom_site_label
_atom_site_fract_x
_atom_site_fract_y
_atom_site_fract_z
Si Si1 0.944160 0.059532 0.561852
Si Si2 0.790576 0.608952 0.568651
Si Si3 0.457413 0.815638 0.438050
Si Si4 0.760400 0.482221 0.068772
Si Si5 0.576866 0.452526 0.935524
Si Si6 0.957709 0.681779 0.565191
Si Si7 0.647736 0.815128 0.934309
O O1 0.953145 0.056645 0.750000
O O2 0.840686 0.063149 0.514847
O O3 0.983542 0.125135 0.491545
O O4 0.000000 0.000000 0.500000
O O5 0.803655 0.586681 0.750000
O O6 0.807064 0.550533 0.450916
O O7 0.856773 0.665914 0.524262
O O8 0.691195 0.630027 0.538877
O O9 0.408298 0.750000 0.500000
O O10 0.472787 0.810284 0.250000
O O11 0.413450 0.883467 0.478086
O O12 0.545539 0.817850 0.538237
O O13 0.731667 0.469898 0.250000
O O14 0.673717 0.481063 0.959788
O O15 0.557852 0.442931 0.750000
O O16 0.500000 0.500000 0.000000
O O17 0.985514 0.750000 0.500000
O O18 0.974408 0.684516 0.750000
O O19 0.670046 0.824159 0.750000
O O20 0.688052 0.750000 0.000000
#
# Coordination Sequence:
#
# PCOD8234337 Si02
#       7
#     8   8   8   8   8   8   8
#     4  10  21  40  64  90 121 160 206 255 305 366
#     4  11  21  35  55  82 119 157 200 250 308 375
#     4  11  22  40  63  88 119 160 209 259 318 379
#     4  11  23  39  62  91 121 159 207 258 316 376
#     4  12  25  43  65  93 129 167 212 266 323 379
#     4  10  22  38  58  87 122 160 203 253 309 366
#     4  11  21  34  52  79 115 155 201 246 304 371
#
# _framework density 20.729924
#
# number of rings (size 3 to 8) (size 9 to 14) (size 15 to 20)
#    0.000    1.143    1.429    6.857    0.000    3.429 
#    0.000    0.714    0.000    1.714    0.000    0.000 
#    0.000    0.000    0.000    0.000    0.000    0.000 
#
# Total GULP energy -693915.794103 kJ/mol
# GULP energy per Si atom -12391.353466 kJ/mol
# Density = 2.068274 g / cm^3
# Si number density = 20.729924 Si / 1000 Ang^3
#
#
#
# Elastic Constant Matrix: (Units=GPa)
#
#
# Indices 1 2 3 4 5 6 
#
# 1 95.9754 40.2245 29.2806 0.0000 0.0000 0.0000
# 2 40.2245 145.2847 26.9109 0.0000 0.0000 0.0000
# 3 29.2806 26.9109 73.3104 0.0000 0.0000 0.0000
# 4 0.0000 0.0000 0.0000 35.6300 0.0000 0.0000
# 5 0.0000 0.0000 0.0000 0.0000 23.7252 0.0000
# 6 0.0000 0.0000 0.0000 0.0000 0.0000 39.1006
#
#
#
# Elastic Compliance Matrix: (Units=1/GPa)
#
#
# Indices 1 2 3 4 5 6 
#
# 1 0.012843 -0.002796 -0.004103 0.000000 0.000000 0.000000
# 2 -0.002796 0.007994 -0.001818 0.000000 0.000000 0.000000
# 3 -0.004103 -0.001818 0.015947 0.000000 0.000000 0.000000
# 4 0.000000 0.000000 0.000000 0.028066 0.000000 0.000000
# 5 0.000000 0.000000 0.000000 0.000000 0.042149 0.000000
# 6 0.000000 0.000000 0.000000 0.000000 0.000000 0.025575
#
#
# Mechanical properties :
#
#
# Convention : Reuss Voigt Hill
#
# Bulk Modulus (GPa) = 51.67968 56.37805 54.02886
# Shear Modulus (GPa) = 31.95756 34.23479 33.09617
#
# Velocity S-wave (km/s) = 3.93060 4.06823 4.00001
# Velocity P-wave (km/s) = 6.75156 7.02302 6.88863
#
# Compressibility (1/GPa) = 0.01934997
#
# Stress axis : x y z
#
# Youngs Moduli (GPa) = 77.86400 125.09725 62.70873
#
# Poissons Ratio (x) = 0.34974 0.25731
# Poissons Ratio (y) = 0.21769 0.11399
# Poissons Ratio (z) = 0.31950 0.22739
#
# Static dielectric constant tensor:
#      x y z
#    x 3.714600 0.000000 0.000000 
#    y 0.000000 4.440120 0.000000 
#    z 0.000000 0.000000 3.616210 
# 
# 
# High freq. dielectric constant tensor:
#      x y z
#    x 1.798180 0.000000 0.000000 
#    y 0.000000 1.819360 0.000000 
#    z 0.000000 0.000000 1.811780 
# 
# From -- ./inp_files/5265.got.cif
#   From: 2010.03.12/outbox.cif.g09.slc.cpg/sg57_3_cif.got.tgz:5265.got - 2010.04.16 15:48:40.
