data_PCOD8234138
_publ_section_title
;
Structure prediction by ZEFSAII (Michael W. Deem and Ramdas Pophale) SiO2 
 PCOD8234138
Probable space group: P B C M
;
_chemical_formula_sum "Si O2"
_cell_formula_units_Z 56
_cell_length_a 11.456158
_cell_length_b 14.749384
_cell_length_c 14.914538
_cell_angle_alpha 90.000000
_cell_angle_beta 90.000000
_cell_angle_gamma 90.000000
_cell_volume 2520.128480
_symmetry_space_group_name_H-M "P B C M"
_symmetry_group_IT_number 57
_symmetry_cell_setting 'orthorhombic'
loop_
_space_group_symop_operation_xyz
x,y,z
-x,-y,1/2+z
x,1/2-y,-z
-x,1/2+y,1/2-z
-x,-y,-z
x,y,1/2-z
-x,1/2+y,z
x,1/2-y,1/2+z
loop_
_atom_site_type_symbol
_atom_site_label
_atom_site_fract_x
_atom_site_fract_y
_atom_site_fract_z
Si Si1 0.569418 0.999593 0.090291
Si Si2 0.939076 0.831055 0.353593
Si Si3 0.828591 0.341422 0.448856
Si Si4 0.177559 0.471039 0.479727
Si Si5 0.597130 0.355198 0.150161
Si Si6 0.786069 0.653187 0.356171
Si Si7 0.476639 0.317638 0.646575
O O1 0.699102 0.966192 0.071541
O O2 0.499356 0.933955 0.156978
O O3 0.565455 0.099613 0.132001
O O4 0.500000 0.000000 0.000000
O O5 0.924783 0.856882 0.250000
O O6 0.906163 0.916689 0.413720
O O7 0.861602 0.742887 0.376970
O O8 0.074154 0.811980 0.376486
O O9 0.795438 0.250000 0.500000
O O10 0.868176 0.424741 0.513369
O O11 0.711942 0.383323 0.404314
O O12 0.170775 0.428159 0.580040
O O13 0.639101 0.330994 0.250000
O O14 0.536336 0.269643 0.100886
O O15 0.794507 0.626153 0.250000
O O16 0.653686 0.668133 0.390320
O O17 0.461673 0.294852 0.750000
#
# Coordination Sequence:
#
# PCOD8234138 Si02
#       7
#     8   8   8   8   8   8   8
#     4  12  22  38  61  98 131 166 210 264 325 394
#     4  11  26  46  68  95 129 169 221 275 331 390
#     4  12  25  44  66  93 131 171 225 276 328 391
#     4  12  24  42  69  98 130 172 219 269 331 393
#     4  11  24  40  63  91 130 176 215 264 329 392
#     4  10  21  41  68  98 129 166 213 274 332 393
#     4  10  21  38  61  92 128 167 211 261 323 391
#
# _framework density 22.221091000000001
#
# number of rings (size 3 to 8) (size 9 to 14) (size 15 to 20)
#    0.000    0.857    2.857    4.286    0.000    4.571 
#    0.000    2.857    0.000    0.000    0.000    0.000 
#    0.000    0.000    0.000    0.000    0.000    0.000 
#
# Total GULP energy -694342.550814 kJ/mol
# GULP energy per Si atom -12398.974122 kJ/mol
# Density = 2.217051 g / cm^3
# Si number density = 22.221091 Si / 1000 Ang^3
#
#
#
# Elastic Constant Matrix: (Units=GPa)
#
#
# Indices 1 2 3 4 5 6 
#
# 1 93.9489 20.9930 29.3286 0.0000 0.0000 0.0000
# 2 20.9930 136.8057 31.7037 0.0000 0.0000 0.0000
# 3 29.3286 31.7037 75.3166 0.0000 0.0000 0.0000
# 4 0.0000 0.0000 0.0000 32.4211 0.0000 0.0000
# 5 0.0000 0.0000 0.0000 0.0000 28.6876 0.0000
# 6 0.0000 0.0000 0.0000 0.0000 0.0000 28.8049
#
#
#
# Elastic Compliance Matrix: (Units=1/GPa)
#
#
# Indices 1 2 3 4 5 6 
#
# 1 0.012207 -0.000855 -0.004393 0.000000 0.000000 0.000000
# 2 -0.000855 0.008160 -0.003102 0.000000 0.000000 0.000000
# 3 -0.004393 -0.003102 0.016294 0.000000 0.000000 0.000000
# 4 0.000000 0.000000 0.000000 0.030844 0.000000 0.000000
# 5 0.000000 0.000000 0.000000 0.000000 0.034858 0.000000
# 6 0.000000 0.000000 0.000000 0.000000 0.000000 0.034716
#
#
# Mechanical properties :
#
#
# Convention : Reuss Voigt Hill
#
# Bulk Modulus (GPa) = 50.10098 52.23576 51.16837
# Shear Modulus (GPa) = 31.16578 32.91912 32.04245
#
# Velocity S-wave (km/s) = 3.74910 3.85312 3.80147
# Velocity P-wave (km/s) = 6.42935 6.58435 6.50731
#
# Compressibility (1/GPa) = 0.01995969
#
# Stress axis : x y z
#
# Youngs Moduli (GPa) = 81.92256 122.55429 61.37313
#
# Poissons Ratio (x) = 0.10478 0.26964
# Poissons Ratio (y) = 0.07004 0.19037
# Poissons Ratio (z) = 0.35992 0.38014
#
# Static dielectric constant tensor:
#      x y z
#    x 4.826790 0.000000 0.000000 
#    y 0.000000 5.025430 0.000000 
#    z 0.000000 0.000000 3.326880 
# 
# 
# High freq. dielectric constant tensor:
#      x y z
#    x 1.879700 0.000000 0.000000 
#    y 0.000000 1.883630 0.000000 
#    z 0.000000 0.000000 1.870180 
# 
# From -- ./inp_files/17719.got.cif
#   From: 2010.03.12/outbox.cif.g09.slc.cpg/sg57_9_cif.got.tgz:17719.got - 2010.04.16 15:48:40.
