data_PCOD8234689
_publ_section_title
;
Structure prediction by ZEFSAII (Michael W. Deem and Ramdas Pophale) SiO2 
 PCOD8234689
Probable space group: P B C M
;
_chemical_formula_sum "Si O2"
_cell_formula_units_Z 40
_cell_length_a 7.735556
_cell_length_b 11.127659
_cell_length_c 20.519111
_cell_angle_alpha 90.000000
_cell_angle_beta 90.000000
_cell_angle_gamma 90.000000
_cell_volume 1766.256950
_symmetry_space_group_name_H-M "P B C M"
_symmetry_group_IT_number 57
_symmetry_cell_setting 'orthorhombic'
loop_
_space_group_symop_operation_xyz
x,y,z
-x,-y,1/2+z
x,1/2-y,-z
-x,1/2+y,1/2-z
-x,-y,-z
x,y,1/2-z
-x,1/2+y,z
x,1/2-y,1/2+z
loop_
_atom_site_type_symbol
_atom_site_label
_atom_site_fract_x
_atom_site_fract_y
_atom_site_fract_z
Si Si1 0.389878 0.856079 0.321977
Si Si2 0.240034 0.878169 0.635665
Si Si3 0.426913 0.451178 0.567416
Si Si4 0.086390 0.299506 0.931748
Si Si5 0.223123 0.358561 0.179394
O O1 0.364514 0.917192 0.250000
O O2 0.251994 0.746663 0.324646
O O3 0.584504 0.804110 0.327216
O O4 0.360761 0.949397 0.380777
O O5 0.413199 0.874205 0.592983
O O6 0.065489 0.885709 0.593242
O O7 0.236865 0.996774 0.679681
O O8 0.500000 0.500000 0.500000
O O9 0.263405 0.368072 0.553959
O O10 0.109176 0.192603 0.879224
O O11 0.018383 0.250000 0.000000
O O12 0.144830 0.320838 0.250000
#
# Coordination Sequence:
#
# PCOD8234689 Si02
#       5
#     8   8   8   8   8
#     4  10  22  44  72 100 135 182 231 286 350 411
#     4  11  25  44  71  99 136 183 227 287 345 409
#     4  11  26  45  72  99 137 183 235 289 347 407
#     4  12  27  44  69 103 142 183 233 285 343 414
#     4  10  23  45  70 102 138 177 232 285 340 417
#
# _framework density 22.646763
#
# number of rings (size 3 to 8) (size 9 to 14) (size 15 to 20)
#    0.000    1.200    2.000    3.000    5.600    4.800 
#    0.000    0.000    0.000    0.000    0.000    0.000 
#    0.000    0.000    0.000    0.000    0.000    0.000 
#
# Total GULP energy -495827.647678 kJ/mol
# GULP energy per Si atom -12395.691192 kJ/mol
# Density = 2.259522 g / cm^3
# Si number density = 22.646763 Si / 1000 Ang^3
#
#
#
# Elastic Constant Matrix: (Units=GPa)
#
#
# Indices 1 2 3 4 5 6 
#
# 1 107.9505 25.5357 22.1796 0.0000 0.0000 0.0000
# 2 25.5357 85.8162 43.5901 0.0000 0.0000 0.0000
# 3 22.1796 43.5901 162.8836 0.0000 0.0000 0.0000
# 4 0.0000 0.0000 0.0000 27.7439 0.0000 0.0000
# 5 0.0000 0.0000 0.0000 0.0000 15.5307 0.0000
# 6 0.0000 0.0000 0.0000 0.0000 0.0000 18.5297
#
#
#
# Elastic Compliance Matrix: (Units=1/GPa)
#
#
# Indices 1 2 3 4 5 6 
#
# 1 0.010025 -0.002650 -0.000656 0.000000 0.000000 0.000000
# 2 -0.002650 0.014186 -0.003436 0.000000 0.000000 0.000000
# 3 -0.000656 -0.003436 0.007148 0.000000 0.000000 0.000000
# 4 0.000000 0.000000 0.000000 0.036044 0.000000 0.000000
# 5 0.000000 0.000000 0.000000 0.000000 0.064389 0.000000
# 6 0.000000 0.000000 0.000000 0.000000 0.000000 0.053967
#
#
# Mechanical properties :
#
#
# Convention : Reuss Voigt Hill
#
# Bulk Modulus (GPa) = 55.93901 59.91791 57.92846
# Shear Modulus (GPa) = 24.36628 30.05053 27.20840
#
# Velocity S-wave (km/s) = 3.28369 3.64665 3.46992
# Velocity P-wave (km/s) = 6.25549 6.65175 6.45666
#
# Compressibility (1/GPa) = 0.01787661
#
# Stress axis : x y z
#
# Youngs Moduli (GPa) = 99.74951 70.48971 139.89712
#
# Poissons Ratio (x) = 0.18679 0.09177
# Poissons Ratio (y) = 0.26433 0.48064
# Poissons Ratio (z) = 0.06543 0.24218
#
# Static dielectric constant tensor:
#      x y z
#    x 4.064840 0.000000 0.000000 
#    y 0.000000 3.785260 0.000000 
#    z 0.000000 0.000000 4.206720 
# 
# 
# High freq. dielectric constant tensor:
#      x y z
#    x 1.895670 0.000000 0.000000 
#    y 0.000000 1.878350 0.000000 
#    z 0.000000 0.000000 1.906470 
# 
# From -- ./inp_files/20533.got.cif
#   From: 2010.03.12/outbox.cif.g09.slc.cpg/sg57_11_cif.got.tgz:20533.got - 2010.04.16 15:48:40.
