data_PCOD8234239
_publ_section_title
;
Structure prediction by ZEFSAII (Michael W. Deem and Ramdas Pophale) SiO2 
 PCOD8234239
Probable space group: P B C M
;
_chemical_formula_sum "Si O2"
_cell_formula_units_Z 40
_cell_length_a 14.505503
_cell_length_b 8.305359
_cell_length_c 15.845981
_cell_angle_alpha 90.000000
_cell_angle_beta 90.000000
_cell_angle_gamma 90.000000
_cell_volume 1909.019364
_symmetry_space_group_name_H-M "P B C M"
_symmetry_group_IT_number 57
_symmetry_cell_setting 'orthorhombic'
loop_
_space_group_symop_operation_xyz
x,y,z
-x,-y,1/2+z
x,1/2-y,-z
-x,1/2+y,1/2-z
-x,-y,-z
x,y,1/2-z
-x,1/2+y,z
x,1/2-y,1/2+z
loop_
_atom_site_type_symbol
_atom_site_label
_atom_site_fract_x
_atom_site_fract_y
_atom_site_fract_z
Si Si1 0.902969 0.843614 0.088614
Si Si2 0.926909 0.516830 0.154988
Si Si3 0.248634 0.852127 0.081030
Si Si4 0.726041 0.472843 0.845888
Si Si5 0.397238 0.439452 0.490096
O O1 0.920796 0.709923 0.160255
O O2 0.810710 0.944967 0.104504
O O3 0.987976 0.967025 0.095452
O O4 0.897413 0.750000 0.000000
O O5 0.937350 0.448986 0.250000
O O6 0.834005 0.462049 0.110466
O O7 0.269385 0.721923 0.154206
O O8 0.335345 0.966504 0.059327
O O9 0.217861 0.750000 0.000000
O O10 0.722380 0.534764 0.750000
O O11 0.633453 0.521449 0.894712
O O12 0.389324 0.250000 0.500000
O O13 0.500000 0.500000 0.500000
#
# Coordination Sequence:
#
# PCOD8234239 Si02
#       5
#     8   8   8   8   8
#     4  12  24  40  61  86 125 172 219 262 320 390
#     4  12  23  37  57  88 123 163 210 264 316 372
#     4  10  21  39  63  89 122 161 202 247 310 381
#     4  11  22  40  64  95 127 162 208 267 320 373
#     4  11  23  44  69  92 123 164 208 254 314 386
#
# _framework density 20.953167000000001
#
# number of rings (size 3 to 8) (size 9 to 14) (size 15 to 20)
#    0.000    0.800    0.000   10.800    0.000    0.000 
#    0.000    6.000    0.000    0.000    0.000    0.000 
#    0.000    0.000    0.000    0.000    0.000    0.000 
#
# Total GULP energy -495998.378421 kJ/mol
# GULP energy per Si atom -12399.959461 kJ/mol
# Density = 2.090548 g / cm^3
# Si number density = 20.953167 Si / 1000 Ang^3
#
#
#
# Elastic Constant Matrix: (Units=GPa)
#
#
# Indices 1 2 3 4 5 6 
#
# 1 163.5701 56.2212 60.4741 0.0000 0.0000 0.0000
# 2 56.2212 135.7309 22.0424 0.0000 0.0000 0.0000
# 3 60.4741 22.0424 109.6274 0.0000 0.0000 0.0000
# 4 0.0000 0.0000 0.0000 30.5216 0.0000 0.0000
# 5 0.0000 0.0000 0.0000 0.0000 14.2943 0.0000
# 6 0.0000 0.0000 0.0000 0.0000 0.0000 39.5341
#
#
#
# Elastic Compliance Matrix: (Units=1/GPa)
#
#
# Indices 1 2 3 4 5 6 
#
# 1 0.008664 -0.002907 -0.004195 0.000000 0.000000 0.000000
# 2 -0.002907 0.008592 -0.000124 0.000000 0.000000 0.000000
# 3 -0.004195 -0.000124 0.011461 0.000000 0.000000 0.000000
# 4 0.000000 0.000000 0.000000 0.032764 0.000000 0.000000
# 5 0.000000 0.000000 0.000000 0.000000 0.069958 0.000000
# 6 0.000000 0.000000 0.000000 0.000000 0.000000 0.025295
#
#
# Mechanical properties :
#
#
# Convention : Reuss Voigt Hill
#
# Bulk Modulus (GPa) = 70.10313 76.26711 73.18512
# Shear Modulus (GPa) = 28.41900 34.88271 31.65086
#
# Velocity S-wave (km/s) = 3.68681 4.08462 3.89080
# Velocity P-wave (km/s) = 7.18701 7.66311 7.42888
#
# Compressibility (1/GPa) = 0.01426470
#
# Stress axis : x y z
#
# Youngs Moduli (GPa) = 115.42402 116.38882 87.25571
#
# Poissons Ratio (x) = 0.33839 0.36600
# Poissons Ratio (y) = 0.33558 0.01080
# Poissons Ratio (z) = 0.48416 0.01440
#
# Static dielectric constant tensor:
#      x y z
#    x 3.670040 0.000000 0.000000 
#    y 0.000000 4.176900 0.000000 
#    z 0.000000 0.000000 3.756490 
# 
# 
# High freq. dielectric constant tensor:
#      x y z
#    x 1.815400 0.000000 0.000000 
#    y 0.000000 1.845210 0.000000 
#    z 0.000000 0.000000 1.819100 
# 
# From -- ./inp_files/18198.got.cif
#   From: 2010.03.12/outbox.cif.g09.slc.cpg/sg57_10_cif.got.tgz:18198.got - 2010.04.16 15:48:40.
