data_PCOD8234383
_publ_section_title
;
Structure prediction by ZEFSAII (Michael W. Deem and Ramdas Pophale) SiO2 
 PCOD8234383
Probable space group: P B C M
;
_chemical_formula_sum "Si O2"
_cell_formula_units_Z 64
_cell_length_a 11.820041
_cell_length_b 14.981844
_cell_length_c 17.381044
_cell_angle_alpha 90.000000
_cell_angle_beta 90.000000
_cell_angle_gamma 90.000000
_cell_volume 3077.939737
_symmetry_space_group_name_H-M "P B C M"
_symmetry_group_IT_number 57
_symmetry_cell_setting 'orthorhombic'
loop_
_space_group_symop_operation_xyz
x,y,z
-x,-y,1/2+z
x,1/2-y,-z
-x,1/2+y,1/2-z
-x,-y,-z
x,y,1/2-z
-x,1/2+y,z
x,1/2-y,1/2+z
loop_
_atom_site_type_symbol
_atom_site_label
_atom_site_fract_x
_atom_site_fract_y
_atom_site_fract_z
Si Si1 0.494930 0.403614 0.661538
Si Si2 0.289248 0.537003 0.088606
Si Si3 0.034007 0.229939 0.835874
Si Si4 0.657749 0.451022 0.085531
Si Si5 0.258574 0.362048 0.337350
Si Si6 0.079169 0.936194 0.399712
Si Si7 0.055072 0.607063 0.075475
Si Si8 0.509561 0.298012 0.160553
O O1 0.457255 0.401348 0.750000
O O2 0.615473 0.452410 0.653721
O O3 0.398696 0.458130 0.616596
O O4 0.515300 0.303583 0.629509
O O5 0.233397 0.439906 0.101076
O O6 0.187176 0.606405 0.099457
O O7 0.349469 0.546148 0.006421
O O8 0.015109 0.268530 0.750000
O O9 0.167144 0.215318 0.851797
O O10 0.966800 0.136568 0.840207
O O11 0.990981 0.297609 0.899807
O O12 0.787112 0.448172 0.113002
O O13 0.593501 0.362139 0.113767
O O14 0.247353 0.397887 0.250000
O O15 0.381796 0.325244 0.354139
O O16 0.046530 0.902182 0.484252
O O17 0.018301 0.030352 0.382930
O O18 0.543858 0.304179 0.250000
#
# Coordination Sequence:
#
# PCOD8234383 Si02
#       8
#     8   8   8   8   8   8   8   8
#     4  11  24  41  64  91 124 169 212 258 325 388
#     4  11  22  42  67  91 125 167 219 263 316 384
#     4  11  24  40  65  99 128 165 216 265 321 387
#     4  11  24  41  65  94 127 163 215 270 312 378
#     4  10  21  41  64  90 128 168 207 263 321 379
#     4  10  23  44  64  91 129 170 210 266 324 379
#     4  10  23  43  66  90 128 170 217 264 320 384
#     4  10  23  42  62  90 130 170 209 261 327 381
#
# _framework density 20.793130000000001
#
# number of rings (size 3 to 8) (size 9 to 14) (size 15 to 20)
#    0.000    1.500    2.500    1.500    3.500    3.000 
#    0.000    0.000    0.000    0.000    0.000    0.000 
#    0.000    0.000    0.000    0.000    0.000    0.000 
#
# Total GULP energy -793739.801649 kJ/mol
# GULP energy per Si atom -12402.184401 kJ/mol
# Density = 2.074580 g / cm^3
# Si number density = 20.793130 Si / 1000 Ang^3
#
#
#
# Elastic Constant Matrix: (Units=GPa)
#
#
# Indices 1 2 3 4 5 6 
#
# 1 130.8262 47.7307 50.5695 0.0000 0.0000 0.0000
# 2 47.7307 122.4760 47.4692 0.0000 0.0000 0.0000
# 3 50.5695 47.4692 60.5000 0.0000 0.0000 0.0000
# 4 0.0000 0.0000 0.0000 29.3248 0.0000 0.0000
# 5 0.0000 0.0000 0.0000 0.0000 27.6141 0.0000
# 6 0.0000 0.0000 0.0000 0.0000 0.0000 33.7615
#
#
#
# Elastic Compliance Matrix: (Units=1/GPa)
#
#
# Indices 1 2 3 4 5 6 
#
# 1 0.011390 -0.001076 -0.008676 0.000000 0.000000 0.000000
# 2 -0.001076 0.011834 -0.008386 0.000000 0.000000 0.000000
# 3 -0.008676 -0.008386 0.030361 0.000000 0.000000 0.000000
# 4 0.000000 0.000000 0.000000 0.034101 0.000000 0.000000
# 5 0.000000 0.000000 0.000000 0.000000 0.036213 0.000000
# 6 0.000000 0.000000 0.000000 0.000000 0.000000 0.029620
#
#
# Mechanical properties :
#
#
# Convention : Reuss Voigt Hill
#
# Bulk Modulus (GPa) = 57.77439 67.26012 62.51726
# Shear Modulus (GPa) = 25.56696 29.34226 27.45461
#
# Velocity S-wave (km/s) = 3.51035 3.76061 3.63763
# Velocity P-wave (km/s) = 6.65400 7.16057 6.91193
#
# Compressibility (1/GPa) = 0.01730871
#
# Stress axis : x y z
#
# Youngs Moduli (GPa) = 87.79625 84.49871 32.93741
#
# Poissons Ratio (x) = 0.09094 0.28577
# Poissons Ratio (y) = 0.09449 0.27621
# Poissons Ratio (z) = 0.76172 0.70860
#
# Static dielectric constant tensor:
#      x y z
#    x 3.876070 0.000000 0.000000 
#    y 0.000000 3.854350 0.000000 
#    z 0.000000 0.000000 3.609030 
# 
# 
# High freq. dielectric constant tensor:
#      x y z
#    x 1.829620 0.000000 0.000000 
#    y 0.000000 1.815360 0.000000 
#    z 0.000000 0.000000 1.805160 
# 
# From -- ./inp_files/22051.got.cif
#   From: 2010.03.12/outbox.cif.g09.slc.cpg/sg57_12_cif.got.tgz:22051.got - 2010.04.16 15:48:40.
