data_PCOD8234013
_publ_section_title
;
Structure prediction by ZEFSAII (Michael W. Deem and Ramdas Pophale) SiO2 
 PCOD8234013
Probable space group: P B C M
;
_chemical_formula_sum "Si O2"
_cell_formula_units_Z 40
_cell_length_a 9.631010
_cell_length_b 18.139568
_cell_length_c 10.356129
_cell_angle_alpha 90.000000
_cell_angle_beta 90.000000
_cell_angle_gamma 90.000000
_cell_volume 1809.240185
_symmetry_space_group_name_H-M "P B C M"
_symmetry_group_IT_number 57
_symmetry_cell_setting 'orthorhombic'
loop_
_space_group_symop_operation_xyz
x,y,z
-x,-y,1/2+z
x,1/2-y,-z
-x,1/2+y,1/2-z
-x,-y,-z
x,y,1/2-z
-x,1/2+y,z
x,1/2-y,1/2+z
loop_
_atom_site_type_symbol
_atom_site_label
_atom_site_fract_x
_atom_site_fract_y
_atom_site_fract_z
Si Si1 0.643470 0.579251 0.250000
Si Si2 0.441797 0.570304 0.750000
Si Si3 0.927888 0.661494 0.250000
Si Si4 0.968921 0.182238 0.750000
Si Si5 0.510116 0.250000 0.000000
Si Si6 0.666529 0.266435 0.250000
Si Si7 0.623421 0.603452 0.976133
Si Si8 0.951129 0.915332 0.008935
O O1 0.680240 0.491391 0.250000
O O2 0.770899 0.634196 0.250000
O O3 0.557763 0.592610 0.119059
O O4 0.367856 0.647401 0.750000
O O5 0.539583 0.555063 0.626224
O O6 0.998239 0.627633 0.121044
O O7 0.918171 0.751137 0.250000
O O8 0.832472 0.233980 0.750000
O O9 0.978789 0.129117 0.626207
O O10 0.607867 0.273336 0.878750
O O11 0.406612 0.311528 0.056050
O O12 0.785524 0.584291 0.971021
O O13 0.000000 0.000000 0.000000
#
# Coordination Sequence:
#
# PCOD8234013 Si02
#       8
#     4   4   4   4   4   4   8   8
#     4  10  21  37  63  92 130 163 224 265 330 398
#     4  10  21  41  62  98 126 177 216 274 341 390
#     4  10  25  42  65 101 134 187 228 275 348 400
#     4  12  26  44  70  97 141 180 231 282 350 411
#     4  10  22  44  62 100 124 176 226 276 334 406
#     4  10  25  40  68  90 137 171 223 278 337 399
#     4  10  22  39  68  94 136 170 226 273 339 400
#     4  11  25  44  70 103 140 180 229 287 345 417
#
# _framework density 22.108727999999999
#
# number of rings (size 3 to 8) (size 9 to 14) (size 15 to 20)
#    0.000    1.600    0.000    3.000   14.000    0.000 
#    0.000    2.000    0.000    0.000    0.000    0.000 
#    0.000    0.000    0.000    0.000    0.000    0.000 
#
# Total GULP energy -495584.046091 kJ/mol
# GULP energy per Si atom -12389.601152 kJ/mol
# Density = 2.205841 g / cm^3
# Si number density = 22.108728 Si / 1000 Ang^3
#
#
#
# Elastic Constant Matrix: (Units=GPa)
#
#
# Indices 1 2 3 4 5 6 
#
# 1 79.1255 36.3777 18.4180 0.0000 0.0000 0.0000
# 2 36.3777 141.9639 33.7446 0.0000 0.0000 0.0000
# 3 18.4180 33.7446 188.1338 0.0000 0.0000 0.0000
# 4 0.0000 0.0000 0.0000 -370.7351 0.0000 0.0000
# 5 0.0000 0.0000 0.0000 0.0000 45.1137 0.0000
# 6 0.0000 0.0000 0.0000 0.0000 0.0000 34.4073
#
#
#
# Elastic Compliance Matrix: (Units=1/GPa)
#
#
# Indices 1 2 3 4 5 6 
#
# 1 0.014435 -0.003513 -0.000783 0.000000 0.000000 0.000000
# 2 -0.003513 0.008213 -0.001129 0.000000 0.000000 0.000000
# 3 -0.000783 -0.001129 0.005595 0.000000 0.000000 0.000000
# 4 0.000000 0.000000 0.000000 -0.002697 0.000000 0.000000
# 5 0.000000 0.000000 0.000000 0.000000 0.022166 0.000000
# 6 0.000000 0.000000 0.000000 0.000000 0.000000 0.029064
#
#
# Mechanical properties :
#
#
# Convention : Reuss Voigt Hill
#
# Bulk Modulus (GPa) = 57.49661 65.14487 61.32074
# Shear Modulus (GPa) = 53.52004 -36.86399 8.32802
#
# Velocity S-wave (km/s) = 4.92546 -4.08781 1.94294
# Velocity P-wave (km/s) = 7.64262 2.69248 5.72971
#
# Compressibility (1/GPa) = 0.01739233
#
# Stress axis : x y z
#
# Youngs Moduli (GPa) = 69.27373 121.76399 178.74501
#
# Poissons Ratio (x) = 0.42774 0.13998
# Poissons Ratio (y) = 0.24335 0.20183
# Poissons Ratio (z) = 0.05425 0.13749
#
# Static dielectric constant tensor:
#      x y z
#    x 3.712490 0.000000 0.000000 
#    y 0.000000 3.958340 0.000000 
#    z 0.000000 0.000000 4.861570 
# 
# 
# High freq. dielectric constant tensor:
#      x y z
#    x 1.841900 0.000000 0.000000 
#    y 0.000000 1.875570 0.000000 
#    z 0.000000 0.000000 1.897840 
# 
# From -- ./inp_files/11659.got.cif
#   From: 2010.03.12/outbox.cif.g09.slc.cpg/sg57_6_cif.got.tgz:11659.got - 2010.04.16 15:48:40.
