data_PCOD8234851
_publ_section_title
;
Structure prediction by ZEFSAII (Michael W. Deem and Ramdas Pophale) SiO2 
 PCOD8234851
Probable space group: P B C M
;
_chemical_formula_sum "Si O2"
_cell_formula_units_Z 40
_cell_length_a 8.890881
_cell_length_b 10.527926
_cell_length_c 18.853741
_cell_angle_alpha 90.000000
_cell_angle_beta 90.000000
_cell_angle_gamma 90.000000
_cell_volume 1764.757994
_symmetry_space_group_name_H-M "P B C M"
_symmetry_group_IT_number 57
_symmetry_cell_setting 'orthorhombic'
loop_
_space_group_symop_operation_xyz
x,y,z
-x,-y,1/2+z
x,1/2-y,-z
-x,1/2+y,1/2-z
-x,-y,-z
x,y,1/2-z
-x,1/2+y,z
x,1/2-y,1/2+z
loop_
_atom_site_type_symbol
_atom_site_label
_atom_site_fract_x
_atom_site_fract_y
_atom_site_fract_z
Si Si1 0.642248 0.193210 0.435406
Si Si2 0.820350 0.750710 0.415079
Si Si3 0.875227 0.273215 0.169172
Si Si4 0.435616 0.076764 0.595957
Si Si5 0.704554 0.974317 0.671771
O O1 0.746490 0.250000 0.500000
O O2 0.734792 0.192632 0.362143
O O3 0.508305 0.298921 0.440253
O O4 0.581191 0.051486 0.451572
O O5 0.837298 0.750000 0.500000
O O6 0.726641 0.627726 0.389926
O O7 0.980635 0.745154 0.377799
O O8 0.733948 0.876459 0.386169
O O9 0.901706 0.228376 0.250000
O O10 0.835769 0.421658 0.165350
O O11 0.539779 0.038724 0.662951
O O12 0.708953 0.911504 0.750000
#
# Coordination Sequence:
#
# PCOD8234851 Si02
#       5
#     8   8   8   8   8
#     4  11  23  42  71  99 135 175 225 280 338 406
#     4  12  26  42  70 102 137 178 228 283 343 405
#     4  10  25  46  66  94 135 181 228 281 341 408
#     4  11  24  42  68 100 136 174 223 277 339 402
#     4  10  24  45  66  95 136 180 229 285 338 405
#
# _framework density 22.665996
#
# number of rings (size 3 to 8) (size 9 to 14) (size 15 to 20)
#    0.000    1.200    2.000    2.400    8.400    3.200 
#    0.000    0.000    0.000    0.000    0.000    0.000 
#    0.000    0.000    0.000    0.000    0.000    0.000 
#
# Total GULP energy -495603.775076 kJ/mol
# GULP energy per Si atom -12390.094377 kJ/mol
# Density = 2.261441 g / cm^3
# Si number density = 22.665996 Si / 1000 Ang^3
#
#
#
# Elastic Constant Matrix: (Units=GPa)
#
#
# Indices 1 2 3 4 5 6 
#
# 1 99.4155 51.4604 50.4776 0.0000 0.0000 0.0000
# 2 51.4604 144.7347 50.2013 0.0000 0.0000 0.0000
# 3 50.4776 50.2013 154.3819 0.0000 0.0000 0.0000
# 4 0.0000 0.0000 0.0000 33.0154 0.0000 0.0000
# 5 0.0000 0.0000 0.0000 0.0000 31.3408 0.0000
# 6 0.0000 0.0000 0.0000 0.0000 0.0000 27.6542
#
#
#
# Elastic Compliance Matrix: (Units=1/GPa)
#
#
# Indices 1 2 3 4 5 6 
#
# 1 0.013634 -0.003721 -0.003248 0.000000 0.000000 0.000000
# 2 -0.003721 0.008803 -0.001646 0.000000 0.000000 0.000000
# 3 -0.003248 -0.001646 0.008075 0.000000 0.000000 0.000000
# 4 0.000000 0.000000 0.000000 0.030289 0.000000 0.000000
# 5 0.000000 0.000000 0.000000 0.000000 0.031907 0.000000
# 6 0.000000 0.000000 0.000000 0.000000 0.000000 0.036161
#
#
# Mechanical properties :
#
#
# Convention : Reuss Voigt Hill
#
# Bulk Modulus (GPa) = 75.28946 78.09008 76.68977
# Shear Modulus (GPa) = 33.21693 34.82828 34.02260
#
# Velocity S-wave (km/s) = 3.83233 3.92419 3.87853
# Velocity P-wave (km/s) = 7.27127 7.42022 7.34612
#
# Compressibility (1/GPa) = 0.01328207
#
# Stress axis : x y z
#
# Youngs Moduli (GPa) = 73.34611 113.59651 123.84533
#
# Poissons Ratio (x) = 0.42270 0.40223
# Poissons Ratio (y) = 0.27292 0.20384
# Poissons Ratio (z) = 0.23822 0.18697
#
# Static dielectric constant tensor:
#      x y z
#    x 4.043280 0.000000 0.000000 
#    y 0.000000 4.118400 0.000000 
#    z 0.000000 0.000000 4.100610 
# 
# 
# High freq. dielectric constant tensor:
#      x y z
#    x 1.890470 0.000000 0.000000 
#    y 0.000000 1.900800 0.000000 
#    z 0.000000 0.000000 1.892650 
# 
# From -- ./inp_files/20546.got.cif
#   From: 2010.03.12/outbox.cif.g09.slc.cpg/sg57_11_cif.got.tgz:20546.got - 2010.04.16 15:48:40.
