data_PCOD8234820
_publ_section_title
;
Structure prediction by ZEFSAII (Michael W. Deem and Ramdas Pophale) SiO2 
 PCOD8234820
Probable space group: P B C M
;
_chemical_formula_sum "Si O2"
_cell_formula_units_Z 40
_cell_length_a 4.893677
_cell_length_b 19.089016
_cell_length_c 16.233717
_cell_angle_alpha 90.000000
_cell_angle_beta 90.000000
_cell_angle_gamma 90.000000
_cell_volume 1516.480442
_symmetry_space_group_name_H-M "P B C M"
_symmetry_group_IT_number 57
_symmetry_cell_setting 'orthorhombic'
loop_
_space_group_symop_operation_xyz
x,y,z
-x,-y,1/2+z
x,1/2-y,-z
-x,1/2+y,1/2-z
-x,-y,-z
x,y,1/2-z
-x,1/2+y,z
x,1/2-y,1/2+z
loop_
_atom_site_type_symbol
_atom_site_label
_atom_site_fract_x
_atom_site_fract_y
_atom_site_fract_z
Si Si1 0.925110 0.086745 0.575150
Si Si2 0.969944 0.896849 0.250000
Si Si3 0.828871 0.119857 0.153029
Si Si4 0.310908 0.055965 0.433901
Si Si5 0.334496 0.738426 0.911038
Si Si6 0.516614 0.193610 0.750000
O O1 0.818946 0.165064 0.581522
O O2 0.994644 0.058374 0.667146
O O3 0.193569 0.090720 0.517918
O O4 0.697928 0.028678 0.547065
O O5 0.653308 0.876688 0.250000
O O6 0.162375 0.827360 0.250000
O O7 0.749885 0.121594 0.250000
O O8 0.607232 0.081952 0.093749
O O9 0.865832 0.197763 0.114480
O O10 0.109499 0.078329 0.140630
O O11 0.551129 0.736017 0.834615
O O12 0.479084 0.750000 0.000000
#
# Coordination Sequence:
#
# PCOD8234820 Si02
#       6
#     8   4   8   8   8   4
#     4  10  25  48  76 111 147 197 248 301 368 446
#     4  10  24  40  70  98 146 182 237 294 351 428
#     4  12  27  49  75 110 149 194 247 307 373 440
#     4  11  27  49  77 108 151 192 250 304 370 443
#     4  11  23  48  73 105 146 195 240 308 365 437
#     4  10  24  44  64 104 138 184 241 292 353 434
#
# _framework density 26.376864999999999
#
# number of rings (size 3 to 8) (size 9 to 14) (size 15 to 20)
#    0.000    1.200    3.000    0.600    5.600    9.600 
#    0.000    0.000    0.000    0.000    0.000    0.000 
#    0.000    0.000    0.000    0.000    0.000    0.000 
#
# Total GULP energy -495524.327644 kJ/mol
# GULP energy per Si atom -12388.108191 kJ/mol
# Density = 2.631683 g / cm^3
# Si number density = 26.376865 Si / 1000 Ang^3
#
#
#
# Elastic Constant Matrix: (Units=GPa)
#
#
# Indices 1 2 3 4 5 6 
#
# 1 45.4432 26.0071 -23.9030 0.0000 0.0000 0.0000
# 2 26.0071 159.8425 28.3375 0.0000 0.0000 0.0000
# 3 -23.9030 28.3375 220.1441 0.0000 0.0000 0.0000
# 4 0.0000 0.0000 0.0000 43.1559 0.0000 0.0000
# 5 0.0000 0.0000 0.0000 0.0000 19.4949 0.0000
# 6 0.0000 0.0000 0.0000 0.0000 0.0000 21.4077
#
#
#
# Elastic Compliance Matrix: (Units=1/GPa)
#
#
# Indices 1 2 3 4 5 6 
#
# 1 0.026715 -0.004974 0.003541 0.000000 0.000000 0.000000
# 2 -0.004974 0.007329 -0.001483 0.000000 0.000000 0.000000
# 3 0.003541 -0.001483 0.005118 0.000000 0.000000 0.000000
# 4 0.000000 0.000000 0.000000 0.023172 0.000000 0.000000
# 5 0.000000 0.000000 0.000000 0.000000 0.051296 0.000000
# 6 0.000000 0.000000 0.000000 0.000000 0.000000 0.046712
#
#
# Mechanical properties :
#
#
# Convention : Reuss Voigt Hill
#
# Bulk Modulus (GPa) = 30.00517 54.03476 42.01996
# Shear Modulus (GPa) = 28.20338 43.14425 35.67381
#
# Velocity S-wave (km/s) = 3.27348 4.04875 3.68158
# Velocity P-wave (km/s) = 5.06832 6.51050 5.83414
#
# Compressibility (1/GPa) = 0.03332759
#
# Stress axis : x y z
#
# Youngs Moduli (GPa) = 37.43231 136.45348 195.39227
#
# Poissons Ratio (x) = 0.67877 -0.69188
# Poissons Ratio (y) = 0.18620 0.28986
# Poissons Ratio (z) = -0.13255 0.20242
#
# Static dielectric constant tensor:
#      x y z
#    x 4.172390 0.000000 0.000000 
#    y 0.000000 4.856220 0.000000 
#    z 0.000000 0.000000 6.016320 
# 
# 
# High freq. dielectric constant tensor:
#      x y z
#    x 2.016620 0.000000 0.000000 
#    y 0.000000 2.063140 0.000000 
#    z 0.000000 0.000000 2.104280 
# 
# From -- ./inp_files/20137.got.cif
#   From: 2010.03.12/outbox.cif.g09.slc.cpg/sg57_11_cif.got.tgz:20137.got - 2010.04.16 15:48:40.
