data_PCOD8234173
_publ_section_title
;
Structure prediction by ZEFSAII (Michael W. Deem and Ramdas Pophale) SiO2 
 PCOD8234173
Probable space group: P B C M
;
_chemical_formula_sum "Si O2"
_cell_formula_units_Z 32
_cell_length_a 5.088396
_cell_length_b 16.938840
_cell_length_c 16.207700
_cell_angle_alpha 90.000000
_cell_angle_beta 90.000000
_cell_angle_gamma 90.000000
_cell_volume 1396.966391
_symmetry_space_group_name_H-M "P B C M"
_symmetry_group_IT_number 57
_symmetry_cell_setting 'orthorhombic'
loop_
_space_group_symop_operation_xyz
x,y,z
-x,-y,1/2+z
x,1/2-y,-z
-x,1/2+y,1/2-z
-x,-y,-z
x,y,1/2-z
-x,1/2+y,z
x,1/2-y,1/2+z
loop_
_atom_site_type_symbol
_atom_site_label
_atom_site_fract_x
_atom_site_fract_y
_atom_site_fract_z
Si Si1 0.171464 0.531500 0.095434
Si Si2 0.462810 0.778543 0.409506
Si Si3 0.328402 0.957917 0.091229
Si Si4 0.016242 0.197294 0.343900
O O1 0.457978 0.515922 0.136784
O O2 0.055977 0.618605 0.106080
O O3 0.956504 0.469877 0.134662
O O4 0.248088 0.513042 0.000539
O O5 0.379720 0.750000 0.500000
O O6 0.461255 0.872671 0.406302
O O7 0.242986 0.751062 0.344890
O O8 0.746396 0.743396 0.387374
O O9 0.090584 0.177209 0.250000
#
# Coordination Sequence:
#
# PCOD8234173 Si02
#       4
#     8   8   8   8
#     4  10  21  39  64  95 127 166 213 277 326 393
#     4  12  24  42  69 101 129 176 225 282 328 397
#     4  10  21  38  65  98 124 158 225 277 319 376
#     4  12  26  44  64  96 139 179 217 273 350 409
#
# _framework density 22.906779
#
# number of rings (size 3 to 8) (size 9 to 14) (size 15 to 20)
#    0.000    1.000    2.500    4.500    7.000    0.000 
#    0.000    7.500    0.000    0.000    0.000    0.000 
#    0.000    0.000    0.000    0.000    0.000    0.000 
#
# Total GULP energy -396444.708935 kJ/mol
# GULP energy per Si atom -12388.897154 kJ/mol
# Density = 2.285464 g / cm^3
# Si number density = 22.906779 Si / 1000 Ang^3
#
#
#
# Elastic Constant Matrix: (Units=GPa)
#
#
# Indices 1 2 3 4 5 6 
#
# 1 226.6013 94.6310 22.4353 0.0000 0.0000 0.0000
# 2 94.6310 141.6401 5.6090 0.0000 0.0000 0.0000
# 3 22.4353 5.6090 49.6804 0.0000 0.0000 0.0000
# 4 0.0000 0.0000 0.0000 9.1838 0.0000 0.0000
# 5 0.0000 0.0000 0.0000 0.0000 16.3953 0.0000
# 6 0.0000 0.0000 0.0000 0.0000 0.0000 42.1505
#
#
#
# Elastic Compliance Matrix: (Units=1/GPa)
#
#
# Indices 1 2 3 4 5 6 
#
# 1 0.006397 -0.004178 -0.002417 0.000000 0.000000 0.000000
# 2 -0.004178 0.009821 0.000778 0.000000 0.000000 0.000000
# 3 -0.002417 0.000778 0.021132 0.000000 0.000000 0.000000
# 4 0.000000 0.000000 0.000000 0.108888 0.000000 0.000000
# 5 0.000000 0.000000 0.000000 0.000000 0.060993 0.000000
# 6 0.000000 0.000000 0.000000 0.000000 0.000000 0.023725
#
#
# Mechanical properties :
#
#
# Convention : Reuss Voigt Hill
#
# Bulk Modulus (GPa) = 38.88675 73.69695 56.29185
# Shear Modulus (GPa) = 19.90740 33.22901 26.56821
#
# Velocity S-wave (km/s) = 2.95118 3.81283 3.40934
# Velocity P-wave (km/s) = 5.35029 7.18512 6.33449
#
# Compressibility (1/GPa) = 0.02571570
#
# Stress axis : x y z
#
# Youngs Moduli (GPa) = 156.31625 101.82336 47.32066
#
# Poissons Ratio (x) = 0.42545 0.11438
# Poissons Ratio (y) = 0.65315 -0.03682
# Poissons Ratio (z) = 0.37785 -0.07923
#
# Static dielectric constant tensor:
#      x y z
#    x 5.073320 0.000000 0.000000 
#    y 0.000000 3.977040 0.000000 
#    z 0.000000 0.000000 3.650140 
# 
# 
# High freq. dielectric constant tensor:
#      x y z
#    x 1.946410 0.000000 0.000000 
#    y 0.000000 1.904830 0.000000 
#    z 0.000000 0.000000 1.854990 
# 
# From -- ./inp_files/14823.got.cif
#   From: 2010.03.12/outbox.cif.g09.slc.cpg/sg57_8_cif.got.tgz:14823.got - 2010.04.16 15:48:40.
