data_PCOD8234636
_publ_section_title
;
Structure prediction by ZEFSAII (Michael W. Deem and Ramdas Pophale) SiO2 
 PCOD8234636
Probable space group: P B C M
;
_chemical_formula_sum "Si O2"
_cell_formula_units_Z 40
_cell_length_a 15.814522
_cell_length_b 8.448161
_cell_length_c 13.496711
_cell_angle_alpha 90.000000
_cell_angle_beta 90.000000
_cell_angle_gamma 90.000000
_cell_volume 1803.209556
_symmetry_space_group_name_H-M "P B C M"
_symmetry_group_IT_number 57
_symmetry_cell_setting 'orthorhombic'
loop_
_space_group_symop_operation_xyz
x,y,z
-x,-y,1/2+z
x,1/2-y,-z
-x,1/2+y,1/2-z
-x,-y,-z
x,y,1/2-z
-x,1/2+y,z
x,1/2-y,1/2+z
loop_
_atom_site_type_symbol
_atom_site_label
_atom_site_fract_x
_atom_site_fract_y
_atom_site_fract_z
Si Si1 0.213105 0.070754 0.522439
Si Si2 0.937465 0.448140 0.634656
Si Si3 0.393201 0.521820 0.439115
Si Si4 0.456395 0.646231 0.864378
Si Si5 0.110709 0.592121 0.865558
O O1 0.237024 0.250000 0.500000
O O2 0.131737 0.069181 0.593233
O O3 0.293209 0.994843 0.578964
O O4 0.193197 0.969185 0.423253
O O5 0.940661 0.478100 0.750000
O O6 0.909990 0.272144 0.605071
O O7 0.031523 0.487637 0.595433
O O8 0.443798 0.373270 0.391674
O O9 0.407116 0.531578 0.558455
O O10 0.427877 0.674844 0.381821
O O11 0.438434 0.598344 0.750000
O O12 0.129409 0.573902 0.750000
#
# Coordination Sequence:
#
# PCOD8234636 Si02
#       5
#     8   8   8   8   8
#     4  12  26  41  62  95 135 174 212 277 325 383
#     4  10  22  41  67  96 131 173 223 269 320 390
#     4  10  25  42  67 100 128 165 225 267 325 407
#     4  10  22  44  69  91 127 169 209 269 333 391
#     4  10  22  42  67  95 130 176 220 268 327 387
#
# _framework density 22.182670999999999
#
# number of rings (size 3 to 8) (size 9 to 14) (size 15 to 20)
#    0.000    1.600    0.000    3.000   11.200    4.800 
#    0.000    0.000    0.000    0.000    0.000    0.000 
#    0.000    0.000    0.000    0.000    0.000    0.000 
#
# Total GULP energy -495974.720427 kJ/mol
# GULP energy per Si atom -12399.368011 kJ/mol
# Density = 2.213218 g / cm^3
# Si number density = 22.182671 Si / 1000 Ang^3
#
#
#
# Elastic Constant Matrix: (Units=GPa)
#
#
# Indices 1 2 3 4 5 6 
#
# 1 114.1593 36.2027 12.5881 0.0000 0.0000 0.0000
# 2 36.2027 99.7604 8.1439 0.0000 0.0000 0.0000
# 3 12.5881 8.1439 72.9876 0.0000 0.0000 0.0000
# 4 0.0000 0.0000 0.0000 26.0395 0.0000 0.0000
# 5 0.0000 0.0000 0.0000 0.0000 20.9687 0.0000
# 6 0.0000 0.0000 0.0000 0.0000 0.0000 9.1677
#
#
#
# Elastic Compliance Matrix: (Units=1/GPa)
#
#
# Indices 1 2 3 4 5 6 
#
# 1 0.010026 -0.003529 -0.001335 0.000000 0.000000 0.000000
# 2 -0.003529 0.011359 -0.000659 0.000000 0.000000 0.000000
# 3 -0.001335 -0.000659 0.014005 0.000000 0.000000 0.000000
# 4 0.000000 0.000000 0.000000 0.038403 0.000000 0.000000
# 5 0.000000 0.000000 0.000000 0.000000 0.047690 0.000000
# 6 0.000000 0.000000 0.000000 0.000000 0.000000 0.109079
#
#
# Mechanical properties :
#
#
# Convention : Reuss Voigt Hill
#
# Bulk Modulus (GPa) = 41.08032 44.53073 42.80553
# Shear Modulus (GPa) = 20.02216 26.56669 23.29442
#
# Velocity S-wave (km/s) = 3.00760 3.46444 3.24407
# Velocity P-wave (km/s) = 5.53355 6.01009 5.77674
#
# Compressibility (1/GPa) = 0.02434255
#
# Stress axis : x y z
#
# Youngs Moduli (GPa) = 99.73851 88.03892 71.40431
#
# Poissons Ratio (x) = 0.31073 0.09535
# Poissons Ratio (y) = 0.35202 0.04703
# Poissons Ratio (z) = 0.13319 0.05799
#
# Static dielectric constant tensor:
#      x y z
#    x 3.971870 0.000000 0.000000 
#    y 0.000000 3.952670 0.000000 
#    z 0.000000 0.000000 4.033610 
# 
# 
# High freq. dielectric constant tensor:
#      x y z
#    x 1.868190 0.000000 0.000000 
#    y 0.000000 1.870290 0.000000 
#    z 0.000000 0.000000 1.881380 
# 
# From -- ./inp_files/18192.got.cif
#   From: 2010.03.12/outbox.cif.g09.slc.cpg/sg57_10_cif.got.tgz:18192.got - 2010.04.16 15:48:40.
