data_PCOD8234074
_publ_section_title
;
Structure prediction by ZEFSAII (Michael W. Deem and Ramdas Pophale) SiO2 
 PCOD8234074
Probable space group: P B C M
;
_chemical_formula_sum "Si O2"
_cell_formula_units_Z 64
_cell_length_a 11.005004
_cell_length_b 13.857320
_cell_length_c 18.470060
_cell_angle_alpha 90.000000
_cell_angle_beta 90.000000
_cell_angle_gamma 90.000000
_cell_volume 2816.681602
_symmetry_space_group_name_H-M "P B C M"
_symmetry_group_IT_number 57
_symmetry_cell_setting 'orthorhombic'
loop_
_space_group_symop_operation_xyz
x,y,z
-x,-y,1/2+z
x,1/2-y,-z
-x,1/2+y,1/2-z
-x,-y,-z
x,y,1/2-z
-x,1/2+y,z
x,1/2-y,1/2+z
loop_
_atom_site_type_symbol
_atom_site_label
_atom_site_fract_x
_atom_site_fract_y
_atom_site_fract_z
Si Si1 0.320541 0.429536 0.333118
Si Si2 0.306458 0.759252 0.914615
Si Si3 0.085358 0.656988 0.836168
Si Si4 0.570932 0.524091 0.166668
Si Si5 0.949972 0.695561 0.076447
Si Si6 0.543396 0.745788 0.167790
Si Si7 0.820522 0.443301 0.571826
Si Si8 0.186956 0.012656 0.090571
O O1 0.295781 0.455381 0.250000
O O2 0.443990 0.481199 0.361573
O O3 0.340357 0.314949 0.345763
O O4 0.200078 0.463277 0.376563
O O5 0.205760 0.700011 0.871947
O O6 0.436808 0.723939 0.887132
O O7 0.287699 0.873084 0.900447
O O8 0.288092 0.750000 0.000000
O O9 0.089240 0.658810 0.750000
O O10 0.971498 0.722438 0.862654
O O11 0.080472 0.546526 0.866089
O O12 0.587936 0.495513 0.250000
O O13 0.581378 0.637545 0.153652
O O14 0.683897 0.480321 0.123293
O O15 0.054231 0.613880 0.077474
O O16 0.833064 0.629095 0.095006
O O17 0.939752 0.750000 0.000000
O O18 0.495224 0.760188 0.250000
O O19 0.808104 0.480052 0.491345
#
# Coordination Sequence:
#
# PCOD8234074 Si02
#       8
#     8   8   8   8   8   8   8   8
#     4  10  22  40  65  98 137 176 219 271 330 392
#     4  11  20  37  62  94 132 170 217 272 320 385
#     4  11  23  41  67  99 127 168 224 275 330 400
#     4  10  22  40  61  92 134 176 214 264 328 394
#     4  11  25  47  71  95 132 173 222 282 346 397
#     4  10  21  38  59  89 133 179 215 265 327 387
#     4  11  22  40  68  94 128 173 222 275 331 392
#     4  12  24  42  70  96 133 176 221 276 341 406
#
# _framework density 22.721774
#
# number of rings (size 3 to 8) (size 9 to 14) (size 15 to 20)
#    0.000    1.250    3.750    2.625    0.000    6.500 
#    0.000    0.000    0.000    0.000    0.000    0.000 
#    0.000    0.000    0.000    0.000    0.000    0.000 
#
# Total GULP energy -793299.356844 kJ/mol
# GULP energy per Si atom -12395.302451 kJ/mol
# Density = 2.267006 g / cm^3
# Si number density = 22.721774 Si / 1000 Ang^3
#
#
#
# Elastic Constant Matrix: (Units=GPa)
#
#
# Indices 1 2 3 4 5 6 
#
# 1 23.4908 -7.9287 5.5951 0.0000 0.0000 0.0000
# 2 -7.9287 98.8084 28.0973 0.0000 0.0000 0.0000
# 3 5.5951 28.0973 115.0190 0.0000 0.0000 0.0000
# 4 0.0000 0.0000 0.0000 25.4884 0.0000 0.0000
# 5 0.0000 0.0000 0.0000 0.0000 6.1987 0.0000
# 6 0.0000 0.0000 0.0000 0.0000 0.0000 -9.3593
#
#
#
# Elastic Compliance Matrix: (Units=1/GPa)
#
#
# Indices 1 2 3 4 5 6 
#
# 1 0.044886 0.004538 -0.003292 0.000000 0.000000 0.000000
# 2 0.004538 0.011335 -0.002990 0.000000 0.000000 0.000000
# 3 -0.003292 -0.002990 0.009585 0.000000 0.000000 0.000000
# 4 0.000000 0.000000 0.000000 0.039233 0.000000 0.000000
# 5 0.000000 0.000000 0.000000 0.000000 0.161324 0.000000
# 6 0.000000 0.000000 0.000000 0.000000 0.000000 -0.106846
#
#
# Mechanical properties :
#
#
# Convention : Reuss Voigt Hill
#
# Bulk Modulus (GPa) = 16.04682 32.09396 24.07039
# Shear Modulus (GPa) = 27.20693 18.56920 22.88807
#
# Velocity S-wave (km/s) = 3.46409 2.86185 3.17727
# Velocity P-wave (km/s) = 4.80391 5.00756 4.90679
#
# Compressibility (1/GPa) = 0.06231763
#
# Stress axis : x y z
#
# Youngs Moduli (GPa) = 22.27884 88.22331 104.33308
#
# Poissons Ratio (x) = -0.40035 0.34346
# Poissons Ratio (y) = -0.10110 0.31192
# Poissons Ratio (z) = 0.07334 0.26376
#
# Static dielectric constant tensor:
#      x y z
#    x 3.911280 0.000000 0.000000 
#    y 0.000000 4.705420 0.000000 
#    z 0.000000 0.000000 4.008180 
# 
# 
# High freq. dielectric constant tensor:
#      x y z
#    x 1.878900 0.000000 0.000000 
#    y 0.000000 1.923900 0.000000 
#    z 0.000000 0.000000 1.886730 
# 
# From -- ./inp_files/22028.got.cif
#   From: 2010.03.12/outbox.cif.g09.slc.cpg/sg57_12_cif.got.tgz:22028.got - 2010.04.16 15:48:40.
