data_PCOD8234814
_publ_section_title
;
Structure prediction by ZEFSAII (Michael W. Deem and Ramdas Pophale) SiO2 
 PCOD8234814
Probable space group: P B C M
;
_chemical_formula_sum "Si O2"
_cell_formula_units_Z 64
_cell_length_a 8.711506
_cell_length_b 11.957670
_cell_length_c 28.377302
_cell_angle_alpha 90.000000
_cell_angle_beta 90.000000
_cell_angle_gamma 90.000000
_cell_volume 2956.044081
_symmetry_space_group_name_H-M "P B C M"
_symmetry_group_IT_number 57
_symmetry_cell_setting 'orthorhombic'
loop_
_space_group_symop_operation_xyz
x,y,z
-x,-y,1/2+z
x,1/2-y,-z
-x,1/2+y,1/2-z
-x,-y,-z
x,y,1/2-z
-x,1/2+y,z
x,1/2-y,1/2+z
loop_
_atom_site_type_symbol
_atom_site_label
_atom_site_fract_x
_atom_site_fract_y
_atom_site_fract_z
Si Si1 0.942606 0.299082 0.572574
Si Si2 0.133874 0.025539 0.195891
Si Si3 0.427655 0.504229 0.551049
Si Si4 0.601870 0.611653 0.868554
Si Si5 0.739297 0.841221 0.888638
Si Si6 0.109987 0.593325 0.979532
Si Si7 0.326066 0.683674 0.697816
Si Si8 0.802380 0.096753 0.162126
O O1 0.848499 0.339237 0.526814
O O2 0.972259 0.167262 0.561576
O O3 0.833797 0.327910 0.616053
O O4 0.107080 0.357675 0.580138
O O5 0.164318 0.063023 0.250000
O O6 0.244874 0.095113 0.161213
O O7 0.955956 0.044936 0.184100
O O8 0.176811 0.894954 0.188411
O O9 0.500000 0.500000 0.500000
O O10 0.537753 0.584766 0.579961
O O11 0.404695 0.387888 0.580488
O O12 0.258715 0.551851 0.546974
O O13 0.721208 0.711776 0.875794
O O14 0.463055 0.652891 0.836659
O O15 0.686822 0.504972 0.846676
O O16 0.000000 0.500000 0.000000
O O17 0.389531 0.660613 0.750000
O O18 0.277611 0.813808 0.696246
#
# Coordination Sequence:
#
# PCOD8234814 Si02
#       8
#     8   8   8   8   8   8   8   8
#     4  10  24  39  70  96 131 176 234 295 344 410
#     4  10  24  47  74 103 139 182 236 301 364 429
#     4  12  26  43  67  96 144 184 232 291 355 421
#     4  12  27  45  70 103 148 189 240 287 370 444
#     4  11  25  44  69 101 137 185 232 295 357 430
#     4  11  23  42  65  94 129 178 233 286 347 410
#     4  11  25  46  71 102 143 182 232 300 363 438
#     4  11  25  45  73 104 139 186 240 294 360 436
#
# _framework density 21.650556999999999
#
# number of rings (size 3 to 8) (size 9 to 14) (size 15 to 20)
#    0.000    1.000    2.500    2.625    7.000    4.000 
#    0.000    0.000    0.000    0.000    0.000    0.000 
#    0.000    0.000    0.000    0.000    0.000    0.000 
#
# Total GULP energy -793349.279124 kJ/mol
# GULP energy per Si atom -12396.082486 kJ/mol
# Density = 2.160128 g / cm^3
# Si number density = 21.650557 Si / 1000 Ang^3
#
#
#
# Elastic Constant Matrix: (Units=GPa)
#
#
# Indices 1 2 3 4 5 6 
#
# 1 74.7998 40.9444 33.6095 0.0000 0.0000 0.0000
# 2 40.9444 132.5858 44.0786 0.0000 0.0000 0.0000
# 3 33.6095 44.0786 118.5513 0.0000 0.0000 0.0000
# 4 0.0000 0.0000 0.0000 30.3305 0.0000 0.0000
# 5 0.0000 0.0000 0.0000 0.0000 35.1552 0.0000
# 6 0.0000 0.0000 0.0000 0.0000 0.0000 37.7614
#
#
#
# Elastic Compliance Matrix: (Units=1/GPa)
#
#
# Indices 1 2 3 4 5 6 
#
# 1 0.017151 -0.004199 -0.003301 0.000000 0.000000 0.000000
# 2 -0.004199 0.009634 -0.002392 0.000000 0.000000 0.000000
# 3 -0.003301 -0.002392 0.010260 0.000000 0.000000 0.000000
# 4 0.000000 0.000000 0.000000 0.032970 0.000000 0.000000
# 5 0.000000 0.000000 0.000000 0.000000 0.028445 0.000000
# 6 0.000000 0.000000 0.000000 0.000000 0.000000 0.026482
#
#
# Mechanical properties :
#
#
# Convention : Reuss Voigt Hill
#
# Bulk Modulus (GPa) = 57.93141 62.57798 60.25470
# Shear Modulus (GPa) = 33.22706 34.46971 33.84839
#
# Velocity S-wave (km/s) = 3.92177 3.99443 3.95827
# Velocity P-wave (km/s) = 6.87914 7.08804 6.98438
#
# Compressibility (1/GPa) = 0.01726179
#
# Stress axis : x y z
#
# Youngs Moduli (GPa) = 58.30657 103.79804 97.46340
#
# Poissons Ratio (x) = 0.43584 0.32173
# Poissons Ratio (y) = 0.24483 0.23310
# Poissons Ratio (z) = 0.19247 0.24825
#
# Static dielectric constant tensor:
#      x y z
#    x 54.871130 0.000000 0.000000 
#    y 0.000000 4.344350 0.000000 
#    z 0.000000 0.000000 4.097170 
# 
# 
# High freq. dielectric constant tensor:
#      x y z
#    x 1.843120 0.000000 0.000000 
#    y 0.000000 1.859800 0.000000 
#    z 0.000000 0.000000 1.865940 
# 
# From -- ./inp_files/29620.got.cif
#   From: 2010.03.12/outbox.cif.g09.slc.cpg/sg57_15_cif.got.tgz:29620.got - 2010.04.16 15:48:40.
