data_PCOD8234724
_publ_section_title
;
Structure prediction by ZEFSAII (Michael W. Deem and Ramdas Pophale) SiO2 
 PCOD8234724
Probable space group: P B C M
;
_chemical_formula_sum "Si O2"
_cell_formula_units_Z 40
_cell_length_a 12.596855
_cell_length_b 18.074453
_cell_length_c 8.659864
_cell_angle_alpha 90.000000
_cell_angle_beta 90.000000
_cell_angle_gamma 90.000000
_cell_volume 1971.688779
_symmetry_space_group_name_H-M "P B C M"
_symmetry_group_IT_number 57
_symmetry_cell_setting 'orthorhombic'
loop_
_space_group_symop_operation_xyz
x,y,z
-x,-y,1/2+z
x,1/2-y,-z
-x,1/2+y,1/2-z
-x,-y,-z
x,y,1/2-z
-x,1/2+y,z
x,1/2-y,1/2+z
loop_
_atom_site_type_symbol
_atom_site_label
_atom_site_fract_x
_atom_site_fract_y
_atom_site_fract_z
Si Si1 0.313502 0.578109 0.929447
Si Si2 0.094806 0.328404 0.069226
Si Si3 0.284096 0.408294 0.572760
Si Si4 0.129230 0.670982 0.068179
Si Si5 0.499593 0.830130 0.568657
O O1 0.296659 0.595930 0.750000
O O2 0.320462 0.491212 0.962619
O O3 0.215412 0.610308 0.024435
O O4 0.423327 0.611777 0.986579
O O5 0.078858 0.319499 0.250000
O O6 0.131069 0.250000 0.000000
O O7 0.184267 0.388856 0.033934
O O8 0.984075 0.355172 0.996823
O O9 0.249379 0.398868 0.750000
O O10 0.380323 0.353542 0.531946
O O11 0.120952 0.678813 0.250000
O O12 0.163784 0.750000 0.000000
O O13 0.477055 0.750000 0.500000
O O14 0.475456 0.829963 0.750000
#
# Coordination Sequence:
#
# PCOD8234724 Si02
#       5
#     8   8   8   8   8
#     4  11  23  40  61  87 120 155 194 242 295 348
#     4  11  22  38  62  89 119 155 197 243 291 345
#     4  10  23  41  61  87 120 156 195 241 292 348
#     4  11  22  39  62  87 118 155 198 244 291 346
#     4  11  23  40  62  88 117 153 197 241 290 347
#
# _framework density 20.287178000000001
#
# number of rings (size 3 to 8) (size 9 to 14) (size 15 to 20)
#    0.000    1.200    0.000    7.800    0.000    5.600 
#    0.000    0.000    0.000    0.000    0.000    0.000 
#    0.000    0.000    0.000    0.000    0.000    0.000 
#
# Total GULP energy -496300.773436 kJ/mol
# GULP energy per Si atom -12407.519336 kJ/mol
# Density = 2.024100 g / cm^3
# Si number density = 20.287178 Si / 1000 Ang^3
#
#
#
# Elastic Constant Matrix: (Units=GPa)
#
#
# Indices 1 2 3 4 5 6 
#
# 1 76.6979 20.0690 35.9194 0.0000 0.0000 0.0000
# 2 20.0690 63.3845 31.7134 0.0000 0.0000 0.0000
# 3 35.9194 31.7134 141.2455 0.0000 0.0000 0.0000
# 4 0.0000 0.0000 0.0000 29.9188 0.0000 0.0000
# 5 0.0000 0.0000 0.0000 0.0000 34.1042 0.0000
# 6 0.0000 0.0000 0.0000 0.0000 0.0000 31.6714
#
#
#
# Elastic Compliance Matrix: (Units=1/GPa)
#
#
# Indices 1 2 3 4 5 6 
#
# 1 0.015384 -0.003282 -0.003175 0.000000 0.000000 0.000000
# 2 -0.003282 0.018474 -0.003313 0.000000 0.000000 0.000000
# 3 -0.003175 -0.003313 0.008631 0.000000 0.000000 0.000000
# 4 0.000000 0.000000 0.000000 0.033424 0.000000 0.000000
# 5 0.000000 0.000000 0.000000 0.000000 0.029322 0.000000
# 6 0.000000 0.000000 0.000000 0.000000 0.000000 0.031574
#
#
# Mechanical properties :
#
#
# Convention : Reuss Voigt Hill
#
# Bulk Modulus (GPa) = 43.57754 50.74797 47.16275
# Shear Modulus (GPa) = 30.48791 32.04728 31.26759
#
# Velocity S-wave (km/s) = 3.88082 3.97883 3.93013
# Velocity P-wave (km/s) = 6.45043 6.79538 6.62515
#
# Compressibility (1/GPa) = 0.02294760
#
# Stress axis : x y z
#
# Youngs Moduli (GPa) = 65.00233 54.13119 115.85805
#
# Poissons Ratio (x) = 0.17767 0.36788
# Poissons Ratio (y) = 0.21335 0.38385
# Poissons Ratio (z) = 0.20640 0.17934
#
# Static dielectric constant tensor:
#      x y z
#    x 3.698500 0.000000 0.000000 
#    y 0.000000 3.622930 0.000000 
#    z 0.000000 0.000000 3.885610 
# 
# 
# High freq. dielectric constant tensor:
#      x y z
#    x 1.805190 0.000000 0.000000 
#    y 0.000000 1.793710 0.000000 
#    z 0.000000 0.000000 1.806080 
# 
# From -- ./inp_files/2617.got.cif
#   From: 2010.03.12/outbox.cif.g09.slc.cpg/sg57_2_cif.got.tgz:2617.got - 2010.04.16 15:48:40.
