data_PCOD8234428
_publ_section_title
;
Structure prediction by ZEFSAII (Michael W. Deem and Ramdas Pophale) SiO2 
 PCOD8234428
Probable space group: P B C M
;
_chemical_formula_sum "Si O2"
_cell_formula_units_Z 64
_cell_length_a 11.025967
_cell_length_b 10.970995
_cell_length_c 25.345619
_cell_angle_alpha 90.000000
_cell_angle_beta 90.000000
_cell_angle_gamma 90.000000
_cell_volume 3065.953809
_symmetry_space_group_name_H-M "P B C M"
_symmetry_group_IT_number 57
_symmetry_cell_setting 'orthorhombic'
loop_
_space_group_symop_operation_xyz
x,y,z
-x,-y,1/2+z
x,1/2-y,-z
-x,1/2+y,1/2-z
-x,-y,-z
x,y,1/2-z
-x,1/2+y,z
x,1/2-y,1/2+z
loop_
_atom_site_type_symbol
_atom_site_label
_atom_site_fract_x
_atom_site_fract_y
_atom_site_fract_z
Si Si1 0.324884 0.194976 0.622184
Si Si2 0.278264 0.551643 0.886133
Si Si3 0.445049 0.763750 0.438511
Si Si4 0.152218 0.744935 0.688085
Si Si5 0.036125 0.496375 0.939672
Si Si6 0.414167 0.120316 0.309120
Si Si7 0.337764 0.919164 0.643071
Si Si8 0.947154 0.744083 0.887813
O O1 0.410955 0.234690 0.573215
O O2 0.394666 0.236678 0.676273
O O3 0.195982 0.262276 0.617482
O O4 0.303814 0.052086 0.623376
O O5 0.389603 0.609288 0.918166
O O6 0.222954 0.639676 0.842287
O O7 0.179608 0.510661 0.929311
O O8 0.330487 0.440188 0.853318
O O9 0.421836 0.750000 0.500000
O O10 0.374578 0.655536 0.408982
O O11 0.155610 0.719577 0.750000
O O12 0.219010 0.870447 0.673123
O O13 0.012272 0.747671 0.669371
O O14 0.996848 0.361654 0.918849
O O15 0.970046 0.612690 0.914032
O O16 0.000000 0.500000 0.000000
O O17 0.370431 0.092058 0.250000
O O18 0.553493 0.081501 0.314574
#
# Coordination Sequence:
#
# PCOD8234428 Si02
#       8
#     8   8   8   8   8   8   8   8
#     4  11  23  42  61  94 135 165 223 276 321 401
#     4  10  21  43  64  93 131 163 224 266 323 410
#     4  10  23  41  67  96 132 177 211 271 345 402
#     4  10  22  41  65  91 128 175 214 266 327 383
#     4  11  24  43  68  93 129 178 223 278 337 392
#     4  11  22  39  65  93 130 173 209 268 340 392
#     4  10  22  42  64  99 133 166 222 275 320 410
#     4  11  24  43  65  95 131 172 229 276 323 403
#
# _framework density 20.874417999999999
#
# number of rings (size 3 to 8) (size 9 to 14) (size 15 to 20)
#    0.000    1.500    2.500    1.875    0.000    7.000 
#    0.000    3.125    0.000    0.000    0.000    0.000 
#    0.000    0.000    0.000    0.000    0.000    0.000 
#
# Total GULP energy -793385.505474 kJ/mol
# GULP energy per Si atom -12396.648523 kJ/mol
# Density = 2.082691 g / cm^3
# Si number density = 20.874418 Si / 1000 Ang^3
#
#
#
# Elastic Constant Matrix: (Units=GPa)
#
#
# Indices 1 2 3 4 5 6 
#
# 1 117.9322 19.8951 58.7703 0.0000 0.0000 0.0000
# 2 19.8951 106.4804 38.7348 0.0000 0.0000 0.0000
# 3 58.7703 38.7348 163.5252 0.0000 0.0000 0.0000
# 4 0.0000 0.0000 0.0000 16.8768 0.0000 0.0000
# 5 0.0000 0.0000 0.0000 0.0000 25.3708 0.0000
# 6 0.0000 0.0000 0.0000 0.0000 0.0000 30.9258
#
#
#
# Elastic Compliance Matrix: (Units=1/GPa)
#
#
# Indices 1 2 3 4 5 6 
#
# 1 0.010369 -0.000637 -0.003576 0.000000 0.000000 0.000000
# 2 -0.000637 0.010316 -0.002215 0.000000 0.000000 0.000000
# 3 -0.003576 -0.002215 0.007925 0.000000 0.000000 0.000000
# 4 0.000000 0.000000 0.000000 0.059253 0.000000 0.000000
# 5 0.000000 0.000000 0.000000 0.000000 0.039415 0.000000
# 6 0.000000 0.000000 0.000000 0.000000 0.000000 0.032335
#
#
# Mechanical properties :
#
#
# Convention : Reuss Voigt Hill
#
# Bulk Modulus (GPa) = 63.46955 69.19313 66.33134
# Shear Modulus (GPa) = 28.13421 32.67053 30.40237
#
# Velocity S-wave (km/s) = 3.67520 3.96042 3.82048
# Velocity P-wave (km/s) = 6.96282 7.35748 7.16287
#
# Compressibility (1/GPa) = 0.01575559
#
# Stress axis : x y z
#
# Youngs Moduli (GPa) = 96.44367 96.93653 126.18328
#
# Poissons Ratio (x) = 0.06171 0.45119
# Poissons Ratio (y) = 0.06139 0.27947
# Poissons Ratio (z) = 0.34485 0.21470
#
# Static dielectric constant tensor:
#      x y z
#    x 3.901010 0.000000 0.000000 
#    y 0.000000 4.055830 0.000000 
#    z 0.000000 0.000000 3.533030 
# 
# 
# High freq. dielectric constant tensor:
#      x y z
#    x 1.825240 0.000000 0.000000 
#    y 0.000000 1.834360 0.000000 
#    z 0.000000 0.000000 1.799610 
# 
# From -- ./inp_files/27265.got.cif
#   From: 2010.03.12/outbox.cif.g09.slc.cpg/sg57_14_cif.got.tgz:27265.got - 2010.04.16 15:48:40.
