data_PCOD8234580
_publ_section_title
;
Structure prediction by ZEFSAII (Michael W. Deem and Ramdas Pophale) SiO2 
 PCOD8234580
Probable space group: P B C M
;
_chemical_formula_sum "Si O2"
_cell_formula_units_Z 40
_cell_length_a 12.538942
_cell_length_b 10.400769
_cell_length_c 14.048464
_cell_angle_alpha 90.000000
_cell_angle_beta 90.000000
_cell_angle_gamma 90.000000
_cell_volume 1832.125365
_symmetry_space_group_name_H-M "P B C M"
_symmetry_group_IT_number 57
_symmetry_cell_setting 'orthorhombic'
loop_
_space_group_symop_operation_xyz
x,y,z
-x,-y,1/2+z
x,1/2-y,-z
-x,1/2+y,1/2-z
-x,-y,-z
x,y,1/2-z
-x,1/2+y,z
x,1/2-y,1/2+z
loop_
_atom_site_type_symbol
_atom_site_label
_atom_site_fract_x
_atom_site_fract_y
_atom_site_fract_z
Si Si1 0.259181 0.115474 0.531498
Si Si2 0.301000 0.938137 0.144554
Si Si3 0.088196 0.694879 0.639896
Si Si4 0.491707 0.372142 0.439937
Si Si5 0.072245 0.519603 0.136150
O O1 0.205365 0.250000 0.500000
O O2 0.368138 0.142304 0.592343
O O3 0.183906 0.032858 0.598206
O O4 0.288510 0.048457 0.432455
O O5 0.279153 0.995406 0.250000
O O6 0.213906 0.826882 0.123035
O O7 0.420939 0.879615 0.144542
O O8 0.057621 0.700122 0.750000
O O9 0.022270 0.573015 0.596762
O O10 0.056407 0.834342 0.595399
O O11 0.528227 0.250000 0.500000
O O12 0.500000 0.500000 0.500000
O O13 0.077540 0.523194 0.250000
#
# Coordination Sequence:
#
# PCOD8234580 Si02
#       5
#     8   8   8   8   8
#     4  10  23  40  61  96 127 164 213 257 318 381
#     4  10  22  40  64  92 126 167 210 262 321 375
#     4   9  21  39  62  93 124 163 210 258 314 376
#     4   9  20  39  61  86 123 159 202 259 305 365
#     4  10  22  41  64  91 128 166 209 266 320 374
#
# _framework density 21.832567999999998
#
# number of rings (size 3 to 8) (size 9 to 14) (size 15 to 20)
#    0.000    2.400    0.000    0.000    8.400    2.400 
#    0.000    8.000    0.000    0.000    0.000    0.000 
#    0.000    0.000    0.000    0.000    0.000    0.000 
#
# Total GULP energy -495700.883458 kJ/mol
# GULP energy per Si atom -12392.522086 kJ/mol
# Density = 2.178288 g / cm^3
# Si number density = 21.832568 Si / 1000 Ang^3
#
#
#
# Elastic Constant Matrix: (Units=GPa)
#
#
# Indices 1 2 3 4 5 6 
#
# 1 135.6677 59.0346 34.3540 0.0000 0.0000 0.0000
# 2 59.0346 176.7885 24.5565 0.0000 0.0000 0.0000
# 3 34.3540 24.5565 38.9008 0.0000 0.0000 0.0000
# 4 0.0000 0.0000 0.0000 22.8862 0.0000 0.0000
# 5 0.0000 0.0000 0.0000 0.0000 35.4659 0.0000
# 6 0.0000 0.0000 0.0000 0.0000 0.0000 33.5347
#
#
#
# Elastic Compliance Matrix: (Units=1/GPa)
#
#
# Indices 1 2 3 4 5 6 
#
# 1 0.010343 -0.002395 -0.007622 0.000000 0.000000 0.000000
# 2 -0.002395 0.006755 -0.002149 0.000000 0.000000 0.000000
# 3 -0.007622 -0.002149 0.033794 0.000000 0.000000 0.000000
# 4 0.000000 0.000000 0.000000 0.043695 0.000000 0.000000
# 5 0.000000 0.000000 0.000000 0.000000 0.028196 0.000000
# 6 0.000000 0.000000 0.000000 0.000000 0.000000 0.029820
#
#
# Mechanical properties :
#
#
# Convention : Reuss Voigt Hill
#
# Bulk Modulus (GPa) = 37.65105 65.24968 51.45037
# Shear Modulus (GPa) = 26.91227 33.93817 30.42522
#
# Velocity S-wave (km/s) = 3.51474 3.94696 3.73711
# Velocity P-wave (km/s) = 5.80982 7.12198 6.49910
#
# Compressibility (1/GPa) = 0.02655968
#
# Stress axis : x y z
#
# Youngs Moduli (GPa) = 96.68052 148.04381 29.59075
#
# Poissons Ratio (x) = 0.35459 0.22555
# Poissons Ratio (y) = 0.23156 0.06358
# Poissons Ratio (z) = 0.73694 0.31812
#
# Static dielectric constant tensor:
#      x y z
#    x 4.459490 0.000000 0.000000 
#    y 0.000000 4.182280 0.000000 
#    z 0.000000 0.000000 3.660250 
# 
# 
# High freq. dielectric constant tensor:
#      x y z
#    x 1.869070 0.000000 0.000000 
#    y 0.000000 1.867590 0.000000 
#    z 0.000000 0.000000 1.834040 
# 
# From -- ./inp_files/17429.got.cif
#   From: 2010.03.12/outbox.cif.g09.slc.cpg/sg57_9_cif.got.tgz:17429.got - 2010.04.16 15:48:40.
