data_PCOD8234488
_publ_section_title
;
Structure prediction by ZEFSAII (Michael W. Deem and Ramdas Pophale) SiO2 
 PCOD8234488
Probable space group: P B C M
;
_chemical_formula_sum "Si O2"
_cell_formula_units_Z 64
_cell_length_a 11.824819
_cell_length_b 30.565813
_cell_length_c 8.827690
_cell_angle_alpha 90.000000
_cell_angle_beta 90.000000
_cell_angle_gamma 90.000000
_cell_volume 3190.637956
_symmetry_space_group_name_H-M "P B C M"
_symmetry_group_IT_number 57
_symmetry_cell_setting 'orthorhombic'
loop_
_space_group_symop_operation_xyz
x,y,z
-x,-y,1/2+z
x,1/2-y,-z
-x,1/2+y,1/2-z
-x,-y,-z
x,y,1/2-z
-x,1/2+y,z
x,1/2-y,1/2+z
loop_
_atom_site_type_symbol
_atom_site_label
_atom_site_fract_x
_atom_site_fract_y
_atom_site_fract_z
Si Si1 0.030567 0.793002 0.927708
Si Si2 0.051516 0.957324 0.427237
Si Si3 0.500478 0.953015 0.575255
Si Si4 0.496116 0.295315 0.071092
Si Si5 0.095288 0.372279 0.075455
Si Si6 0.253644 0.821220 0.071677
Si Si7 0.644128 0.621118 0.928195
Si Si8 0.255517 0.586420 0.425623
O O1 0.029159 0.788274 0.750000
O O2 0.971887 0.750000 0.000000
O O3 0.159630 0.793621 0.984959
O O4 0.963023 0.835953 0.973490
O O5 0.075482 0.964197 0.250000
O O6 0.168364 0.949701 0.515417
O O7 0.964108 0.918203 0.456290
O O8 0.000000 0.000000 0.500000
O O9 0.528956 0.959158 0.750000
O O10 0.595861 0.922332 0.504105
O O11 0.380186 0.931111 0.548353
O O12 0.500000 0.000000 0.500000
O O13 0.486951 0.291407 0.250000
O O14 0.624323 0.304103 0.017985
O O15 0.418988 0.335288 0.011250
O O16 0.451992 0.250000 0.000000
O O17 0.082932 0.358258 0.250000
O O18 0.225274 0.375686 0.026826
O O19 0.235818 0.816076 0.250000
O O20 0.238012 0.871566 0.029410
O O21 0.625865 0.616221 0.750000
O O22 0.232403 0.597773 0.250000
#
# Coordination Sequence:
#
# PCOD8234488 Si02
#       8
#     8   8   8   8   8   8   8   8
#     4  12  25  41  64  92 126 165 209 258 311 372
#     4  11  24  41  64  93 128 165 207 259 310 369
#     4  11  25  42  64  94 127 164 207 256 308 367
#     4  10  22  38  61  90 122 160 200 249 305 363
#     4  10  23  43  65  89 123 165 210 258 312 368
#     4  11  21  38  63  93 127 161 204 254 311 368
#     4  10  22  43  65  89 124 164 207 257 309 366
#     4  11  23  40  64  94 127 163 205 256 313 367
#
# _framework density 20.058684
#
# number of rings (size 3 to 8) (size 9 to 14) (size 15 to 20)
#    0.000    1.250    2.500    3.000    1.750    5.500 
#    0.000    1.250    0.000    0.000    0.000    0.000 
#    0.000    0.000    0.000    0.000    0.000    0.000 
#
# Total GULP energy -793976.241068 kJ/mol
# GULP energy per Si atom -12405.878767 kJ/mol
# Density = 2.001303 g / cm^3
# Si number density = 20.058684 Si / 1000 Ang^3
#
#
#
# Elastic Constant Matrix: (Units=GPa)
#
#
# Indices 1 2 3 4 5 6 
#
# 1 105.1138 30.2290 53.0001 0.0000 0.0000 0.0000
# 2 30.2290 122.0127 51.7756 0.0000 0.0000 0.0000
# 3 53.0001 51.7756 98.9560 0.0000 0.0000 0.0000
# 4 0.0000 0.0000 0.0000 41.3914 0.0000 0.0000
# 5 0.0000 0.0000 0.0000 0.0000 26.6354 0.0000
# 6 0.0000 0.0000 0.0000 0.0000 0.0000 19.2115
#
#
#
# Elastic Compliance Matrix: (Units=1/GPa)
#
#
# Indices 1 2 3 4 5 6 
#
# 1 0.013044 -0.000343 -0.006807 0.000000 0.000000 0.000000
# 2 -0.000343 0.010544 -0.005333 0.000000 0.000000 0.000000
# 3 -0.006807 -0.005333 0.016541 0.000000 0.000000 0.000000
# 4 0.000000 0.000000 0.000000 0.024160 0.000000 0.000000
# 5 0.000000 0.000000 0.000000 0.000000 0.037544 0.000000
# 6 0.000000 0.000000 0.000000 0.000000 0.000000 0.052052
#
#
# Mechanical properties :
#
#
# Convention : Reuss Voigt Hill
#
# Bulk Modulus (GPa) = 65.94720 66.23241 66.08981
# Shear Modulus (GPa) = 27.18780 30.18619 28.68700
#
# Velocity S-wave (km/s) = 3.68559 3.88350 3.78584
# Velocity P-wave (km/s) = 7.14562 7.29382 7.22010
#
# Compressibility (1/GPa) = 0.01516365
#
# Stress axis : x y z
#
# Youngs Moduli (GPa) = 76.66158 94.84140 60.45424
#
# Poissons Ratio (x) = 0.03256 0.41150
# Poissons Ratio (y) = 0.02632 0.32240
# Poissons Ratio (z) = 0.52182 0.50578
#
# Static dielectric constant tensor:
#      x y z
#    x 3.836950 0.000000 0.000000 
#    y 0.000000 3.666940 0.000000 
#    z 0.000000 0.000000 3.630850 
# 
# 
# High freq. dielectric constant tensor:
#      x y z
#    x 1.788010 0.000000 0.000000 
#    y 0.000000 1.797930 0.000000 
#    z 0.000000 0.000000 1.785760 
# 
# From -- ./inp_files/3824.got.cif
#   From: 2010.03.12/outbox.cif.g09.slc.cpg/sg57_2_cif.got.tgz:3824.got - 2010.04.16 15:48:40.
