data_PCOD8234615
_publ_section_title
;
Structure prediction by ZEFSAII (Michael W. Deem and Ramdas Pophale) SiO2 
 PCOD8234615
Probable space group: P B C M
;
_chemical_formula_sum "Si O2"
_cell_formula_units_Z 56
_cell_length_a 5.293523
_cell_length_b 30.559428
_cell_length_c 15.125270
_cell_angle_alpha 90.000000
_cell_angle_beta 90.000000
_cell_angle_gamma 90.000000
_cell_volume 2446.770081
_symmetry_space_group_name_H-M "P B C M"
_symmetry_group_IT_number 57
_symmetry_cell_setting 'orthorhombic'
loop_
_space_group_symop_operation_xyz
x,y,z
-x,-y,1/2+z
x,1/2-y,-z
-x,1/2+y,1/2-z
-x,-y,-z
x,y,1/2-z
-x,1/2+y,z
x,1/2-y,1/2+z
loop_
_atom_site_type_symbol
_atom_site_label
_atom_site_fract_x
_atom_site_fract_y
_atom_site_fract_z
Si Si1 0.614926 0.660430 0.927329
Si Si2 0.446583 0.542686 0.154572
Si Si3 0.238582 0.556511 0.750000
Si Si4 0.752119 0.583876 0.024717
Si Si5 0.024876 0.479286 0.405044
Si Si6 0.865364 0.198366 0.998866
Si Si7 0.148145 0.869833 0.852058
Si Si8 0.729680 0.885861 0.250000
O O1 0.692956 0.647080 0.830042
O O2 0.547134 0.618603 0.989713
O O3 0.356464 0.687851 0.928002
O O4 0.857831 0.684316 0.968134
O O5 0.575996 0.534299 0.250000
O O6 0.639678 0.539616 0.071684
O O7 0.222112 0.508220 0.149004
O O8 0.370835 0.594245 0.149192
O O9 0.218177 0.527023 0.840302
O O10 0.002372 0.590298 0.750000
O O11 0.512496 0.577325 0.750000
O O12 0.922199 0.605614 0.099125
O O13 0.885445 0.569782 0.931891
O O14 0.000000 0.500000 0.500000
O O15 0.794581 0.175162 0.093334
O O16 0.869250 0.250000 0.000000
O O17 0.079045 0.857370 0.750000
#
# Coordination Sequence:
#
# PCOD8234615 Si02
#       8
#     8   8   4   8   8   8   8   4
#     4  11  24  44  73 103 134 184 227 278 351 427
#     4  11  22  39  60  91 129 171 234 287 341 410
#     4  12  28  46  66 104 142 188 242 304 352 408
#     4  11  22  39  67  88 131 182 231 282 348 413
#     4  12  25  42  62  95 136 185 243 298 353 409
#     4  11  24  47  75 103 142 174 223 287 358 427
#     4  10  22  41  63  95 128 173 224 273 340 417
#     4  12  26  46  74 100 144 184 242 288 348 426
#
# _framework density 22.887315999999998
#
# number of rings (size 3 to 8) (size 9 to 14) (size 15 to 20)
#    0.000    0.857    5.000    2.143    4.000    1.143 
#    3.857    0.000    0.000    0.000    0.000    0.000 
#    0.000    0.000    0.000    0.000    0.000    0.000 
#
# Total GULP energy -693766.159086 kJ/mol
# GULP energy per Si atom -12388.681412 kJ/mol
# Density = 2.283522 g / cm^3
# Si number density = 22.887316 Si / 1000 Ang^3
#
#
#
# Elastic Constant Matrix: (Units=GPa)
#
#
# Indices 1 2 3 4 5 6 
#
# 1 49.8669 4.2698 -9.8444 0.0000 0.0000 0.0000
# 2 4.2698 88.4259 51.6569 0.0000 0.0000 0.0000
# 3 -9.8444 51.6569 100.9030 0.0000 0.0000 0.0000
# 4 0.0000 0.0000 0.0000 54.2186 0.0000 0.0000
# 5 0.0000 0.0000 0.0000 0.0000 46.2928 0.0000
# 6 0.0000 0.0000 0.0000 0.0000 0.0000 28.0803
#
#
#
# Elastic Compliance Matrix: (Units=1/GPa)
#
#
# Indices 1 2 3 4 5 6 
#
# 1 0.021049 -0.003162 0.003672 0.000000 0.000000 0.000000
# 2 -0.003162 0.016609 -0.008811 0.000000 0.000000 0.000000
# 3 0.003672 -0.008811 0.014780 0.000000 0.000000 0.000000
# 4 0.000000 0.000000 0.000000 0.018444 0.000000 0.000000
# 5 0.000000 0.000000 0.000000 0.000000 0.021602 0.000000
# 6 0.000000 0.000000 0.000000 0.000000 0.000000 0.035612
#
#
# Mechanical properties :
#
#
# Convention : Reuss Voigt Hill
#
# Bulk Modulus (GPa) = 27.90479 36.81782 32.36131
# Shear Modulus (GPa) = 31.91981 38.59256 35.25618
#
# Velocity S-wave (km/s) = 3.73855 4.11079 3.92908
# Velocity P-wave (km/s) = 5.55468 6.21715 5.89523
#
# Compressibility (1/GPa) = 0.03583615
#
# Stress axis : x y z
#
# Youngs Moduli (GPa) = 47.50817 60.20818 67.66016
#
# Poissons Ratio (x) = 0.19035 -0.24846
# Poissons Ratio (y) = 0.15020 0.59618
# Poissons Ratio (z) = -0.17446 0.53052
#
# Static dielectric constant tensor:
#      x y z
#    x 4.086240 0.000000 0.000000 
#    y 0.000000 4.073880 0.000000 
#    z 0.000000 0.000000 4.417220 
# 
# 
# High freq. dielectric constant tensor:
#      x y z
#    x 1.902580 0.000000 0.000000 
#    y 0.000000 1.893400 0.000000 
#    z 0.000000 0.000000 1.928450 
# 
# From -- ./inp_files/15302.got.cif
#   From: 2010.03.12/outbox.cif.g09.slc.cpg/sg57_8_cif.got.tgz:15302.got - 2010.04.16 15:48:40.
