data_PCOD8234463
_publ_section_title
;
Structure prediction by ZEFSAII (Michael W. Deem and Ramdas Pophale) SiO2 
 PCOD8234463
Probable space group: P B C M
;
_chemical_formula_sum "Si O2"
_cell_formula_units_Z 40
_cell_length_a 12.493041
_cell_length_b 19.966476
_cell_length_c 9.238059
_cell_angle_alpha 90.000000
_cell_angle_beta 90.000000
_cell_angle_gamma 90.000000
_cell_volume 2304.359944
_symmetry_space_group_name_H-M "P B C M"
_symmetry_group_IT_number 57
_symmetry_cell_setting 'orthorhombic'
loop_
_space_group_symop_operation_xyz
x,y,z
-x,-y,1/2+z
x,1/2-y,-z
-x,1/2+y,1/2-z
-x,-y,-z
x,y,1/2-z
-x,1/2+y,z
x,1/2-y,1/2+z
loop_
_atom_site_type_symbol
_atom_site_label
_atom_site_fract_x
_atom_site_fract_y
_atom_site_fract_z
Si Si1 0.548169 0.436169 0.079354
Si Si2 0.818408 0.896111 0.417896
Si Si3 0.989138 0.068997 0.082747
Si Si4 0.755508 0.048157 0.414495
Si Si5 0.610509 0.817775 0.080975
O O1 0.548053 0.449577 0.250000
O O2 0.477881 0.372151 0.037744
O O3 0.500000 0.500000 0.000000
O O4 0.668237 0.422167 0.023859
O O5 0.847801 0.889122 0.250000
O O6 0.926099 0.879723 0.510177
O O7 0.727631 0.843878 0.465954
O O8 0.775663 0.970425 0.451813
O O9 0.019149 0.058696 0.250000
O O10 0.865017 0.091534 0.066983
O O11 0.000000 0.000000 0.000000
O O12 0.712938 0.053869 0.250000
O O13 0.607821 0.803215 0.250000
O O14 0.582110 0.750000 0.000000
#
# Coordination Sequence:
#
# PCOD8234463 Si02
#       5
#     8   8   8   8   8
#     4  11  21  34  53  77 106 137 176 220 264 316
#     4   9  17  32  50  71 105 135 165 213 259 305
#     4   9  17  28  45  72 104 133 165 205 251 304
#     4   9  17  31  49  74 107 135 165 214 262 302
#     4  10  22  38  53  75 106 139 175 220 266 316
#
# _framework density 17.3584
#
# number of rings (size 3 to 8) (size 9 to 14) (size 15 to 20)
#    0.000    2.400    2.000    2.400    0.000    6.400 
#    0.000    0.000    0.000    1.200    0.000    0.000 
#    0.000    0.000    0.000    0.000    0.000    0.000 
#
# Total GULP energy -495871.971754 kJ/mol
# GULP energy per Si atom -12396.799294 kJ/mol
# Density = 1.731889 g / cm^3
# Si number density = 17.358400 Si / 1000 Ang^3
#
#
#
# Elastic Constant Matrix: (Units=GPa)
#
#
# Indices 1 2 3 4 5 6 
#
# 1 137.4242 54.4114 73.6958 0.0000 0.0000 0.0000
# 2 54.4114 81.0276 47.4784 0.0000 0.0000 0.0000
# 3 73.6958 47.4784 92.7038 0.0000 0.0000 0.0000
# 4 0.0000 0.0000 0.0000 24.5098 0.0000 0.0000
# 5 0.0000 0.0000 0.0000 0.0000 38.6439 0.0000
# 6 0.0000 0.0000 0.0000 0.0000 0.0000 19.2457
#
#
#
# Elastic Compliance Matrix: (Units=1/GPa)
#
#
# Indices 1 2 3 4 5 6 
#
# 1 0.013524 -0.003975 -0.008716 0.000000 0.000000 0.000000
# 2 -0.003975 0.018801 -0.006469 0.000000 0.000000 0.000000
# 3 -0.008716 -0.006469 0.021029 0.000000 0.000000 0.000000
# 4 0.000000 0.000000 0.000000 0.040800 0.000000 0.000000
# 5 0.000000 0.000000 0.000000 0.000000 0.025877 0.000000
# 6 0.000000 0.000000 0.000000 0.000000 0.000000 0.051960
#
#
# Mechanical properties :
#
#
# Convention : Reuss Voigt Hill
#
# Bulk Modulus (GPa) = 66.51112 73.59185 70.05148
# Shear Modulus (GPa) = 23.22093 25.51788 24.36940
#
# Velocity S-wave (km/s) = 3.66147 3.83829 3.75093
# Velocity P-wave (km/s) = 7.50165 7.88232 7.69434
#
# Compressibility (1/GPa) = 0.01503508
#
# Stress axis : x y z
#
# Youngs Moduli (GPa) = 73.94019 53.18753 47.55375
#
# Poissons Ratio (x) = 0.21142 0.41446
# Poissons Ratio (y) = 0.29391 0.30764
# Poissons Ratio (z) = 0.64443 0.34408
#
# Static dielectric constant tensor:
#      x y z
#    x 4.221790 0.000000 0.000000 
#    y 0.000000 2.862700 0.000000 
#    z 0.000000 0.000000 3.457160 
# 
# 
# High freq. dielectric constant tensor:
#      x y z
#    x 1.688290 0.000000 0.000000 
#    y 0.000000 1.617030 0.000000 
#    z 0.000000 0.000000 1.677220 
# 
# From -- ./inp_files/2871.got.cif
#   From: 2010.03.12/outbox.cif.g09.slc.cpg/sg57_2_cif.got.tgz:2871.got - 2010.04.16 15:48:40.
