data_PCOD8234730
_publ_section_title
;
Structure prediction by ZEFSAII (Michael W. Deem and Ramdas Pophale) SiO2 
 PCOD8234730
Probable space group: P B C M
;
_chemical_formula_sum "Si O2"
_cell_formula_units_Z 64
_cell_length_a 11.866842
_cell_length_b 29.734461
_cell_length_c 8.864031
_cell_angle_alpha 90.000000
_cell_angle_beta 90.000000
_cell_angle_gamma 90.000000
_cell_volume 3127.710130
_symmetry_space_group_name_H-M "P B C M"
_symmetry_group_IT_number 57
_symmetry_cell_setting 'orthorhombic'
loop_
_space_group_symop_operation_xyz
x,y,z
-x,-y,1/2+z
x,1/2-y,-z
-x,1/2+y,1/2-z
-x,-y,-z
x,y,1/2-z
-x,1/2+y,z
x,1/2-y,1/2+z
loop_
_atom_site_type_symbol
_atom_site_label
_atom_site_fract_x
_atom_site_fract_y
_atom_site_fract_z
Si Si1 0.812771 0.296394 0.424719
Si Si2 0.173674 0.294688 0.926826
Si Si3 0.332454 0.470714 0.071749
Si Si4 0.453299 0.939877 0.922953
Si Si5 0.982512 0.638758 0.922086
Si Si6 0.076135 0.038207 0.573722
Si Si7 0.413440 0.295135 0.071672
Si Si8 0.604346 0.342447 0.576066
O O1 0.857641 0.250000 0.500000
O O2 0.789092 0.286600 0.250000
O O3 0.896966 0.338148 0.445958
O O4 0.699967 0.311627 0.505994
O O5 0.189319 0.287076 0.750000
O O6 0.117017 0.250000 0.000000
O O7 0.291038 0.303710 0.006213
O O8 0.099689 0.338162 0.958773
O O9 0.330856 0.465436 0.250000
O O10 0.374209 0.519888 0.016734
O O11 0.205254 0.461843 0.009791
O O12 0.425989 0.435941 0.008244
O O13 0.485227 0.948032 0.750000
O O14 0.375564 0.895697 0.942703
O O15 0.940255 0.646189 0.750000
O O16 0.984232 0.585904 0.960755
O O17 0.079845 0.027920 0.750000
O O18 0.000000 0.000000 0.500000
O O19 0.407626 0.291385 0.250000
O O20 0.465995 0.250000 0.000000
O O21 0.490514 0.335681 0.017839
O O22 0.589276 0.328717 0.750000
#
# Coordination Sequence:
#
# PCOD8234730 Si02
#       8
#     8   8   8   8   8   8   8   8
#     4  11  24  42  63  87 120 161 208 256 311 368
#     4  11  22  38  62  92 124 160 201 248 304 364
#     4   9  19  38  61  87 120 158 199 245 303 360
#     4   9  20  37  59  88 120 155 197 246 295 360
#     4  10  23  42  62  90 124 161 208 258 307 368
#     4  10  23  41  63  91 125 162 205 254 307 364
#     4  11  22  38  59  84 119 157 194 238 295 355
#     4  11  23  38  59  88 122 155 201 251 302 363
#
# _framework density 20.462254999999999
#
# number of rings (size 3 to 8) (size 9 to 14) (size 15 to 20)
#    0.000    1.750    0.000    4.500    3.500    4.000 
#    0.000    0.000    0.000    0.000    0.000    0.000 
#    0.000    0.000    0.000    0.000    0.000    0.000 
#
# Total GULP energy -793519.703720 kJ/mol
# GULP energy per Si atom -12398.745371 kJ/mol
# Density = 2.041568 g / cm^3
# Si number density = 20.462255 Si / 1000 Ang^3
#
#
#
# Elastic Constant Matrix: (Units=GPa)
#
#
# Indices 1 2 3 4 5 6 
#
# 1 95.7433 52.2046 45.2371 0.0000 0.0000 0.0000
# 2 52.2046 112.4395 45.1689 0.0000 0.0000 0.0000
# 3 45.2371 45.1689 122.9515 0.0000 0.0000 0.0000
# 4 0.0000 0.0000 0.0000 31.5642 0.0000 0.0000
# 5 0.0000 0.0000 0.0000 0.0000 28.0457 0.0000
# 6 0.0000 0.0000 0.0000 0.0000 0.0000 35.4206
#
#
#
# Elastic Compliance Matrix: (Units=1/GPa)
#
#
# Indices 1 2 3 4 5 6 
#
# 1 0.015177 -0.005635 -0.003514 0.000000 0.000000 0.000000
# 2 -0.005635 0.012526 -0.002528 0.000000 0.000000 0.000000
# 3 -0.003514 -0.002528 0.010355 0.000000 0.000000 0.000000
# 4 0.000000 0.000000 0.000000 0.031681 0.000000 0.000000
# 5 0.000000 0.000000 0.000000 0.000000 0.035656 0.000000
# 6 0.000000 0.000000 0.000000 0.000000 0.000000 0.028232
#
#
# Mechanical properties :
#
#
# Convention : Reuss Voigt Hill
#
# Bulk Modulus (GPa) = 68.01174 68.48395 68.24784
# Shear Modulus (GPa) = 30.88636 31.57435 31.23035
#
# Velocity S-wave (km/s) = 3.88935 3.93243 3.91095
# Velocity P-wave (km/s) = 7.31295 7.35933 7.33618
#
# Compressibility (1/GPa) = 0.01470334
#
# Stress axis : x y z
#
# Youngs Moduli (GPa) = 65.88706 79.83611 96.57173
#
# Poissons Ratio (x) = 0.44989 0.33935
# Poissons Ratio (y) = 0.37128 0.24416
# Poissons Ratio (z) = 0.23153 0.20185
#
# Static dielectric constant tensor:
#      x y z
#    x 3.730870 0.000000 0.000000 
#    y 0.000000 3.840460 0.000000 
#    z 0.000000 0.000000 3.696270 
# 
# 
# High freq. dielectric constant tensor:
#      x y z
#    x 1.798850 0.000000 0.000000 
#    y 0.000000 1.806540 0.000000 
#    z 0.000000 0.000000 1.799440 
# 
# From -- ./inp_files/3772.got.cif
#   From: 2010.03.12/outbox.cif.g09.slc.cpg/sg57_2_cif.got.tgz:3772.got - 2010.04.16 15:48:40.
