data_PCOD8234815
_publ_section_title
;
Structure prediction by ZEFSAII (Michael W. Deem and Ramdas Pophale) SiO2 
 PCOD8234815
Probable space group: P B C M
;
_chemical_formula_sum "Si O2"
_cell_formula_units_Z 36
_cell_length_a 21.052285
_cell_length_b 8.949765
_cell_length_c 9.298038
_cell_angle_alpha 90.000000
_cell_angle_beta 90.000000
_cell_angle_gamma 90.000000
_cell_volume 1751.871266
_symmetry_space_group_name_H-M "P B C M"
_symmetry_group_IT_number 57
_symmetry_cell_setting 'orthorhombic'
loop_
_space_group_symop_operation_xyz
x,y,z
-x,-y,1/2+z
x,1/2-y,-z
-x,1/2+y,1/2-z
-x,-y,-z
x,y,1/2-z
-x,1/2+y,z
x,1/2-y,1/2+z
loop_
_atom_site_type_symbol
_atom_site_label
_atom_site_fract_x
_atom_site_fract_y
_atom_site_fract_z
Si Si1 0.205599 0.903767 0.920006
Si Si2 0.323441 0.100540 0.914191
Si Si3 0.911987 0.014638 0.596315
Si Si4 0.447249 0.594544 0.081146
Si Si5 0.991751 0.750000 0.500000
O O1 0.205703 0.875523 0.750000
O O2 0.258813 0.022465 0.967223
O O3 0.220324 0.750000 0.000000
O O4 0.137278 0.968298 0.965992
O O5 0.316969 0.149068 0.750000
O O6 0.380281 0.985781 0.936980
O O7 0.337548 0.250000 0.000000
O O8 0.875913 0.025879 0.750000
O O9 0.964046 0.145900 0.597883
O O10 0.946578 0.855266 0.594403
O O11 0.464759 0.616255 0.250000
O O12 0.441899 0.750000 0.000000
O O13 0.500000 0.500000 0.000000
#
# Coordination Sequence:
#
# PCOD8234815 Si02
#       5
#     8   8   8   8   4
#     4  11  24  42  63  90 122 161 208 257 312 375
#     4  10  24  43  64  93 128 167 211 260 313 372
#     4  11  23  41  64  90 121 161 203 254 311 372
#     4  11  23  41  66  98 135 174 218 263 315 370
#     4  10  24  40  62  92 124 154 204 250 312 374
#
# _framework density 20.549455999999999
#
# number of rings (size 3 to 8) (size 9 to 14) (size 15 to 20)
#    0.000    1.333    1.111    3.333    1.556    9.778 
#    0.000    0.000    0.000    0.000    0.000    0.000 
#    0.000    0.000    0.000    0.000    0.000    0.000 
#
# Total GULP energy -446431.189386 kJ/mol
# GULP energy per Si atom -12400.866372 kJ/mol
# Density = 2.050268 g / cm^3
# Si number density = 20.549456 Si / 1000 Ang^3
#
#
#
# Elastic Constant Matrix: (Units=GPa)
#
#
# Indices 1 2 3 4 5 6 
#
# 1 84.7929 49.9628 46.6883 0.0000 0.0000 0.0000
# 2 49.9628 152.6077 65.5221 0.0000 0.0000 0.0000
# 3 46.6883 65.5221 131.3483 0.0000 0.0000 0.0000
# 4 0.0000 0.0000 0.0000 31.2030 0.0000 0.0000
# 5 0.0000 0.0000 0.0000 0.0000 28.0772 0.0000
# 6 0.0000 0.0000 0.0000 0.0000 0.0000 25.2613
#
#
#
# Elastic Compliance Matrix: (Units=1/GPa)
#
#
# Indices 1 2 3 4 5 6 
#
# 1 0.016060 -0.003572 -0.003927 0.000000 0.000000 0.000000
# 2 -0.003572 0.009133 -0.003286 0.000000 0.000000 0.000000
# 3 -0.003927 -0.003286 0.010649 0.000000 0.000000 0.000000
# 4 0.000000 0.000000 0.000000 0.032048 0.000000 0.000000
# 5 0.000000 0.000000 0.000000 0.000000 0.035616 0.000000
# 6 0.000000 0.000000 0.000000 0.000000 0.000000 0.039586
#
#
# Mechanical properties :
#
#
# Convention : Reuss Voigt Hill
#
# Bulk Modulus (GPa) = 70.06901 77.01061 73.53981
# Shear Modulus (GPa) = 29.51241 30.68003 30.09622
#
# Velocity S-wave (km/s) = 3.79379 3.86811 3.83113
# Velocity P-wave (km/s) = 7.30494 7.58332 7.44543
#
# Compressibility (1/GPa) = 0.01427164
#
# Stress axis : x y z
#
# Youngs Moduli (GPa) = 62.26489 109.49057 93.90992
#
# Poissons Ratio (x) = 0.39111 0.36877
# Poissons Ratio (y) = 0.22242 0.30862
# Poissons Ratio (z) = 0.24450 0.35982
#
# Static dielectric constant tensor:
#      x y z
#    x 3.875930 0.000000 0.000000 
#    y 0.000000 2.380160 0.000000 
#    z 0.000000 0.000000 5.479360 
# 
# 
# High freq. dielectric constant tensor:
#      x y z
#    x 1.809460 0.000000 0.000000 
#    y 0.000000 1.819020 0.000000 
#    z 0.000000 0.000000 1.810290 
# 
# From -- ./inp_files/7613.got.cif
#   From: 2010.03.12/outbox.cif.g09.slc.cpg/sg57_4_cif.got.tgz:7613.got - 2010.04.16 15:48:40.
