data_PCOD8234120
_publ_section_title
;
Structure prediction by ZEFSAII (Michael W. Deem and Ramdas Pophale) SiO2 
 PCOD8234120
Probable space group: P B C M
;
_chemical_formula_sum "Si O2"
_cell_formula_units_Z 40
_cell_length_a 12.368252
_cell_length_b 18.078387
_cell_length_c 9.154477
_cell_angle_alpha 90.000000
_cell_angle_beta 90.000000
_cell_angle_gamma 90.000000
_cell_volume 2046.923171
_symmetry_space_group_name_H-M "P B C M"
_symmetry_group_IT_number 57
_symmetry_cell_setting 'orthorhombic'
loop_
_space_group_symop_operation_xyz
x,y,z
-x,-y,1/2+z
x,1/2-y,-z
-x,1/2+y,1/2-z
-x,-y,-z
x,y,1/2-z
-x,1/2+y,z
x,1/2-y,1/2+z
loop_
_atom_site_type_symbol
_atom_site_label
_atom_site_fract_x
_atom_site_fract_y
_atom_site_fract_z
Si Si1 0.172275 0.419365 0.082844
Si Si2 0.212636 0.587321 0.419348
Si Si3 0.035797 0.675160 0.579553
Si Si4 0.456486 0.928780 0.919072
Si Si5 0.347800 0.326965 0.919816
O O1 0.207186 0.404084 0.250000
O O2 0.164380 0.506257 0.051428
O O3 0.055938 0.385266 0.047881
O O4 0.261549 0.385547 0.977317
O O5 0.201907 0.609517 0.250000
O O6 0.148472 0.646420 0.515259
O O7 0.336588 0.591356 0.473040
O O8 0.999786 0.750000 0.500000
O O9 0.050534 0.691090 0.750000
O O10 0.453765 0.950495 0.750000
O O11 0.532501 0.858375 0.949458
O O12 0.500000 0.000000 0.000000
O O13 0.325857 0.313977 0.750000
O O14 0.332933 0.250000 0.000000
#
# Coordination Sequence:
#
# PCOD8234120 Si02
#       5
#     8   8   8   8   8
#     4  10  21  39  63  89 119 155 195 246 300 353
#     4  10  21  39  63  89 120 155 196 245 297 354
#     4  11  24  40  59  86 119 158 201 245 299 353
#     4  10  21  38  61  88 119 155 195 241 293 349
#     4  11  23  37  58  89 121 157 199 243 296 352
#
# _framework density 19.541523000000002
#
# number of rings (size 3 to 8) (size 9 to 14) (size 15 to 20)
#    0.000    1.600    2.000    2.400    0.000    6.400 
#    0.000    2.000    0.000    0.000    0.000    0.000 
#    0.000    0.000    0.000    0.000    0.000    0.000 
#
# Total GULP energy -496236.704648 kJ/mol
# GULP energy per Si atom -12405.917616 kJ/mol
# Density = 1.949705 g / cm^3
# Si number density = 19.541523 Si / 1000 Ang^3
#
#
#
# Elastic Constant Matrix: (Units=GPa)
#
#
# Indices 1 2 3 4 5 6 
#
# 1 103.0900 10.4240 38.3487 0.0000 0.0000 0.0000
# 2 10.4240 53.0665 28.3053 0.0000 0.0000 0.0000
# 3 38.3487 28.3053 81.7885 0.0000 0.0000 0.0000
# 4 0.0000 0.0000 0.0000 34.6666 0.0000 0.0000
# 5 0.0000 0.0000 0.0000 0.0000 29.8561 0.0000
# 6 0.0000 0.0000 0.0000 0.0000 0.0000 24.4823
#
#
#
# Elastic Compliance Matrix: (Units=1/GPa)
#
#
# Indices 1 2 3 4 5 6 
#
# 1 0.011776 0.000775 -0.005789 0.000000 0.000000 0.000000
# 2 0.000775 0.023161 -0.008379 0.000000 0.000000 0.000000
# 3 -0.005789 -0.008379 0.017841 0.000000 0.000000 0.000000
# 4 0.000000 0.000000 0.000000 0.028846 0.000000 0.000000
# 5 0.000000 0.000000 0.000000 0.000000 0.033494 0.000000
# 6 0.000000 0.000000 0.000000 0.000000 0.000000 0.040846
#
#
# Mechanical properties :
#
#
# Convention : Reuss Voigt Hill
#
# Bulk Modulus (GPa) = 38.47512 43.56681 41.02096
# Shear Modulus (GPa) = 26.12130 28.52546 27.32338
#
# Velocity S-wave (km/s) = 3.66007 3.82479 3.74334
# Velocity P-wave (km/s) = 6.13132 6.46902 6.30244
#
# Compressibility (1/GPa) = 0.02599082
#
# Stress axis : x y z
#
# Youngs Moduli (GPa) = 84.92175 43.17537 56.05060
#
# Poissons Ratio (x) = -0.03346 0.32450
# Poissons Ratio (y) = -0.06581 0.46965
# Poissons Ratio (z) = 0.49165 0.36177
#
# Static dielectric constant tensor:
#      x y z
#    x 3.740680 0.000000 0.000000 
#    y 0.000000 3.533460 0.000000 
#    z 0.000000 0.000000 3.476290 
# 
# 
# High freq. dielectric constant tensor:
#      x y z
#    x 1.772650 0.000000 0.000000 
#    y 0.000000 1.763890 0.000000 
#    z 0.000000 0.000000 1.762890 
# 
# From -- ./inp_files/2621.got.cif
#   From: 2010.03.12/outbox.cif.g09.slc.cpg/sg57_2_cif.got.tgz:2621.got - 2010.04.16 15:48:40.
