data_PCOD8234593
_publ_section_title
;
Structure prediction by ZEFSAII (Michael W. Deem and Ramdas Pophale) SiO2 
 PCOD8234593
Probable space group: P B C M
;
_chemical_formula_sum "Si O2"
_cell_formula_units_Z 48
_cell_length_a 12.056062
_cell_length_b 8.681185
_cell_length_c 22.125099
_cell_angle_alpha 90.000000
_cell_angle_beta 90.000000
_cell_angle_gamma 90.000000
_cell_volume 2315.632876
_symmetry_space_group_name_H-M "P B C M"
_symmetry_group_IT_number 57
_symmetry_cell_setting 'orthorhombic'
loop_
_space_group_symop_operation_xyz
x,y,z
-x,-y,1/2+z
x,1/2-y,-z
-x,1/2+y,1/2-z
-x,-y,-z
x,y,1/2-z
-x,1/2+y,z
x,1/2-y,1/2+z
loop_
_atom_site_type_symbol
_atom_site_label
_atom_site_fract_x
_atom_site_fract_y
_atom_site_fract_z
Si Si1 0.334860 0.627720 0.375383
Si Si2 0.631136 0.885098 0.750000
Si Si3 0.391321 0.021102 0.750000
Si Si4 0.861413 0.539434 0.559786
Si Si5 0.449530 0.383349 0.545430
Si Si6 0.727660 0.023987 0.632385
Si Si7 0.916893 0.620633 0.074538
O O1 0.335746 0.542899 0.310908
O O2 0.258647 0.525147 0.420037
O O3 0.456945 0.656221 0.404002
O O4 0.284522 0.794130 0.363356
O O5 0.613826 0.703780 0.750000
O O6 0.517704 0.975798 0.750000
O O7 0.698541 0.936251 0.692576
O O8 0.863530 0.568796 0.488812
O O9 0.892021 0.701630 0.591253
O O10 0.951670 0.409045 0.577000
O O11 0.410232 0.250000 0.500000
O O12 0.500000 0.500000 0.500000
O O13 0.342435 0.451040 0.577707
O O14 0.857080 0.988125 0.622989
#
# Coordination Sequence:
#
# PCOD8234593 Si02
#       7
#     8   4   4   8   8   8   8
#     4  12  25  43  65  94 129 174 215 270 320 388
#     4  12  26  44  65  92 125 176 218 269 319 389
#     4  12  26  44  65  90 129 172 222 265 323 381
#     4  10  22  40  66  95 134 168 216 261 327 380
#     4  12  26  39  60  95 132 168 206 262 323 384
#     4  12  25  42  67  92 131 169 221 263 327 382
#     4  10  22  40  65  97 130 173 211 267 318 390
#
# _framework density 20.728674000000002
#
# number of rings (size 3 to 8) (size 9 to 14) (size 15 to 20)
#    0.000    0.667    3.333    4.500    7.000    1.333 
#    0.000    0.833    0.000    0.000    0.000    0.000 
#    0.000    0.000    0.000    0.000    0.000    0.000 
#
# Total GULP energy -595153.519204 kJ/mol
# GULP energy per Si atom -12399.031650 kJ/mol
# Density = 2.068149 g / cm^3
# Si number density = 20.728674 Si / 1000 Ang^3
#
#
#
# Elastic Constant Matrix: (Units=GPa)
#
#
# Indices 1 2 3 4 5 6 
#
# 1 70.5046 2.9193 13.6321 0.0000 0.0000 0.0000
# 2 2.9193 125.7962 23.8390 0.0000 0.0000 0.0000
# 3 13.6321 23.8390 92.5599 0.0000 0.0000 0.0000
# 4 0.0000 0.0000 0.0000 47.5844 0.0000 0.0000
# 5 0.0000 0.0000 0.0000 0.0000 28.3009 0.0000
# 6 0.0000 0.0000 0.0000 0.0000 0.0000 36.8793
#
#
#
# Elastic Compliance Matrix: (Units=1/GPa)
#
#
# Indices 1 2 3 4 5 6 
#
# 1 0.014600 0.000072 -0.002169 0.000000 0.000000 0.000000
# 2 0.000072 0.008358 -0.002163 0.000000 0.000000 0.000000
# 3 -0.002169 -0.002163 0.011680 0.000000 0.000000 0.000000
# 4 0.000000 0.000000 0.000000 0.021015 0.000000 0.000000
# 5 0.000000 0.000000 0.000000 0.000000 0.035335 0.000000
# 6 0.000000 0.000000 0.000000 0.000000 0.000000 0.027116
#
#
# Mechanical properties :
#
#
# Convention : Reuss Voigt Hill
#
# Bulk Modulus (GPa) = 38.28747 41.07129 39.67938
# Shear Modulus (GPa) = 36.94705 39.11761 38.03233
#
# Velocity S-wave (km/s) = 4.22644 4.34882 4.28807
# Velocity P-wave (km/s) = 6.50599 6.71365 6.61064
#
# Compressibility (1/GPa) = 0.02611821
#
# Stress axis : x y z
#
# Youngs Moduli (GPa) = 68.49393 119.65134 85.61383
#
# Poissons Ratio (x) = -0.00864 0.18568
# Poissons Ratio (y) = -0.00494 0.18520
# Poissons Ratio (z) = 0.14855 0.25882
#
# Static dielectric constant tensor:
#      x y z
#    x 3.555580 0.000000 0.000000 
#    y 0.000000 3.874490 0.000000 
#    z 0.000000 0.000000 3.789070 
# 
# 
# High freq. dielectric constant tensor:
#      x y z
#    x 1.810600 0.000000 0.000000 
#    y 0.000000 1.831870 0.000000 
#    z 0.000000 0.000000 1.805520 
# 
# From -- ./inp_files/27144.got.cif
#   From: 2010.03.12/outbox.cif.g09.slc.cpg/sg57_14_cif.got.tgz:27144.got - 2010.04.16 15:48:40.
