data_PCOD8234736
_publ_section_title
;
Structure prediction by ZEFSAII (Michael W. Deem and Ramdas Pophale) SiO2 
 PCOD8234736
Probable space group: P B C M
;
_chemical_formula_sum "Si O2"
_cell_formula_units_Z 48
_cell_length_a 8.851621
_cell_length_b 11.601900
_cell_length_c 21.785952
_cell_angle_alpha 90.000000
_cell_angle_beta 90.000000
_cell_angle_gamma 90.000000
_cell_volume 2237.321885
_symmetry_space_group_name_H-M "P B C M"
_symmetry_group_IT_number 57
_symmetry_cell_setting 'orthorhombic'
loop_
_space_group_symop_operation_xyz
x,y,z
-x,-y,1/2+z
x,1/2-y,-z
-x,1/2+y,1/2-z
-x,-y,-z
x,y,1/2-z
-x,1/2+y,z
x,1/2-y,1/2+z
loop_
_atom_site_type_symbol
_atom_site_label
_atom_site_fract_x
_atom_site_fract_y
_atom_site_fract_z
Si Si1 0.263476 0.637459 0.317623
Si Si2 0.410043 0.306701 0.682972
Si Si3 0.361392 0.371745 0.472256
Si Si4 0.208003 0.103807 0.640827
Si Si5 0.872486 0.135431 0.678868
Si Si6 0.361492 0.988229 0.409449
O O1 0.244822 0.583621 0.250000
O O2 0.411375 0.719865 0.321728
O O3 0.272041 0.527303 0.361498
O O4 0.127331 0.726042 0.331600
O O5 0.373865 0.361228 0.750000
O O6 0.314272 0.189687 0.679135
O O7 0.380835 0.397934 0.630368
O O8 0.414557 0.250000 0.500000
O O9 0.211609 0.354446 0.430282
O O10 0.317304 0.466894 0.522593
O O11 0.489885 0.410977 0.422442
O O12 0.042402 0.095117 0.668633
O O13 0.824476 0.105838 0.750000
O O14 0.768071 0.081538 0.625751
#
# Coordination Sequence:
#
# PCOD8234736 Si02
#       6
#     8   8   8   8   8   8
#     4  10  23  41  64  98 135 176 226 282 346 410
#     4  11  22  39  69 100 130 176 232 292 347 403
#     4  11  24  44  71 101 135 182 239 291 342 410
#     4  12  24  44  68  99 143 180 231 282 351 421
#     4  11  26  44  67 102 144 183 225 284 359 424
#     4  11  24  43  70  98 135 181 235 290 345 412
#
# _framework density 21.454222000000001
#
# number of rings (size 3 to 8) (size 9 to 14) (size 15 to 20)
#    0.000    1.000    3.333    3.000    2.333    0.667 
#    0.000    0.833    0.000    0.000    0.000    0.000 
#    0.000    0.000    0.000    0.000    0.000    0.000 
#
# Total GULP energy -594673.736619 kJ/mol
# GULP energy per Si atom -12389.036180 kJ/mol
# Density = 2.140539 g / cm^3
# Si number density = 21.454222 Si / 1000 Ang^3
#
#
#
# Elastic Constant Matrix: (Units=GPa)
#
#
# Indices 1 2 3 4 5 6 
#
# 1 86.8011 48.8344 51.2711 0.0000 0.0000 0.0000
# 2 48.8344 106.9368 39.3447 0.0000 0.0000 0.0000
# 3 51.2711 39.3447 129.0874 0.0000 0.0000 0.0000
# 4 0.0000 0.0000 0.0000 39.4854 0.0000 0.0000
# 5 0.0000 0.0000 0.0000 0.0000 50.0730 0.0000
# 6 0.0000 0.0000 0.0000 0.0000 0.0000 30.0200
#
#
#
# Elastic Compliance Matrix: (Units=1/GPa)
#
#
# Indices 1 2 3 4 5 6 
#
# 1 0.018241 -0.006380 -0.005300 0.000000 0.000000 0.000000
# 2 -0.006380 0.012764 -0.001356 0.000000 0.000000 0.000000
# 3 -0.005300 -0.001356 0.010265 0.000000 0.000000 0.000000
# 4 0.000000 0.000000 0.000000 0.025326 0.000000 0.000000
# 5 0.000000 0.000000 0.000000 0.000000 0.019971 0.000000
# 6 0.000000 0.000000 0.000000 0.000000 0.000000 0.033311
#
#
# Mechanical properties :
#
#
# Convention : Reuss Voigt Hill
#
# Bulk Modulus (GPa) = 65.80345 66.85843 66.33094
# Shear Modulus (GPa) = 33.10908 36.14069 34.62488
#
# Velocity S-wave (km/s) = 3.93267 4.10878 4.02169
# Velocity P-wave (km/s) = 7.16655 7.33078 7.24913
#
# Compressibility (1/GPa) = 0.01519677
#
# Stress axis : x y z
#
# Youngs Moduli (GPa) = 54.82268 78.34670 97.41562
#
# Poissons Ratio (x) = 0.49983 0.51634
# Poissons Ratio (y) = 0.34976 0.13213
# Poissons Ratio (z) = 0.29058 0.10627
#
# Static dielectric constant tensor:
#      x y z
#    x 3.706720 0.000000 0.000000 
#    y 0.000000 3.785110 0.000000 
#    z 0.000000 0.000000 4.187170 
# 
# 
# High freq. dielectric constant tensor:
#      x y z
#    x 1.818840 0.000000 0.000000 
#    y 0.000000 1.848630 0.000000 
#    z 0.000000 0.000000 1.857990 
# 
# From -- ./inp_files/26714.got.cif
#   From: 2010.03.12/outbox.cif.g09.slc.cpg/sg57_14_cif.got.tgz:26714.got - 2010.04.16 15:48:40.
