data_PCOD8234348
_publ_section_title
;
Structure prediction by ZEFSAII (Michael W. Deem and Ramdas Pophale) SiO2 
 PCOD8234348
Probable space group: P B C M
;
_chemical_formula_sum "Si O2"
_cell_formula_units_Z 64
_cell_length_a 12.433779
_cell_length_b 15.173725
_cell_length_c 16.464810
_cell_angle_alpha 90.000000
_cell_angle_beta 90.000000
_cell_angle_gamma 90.000000
_cell_volume 3106.362081
_symmetry_space_group_name_H-M "P B C M"
_symmetry_group_IT_number 57
_symmetry_cell_setting 'orthorhombic'
loop_
_space_group_symop_operation_xyz
x,y,z
-x,-y,1/2+z
x,1/2-y,-z
-x,1/2+y,1/2-z
-x,-y,-z
x,y,1/2-z
-x,1/2+y,z
x,1/2-y,1/2+z
loop_
_atom_site_type_symbol
_atom_site_label
_atom_site_fract_x
_atom_site_fract_y
_atom_site_fract_z
Si Si1 0.079398 0.646689 0.342471
Si Si2 0.318031 0.185054 0.926142
Si Si3 0.987480 0.023812 0.907212
Si Si4 0.276114 0.750838 0.155002
Si Si5 0.487870 0.292232 0.654541
Si Si6 0.242609 0.548353 0.845207
Si Si7 0.921888 0.715977 0.590998
Si Si8 0.595144 0.948105 0.957884
O O1 0.108117 0.655365 0.250000
O O2 0.066753 0.543968 0.362474
O O3 0.185849 0.687131 0.386755
O O4 0.972434 0.704851 0.357269
O O5 0.409325 0.207957 0.859598
O O6 0.201636 0.197769 0.884559
O O7 0.333110 0.250000 0.000000
O O8 0.333173 0.088745 0.966570
O O9 0.016037 0.125252 0.891563
O O10 0.869045 0.004430 0.873017
O O11 0.000000 0.000000 0.000000
O O12 0.286034 0.734958 0.250000
O O13 0.394374 0.732298 0.119427
O O14 0.236890 0.848746 0.136307
O O15 0.487545 0.315698 0.750000
O O16 0.448962 0.374169 0.602294
O O17 0.263787 0.527947 0.750000
O O18 0.336307 0.511176 0.900895
O O19 0.931916 0.750000 0.500000
O O20 0.500000 0.000000 0.000000
#
# Coordination Sequence:
#
# PCOD8234348 Si02
#       8
#     8   8   8   8   8   8   8   8
#     4  11  24  41  63  93 128 170 222 280 335 399
#     4   9  21  39  60  90 127 162 214 267 325 401
#     4  12  24  39  64  98 134 175 226 278 342 409
#     4   9  20  40  62  89 126 164 215 270 322 389
#     4  10  21  40  65  91 122 169 220 273 336 402
#     4  11  23  41  66  96 131 176 230 279 331 410
#     4  11  22  42  63  92 130 172 216 272 338 404
#     4  11  23  40  61  94 130 169 218 273 339 405
#
# _framework density 20.602878
#
# number of rings (size 3 to 8) (size 9 to 14) (size 15 to 20)
#    0.000    1.500    2.500    2.250    3.500    3.000 
#    0.000    2.500    0.000    0.000    0.000    0.000 
#    0.000    0.000    0.000    0.000    0.000    0.000 
#
# Total GULP energy -793343.636735 kJ/mol
# GULP energy per Si atom -12395.994324 kJ/mol
# Density = 2.055598 g / cm^3
# Si number density = 20.602878 Si / 1000 Ang^3
#
#
#
# Elastic Constant Matrix: (Units=GPa)
#
#
# Indices 1 2 3 4 5 6 
#
# 1 148.4379 39.8497 42.3580 0.0000 0.0000 0.0000
# 2 39.8497 85.7892 29.3837 0.0000 0.0000 0.0000
# 3 42.3580 29.3837 67.4202 0.0000 0.0000 0.0000
# 4 0.0000 0.0000 0.0000 32.8262 0.0000 0.0000
# 5 0.0000 0.0000 0.0000 0.0000 32.7731 0.0000
# 6 0.0000 0.0000 0.0000 0.0000 0.0000 11.6150
#
#
#
# Elastic Compliance Matrix: (Units=1/GPa)
#
#
# Indices 1 2 3 4 5 6 
#
# 1 0.008654 -0.002536 -0.004332 0.000000 0.000000 0.000000
# 2 -0.002536 0.014445 -0.004702 0.000000 0.000000 0.000000
# 3 -0.004332 -0.004702 0.019603 0.000000 0.000000 0.000000
# 4 0.000000 0.000000 0.000000 0.030463 0.000000 0.000000
# 5 0.000000 0.000000 0.000000 0.000000 0.030513 0.000000
# 6 0.000000 0.000000 0.000000 0.000000 0.000000 0.086095
#
#
# Mechanical properties :
#
#
# Convention : Reuss Voigt Hill
#
# Bulk Modulus (GPa) = 51.11919 58.31446 54.71683
# Shear Modulus (GPa) = 22.78591 28.11327 25.44959
#
# Velocity S-wave (km/s) = 3.32920 3.69796 3.51842
# Velocity P-wave (km/s) = 6.29632 6.82633 6.56667
#
# Compressibility (1/GPa) = 0.01956212
#
# Stress axis : x y z
#
# Youngs Moduli (GPa) = 115.55731 69.22775 51.01233
#
# Poissons Ratio (x) = 0.17557 0.22096
# Poissons Ratio (y) = 0.29307 0.23987
# Poissons Ratio (z) = 0.50054 0.32552
#
# Static dielectric constant tensor:
#      x y z
#    x 4.029800 0.000000 0.000000 
#    y 0.000000 4.131200 0.000000 
#    z 0.000000 0.000000 3.600040 
# 
# 
# High freq. dielectric constant tensor:
#      x y z
#    x 1.820500 0.000000 0.000000 
#    y 0.000000 1.809250 0.000000 
#    z 0.000000 0.000000 1.794060 
# 
# From -- ./inp_files/22065.got.cif
#   From: 2010.03.12/outbox.cif.g09.slc.cpg/sg57_12_cif.got.tgz:22065.got - 2010.04.16 15:48:40.
