data_PCOD8234923
_publ_section_title
;
Structure prediction by ZEFSAII (Michael W. Deem and Ramdas Pophale) SiO2 
 PCOD8234923
Probable space group: P B C M
;
_chemical_formula_sum "Si O2"
_cell_formula_units_Z 64
_cell_length_a 13.864091
_cell_length_b 9.739269
_cell_length_c 28.229165
_cell_angle_alpha 90.000000
_cell_angle_beta 90.000000
_cell_angle_gamma 90.000000
_cell_volume 3811.674386
_symmetry_space_group_name_H-M "P B C M"
_symmetry_group_IT_number 57
_symmetry_cell_setting 'orthorhombic'
loop_
_space_group_symop_operation_xyz
x,y,z
-x,-y,1/2+z
x,1/2-y,-z
-x,1/2+y,1/2-z
-x,-y,-z
x,y,1/2-z
-x,1/2+y,z
x,1/2-y,1/2+z
loop_
_atom_site_type_symbol
_atom_site_label
_atom_site_fract_x
_atom_site_fract_y
_atom_site_fract_z
Si Si1 0.098716 0.420082 0.047800
Si Si2 0.099267 0.990472 0.348394
Si Si3 0.413726 0.843296 0.193947
Si Si4 0.202014 0.745249 0.306152
Si Si5 0.910986 0.898191 0.553895
Si Si6 0.581761 0.849843 0.806559
Si Si7 0.871599 0.982076 0.147064
Si Si8 0.207916 0.223837 0.304102
O O1 0.066986 0.263757 0.060785
O O2 0.162501 0.477961 0.091669
O O3 0.008863 0.520920 0.046068
O O4 0.149734 0.421061 0.995629
O O5 0.124641 0.833636 0.335969
O O6 0.984960 0.014271 0.347829
O O7 0.141694 0.038091 0.399883
O O8 0.152291 0.079281 0.308136
O O9 0.423382 0.843478 0.250000
O O10 0.308702 0.791115 0.179096
O O11 0.495393 0.742820 0.172621
O O12 0.430765 0.995798 0.173568
O O13 0.183454 0.757212 0.250000
O O14 0.190447 0.589268 0.322984
O O15 0.581092 0.854398 0.750000
O O16 0.683461 0.788681 0.824271
O O17 0.852791 0.832524 0.167071
O O18 0.210972 0.269690 0.250000
#
# Coordination Sequence:
#
# PCOD8234923 Si02
#       8
#     8   8   8   8   8   8   8   8
#     4   9  18  33  50  72  95 124 167 215 262 298
#     4  11  21  35  50  70 100 142 175 207 243 288
#     4   9  18  33  51  70  92 124 164 212 261 292
#     4  11  23  36  49  70 105 140 175 211 243 290
#     4   9  18  32  52  71  94 126 165 216 264 296
#     4   9  18  32  51  70  92 123 163 213 259 295
#     4  11  23  33  48  73 101 140 175 207 241 290
#     4  11  21  34  49  70 101 136 175 206 241 294
#
# _framework density 16.790521999999999
#
# number of rings (size 3 to 8) (size 9 to 14) (size 15 to 20)
#    0.000    2.000    2.500    1.500    7.000    3.000 
#    0.000    0.000    0.000    0.000    0.000    0.000 
#    0.000    6.000    0.000    0.000    0.000    0.000 
#
# Total GULP energy -793107.138769 kJ/mol
# GULP energy per Si atom -12392.299043 kJ/mol
# Density = 1.675231 g / cm^3
# Si number density = 16.790522 Si / 1000 Ang^3
#
#
#
# Elastic Constant Matrix: (Units=GPa)
#
#
# Indices 1 2 3 4 5 6 
#
# 1 68.3818 28.7746 30.6754 0.0000 0.0000 0.0000
# 2 28.7746 75.0039 30.7866 0.0000 0.0000 0.0000
# 3 30.6754 30.7866 75.4449 0.0000 0.0000 0.0000
# 4 0.0000 0.0000 0.0000 24.1281 0.0000 0.0000
# 5 0.0000 0.0000 0.0000 0.0000 1.6545 0.0000
# 6 0.0000 0.0000 0.0000 0.0000 0.0000 26.8326
#
#
#
# Elastic Compliance Matrix: (Units=1/GPa)
#
#
# Indices 1 2 3 4 5 6 
#
# 1 0.019351 -0.005038 -0.005812 0.000000 0.000000 0.000000
# 2 -0.005038 0.017327 -0.005022 0.000000 0.000000 0.000000
# 3 -0.005812 -0.005022 0.017667 0.000000 0.000000 0.000000
# 4 0.000000 0.000000 0.000000 0.041445 0.000000 0.000000
# 5 0.000000 0.000000 0.000000 0.000000 0.604418 0.000000
# 6 0.000000 0.000000 0.000000 0.000000 0.000000 0.037268
#
#
# Mechanical properties :
#
#
# Convention : Reuss Voigt Hill
#
# Bulk Modulus (GPa) = 44.24683 44.36708 44.30695
# Shear Modulus (GPa) = 6.43704 19.09597 12.76650
#
# Velocity S-wave (km/s) = 1.96012 3.37606 2.76042
# Velocity P-wave (km/s) = 5.61536 6.45587 6.05023
#
# Compressibility (1/GPa) = 0.02260049
#
# Stress axis : x y z
#
# Youngs Moduli (GPa) = 51.67673 57.71380 56.60209
#
# Poissons Ratio (x) = 0.29077 0.32898
# Poissons Ratio (y) = 0.26036 0.28426
# Poissons Ratio (z) = 0.30035 0.28984
#
# Static dielectric constant tensor:
#      x y z
#    x 2.938990 0.000000 0.000000 
#    y 0.000000 3.320900 0.000000 
#    z 0.000000 0.000000 3.440440 
# 
# 
# High freq. dielectric constant tensor:
#      x y z
#    x 1.609970 0.000000 0.000000 
#    y 0.000000 1.668480 0.000000 
#    z 0.000000 0.000000 1.628350 
# 
# From -- ./inp_files/29912.got.cif
#   From: 2010.03.12/outbox.cif.g09.slc.cpg/sg57_15_cif.got.tgz:29912.got - 2010.04.16 15:48:40.
