data_PCOD8234397
_publ_section_title
;
Structure prediction by ZEFSAII (Michael W. Deem and Ramdas Pophale) SiO2 
 PCOD8234397
Probable space group: P B C M
;
_chemical_formula_sum "Si O2"
_cell_formula_units_Z 40
_cell_length_a 8.976212
_cell_length_b 12.870964
_cell_length_c 13.880087
_cell_angle_alpha 90.000000
_cell_angle_beta 90.000000
_cell_angle_gamma 90.000000
_cell_volume 1603.601172
_symmetry_space_group_name_H-M "P B C M"
_symmetry_group_IT_number 57
_symmetry_cell_setting 'orthorhombic'
loop_
_space_group_symop_operation_xyz
x,y,z
-x,-y,1/2+z
x,1/2-y,-z
-x,1/2+y,1/2-z
-x,-y,-z
x,y,1/2-z
-x,1/2+y,z
x,1/2-y,1/2+z
loop_
_atom_site_type_symbol
_atom_site_label
_atom_site_fract_x
_atom_site_fract_y
_atom_site_fract_z
Si Si1 0.449867 0.136029 0.516751
Si Si2 0.975448 0.731184 0.640949
Si Si3 0.238280 0.082341 0.138593
Si Si4 0.779746 0.972418 0.141324
Si Si5 0.796667 0.114048 0.967797
O O1 0.383359 0.250000 0.500000
O O2 0.395283 0.078036 0.419508
O O3 0.378745 0.073513 0.606124
O O4 0.624332 0.143179 0.531339
O O5 0.027530 0.755595 0.750000
O O6 0.116477 0.718254 0.568370
O O7 0.871465 0.825359 0.603186
O O8 0.891115 0.622761 0.635359
O O9 0.275731 0.094890 0.250000
O O10 0.161728 0.972617 0.113384
O O11 0.765046 0.015447 0.250000
O O12 0.838544 0.067491 0.073780
#
# Coordination Sequence:
#
# PCOD8234397 Si02
#       5
#     8   8   8   8   8
#     4  11  23  42  64  99 137 178 230 281 350 408
#     4  10  21  41  68  98 134 179 227 280 345 416
#     4  10  21  42  73 100 136 186 232 280 352 422
#     4  10  21  41  67  94 132 181 228 280 342 413
#     4  11  24  40  67 104 137 172 232 295 344 410
#
# _framework density 24.943857000000001
#
# number of rings (size 3 to 8) (size 9 to 14) (size 15 to 20)
#    0.000    1.600    2.000    3.600    0.000    4.000 
#   10.800    0.000    0.000    4.800    0.000    0.000 
#    0.000    0.000    0.000    0.000    0.000    0.000 
#
# Total GULP energy -495775.375683 kJ/mol
# GULP energy per Si atom -12394.384392 kJ/mol
# Density = 2.488708 g / cm^3
# Si number density = 24.943857 Si / 1000 Ang^3
#
#
#
# Elastic Constant Matrix: (Units=GPa)
#
#
# Indices 1 2 3 4 5 6 
#
# 1 136.6094 6.5824 64.4235 0.0000 0.0000 0.0000
# 2 6.5824 79.6603 25.1970 0.0000 0.0000 0.0000
# 3 64.4235 25.1970 148.3640 0.0000 0.0000 0.0000
# 4 0.0000 0.0000 0.0000 35.1309 0.0000 0.0000
# 5 0.0000 0.0000 0.0000 0.0000 9.7325 0.0000
# 6 0.0000 0.0000 0.0000 0.0000 0.0000 17.7561
#
#
#
# Elastic Compliance Matrix: (Units=1/GPa)
#
#
# Indices 1 2 3 4 5 6 
#
# 1 0.009227 0.000534 -0.004097 0.000000 0.000000 0.000000
# 2 0.000534 0.013297 -0.002490 0.000000 0.000000 0.000000
# 3 -0.004097 -0.002490 0.008942 0.000000 0.000000 0.000000
# 4 0.000000 0.000000 0.000000 0.028465 0.000000 0.000000
# 5 0.000000 0.000000 0.000000 0.000000 0.102749 0.000000
# 6 0.000000 0.000000 0.000000 0.000000 0.000000 0.056319
#
#
# Mechanical properties :
#
#
# Convention : Reuss Voigt Hill
#
# Bulk Modulus (GPa) = 51.65657 61.89327 56.77492
# Shear Modulus (GPa) = 21.04751 30.41928 25.73340
#
# Velocity S-wave (km/s) = 2.90797 3.49594 3.21542
# Velocity P-wave (km/s) = 5.65943 6.41579 6.04944
#
# Compressibility (1/GPa) = 0.01935862
#
# Stress axis : x y z
#
# Youngs Moduli (GPa) = 108.38295 75.20619 111.83091
#
# Poissons Ratio (x) = -0.04012 0.45817
# Poissons Ratio (y) = -0.05782 0.27845
# Poissons Ratio (z) = 0.44405 0.18725
#
# Static dielectric constant tensor:
#      x y z
#    x 4.229570 0.000000 0.000000 
#    y 0.000000 5.304400 0.000000 
#    z 0.000000 0.000000 4.878680 
# 
# 
# High freq. dielectric constant tensor:
#      x y z
#    x 1.987480 0.000000 0.000000 
#    y 0.000000 2.021010 0.000000 
#    z 0.000000 0.000000 1.992430 
# 
# From -- ./inp_files/15901.got.cif
#   From: 2010.03.12/outbox.cif.g09.slc.cpg/sg57_8_cif.got.tgz:15901.got - 2010.04.16 15:48:40.
