data_PCOD8234158
_publ_section_title
;
Structure prediction by ZEFSAII (Michael W. Deem and Ramdas Pophale) SiO2 
 PCOD8234158
Probable space group: P B C M
;
_chemical_formula_sum "Si O2"
_cell_formula_units_Z 48
_cell_length_a 9.399069
_cell_length_b 14.924673
_cell_length_c 17.801554
_cell_angle_alpha 90.000000
_cell_angle_beta 90.000000
_cell_angle_gamma 90.000000
_cell_volume 2497.166950
_symmetry_space_group_name_H-M "P B C M"
_symmetry_group_IT_number 57
_symmetry_cell_setting 'orthorhombic'
loop_
_space_group_symop_operation_xyz
x,y,z
-x,-y,1/2+z
x,1/2-y,-z
-x,1/2+y,1/2-z
-x,-y,-z
x,y,1/2-z
-x,1/2+y,z
x,1/2-y,1/2+z
loop_
_atom_site_type_symbol
_atom_site_label
_atom_site_fract_x
_atom_site_fract_y
_atom_site_fract_z
Si Si1 0.832553 0.982508 0.423645
Si Si2 0.667384 0.863362 0.837499
Si Si3 0.158984 0.519167 0.593798
Si Si4 0.858466 0.724067 0.584369
Si Si5 0.149584 0.788730 0.161214
Si Si6 0.657569 0.375557 0.838188
O O1 0.806761 0.877692 0.411655
O O2 0.993409 0.007905 0.400775
O O3 0.793019 0.009828 0.508069
O O4 0.726458 0.034963 0.370370
O O5 0.678247 0.838876 0.750000
O O6 0.728958 0.783422 0.887100
O O7 0.505264 0.872877 0.864112
O O8 0.751522 0.954894 0.852423
O O9 0.189804 0.619979 0.619270
O O10 0.902508 0.750000 0.500000
O O11 0.992968 0.743216 0.637458
O O12 0.153729 0.804570 0.250000
O O13 0.261545 0.713807 0.134155
O O14 0.671373 0.383578 0.750000
#
# Coordination Sequence:
#
# PCOD8234158 Si02
#       6
#     8   8   8   8   8   8
#     4  10  22  39  62  90 122 154 199 255 302 350
#     4  11  23  41  62  87 124 165 200 244 299 359
#     4  10  21  38  63  91 118 155 201 252 301 353
#     4  11  22  40  62  90 121 155 204 253 301 358
#     4  10  22  39  62  90 119 157 204 251 300 355
#     4  10  24  41  59  89 126 163 201 243 298 361
#
# _framework density 19.221781
#
# number of rings (size 3 to 8) (size 9 to 14) (size 15 to 20)
#    0.000    1.667    1.667    2.000    4.667    7.333 
#    3.000    3.333    0.000    0.000    0.000    0.000 
#    0.000    0.000    0.000    0.000    0.000    0.000 
#
# Total GULP energy -595468.096368 kJ/mol
# GULP energy per Si atom -12405.585341 kJ/mol
# Density = 1.917803 g / cm^3
# Si number density = 19.221781 Si / 1000 Ang^3
#
#
#
# Elastic Constant Matrix: (Units=GPa)
#
#
# Indices 1 2 3 4 5 6 
#
# 1 98.7292 59.5548 25.4362 0.0000 0.0000 0.0000
# 2 59.5548 117.3234 31.4233 0.0000 0.0000 0.0000
# 3 25.4362 31.4233 36.8946 0.0000 0.0000 0.0000
# 4 0.0000 0.0000 0.0000 36.1082 0.0000 0.0000
# 5 0.0000 0.0000 0.0000 0.0000 18.9905 0.0000
# 6 0.0000 0.0000 0.0000 0.0000 0.0000 19.2180
#
#
#
# Elastic Compliance Matrix: (Units=1/GPa)
#
#
# Indices 1 2 3 4 5 6 
#
# 1 0.015305 -0.006404 -0.005098 0.000000 0.000000 0.000000
# 2 -0.006404 0.013722 -0.007272 0.000000 0.000000 0.000000
# 3 -0.005098 -0.007272 0.036812 0.000000 0.000000 0.000000
# 4 0.000000 0.000000 0.000000 0.027695 0.000000 0.000000
# 5 0.000000 0.000000 0.000000 0.000000 0.052658 0.000000
# 6 0.000000 0.000000 0.000000 0.000000 0.000000 0.052035
#
#
# Mechanical properties :
#
#
# Convention : Reuss Voigt Hill
#
# Bulk Modulus (GPa) = 35.34524 53.97508 44.66016
# Shear Modulus (GPa) = 20.39128 23.96553 22.17841
#
# Velocity S-wave (km/s) = 3.26059 3.53482 3.40047
# Velocity P-wave (km/s) = 5.70993 6.69336 6.22111
#
# Compressibility (1/GPa) = 0.02829235
#
# Stress axis : x y z
#
# Youngs Moduli (GPa) = 65.33925 72.87737 27.16489
#
# Poissons Ratio (x) = 0.46667 0.13847
# Poissons Ratio (y) = 0.41840 0.19754
# Poissons Ratio (z) = 0.33307 0.52997
#
# Static dielectric constant tensor:
#      x y z
#    x 3.551000 0.000000 0.000000 
#    y 0.000000 3.591590 0.000000 
#    z 0.000000 0.000000 3.546030 
# 
# 
# High freq. dielectric constant tensor:
#      x y z
#    x 1.743220 0.000000 0.000000 
#    y 0.000000 1.761860 0.000000 
#    z 0.000000 0.000000 1.755160 
# 
# From -- ./inp_files/20963.got.cif
#   From: 2010.03.12/outbox.cif.g09.slc.cpg/sg57_11_cif.got.tgz:20963.got - 2010.04.16 15:48:40.
