data_PCOD8234199
_publ_section_title
;
Structure prediction by ZEFSAII (Michael W. Deem and Ramdas Pophale) SiO2 
 PCOD8234199
Probable space group: P B C M
;
_chemical_formula_sum "Si O2"
_cell_formula_units_Z 64
_cell_length_a 9.187086
_cell_length_b 10.684245
_cell_length_c 32.031543
_cell_angle_alpha 90.000000
_cell_angle_beta 90.000000
_cell_angle_gamma 90.000000
_cell_volume 3144.122654
_symmetry_space_group_name_H-M "P B C M"
_symmetry_group_IT_number 57
_symmetry_cell_setting 'orthorhombic'
loop_
_space_group_symop_operation_xyz
x,y,z
-x,-y,1/2+z
x,1/2-y,-z
-x,1/2+y,1/2-z
-x,-y,-z
x,y,1/2-z
-x,1/2+y,z
x,1/2-y,1/2+z
loop_
_atom_site_type_symbol
_atom_site_label
_atom_site_fract_x
_atom_site_fract_y
_atom_site_fract_z
Si Si1 0.137597 0.526333 0.857469
Si Si2 0.860513 0.666096 0.069010
Si Si3 0.168154 0.096302 0.619667
Si Si4 0.347300 0.010091 0.022812
Si Si5 0.336177 0.683851 0.591464
Si Si6 0.180831 0.900257 0.948614
Si Si7 0.383569 0.034706 0.200744
Si Si8 0.445960 0.300707 0.161036
O O1 0.160448 0.413678 0.889324
O O2 0.210082 0.653398 0.875082
O O3 0.217384 0.483970 0.814913
O O4 0.968140 0.558205 0.850900
O O5 0.873752 0.809402 0.082310
O O6 0.721407 0.644017 0.037837
O O7 0.010161 0.627378 0.046633
O O8 0.283686 0.152727 0.651569
O O9 0.221553 0.977295 0.593306
O O10 0.375630 0.938991 0.065810
O O11 0.500000 0.000000 0.000000
O O12 0.222974 0.958499 0.992634
O O13 0.280535 0.779038 0.556765
O O14 0.477752 0.729659 0.616731
O O15 0.383570 0.032525 0.250000
O O16 0.446562 0.170279 0.186568
O O17 0.478068 0.916823 0.184663
#
# Coordination Sequence:
#
# PCOD8234199 Si02
#       8
#     8   8   8   8   8   8   8   8
#     4   9  20  40  64  89 117 163 207 255 311 385
#     4  10  21  39  61  85 117 167 216 259 318 377
#     4  11  21  38  66  91 119 163 222 264 305 391
#     4  11  24  39  56  85 124 162 217 274 325 368
#     4  10  21  39  62  85 121 167 213 259 317 384
#     4  11  22  38  57  87 123 164 212 272 322 369
#     4  11  23  43  67  99 135 164 203 261 329 396
#     4  11  23  40  70  98 129 172 216 262 322 395
#
# _framework density 20.355439000000001
#
# number of rings (size 3 to 8) (size 9 to 14) (size 15 to 20)
#    0.000    1.500    2.500    2.625    1.750    0.500 
#    4.500    1.250    0.000    0.000    0.000    0.000 
#    0.000    0.000    0.000    0.000    0.000    0.000 
#
# Total GULP energy -793205.032686 kJ/mol
# GULP energy per Si atom -12393.828636 kJ/mol
# Density = 2.030911 g / cm^3
# Si number density = 20.355439 Si / 1000 Ang^3
#
#
#
# Elastic Constant Matrix: (Units=GPa)
#
#
# Indices 1 2 3 4 5 6 
#
# 1 115.7619 32.4429 53.6121 0.0000 0.0000 0.0000
# 2 32.4429 76.3982 15.6712 0.0000 0.0000 0.0000
# 3 53.6121 15.6712 92.6249 0.0000 0.0000 0.0000
# 4 0.0000 0.0000 0.0000 29.0329 0.0000 0.0000
# 5 0.0000 0.0000 0.0000 0.0000 29.0159 0.0000
# 6 0.0000 0.0000 0.0000 0.0000 0.0000 27.7942
#
#
#
# Elastic Compliance Matrix: (Units=1/GPa)
#
#
# Indices 1 2 3 4 5 6 
#
# 1 0.012933 -0.004099 -0.006792 0.000000 0.000000 0.000000
# 2 -0.004099 0.014859 -0.000142 0.000000 0.000000 0.000000
# 3 -0.006792 -0.000142 0.014752 0.000000 0.000000 0.000000
# 4 0.000000 0.000000 0.000000 0.034444 0.000000 0.000000
# 5 0.000000 0.000000 0.000000 0.000000 0.034464 0.000000
# 6 0.000000 0.000000 0.000000 0.000000 0.000000 0.035979
#
#
# Mechanical properties :
#
#
# Convention : Reuss Voigt Hill
#
# Bulk Modulus (GPa) = 48.83221 54.24861 51.54041
# Shear Modulus (GPa) = 28.35750 29.37254 28.86502
#
# Velocity S-wave (km/s) = 3.73650 3.80278 3.76979
# Velocity P-wave (km/s) = 6.53124 6.78160 6.65759
#
# Compressibility (1/GPa) = 0.02047829
#
# Stress axis : x y z
#
# Youngs Moduli (GPa) = 77.32347 67.29980 67.78962
#
# Poissons Ratio (x) = 0.27584 0.46043
# Poissons Ratio (y) = 0.31693 0.00960
# Poissons Ratio (z) = 0.52519 0.00953
#
# Static dielectric constant tensor:
#      x y z
#    x 3.827240 0.000000 0.000000 
#    y 0.000000 3.939220 0.000000 
#    z 0.000000 0.000000 3.576170 
# 
# 
# High freq. dielectric constant tensor:
#      x y z
#    x 1.802440 0.000000 0.000000 
#    y 0.000000 1.804390 0.000000 
#    z 0.000000 0.000000 1.771470 
# 
# From -- ./inp_files/29601.got.cif
#   From: 2010.03.12/outbox.cif.g09.slc.cpg/sg57_15_cif.got.tgz:29601.got - 2010.04.16 15:48:40.
