data_PCOD8234916
_publ_section_title
;
Structure prediction by ZEFSAII (Michael W. Deem and Ramdas Pophale) SiO2 
 PCOD8234916
Probable space group: P B C M
;
_chemical_formula_sum "Si O2"
_cell_formula_units_Z 48
_cell_length_a 12.555777
_cell_length_b 25.191077
_cell_length_c 8.966431
_cell_angle_alpha 90.000000
_cell_angle_beta 90.000000
_cell_angle_gamma 90.000000
_cell_volume 2836.024249
_symmetry_space_group_name_H-M "P B C M"
_symmetry_group_IT_number 57
_symmetry_cell_setting 'orthorhombic'
loop_
_space_group_symop_operation_xyz
x,y,z
-x,-y,1/2+z
x,1/2-y,-z
-x,1/2+y,1/2-z
-x,-y,-z
x,y,1/2-z
-x,1/2+y,z
x,1/2-y,1/2+z
loop_
_atom_site_type_symbol
_atom_site_label
_atom_site_fract_x
_atom_site_fract_y
_atom_site_fract_z
Si Si1 0.968890 0.693316 0.924243
Si Si2 0.392319 0.116018 0.579591
Si Si3 0.763591 0.692424 0.073525
Si Si4 0.612258 0.001338 0.078259
Si Si5 0.360090 0.896841 0.424374
Si Si6 0.204153 0.806441 0.423481
O O1 0.941800 0.698026 0.750000
O O2 0.085962 0.668216 0.950444
O O3 0.973985 0.750000 0.000000
O O4 0.870733 0.663649 0.007121
O O5 0.377909 0.135393 0.750000
O O6 0.337261 0.156580 0.467324
O O7 0.338163 0.057649 0.559641
O O8 0.517050 0.114805 0.537778
O O9 0.772383 0.698156 0.250000
O O10 0.748312 0.750000 0.000000
O O11 0.595499 0.015337 0.250000
O O12 0.500000 0.000000 0.000000
O O13 0.680444 0.048584 0.002738
O O14 0.341381 0.904579 0.250000
O O15 0.289200 0.848436 0.487153
O O16 0.221371 0.750000 0.500000
O O17 0.223072 0.796152 0.250000
#
# Coordination Sequence:
#
# PCOD8234916 Si02
#       6
#     8   8   8   8   8   8
#     4   9  16  29  48  67  90 120 156 193 229 272
#     4   9  18  32  48  68  96 125 154 190 230 274
#     4  11  21  32  48  69  94 123 156 193 233 277
#     4   9  17  30  49  70  92 122 158 194 230 271
#     4   9  18  32  49  71  99 126 154 190 232 277
#     4   9  18  31  48  71  97 126 156 190 232 276
#
# _framework density 16.925103
#
# number of rings (size 3 to 8) (size 9 to 14) (size 15 to 20)
#    0.000    2.667    0.000    4.500    0.000    5.333 
#    0.000    1.667    0.000    1.000    0.000    0.000 
#    0.000    0.000    0.000    0.000    0.000    0.000 
#
# Total GULP energy -594762.791635 kJ/mol
# GULP energy per Si atom -12390.891492 kJ/mol
# Density = 1.688658 g / cm^3
# Si number density = 16.925103 Si / 1000 Ang^3
#
#
#
# Elastic Constant Matrix: (Units=GPa)
#
#
# Indices 1 2 3 4 5 6 
#
# 1 81.4900 49.0977 42.1140 0.0000 0.0000 0.0000
# 2 49.0977 89.6687 48.8744 0.0000 0.0000 0.0000
# 3 42.1140 48.8744 99.4170 0.0000 0.0000 0.0000
# 4 0.0000 0.0000 0.0000 29.4102 0.0000 0.0000
# 5 0.0000 0.0000 0.0000 0.0000 23.7907 0.0000
# 6 0.0000 0.0000 0.0000 0.0000 0.0000 4.3101
#
#
#
# Elastic Compliance Matrix: (Units=1/GPa)
#
#
# Indices 1 2 3 4 5 6 
#
# 1 0.019467 -0.008421 -0.004107 0.000000 0.000000 0.000000
# 2 -0.008421 0.018877 -0.005713 0.000000 0.000000 0.000000
# 3 -0.004107 -0.005713 0.014607 0.000000 0.000000 0.000000
# 4 0.000000 0.000000 0.000000 0.034002 0.000000 0.000000
# 5 0.000000 0.000000 0.000000 0.000000 0.042033 0.000000
# 6 0.000000 0.000000 0.000000 0.000000 0.000000 0.232014
#
#
# Mechanical properties :
#
#
# Convention : Reuss Voigt Hill
#
# Bulk Modulus (GPa) = 60.71654 61.19420 60.95537
# Shear Modulus (GPa) = 12.40784 20.20151 16.30467
#
# Velocity S-wave (km/s) = 2.71052 3.45857 3.10714
# Velocity P-wave (km/s) = 6.76369 7.22380 6.99753
#
# Compressibility (1/GPa) = 0.01646998
#
# Stress axis : x y z
#
# Youngs Moduli (GPa) = 51.36798 52.97509 68.46115
#
# Poissons Ratio (x) = 0.44610 0.28116
# Poissons Ratio (y) = 0.43256 0.39111
# Poissons Ratio (z) = 0.21096 0.30264
#
# Static dielectric constant tensor:
#      x y z
#    x 3.568620 0.000000 0.000000 
#    y 0.000000 3.286580 0.000000 
#    z 0.000000 0.000000 3.380020 
# 
# 
# High freq. dielectric constant tensor:
#      x y z
#    x 1.638020 0.000000 0.000000 
#    y 0.000000 1.634220 0.000000 
#    z 0.000000 0.000000 1.661020 
# 
# From -- ./inp_files/3266.got.cif
#   From: 2010.03.12/outbox.cif.g09.slc.cpg/sg57_2_cif.got.tgz:3266.got - 2010.04.16 15:48:40.
