data_PCOD8234754
_publ_section_title
;
Structure prediction by ZEFSAII (Michael W. Deem and Ramdas Pophale) SiO2 
 PCOD8234754
Probable space group: P B C M
;
_chemical_formula_sum "Si O2"
_cell_formula_units_Z 64
_cell_length_a 14.493439
_cell_length_b 25.033844
_cell_length_c 8.556752
_cell_angle_alpha 90.000000
_cell_angle_beta 90.000000
_cell_angle_gamma 90.000000
_cell_volume 3104.616302
_symmetry_space_group_name_H-M "P B C M"
_symmetry_group_IT_number 57
_symmetry_cell_setting 'orthorhombic'
loop_
_space_group_symop_operation_xyz
x,y,z
-x,-y,1/2+z
x,1/2-y,-z
-x,1/2+y,1/2-z
-x,-y,-z
x,y,1/2-z
-x,1/2+y,z
x,1/2-y,1/2+z
loop_
_atom_site_type_symbol
_atom_site_label
_atom_site_fract_x
_atom_site_fract_y
_atom_site_fract_z
Si Si1 0.010419 0.662923 0.067535
Si Si2 0.822381 0.804543 0.433751
Si Si3 0.519811 0.941200 0.566350
Si Si4 0.784603 0.307121 0.564274
Si Si5 0.288688 0.092430 0.569267
Si Si6 0.219900 0.978636 0.928536
Si Si7 0.346918 0.601421 0.934591
Si Si8 0.039655 0.946644 0.069264
O O1 0.001376 0.672926 0.250000
O O2 0.111045 0.681116 0.004678
O O3 0.994653 0.601246 0.026538
O O4 0.929407 0.695256 0.983904
O O5 0.777342 0.750000 0.500000
O O6 0.816957 0.804252 0.250000
O O7 0.764274 0.855394 0.497122
O O8 0.502714 0.942749 0.750000
O O9 0.622345 0.920132 0.533329
O O10 0.453792 0.896349 0.486026
O O11 0.500000 0.000000 0.500000
O O12 0.753171 0.250000 0.500000
O O13 0.780574 0.308712 0.750000
O O14 0.712150 0.349311 0.497810
O O15 0.317880 0.099475 0.750000
O O16 0.218404 0.042484 0.553070
O O17 0.197627 0.962282 0.750000
O O18 0.316736 0.954318 0.983444
O O19 0.148910 0.948912 0.043269
O O20 0.337068 0.598401 0.750000
O O21 0.014372 0.939862 0.250000
O O22 0.000000 0.000000 0.000000
#
# Coordination Sequence:
#
# PCOD8234754 Si02
#       8
#     8   8   8   8   8   8   8   8
#     4  11  23  40  64  92 126 166 216 268 316 376
#     4  11  24  43  66  93 128 169 216 267 318 373
#     4  12  24  40  66  97 130 165 207 259 319 387
#     4  11  24  42  65  93 129 170 216 267 316 373
#     4  10  23  42  65  93 127 166 211 263 319 380
#     4  11  21  37  61  90 127 164 205 259 318 377
#     4  12  24  40  64  94 129 167 209 259 317 379
#     4  12  24  37  56  85 126 170 215 261 318 381
#
# _framework density 20.614464000000002
#
# number of rings (size 3 to 8) (size 9 to 14) (size 15 to 20)
#    0.000    0.750    2.500    6.000    0.000    5.000 
#    0.000    0.625    0.000    1.500    0.000    0.000 
#    0.000    0.000    0.000    0.000    0.000    0.000 
#
# Total GULP energy -793770.436077 kJ/mol
# GULP energy per Si atom -12402.663064 kJ/mol
# Density = 2.056754 g / cm^3
# Si number density = 20.614464 Si / 1000 Ang^3
#
#
#
# Elastic Constant Matrix: (Units=GPa)
#
#
# Indices 1 2 3 4 5 6 
#
# 1 87.3588 41.8154 32.1070 0.0000 0.0000 0.0000
# 2 41.8154 136.5697 43.6689 0.0000 0.0000 0.0000
# 3 32.1070 43.6689 91.5768 0.0000 0.0000 0.0000
# 4 0.0000 0.0000 0.0000 34.8642 0.0000 0.0000
# 5 0.0000 0.0000 0.0000 0.0000 36.2974 0.0000
# 6 0.0000 0.0000 0.0000 0.0000 0.0000 23.9009
#
#
#
# Elastic Compliance Matrix: (Units=1/GPa)
#
#
# Indices 1 2 3 4 5 6 
#
# 1 0.014279 -0.003270 -0.003447 0.000000 0.000000 0.000000
# 2 -0.003270 0.009388 -0.003330 0.000000 0.000000 0.000000
# 3 -0.003447 -0.003330 0.013717 0.000000 0.000000 0.000000
# 4 0.000000 0.000000 0.000000 0.028683 0.000000 0.000000
# 5 0.000000 0.000000 0.000000 0.000000 0.027550 0.000000
# 6 0.000000 0.000000 0.000000 0.000000 0.000000 0.041839
#
#
# Mechanical properties :
#
#
# Convention : Reuss Voigt Hill
#
# Bulk Modulus (GPa) = 57.83941 61.18756 59.51348
# Shear Modulus (GPa) = 30.99541 32.20674 31.60107
#
# Velocity S-wave (km/s) = 3.88180 3.95693 3.91955
# Velocity P-wave (km/s) = 6.94333 7.11496 7.02967
#
# Compressibility (1/GPa) = 0.01728925
#
# Stress axis : x y z
#
# Youngs Moduli (GPa) = 70.03251 106.51469 72.90482
#
# Poissons Ratio (x) = 0.34828 0.25131
# Poissons Ratio (y) = 0.22899 0.24281
# Poissons Ratio (z) = 0.24141 0.35475
#
# Static dielectric constant tensor:
#      x y z
#    x 4.061260 0.000000 0.000000 
#    y 0.000000 3.895750 0.000000 
#    z 0.000000 0.000000 3.834890 
# 
# 
# High freq. dielectric constant tensor:
#      x y z
#    x 1.805340 0.000000 0.000000 
#    y 0.000000 1.809040 0.000000 
#    z 0.000000 0.000000 1.812740 
# 
# From -- ./inp_files/5669.got.cif
#   From: 2010.03.12/outbox.cif.g09.slc.cpg/sg57_3_cif.got.tgz:5669.got - 2010.04.16 15:48:40.
