data_PCOD8234618
_publ_section_title
;
Structure prediction by ZEFSAII (Michael W. Deem and Ramdas Pophale) SiO2 
 PCOD8234618
Probable space group: P B C M
;
_chemical_formula_sum "Si O2"
_cell_formula_units_Z 40
_cell_length_a 5.099549
_cell_length_b 14.764253
_cell_length_c 24.293534
_cell_angle_alpha 90.000000
_cell_angle_beta 90.000000
_cell_angle_gamma 90.000000
_cell_volume 1829.085237
_symmetry_space_group_name_H-M "P B C M"
_symmetry_group_IT_number 57
_symmetry_cell_setting 'orthorhombic'
loop_
_space_group_symop_operation_xyz
x,y,z
-x,-y,1/2+z
x,1/2-y,-z
-x,1/2+y,1/2-z
-x,-y,-z
x,y,1/2-z
-x,1/2+y,z
x,1/2-y,1/2+z
loop_
_atom_site_type_symbol
_atom_site_label
_atom_site_fract_x
_atom_site_fract_y
_atom_site_fract_z
Si Si1 0.048492 0.513638 0.134429
Si Si2 0.054080 0.304087 0.932856
Si Si3 0.553446 0.312787 0.407230
Si Si4 0.540561 0.052899 0.813337
Si Si5 0.928291 0.087119 0.966482
O O1 0.972485 0.603394 0.101325
O O2 0.820669 0.493649 0.178191
O O3 0.076114 0.427434 0.092215
O O4 0.321626 0.520040 0.166900
O O5 0.334546 0.258180 0.924005
O O6 0.832916 0.238184 0.909865
O O7 0.033246 0.326756 0.998768
O O8 0.508910 0.352723 0.346425
O O9 0.615666 0.395991 0.451408
O O10 0.499330 0.077475 0.750000
O O11 0.000000 0.000000 0.000000
#
# Coordination Sequence:
#
# PCOD8234618 Si02
#       5
#     8   8   8   8   8
#     4  10  22  41  64  89 119 160 209 251 302 372
#     4  11  23  40  61  94 130 158 197 255 311 367
#     4  11  23  39  62  93 128 163 204 253 309 366
#     4  11  23  43  64  85 116 162 210 256 305 364
#     4   9  21  39  62  91 127 167 202 241 299 375
#
# _framework density 21.868855
#
# number of rings (size 3 to 8) (size 9 to 14) (size 15 to 20)
#    0.000    1.600    0.000    4.800    0.000    8.000 
#    0.000   23.000    0.000    0.000    0.000    0.000 
#    0.000    0.000    0.000    0.000    0.000    0.000 
#
# Total GULP energy -495618.475703 kJ/mol
# GULP energy per Si atom -12390.461893 kJ/mol
# Density = 2.181908 g / cm^3
# Si number density = 21.868855 Si / 1000 Ang^3
#
#
#
# Elastic Constant Matrix: (Units=GPa)
#
#
# Indices 1 2 3 4 5 6 
#
# 1 118.5279 39.2445 55.3654 0.0000 0.0000 0.0000
# 2 39.2445 110.3152 55.8545 0.0000 0.0000 0.0000
# 3 55.3654 55.8545 150.5815 0.0000 0.0000 0.0000
# 4 0.0000 0.0000 0.0000 23.7037 0.0000 0.0000
# 5 0.0000 0.0000 0.0000 0.0000 24.2806 0.0000
# 6 0.0000 0.0000 0.0000 0.0000 0.0000 39.8193
#
#
#
# Elastic Compliance Matrix: (Units=1/GPa)
#
#
# Indices 1 2 3 4 5 6 
#
# 1 0.010608 -0.002215 -0.003079 0.000000 0.000000 0.000000
# 2 -0.002215 0.011624 -0.003497 0.000000 0.000000 0.000000
# 3 -0.003079 -0.003497 0.009070 0.000000 0.000000 0.000000
# 4 0.000000 0.000000 0.000000 0.042188 0.000000 0.000000
# 5 0.000000 0.000000 0.000000 0.000000 0.041185 0.000000
# 6 0.000000 0.000000 0.000000 0.000000 0.000000 0.025113
#
#
# Mechanical properties :
#
#
# Convention : Reuss Voigt Hill
#
# Bulk Modulus (GPa) = 72.88557 75.59485 74.24021
# Shear Modulus (GPa) = 30.87498 32.82473 31.84986
#
# Velocity S-wave (km/s) = 3.76150 3.87845 3.82042
# Velocity P-wave (km/s) = 7.22952 7.39587 7.31317
#
# Compressibility (1/GPa) = 0.01372014
#
# Stress axis : x y z
#
# Youngs Moduli (GPa) = 94.26504 86.03221 110.25249
#
# Poissons Ratio (x) = 0.19057 0.33945
# Poissons Ratio (y) = 0.20880 0.38556
# Poissons Ratio (z) = 0.29023 0.30086
#
# Static dielectric constant tensor:
#      x y z
#    x 4.167530 0.000000 0.000000 
#    y 0.000000 4.546670 0.000000 
#    z 0.000000 0.000000 4.029000 
# 
# 
# High freq. dielectric constant tensor:
#      x y z
#    x 1.871460 0.000000 0.000000 
#    y 0.000000 1.874410 0.000000 
#    z 0.000000 0.000000 1.847940 
# 
# From -- ./inp_files/26124.got.cif
#   From: 2010.03.12/outbox.cif.g09.slc.cpg/sg57_14_cif.got.tgz:26124.got - 2010.04.16 15:48:40.
