data_PCOD8234762
_publ_section_title
;
Structure prediction by ZEFSAII (Michael W. Deem and Ramdas Pophale) SiO2 
 PCOD8234762
Probable space group: P B C M
;
_chemical_formula_sum "Si O2"
_cell_formula_units_Z 36
_cell_length_a 5.386806
_cell_length_b 18.662329
_cell_length_c 13.773476
_cell_angle_alpha 90.000000
_cell_angle_beta 90.000000
_cell_angle_gamma 90.000000
_cell_volume 1384.652306
_symmetry_space_group_name_H-M "P B C M"
_symmetry_group_IT_number 57
_symmetry_cell_setting 'orthorhombic'
loop_
_space_group_symop_operation_xyz
x,y,z
-x,-y,1/2+z
x,1/2-y,-z
-x,1/2+y,1/2-z
-x,-y,-z
x,y,1/2-z
-x,1/2+y,z
x,1/2-y,1/2+z
loop_
_atom_site_type_symbol
_atom_site_label
_atom_site_fract_x
_atom_site_fract_y
_atom_site_fract_z
Si Si1 0.688764 0.070351 0.636530
Si Si2 0.809184 0.497842 0.634086
Si Si3 0.350909 0.250000 0.500000
Si Si4 0.317416 0.659869 0.141344
Si Si5 0.019905 0.796109 0.356287
O O1 0.677656 0.054448 0.750000
O O2 0.738510 0.155377 0.615451
O O3 0.927796 0.027296 0.592423
O O4 0.424932 0.044394 0.592818
O O5 0.818527 0.500488 0.750000
O O6 0.769845 0.416170 0.598209
O O7 0.494067 0.303820 0.568823
O O8 0.191755 0.194260 0.564531
O O9 0.433905 0.650955 0.250000
O O10 0.082416 0.712295 0.147535
O O11 0.922204 0.822260 0.250000
#
# Coordination Sequence:
#
# PCOD8234762 Si02
#       5
#     8   8   4   8   8
#     4   9  19  37  64  96 129 168 217 271 330 395
#     4   9  19  37  64  96 129 168 217 271 330 395
#     4  12  24  40  64  96 132 168 230 276 322 386
#     4  10  23  42  67  95 130 175 220 270 332 395
#     4  10  23  42  67  95 130 175 220 270 332 395
#
# _framework density 25.999305
#
# number of rings (size 3 to 8) (size 9 to 14) (size 15 to 20)
#    0.000    2.222    0.000    1.333    6.222    0.000 
#    0.000    2.222    0.000    0.000    0.000    0.000 
#    0.000    0.000    0.000    0.000    0.000    0.000 
#
# Total GULP energy -446249.392733 kJ/mol
# GULP energy per Si atom -12395.816465 kJ/mol
# Density = 2.594013 g / cm^3
# Si number density = 25.999305 Si / 1000 Ang^3
#
#
#
# Elastic Constant Matrix: (Units=GPa)
#
#
# Indices 1 2 3 4 5 6 
#
# 1 128.4459 32.8103 8.7021 0.0000 0.0000 0.0000
# 2 32.8103 154.7038 0.9967 0.0000 0.0000 0.0000
# 3 8.7021 0.9967 47.8353 0.0000 0.0000 0.0000
# 4 0.0000 0.0000 0.0000 10.8677 0.0000 0.0000
# 5 0.0000 0.0000 0.0000 0.0000 6.3496 0.0000
# 6 0.0000 0.0000 0.0000 0.0000 0.0000 37.3852
#
#
#
# Elastic Compliance Matrix: (Units=1/GPa)
#
#
# Indices 1 2 3 4 5 6 
#
# 1 0.008335 -0.001758 -0.001480 0.000000 0.000000 0.000000
# 2 -0.001758 0.006836 0.000177 0.000000 0.000000 0.000000
# 3 -0.001480 0.000177 0.021171 0.000000 0.000000 0.000000
# 4 0.000000 0.000000 0.000000 0.092016 0.000000 0.000000
# 5 0.000000 0.000000 0.000000 0.000000 0.157491 0.000000
# 6 0.000000 0.000000 0.000000 0.000000 0.000000 0.026749
#
#
# Mechanical properties :
#
#
# Convention : Reuss Voigt Hill
#
# Bulk Modulus (GPa) = 33.09035 46.22259 39.65647
# Shear Modulus (GPa) = 15.20729 30.15223 22.67976
#
# Velocity S-wave (km/s) = 2.42112 3.40918 2.95671
# Velocity P-wave (km/s) = 4.53550 5.77180 5.19059
#
# Compressibility (1/GPa) = 0.03022029
#
# Stress axis : x y z
#
# Youngs Moduli (GPa) = 119.97999 146.29091 47.23546
#
# Poissons Ratio (x) = 0.25720 0.06989
# Poissons Ratio (y) = 0.21094 -0.00838
# Poissons Ratio (z) = 0.17752 -0.02595
#
# Static dielectric constant tensor:
#      x y z
#    x 4.663950 0.000000 0.000000 
#    y 0.000000 4.941940 0.000000 
#    z 0.000000 0.000000 4.722940 
# 
# 
# High freq. dielectric constant tensor:
#      x y z
#    x 2.025910 0.000000 0.000000 
#    y 0.000000 2.046250 0.000000 
#    z 0.000000 0.000000 2.044310 
# 
# From -- ./inp_files/14858.got.cif
#   From: 2010.03.12/outbox.cif.g09.slc.cpg/sg57_8_cif.got.tgz:14858.got - 2010.04.16 15:48:40.
