data_PCOD8234721
_publ_section_title
;
Structure prediction by ZEFSAII (Michael W. Deem and Ramdas Pophale) SiO2 
 PCOD8234721
Probable space group: P B C M
;
_chemical_formula_sum "Si O2"
_cell_formula_units_Z 32
_cell_length_a 17.400821
_cell_length_b 5.187679
_cell_length_c 15.629392
_cell_angle_alpha 90.000000
_cell_angle_beta 90.000000
_cell_angle_gamma 90.000000
_cell_volume 1410.863242
_symmetry_space_group_name_H-M "P B C M"
_symmetry_group_IT_number 57
_symmetry_cell_setting 'orthorhombic'
loop_
_space_group_symop_operation_xyz
x,y,z
-x,-y,1/2+z
x,1/2-y,-z
-x,1/2+y,1/2-z
-x,-y,-z
x,y,1/2-z
-x,1/2+y,z
x,1/2-y,1/2+z
loop_
_atom_site_type_symbol
_atom_site_label
_atom_site_fract_x
_atom_site_fract_y
_atom_site_fract_z
Si Si1 0.032361 0.451932 0.404768
Si Si2 0.458220 0.729511 0.601469
Si Si3 0.803724 0.675202 0.652867
Si Si4 0.283631 0.687196 0.599265
O O1 0.121361 0.374022 0.405211
O O2 0.000000 0.500000 0.500000
O O3 0.983153 0.225089 0.357668
O O4 0.464307 0.750000 0.500000
O O5 0.511472 0.500521 0.638996
O O6 0.371500 0.670174 0.630115
O O7 0.828525 0.735418 0.750000
O O8 0.753922 0.416104 0.653017
O O9 0.756622 0.913854 0.614998
O O10 0.277079 0.750000 0.500000
#
# Coordination Sequence:
#
# PCOD8234721 Si02
#       4
#     8   8   8   8
#     4  10  23  40  65  92 123 166 211 275 317 389
#     4   9  17  33  59  93 129 162 216 279 324 368
#     4  12  26  43  65  96 138 175 216 275 338 396
#     4  11  24  40  69  99 129 178 225 272 327 398
#
# _framework density 22.681152000000001
#
# number of rings (size 3 to 8) (size 9 to 14) (size 15 to 20)
#    0.000    1.500    0.000    4.500   10.500    5.000 
#    0.000    0.000    0.000   15.000    0.000    0.000 
#    0.000    0.000    0.000    0.000    0.000    0.000 
#
# Total GULP energy -396695.690526 kJ/mol
# GULP energy per Si atom -12396.740329 kJ/mol
# Density = 2.262953 g / cm^3
# Si number density = 22.681152 Si / 1000 Ang^3
#
#
#
# Elastic Constant Matrix: (Units=GPa)
#
#
# Indices 1 2 3 4 5 6 
#
# 1 205.6565 104.6735 31.8526 0.0000 0.0000 0.0000
# 2 104.6735 218.5533 -1.0307 0.0000 0.0000 0.0000
# 3 31.8526 -1.0307 59.9280 0.0000 0.0000 0.0000
# 4 0.0000 0.0000 0.0000 15.6435 0.0000 0.0000
# 5 0.0000 0.0000 0.0000 0.0000 -0.8293 0.0000
# 6 0.0000 0.0000 0.0000 0.0000 0.0000 56.7908
#
#
#
# Elastic Compliance Matrix: (Units=1/GPa)
#
#
# Indices 1 2 3 4 5 6 
#
# 1 0.007243 -0.003487 -0.003910 0.000000 0.000000 0.000000
# 2 -0.003487 0.006255 0.001961 0.000000 0.000000 0.000000
# 3 -0.003910 0.001961 0.018799 0.000000 0.000000 0.000000
# 4 0.000000 0.000000 0.000000 0.063924 0.000000 0.000000
# 5 0.000000 0.000000 0.000000 0.000000 -1.205835 0.000000
# 6 0.000000 0.000000 0.000000 0.000000 0.000000 0.017609
#
#
# Mechanical properties :
#
#
# Convention : Reuss Voigt Hill
#
# Bulk Modulus (GPa) = 46.67525 83.90320 65.28922
# Shear Modulus (GPa) = -4.65553 37.56381 16.45414
#
# Velocity S-wave (km/s) = -1.43424 4.07402 2.69635
# Velocity P-wave (km/s) = 4.22857 7.69435 6.20821
#
# Compressibility (1/GPa) = 0.02142463
#
# Stress axis : x y z
#
# Youngs Moduli (GPa) = 138.06399 159.87112 53.19572
#
# Poissons Ratio (x) = 0.55753 0.20798
# Poissons Ratio (y) = 0.48148 -0.10433
# Poissons Ratio (z) = 0.53980 -0.31354
#
# Static dielectric constant tensor:
#      x y z
#    x 4.186600 0.000000 0.000000 
#    y 0.000000 -1.121210 0.000000 
#    z 0.000000 0.000000 3.087280 
# 
# 
# High freq. dielectric constant tensor:
#      x y z
#    x 1.902460 0.000000 0.000000 
#    y 0.000000 1.927750 0.000000 
#    z 0.000000 0.000000 1.858460 
# 
# From -- ./inp_files/18822.got.cif
#   From: 2010.03.12/outbox.cif.g09.slc.cpg/sg57_10_cif.got.tgz:18822.got - 2010.04.16 15:48:40.
