data_PCOD8234974
_publ_section_title
;
Structure prediction by ZEFSAII (Michael W. Deem and Ramdas Pophale) SiO2 
 PCOD8234974
Probable space group: P B C M
;
_chemical_formula_sum "Si O2"
_cell_formula_units_Z 36
_cell_length_a 8.070759
_cell_length_b 16.699784
_cell_length_c 14.581135
_cell_angle_alpha 90.000000
_cell_angle_beta 90.000000
_cell_angle_gamma 90.000000
_cell_volume 1965.244384
_symmetry_space_group_name_H-M "P B C M"
_symmetry_group_IT_number 57
_symmetry_cell_setting 'orthorhombic'
loop_
_space_group_symop_operation_xyz
x,y,z
-x,-y,1/2+z
x,1/2-y,-z
-x,1/2+y,1/2-z
-x,-y,-z
x,y,1/2-z
-x,1/2+y,z
x,1/2-y,1/2+z
loop_
_atom_site_type_symbol
_atom_site_label
_atom_site_fract_x
_atom_site_fract_y
_atom_site_fract_z
Si Si1 0.702612 0.930577 0.466701
Si Si2 0.654354 0.643390 0.352240
Si Si3 0.875973 0.250000 0.500000
Si Si4 0.136264 0.205052 0.854399
Si Si5 0.636558 0.393511 0.965782
O O1 0.755310 0.909117 0.572227
O O2 0.812343 0.880098 0.396345
O O3 0.505274 0.910104 0.456223
O O4 0.734654 0.023892 0.445956
O O5 0.690953 0.610477 0.250000
O O6 0.706330 0.736061 0.360915
O O7 0.457159 0.637873 0.373836
O O8 0.765467 0.328997 0.499591
O O9 0.986195 0.246057 0.591202
O O10 0.079037 0.191882 0.750000
#
# Coordination Sequence:
#
# PCOD8234974 Si02
#       5
#     8   8   4   8   8
#     4   9  18  40  54  83 108 144 186 224 284 315
#     4   9  17  35  59  81 105 144 187 220 269 330
#     4  12  20  38  56  80 120 138 186 226 278 328
#     4  11  22  36  57  78 112 154 183 217 274 341
#     4   9  20  33  63  80 110 145 177 241 278 316
#
# _framework density 18.318332000000002
#
# number of rings (size 3 to 8) (size 9 to 14) (size 15 to 20)
#    1.333    0.889    2.222    1.333    0.000    2.667 
#    0.000    2.222    0.000    0.000    0.000    0.000 
#    0.000    0.000    0.000    0.000    0.000    0.000 
#
# Total GULP energy -446106.289840 kJ/mol
# GULP energy per Si atom -12391.841384 kJ/mol
# Density = 1.827664 g / cm^3
# Si number density = 18.318332 Si / 1000 Ang^3
#
#
#
# Elastic Constant Matrix: (Units=GPa)
#
#
# Indices 1 2 3 4 5 6 
#
# 1 47.2585 41.1668 34.0868 0.0000 0.0000 0.0000
# 2 41.1668 128.7888 44.7583 0.0000 0.0000 0.0000
# 3 34.0868 44.7583 131.8070 0.0000 0.0000 0.0000
# 4 0.0000 0.0000 0.0000 17.2866 0.0000 0.0000
# 5 0.0000 0.0000 0.0000 0.0000 13.4543 0.0000
# 6 0.0000 0.0000 0.0000 0.0000 0.0000 15.1066
#
#
#
# Elastic Compliance Matrix: (Units=1/GPa)
#
#
# Indices 1 2 3 4 5 6 
#
# 1 0.032537 -0.008476 -0.005536 0.000000 0.000000 0.000000
# 2 -0.008476 0.011012 -0.001547 0.000000 0.000000 0.000000
# 3 -0.005536 -0.001547 0.009544 0.000000 0.000000 0.000000
# 4 0.000000 0.000000 0.000000 0.057848 0.000000 0.000000
# 5 0.000000 0.000000 0.000000 0.000000 0.074326 0.000000
# 6 0.000000 0.000000 0.000000 0.000000 0.000000 0.066196
#
#
# Mechanical properties :
#
#
# Convention : Reuss Voigt Hill
#
# Bulk Modulus (GPa) = 45.50956 60.87534 53.19245
# Shear Modulus (GPa) = 17.24691 21.69232 19.46962
#
# Velocity S-wave (km/s) = 3.07173 3.44493 3.26367
# Velocity P-wave (km/s) = 6.12196 7.00910 6.58050
#
# Compressibility (1/GPa) = 0.02197340
#
# Stress axis : x y z
#
# Youngs Moduli (GPa) = 30.73420 90.81169 104.77842
#
# Poissons Ratio (x) = 0.76975 0.58006
# Poissons Ratio (y) = 0.26051 0.16212
# Poissons Ratio (z) = 0.17015 0.14051
#
# Static dielectric constant tensor:
#      x y z
#    x 3.168890 0.000000 0.000000 
#    y 0.000000 3.300790 0.000000 
#    z 0.000000 0.000000 3.263020 
# 
# 
# High freq. dielectric constant tensor:
#      x y z
#    x 1.687760 0.000000 0.000000 
#    y 0.000000 1.713000 0.000000 
#    z 0.000000 0.000000 1.692740 
# 
# From -- ./inp_files/15808.got.cif
#   From: 2010.03.12/outbox.cif.g09.slc.cpg/sg57_8_cif.got.tgz:15808.got - 2010.04.16 15:48:40.
