data_PCOD8234624
_publ_section_title
;
Structure prediction by ZEFSAII (Michael W. Deem and Ramdas Pophale) SiO2 
 PCOD8234624
Probable space group: P B C M
;
_chemical_formula_sum "Si O2"
_cell_formula_units_Z 48
_cell_length_a 14.692320
_cell_length_b 9.594291
_cell_length_c 16.896786
_cell_angle_alpha 90.000000
_cell_angle_beta 90.000000
_cell_angle_gamma 90.000000
_cell_volume 2381.811398
_symmetry_space_group_name_H-M "P B C M"
_symmetry_group_IT_number 57
_symmetry_cell_setting 'orthorhombic'
loop_
_space_group_symop_operation_xyz
x,y,z
-x,-y,1/2+z
x,1/2-y,-z
-x,1/2+y,1/2-z
-x,-y,-z
x,y,1/2-z
-x,1/2+y,z
x,1/2-y,1/2+z
loop_
_atom_site_type_symbol
_atom_site_label
_atom_site_fract_x
_atom_site_fract_y
_atom_site_fract_z
Si Si1 0.048306 0.985770 0.416158
Si Si2 0.256915 0.646355 0.431668
Si Si3 0.079550 0.695210 0.159296
Si Si4 0.572750 0.233573 0.841124
Si Si5 0.761446 0.604126 0.038502
Si Si6 0.600071 0.586399 0.158544
O O1 0.151366 0.038163 0.419333
O O2 0.993945 0.073159 0.350788
O O3 0.046959 0.825144 0.392366
O O4 0.000000 0.000000 0.500000
O O5 0.222881 0.750000 0.500000
O O6 0.177983 0.638139 0.366642
O O7 0.349213 0.701406 0.394314
O O8 0.275321 0.494679 0.468443
O O9 0.085813 0.740585 0.250000
O O10 0.596296 0.264525 0.750000
O O11 0.478283 0.305083 0.865189
O O12 0.564354 0.069486 0.858043
O O13 0.686264 0.623826 0.105722
O O14 0.788484 0.750000 0.000000
O O15 0.628575 0.603780 0.250000
#
# Coordination Sequence:
#
# PCOD8234624 Si02
#       6
#     8   8   8   8   8   8
#     4  12  23  45  68  94 132 172 214 270 328 389
#     4  12  22  43  65  92 125 169 216 261 324 388
#     4  12  25  42  67  99 129 170 219 266 322 391
#     4  10  22  41  65  92 126 170 212 266 325 384
#     4  12  26  42  65  97 127 170 217 265 328 384
#     4  10  23  43  65  93 130 170 215 266 327 388
#
# _framework density 20.152729999999998
#
# number of rings (size 3 to 8) (size 9 to 14) (size 15 to 20)
#    0.000    0.667    5.000    2.500    2.333    4.000 
#    0.000    0.833    0.000    0.000    0.000    0.000 
#    0.000    0.000    0.000    0.000    0.000    0.000 
#
# Total GULP energy -595549.192054 kJ/mol
# GULP energy per Si atom -12407.274834 kJ/mol
# Density = 2.010686 g / cm^3
# Si number density = 20.152730 Si / 1000 Ang^3
#
#
#
# Elastic Constant Matrix: (Units=GPa)
#
#
# Indices 1 2 3 4 5 6 
#
# 1 110.7169 11.2560 36.5158 0.0000 0.0000 0.0000
# 2 11.2560 75.2447 10.3607 0.0000 0.0000 0.0000
# 3 36.5158 10.3607 86.7950 0.0000 0.0000 0.0000
# 4 0.0000 0.0000 0.0000 31.3792 0.0000 0.0000
# 5 0.0000 0.0000 0.0000 0.0000 34.6218 0.0000
# 6 0.0000 0.0000 0.0000 0.0000 0.0000 33.6344
#
#
#
# Elastic Compliance Matrix: (Units=1/GPa)
#
#
# Indices 1 2 3 4 5 6 
#
# 1 0.010558 -0.000984 -0.004325 0.000000 0.000000 0.000000
# 2 -0.000984 0.013604 -0.001210 0.000000 0.000000 0.000000
# 3 -0.004325 -0.001210 0.013485 0.000000 0.000000 0.000000
# 4 0.000000 0.000000 0.000000 0.031868 0.000000 0.000000
# 5 0.000000 0.000000 0.000000 0.000000 0.028884 0.000000
# 6 0.000000 0.000000 0.000000 0.000000 0.000000 0.029731
#
#
# Mechanical properties :
#
#
# Convention : Reuss Voigt Hill
#
# Bulk Modulus (GPa) = 40.63319 43.22463 41.92891
# Shear Modulus (GPa) = 33.47369 34.23536 33.85452
#
# Velocity S-wave (km/s) = 4.07996 4.12612 4.10310
# Velocity P-wave (km/s) = 6.51162 6.64792 6.58012
#
# Compressibility (1/GPa) = 0.02461043
#
# Stress axis : x y z
#
# Youngs Moduli (GPa) = 94.71149 73.50911 74.15513
#
# Poissons Ratio (x) = 0.07233 0.32069
# Poissons Ratio (y) = 0.09319 0.08972
# Poissons Ratio (z) = 0.40959 0.08894
#
# Static dielectric constant tensor:
#      x y z
#    x 3.710380 0.000000 0.000000 
#    y 0.000000 3.895060 0.000000 
#    z 0.000000 0.000000 3.706660 
# 
# 
# High freq. dielectric constant tensor:
#      x y z
#    x 1.794660 0.000000 0.000000 
#    y 0.000000 1.798450 0.000000 
#    z 0.000000 0.000000 1.789910 
# 
# From -- ./inp_files/22410.got.cif
#   From: 2010.03.12/outbox.cif.g09.slc.cpg/sg57_12_cif.got.tgz:22410.got - 2010.04.16 15:48:40.
