data_PCOD8234387
_publ_section_title
;
Structure prediction by ZEFSAII (Michael W. Deem and Ramdas Pophale) SiO2 
 PCOD8234387
Probable space group: P B C M
;
_chemical_formula_sum "Si O2"
_cell_formula_units_Z 60
_cell_length_a 18.988469
_cell_length_b 16.689396
_cell_length_c 9.224499
_cell_angle_alpha 90.000000
_cell_angle_beta 90.000000
_cell_angle_gamma 90.000000
_cell_volume 2923.299805
_symmetry_space_group_name_H-M "P B C M"
_symmetry_group_IT_number 57
_symmetry_cell_setting 'orthorhombic'
loop_
_space_group_symop_operation_xyz
x,y,z
-x,-y,1/2+z
x,1/2-y,-z
-x,1/2+y,1/2-z
-x,-y,-z
x,y,1/2-z
-x,1/2+y,z
x,1/2-y,1/2+z
loop_
_atom_site_type_symbol
_atom_site_label
_atom_site_fract_x
_atom_site_fract_y
_atom_site_fract_z
Si Si1 0.014543 0.584753 0.575256
Si Si2 0.892743 0.672515 0.419115
Si Si3 0.170421 0.888893 0.087742
Si Si4 0.385532 0.865178 0.912445
Si Si5 0.477900 0.326000 0.079460
Si Si6 0.768419 0.548825 0.084095
Si Si7 0.266545 0.750000 0.500000
Si Si8 0.635975 0.546809 0.581620
O O1 0.005590 0.578516 0.750000
O O2 0.091469 0.617667 0.525067
O O3 0.000000 0.500000 0.500000
O O4 0.962388 0.649393 0.507246
O O5 0.861362 0.750000 0.500000
O O6 0.909733 0.689146 0.250000
O O7 0.836324 0.602942 0.435840
O O8 0.159625 0.919793 0.250000
O O9 0.213596 0.961569 0.012934
O O10 0.213810 0.806025 0.091256
O O11 0.417138 0.867595 0.750000
O O12 0.315920 0.809339 0.907170
O O13 0.369403 0.954644 0.967026
O O14 0.442092 0.831223 0.024304
O O15 0.479552 0.310409 0.250000
O O16 0.434902 0.405823 0.037695
O O17 0.441841 0.250000 0.000000
O O18 0.744452 0.542632 0.250000
O O19 0.702454 0.586192 0.998672
O O20 0.650422 0.555757 0.750000
#
# Coordination Sequence:
#
# PCOD8234387 Si02
#       8
#     8   8   8   8   8   8   4   8
#     4  11  22  41  66  93 130 173 218 268 320 385
#     4  11  24  43  64  93 127 168 221 272 326 384
#     4  10  22  40  60  91 130 167 207 257 317 381
#     4  11  23  40  63  93 128 163 207 253 310 384
#     4  11  24  41  64  90 126 165 208 261 315 374
#     4  10  21  41  65  88 122 167 210 258 317 381
#     4  12  22  38  66  96 130 162 206 256 324 378
#     4  10  23  42  62  93 128 163 208 261 316 379
#
# _framework density 20.524750999999998
#
# number of rings (size 3 to 8) (size 9 to 14) (size 15 to 20)
#    0.000    1.333    3.333    2.000    0.933    3.733 
#    0.000    4.667    0.000    0.000    0.000    0.000 
#    0.000    0.000    0.000    0.000    0.000    0.000 
#
# Total GULP energy -743820.562810 kJ/mol
# GULP energy per Si atom -12397.009380 kJ/mol
# Density = 2.047804 g / cm^3
# Si number density = 20.524751 Si / 1000 Ang^3
#
#
#
# Elastic Constant Matrix: (Units=GPa)
#
#
# Indices 1 2 3 4 5 6 
#
# 1 131.5259 53.5000 47.8897 0.0000 0.0000 0.0000
# 2 53.5000 127.7911 43.1464 0.0000 0.0000 0.0000
# 3 47.8897 43.1464 91.0633 0.0000 0.0000 0.0000
# 4 0.0000 0.0000 0.0000 32.4224 0.0000 0.0000
# 5 0.0000 0.0000 0.0000 0.0000 28.2038 0.0000
# 6 0.0000 0.0000 0.0000 0.0000 0.0000 34.7899
#
#
#
# Elastic Compliance Matrix: (Units=1/GPa)
#
#
# Indices 1 2 3 4 5 6 
#
# 1 0.010257 -0.002944 -0.003999 0.000000 0.000000 0.000000
# 2 -0.002944 0.010160 -0.003266 0.000000 0.000000 0.000000
# 3 -0.003999 -0.003266 0.014632 0.000000 0.000000 0.000000
# 4 0.000000 0.000000 0.000000 0.030843 0.000000 0.000000
# 5 0.000000 0.000000 0.000000 0.000000 0.035456 0.000000
# 6 0.000000 0.000000 0.000000 0.000000 0.000000 0.028744
#
#
# Mechanical properties :
#
#
# Convention : Reuss Voigt Hill
#
# Bulk Modulus (GPa) = 68.34680 71.05026 69.69853
# Shear Modulus (GPa) = 32.17781 32.80618 32.49199
#
# Velocity S-wave (km/s) = 3.96379 4.00230 3.98309
# Velocity P-wave (km/s) = 7.37026 7.48665 7.42868
#
# Compressibility (1/GPa) = 0.01463126
#
# Stress axis : x y z
#
# Youngs Moduli (GPa) = 97.49850 98.42178 68.34368
#
# Poissons Ratio (x) = 0.28972 0.27332
# Poissons Ratio (y) = 0.28701 0.22321
# Poissons Ratio (z) = 0.38991 0.32144
#
# Static dielectric constant tensor:
#      x y z
#    x 3.726670 0.000000 0.000000 
#    y 0.000000 3.986940 0.000000 
#    z 0.000000 0.000000 3.623380 
# 
# 
# High freq. dielectric constant tensor:
#      x y z
#    x 1.807560 0.000000 0.000000 
#    y 0.000000 1.812940 0.000000 
#    z 0.000000 0.000000 1.792290 
# 
# From -- ./inp_files/6935.got.cif
#   From: 2010.03.12/outbox.cif.g09.slc.cpg/sg57_4_cif.got.tgz:6935.got - 2010.04.16 15:48:40.
