data_PCOD8234702
_publ_section_title
;
Structure prediction by ZEFSAII (Michael W. Deem and Ramdas Pophale) SiO2 
 PCOD8234702
Probable space group: P B C M
;
_chemical_formula_sum "Si O2"
_cell_formula_units_Z 56
_cell_length_a 31.293192
_cell_length_b 5.337340
_cell_length_c 13.576429
_cell_angle_alpha 90.000000
_cell_angle_beta 90.000000
_cell_angle_gamma 90.000000
_cell_volume 2267.567828
_symmetry_space_group_name_H-M "P B C M"
_symmetry_group_IT_number 57
_symmetry_cell_setting 'orthorhombic'
loop_
_space_group_symop_operation_xyz
x,y,z
-x,-y,1/2+z
x,1/2-y,-z
-x,1/2+y,1/2-z
-x,-y,-z
x,y,1/2-z
-x,1/2+y,z
x,1/2-y,1/2+z
loop_
_atom_site_type_symbol
_atom_site_label
_atom_site_fract_x
_atom_site_fract_y
_atom_site_fract_z
Si Si1 0.583515 0.490509 0.058838
Si Si2 0.977323 0.610178 0.867465
Si Si3 0.264647 0.250000 0.000000
Si Si4 0.323932 0.531054 0.861062
Si Si5 0.837368 0.097394 0.863282
Si Si6 0.120209 0.400517 0.132364
Si Si7 0.526980 0.005599 0.750000
Si Si8 0.754512 0.355988 0.858575
O O1 0.632068 0.419658 0.083674
O O2 0.556042 0.530378 0.155338
O O3 0.580712 0.750000 0.000000
O O4 0.564792 0.250000 0.000000
O O5 0.980583 0.609389 0.750000
O O6 0.928580 0.599505 0.902937
O O7 0.002150 0.366847 0.909915
O O8 0.295901 0.318818 0.910813
O O9 0.234932 0.038633 0.950004
O O10 0.333612 0.446109 0.750000
O O11 0.295339 0.782667 0.865082
O O12 0.851904 0.089865 0.750000
O O13 0.856665 0.352021 0.911007
O O14 0.785422 0.112816 0.872355
O O15 0.856287 0.846381 0.913071
O O16 0.123975 0.399406 0.250000
O O17 0.492217 0.784705 0.750000
O O18 0.764526 0.474981 0.750000
#
# Coordination Sequence:
#
# PCOD8234702 Si02
#       8
#     8   8   4   8   8   8   4   8
#     4  12  26  48  78 112 150 197 247 304 365 429
#     4   9  15  22  35  58  90 131 184 245 312 379
#     4  12  22  40  64  96 128 168 228 280 344 398
#     4  11  24  44  67  99 138 182 231 288 348 413
#     4   9  18  31  48  71 104 151 206 253 312 386
#     4   9  16  27  43  64  97 144 198 252 311 388
#     4  12  28  52  78 116 156 200 250 306 370 438
#     4  10  23  39  60  90 128 175 224 279 337 403
#
# _framework density 24.696062999999999
#
# number of rings (size 3 to 8) (size 9 to 14) (size 15 to 20)
#    0.000    1.714    1.429    3.429    2.000    5.143 
#    0.000    0.000    0.000    0.000    0.000    0.000 
#    0.000    0.000    0.000   12.857    0.000   31.429 
#
# Total GULP energy -694364.501352 kJ/mol
# GULP energy per Si atom -12399.366096 kJ/mol
# Density = 2.463985 g / cm^3
# Si number density = 24.696063 Si / 1000 Ang^3
#
#
#
# Elastic Constant Matrix: (Units=GPa)
#
#
# Indices 1 2 3 4 5 6 
#
# 1 132.7257 51.1001 31.5508 0.0000 0.0000 0.0000
# 2 51.1001 165.8516 55.5935 0.0000 0.0000 0.0000
# 3 31.5508 55.5935 96.7042 0.0000 0.0000 0.0000
# 4 0.0000 0.0000 0.0000 49.5011 0.0000 0.0000
# 5 0.0000 0.0000 0.0000 0.0000 24.2657 0.0000
# 6 0.0000 0.0000 0.0000 0.0000 0.0000 31.7368
#
#
#
# Elastic Compliance Matrix: (Units=1/GPa)
#
#
# Indices 1 2 3 4 5 6 
#
# 1 0.008748 -0.002154 -0.001616 0.000000 0.000000 0.000000
# 2 -0.002154 0.007999 -0.003896 0.000000 0.000000 0.000000
# 3 -0.001616 -0.003896 0.013108 0.000000 0.000000 0.000000
# 4 0.000000 0.000000 0.000000 0.020202 0.000000 0.000000
# 5 0.000000 0.000000 0.000000 0.000000 0.041210 0.000000
# 6 0.000000 0.000000 0.000000 0.000000 0.000000 0.031509
#
#
# Mechanical properties :
#
#
# Convention : Reuss Voigt Hill
#
# Bulk Modulus (GPa) = 68.85375 74.64116 71.74745
# Shear Modulus (GPa) = 34.97796 38.23651 36.60723
#
# Velocity S-wave (km/s) = 3.76751 3.93909 3.85426
# Velocity P-wave (km/s) = 6.84591 7.13990 6.99445
#
# Compressibility (1/GPa) = 0.01452354
#
# Stress axis : x y z
#
# Youngs Moduli (GPa) = 114.31713 125.01756 76.29117
#
# Poissons Ratio (x) = 0.26923 0.12329
# Poissons Ratio (y) = 0.24618 0.29722
# Poissons Ratio (z) = 0.18473 0.48704
#
# Static dielectric constant tensor:
#      x y z
#    x 4.349360 0.000000 0.000000 
#    y 0.000000 4.537980 0.000000 
#    z 0.000000 0.000000 4.472700 
# 
# 
# High freq. dielectric constant tensor:
#      x y z
#    x 1.976000 0.000000 0.000000 
#    y 0.000000 1.983680 0.000000 
#    z 0.000000 0.000000 1.999610 
# 
# From -- ./inp_files/19656.got.cif
#   From: 2010.03.12/outbox.cif.g09.slc.cpg/sg57_10_cif.got.tgz:19656.got - 2010.04.16 15:48:40.
