data_PCOD8234821
_publ_section_title
;
Structure prediction by ZEFSAII (Michael W. Deem and Ramdas Pophale) SiO2 
 PCOD8234821
Probable space group: P B C M
;
_chemical_formula_sum "Si O2"
_cell_formula_units_Z 64
_cell_length_a 12.326553
_cell_length_b 15.199479
_cell_length_c 16.197793
_cell_angle_alpha 90.000000
_cell_angle_beta 90.000000
_cell_angle_gamma 90.000000
_cell_volume 3034.772875
_symmetry_space_group_name_H-M "P B C M"
_symmetry_group_IT_number 57
_symmetry_cell_setting 'orthorhombic'
loop_
_space_group_symop_operation_xyz
x,y,z
-x,-y,1/2+z
x,1/2-y,-z
-x,1/2+y,1/2-z
-x,-y,-z
x,y,1/2-z
-x,1/2+y,z
x,1/2-y,1/2+z
loop_
_atom_site_type_symbol
_atom_site_label
_atom_site_fract_x
_atom_site_fract_y
_atom_site_fract_z
Si Si1 0.084091 0.647470 0.344537
Si Si2 0.315471 0.185498 0.924247
Si Si3 0.988594 0.036779 0.844281
Si Si4 0.285766 0.743966 0.095003
Si Si5 0.481323 0.299024 0.656535
Si Si6 0.254916 0.565111 0.843370
Si Si7 0.925225 0.712862 0.591832
Si Si8 0.600467 0.951417 0.961536
O O1 0.120593 0.643163 0.250000
O O2 0.046816 0.551669 0.376020
O O3 0.188772 0.673484 0.398244
O O4 0.985509 0.717164 0.350190
O O5 0.413734 0.209187 0.861858
O O6 0.199504 0.198903 0.879519
O O7 0.323332 0.250000 0.000000
O O8 0.329381 0.087233 0.961607
O O9 0.022390 0.059518 0.750000
O O10 0.018498 0.117630 0.903622
O O11 0.860792 0.017757 0.848824
O O12 0.391274 0.715821 0.145399
O O13 0.239823 0.833387 0.133133
O O14 0.320264 0.750000 0.000000
O O15 0.459549 0.327805 0.750000
O O16 0.439526 0.375305 0.598142
O O17 0.301417 0.557025 0.750000
O O18 0.332823 0.521135 0.909327
O O19 0.933812 0.750000 0.500000
O O20 0.500000 0.000000 0.000000
#
# Coordination Sequence:
#
# PCOD8234821 Si02
#       8
#     8   8   8   8   8   8   8   8
#     4  11  24  42  64  92 129 173 218 274 332 391
#     4   9  22  41  61  92 128 165 214 271 328 391
#     4  10  24  41  63  96 132 171 220 275 331 394
#     4  12  24  43  66  97 132 175 219 272 335 398
#     4  11  23  41  67  95 125 173 225 271 331 402
#     4  11  23  41  66  95 129 173 222 272 328 404
#     4  11  23  41  63  97 132 171 216 271 333 395
#     4  11  23  42  63  93 131 170 220 274 334 393
#
# _framework density 21.088892999999999
#
# number of rings (size 3 to 8) (size 9 to 14) (size 15 to 20)
#    0.000    1.250    1.250    4.875    5.250    3.500 
#    0.000    0.625    0.000    0.000    0.000    0.000 
#    0.000    0.000    0.000    0.000    0.000    0.000 
#
# Total GULP energy -793752.322715 kJ/mol
# GULP energy per Si atom -12402.380042 kJ/mol
# Density = 2.104089 g / cm^3
# Si number density = 21.088893 Si / 1000 Ang^3
#
#
#
# Elastic Constant Matrix: (Units=GPa)
#
#
# Indices 1 2 3 4 5 6 
#
# 1 127.6561 45.7615 38.2535 0.0000 0.0000 0.0000
# 2 45.7615 124.5360 37.1871 0.0000 0.0000 0.0000
# 3 38.2535 37.1871 84.6989 0.0000 0.0000 0.0000
# 4 0.0000 0.0000 0.0000 20.1019 0.0000 0.0000
# 5 0.0000 0.0000 0.0000 0.0000 -36.9498 0.0000
# 6 0.0000 0.0000 0.0000 0.0000 0.0000 32.5933
#
#
#
# Elastic Compliance Matrix: (Units=1/GPa)
#
#
# Indices 1 2 3 4 5 6 
#
# 1 0.009744 -0.002608 -0.003256 0.000000 0.000000 0.000000
# 2 -0.002608 0.009940 -0.003186 0.000000 0.000000 0.000000
# 3 -0.003256 -0.003186 0.014676 0.000000 0.000000 0.000000
# 4 0.000000 0.000000 0.000000 0.049746 0.000000 0.000000
# 5 0.000000 0.000000 0.000000 0.000000 -0.027064 0.000000
# 6 0.000000 0.000000 0.000000 0.000000 0.000000 0.030681
#
#
# Mechanical properties :
#
#
# Convention : Reuss Voigt Hill
#
# Bulk Modulus (GPa) = 61.50242 64.36614 62.93428
# Shear Modulus (GPa) = 44.94656 17.52834 31.23745
#
# Velocity S-wave (km/s) = 4.62160 2.88612 3.85285
# Velocity P-wave (km/s) = 7.59642 6.45708 7.04980
#
# Compressibility (1/GPa) = 0.01625952
#
# Stress axis : x y z
#
# Youngs Moduli (GPa) = 102.62529 100.60758 68.13990
#
# Poissons Ratio (x) = 0.26243 0.22184
# Poissons Ratio (y) = 0.26769 0.21709
# Poissons Ratio (z) = 0.33411 0.32053
#
# Static dielectric constant tensor:
#      x y z
#    x 3.979870 0.000000 0.000000 
#    y 0.000000 4.015750 0.000000 
#    z 0.000000 0.000000 3.896820 
# 
# 
# High freq. dielectric constant tensor:
#      x y z
#    x 1.835840 0.000000 0.000000 
#    y 0.000000 1.827800 0.000000 
#    z 0.000000 0.000000 1.824760 
# 
# From -- ./inp_files/22063.got.cif
#   From: 2010.03.12/outbox.cif.g09.slc.cpg/sg57_12_cif.got.tgz:22063.got - 2010.04.16 15:48:40.
