data_PCOD8234207
_publ_section_title
;
Structure prediction by ZEFSAII (Michael W. Deem and Ramdas Pophale) SiO2 
 PCOD8234207
Probable space group: P B C M
;
_chemical_formula_sum "Si O2"
_cell_formula_units_Z 64
_cell_length_a 25.666112
_cell_length_b 14.677999
_cell_length_c 8.597884
_cell_angle_alpha 90.000000
_cell_angle_beta 90.000000
_cell_angle_gamma 90.000000
_cell_volume 3239.056475
_symmetry_space_group_name_H-M "P B C M"
_symmetry_group_IT_number 57
_symmetry_cell_setting 'orthorhombic'
loop_
_space_group_symop_operation_xyz
x,y,z
-x,-y,1/2+z
x,1/2-y,-z
-x,1/2+y,1/2-z
-x,-y,-z
x,y,1/2-z
-x,1/2+y,z
x,1/2-y,1/2+z
loop_
_atom_site_type_symbol
_atom_site_label
_atom_site_fract_x
_atom_site_fract_y
_atom_site_fract_z
Si Si1 0.637213 0.648766 0.433622
Si Si2 0.895997 0.657651 0.933340
Si Si3 0.822165 0.509031 0.426648
Si Si4 0.359747 0.852221 0.065721
Si Si5 0.893273 0.339283 0.427034
Si Si6 0.711584 0.503029 0.568491
Si Si7 0.000920 0.900157 0.567192
Si Si8 0.442966 0.997356 0.067693
O O1 0.632393 0.750000 0.500000
O O2 0.643903 0.654587 0.250000
O O3 0.686619 0.595605 0.501912
O O4 0.586133 0.590586 0.481234
O O5 0.888925 0.651226 0.750000
O O6 0.870845 0.750000 0.000000
O O7 0.866492 0.576148 0.015330
O O8 0.956675 0.657021 0.979481
O O9 0.805738 0.532573 0.250000
O O10 0.847178 0.410573 0.438121
O O11 0.772670 0.511950 0.538195
O O12 0.357685 0.845747 0.250000
O O13 0.411027 0.908264 0.008348
O O14 0.360027 0.750000 0.000000
O O15 0.309846 0.910531 0.010738
O O16 0.867098 0.250000 0.500000
O O17 0.912480 0.327565 0.250000
O O18 0.942840 0.358806 0.535009
O O19 0.700071 0.496800 0.750000
O O20 0.988987 0.900878 0.750000
O O21 0.000000 0.000000 0.500000
O O22 0.447632 0.990985 0.250000
O O23 0.500000 0.000000 0.000000
#
# Coordination Sequence:
#
# PCOD8234207 Si02
#       8
#     8   8   8   8   8   8   8   8
#     4  10  21  39  61  88 120 158 204 250 299 353
#     4  12  25  42  64  90 121 156 197 242 294 356
#     4  11  24  43  64  88 121 156 196 246 299 354
#     4  10  21  39  61  88 120 159 205 251 300 354
#     4  11  24  41  63  89 120 155 195 239 292 351
#     4  11  23  40  63  89 118 155 198 247 304 358
#     4  12  23  39  63  89 120 156 196 239 292 353
#     4   9  20  36  56  85 124 163 202 249 297 351
#
# _framework density 19.758838999999998
#
# number of rings (size 3 to 8) (size 9 to 14) (size 15 to 20)
#    0.000    1.250    1.250    6.000    0.000    6.000 
#    0.000    6.250    0.000    0.000    0.000    0.000 
#    0.000    0.000    0.000    0.000    0.000    0.000 
#
# Total GULP energy -793721.463906 kJ/mol
# GULP energy per Si atom -12401.897874 kJ/mol
# Density = 1.971387 g / cm^3
# Si number density = 19.758839 Si / 1000 Ang^3
#
#
#
# Elastic Constant Matrix: (Units=GPa)
#
#
# Indices 1 2 3 4 5 6 
#
# 1 99.4189 28.8047 27.9023 0.0000 0.0000 0.0000
# 2 28.8047 136.5785 59.5414 0.0000 0.0000 0.0000
# 3 27.9023 59.5414 92.8752 0.0000 0.0000 0.0000
# 4 0.0000 0.0000 0.0000 35.8601 0.0000 0.0000
# 5 0.0000 0.0000 0.0000 0.0000 32.1940 0.0000
# 6 0.0000 0.0000 0.0000 0.0000 0.0000 -5.0021
#
#
#
# Elastic Compliance Matrix: (Units=1/GPa)
#
#
# Indices 1 2 3 4 5 6 
#
# 1 0.011133 -0.001235 -0.002553 0.000000 0.000000 0.000000
# 2 -0.001235 0.010299 -0.006231 0.000000 0.000000 0.000000
# 3 -0.002553 -0.006231 0.015529 0.000000 0.000000 0.000000
# 4 0.000000 0.000000 0.000000 0.027886 0.000000 0.000000
# 5 0.000000 0.000000 0.000000 0.000000 0.031062 0.000000
# 6 0.000000 0.000000 0.000000 0.000000 0.000000 -0.199914
#
#
# Mechanical properties :
#
#
# Convention : Reuss Voigt Hill
#
# Bulk Modulus (GPa) = 59.09471 62.37438 60.73454
# Shear Modulus (GPa) = -63.83547 26.78533 -18.52507
#
# Velocity S-wave (km/s) = -5.69012 3.68586 -3.06528
# Velocity P-wave (km/s) = 3.63277 7.05340 4.27513
#
# Compressibility (1/GPa) = 0.01692199
#
# Stress axis : x y z
#
# Youngs Moduli (GPa) = 89.82519 97.09795 64.39553
#
# Poissons Ratio (x) = 0.11992 0.16439
# Poissons Ratio (y) = 0.11093 0.40128
# Poissons Ratio (z) = 0.22931 0.60506
#
# Static dielectric constant tensor:
#      x y z
#    x 3.400740 0.000000 0.000000 
#    y 0.000000 3.639740 0.000000 
#    z 0.000000 0.000000 3.714050 
# 
# 
# High freq. dielectric constant tensor:
#      x y z
#    x 1.764080 0.000000 0.000000 
#    y 0.000000 1.784820 0.000000 
#    z 0.000000 0.000000 1.784970 
# 
# From -- ./inp_files/9270.got.cif
#   From: 2010.03.12/outbox.cif.g09.slc.cpg/sg57_5_cif.got.tgz:9270.got - 2010.04.16 15:48:40.
