data_PCOD8234701
_publ_section_title
;
Structure prediction by ZEFSAII (Michael W. Deem and Ramdas Pophale) SiO2 
 PCOD8234701
Probable space group: P B C M
;
_chemical_formula_sum "Si O2"
_cell_formula_units_Z 56
_cell_length_a 15.503614
_cell_length_b 11.573928
_cell_length_c 14.065979
_cell_angle_alpha 90.000000
_cell_angle_beta 90.000000
_cell_angle_gamma 90.000000
_cell_volume 2523.967091
_symmetry_space_group_name_H-M "P B C M"
_symmetry_group_IT_number 57
_symmetry_cell_setting 'orthorhombic'
loop_
_space_group_symop_operation_xyz
x,y,z
-x,-y,1/2+z
x,1/2-y,-z
-x,1/2+y,1/2-z
-x,-y,-z
x,y,1/2-z
-x,1/2+y,z
x,1/2-y,1/2+z
loop_
_atom_site_type_symbol
_atom_site_label
_atom_site_fract_x
_atom_site_fract_y
_atom_site_fract_z
Si Si1 0.728416 0.322852 0.857648
Si Si2 0.758696 0.080576 0.553936
Si Si3 0.582852 0.491736 0.641757
Si Si4 0.683379 0.781612 0.103609
Si Si5 0.606385 0.551748 0.141979
Si Si6 0.913565 0.932846 0.975627
Si Si7 0.127742 0.282087 0.145419
O O1 0.762798 0.351371 0.750000
O O2 0.739228 0.187532 0.876759
O O3 0.629219 0.366218 0.866861
O O4 0.776825 0.388167 0.943201
O O5 0.676470 0.998471 0.568874
O O6 0.846675 0.015727 0.580884
O O7 0.571818 0.527717 0.750000
O O8 0.641343 0.591791 0.596507
O O9 0.486752 0.482780 0.598478
O O10 0.612698 0.691095 0.142254
O O11 0.769997 0.767411 0.165173
O O12 0.717150 0.750000 0.000000
O O13 0.619512 0.506169 0.250000
O O14 0.923457 0.823935 0.904657
O O15 0.879546 0.894072 0.078811
O O16 0.000000 0.000000 0.000000
O O17 0.085521 0.301006 0.250000
#
# Coordination Sequence:
#
# PCOD8234701 Si02
#       7
#     8   8   8   8   8   8   8
#     4  10  23  41  62  91 132 175 222 271 332 404
#     4  11  23  42  67  92 126 177 220 273 349 406
#     4  10  23  39  59  93 137 182 231 289 335 385
#     4  12  22  39  65  96 133 181 235 285 338 399
#     4  11  23  39  63  94 132 178 232 285 336 400
#     4  11  25  46  69 102 136 166 221 290 343 417
#     4  11  23  44  72 102 137 179 223 276 349 421
#
# _framework density 22.187294999999999
#
# number of rings (size 3 to 8) (size 9 to 14) (size 15 to 20)
#    0.000    1.143    2.857    3.429    2.000    7.429 
#    0.000    1.429    0.000    0.000    0.000    0.000 
#    0.000    0.000    0.000    0.000    0.000    0.000 
#
# Total GULP energy -693926.046048 kJ/mol
# GULP energy per Si atom -12391.536537 kJ/mol
# Density = 2.213680 g / cm^3
# Si number density = 22.187295 Si / 1000 Ang^3
#
#
#
# Elastic Constant Matrix: (Units=GPa)
#
#
# Indices 1 2 3 4 5 6 
#
# 1 104.2073 55.6813 8.8940 0.0000 0.0000 0.0000
# 2 55.6813 125.1670 27.9372 0.0000 0.0000 0.0000
# 3 8.8940 27.9372 120.8378 0.0000 0.0000 0.0000
# 4 0.0000 0.0000 0.0000 27.9371 0.0000 0.0000
# 5 0.0000 0.0000 0.0000 0.0000 15.2910 0.0000
# 6 0.0000 0.0000 0.0000 0.0000 0.0000 39.9990
#
#
#
# Elastic Compliance Matrix: (Units=1/GPa)
#
#
# Indices 1 2 3 4 5 6 
#
# 1 0.012606 -0.005695 0.000389 0.000000 0.000000 0.000000
# 2 -0.005695 0.010996 -0.002123 0.000000 0.000000 0.000000
# 3 0.000389 -0.002123 0.008738 0.000000 0.000000 0.000000
# 4 0.000000 0.000000 0.000000 0.035795 0.000000 0.000000
# 5 0.000000 0.000000 0.000000 0.000000 0.065398 0.000000
# 6 0.000000 0.000000 0.000000 0.000000 0.000000 0.025001
#
#
# Mechanical properties :
#
#
# Convention : Reuss Voigt Hill
#
# Bulk Modulus (GPa) = 57.20136 59.47079 58.33608
# Shear Modulus (GPa) = 27.89883 33.82540 30.86211
#
# Velocity S-wave (km/s) = 3.54986 3.90877 3.73363
# Velocity P-wave (km/s) = 6.52987 6.87266 6.70346
#
# Compressibility (1/GPa) = 0.01748210
#
# Stress axis : x y z
#
# Youngs Moduli (GPa) = 79.32820 90.93818 114.44498
#
# Poissons Ratio (x) = 0.51785 -0.04449
# Poissons Ratio (y) = 0.45174 0.24299
# Poissons Ratio (z) = -0.03084 0.19308
#
# Static dielectric constant tensor:
#      x y z
#    x 3.751350 0.000000 0.000000 
#    y 0.000000 4.247390 0.000000 
#    z 0.000000 0.000000 4.098120 
# 
# 
# High freq. dielectric constant tensor:
#      x y z
#    x 1.841380 0.000000 0.000000 
#    y 0.000000 1.876610 0.000000 
#    z 0.000000 0.000000 1.889780 
# 
# From -- ./inp_files/18489.got.cif
#   From: 2010.03.12/outbox.cif.g09.slc.cpg/sg57_10_cif.got.tgz:18489.got - 2010.04.16 15:48:40.
