data_PCOD8234441
_publ_section_title
;
Structure prediction by ZEFSAII (Michael W. Deem and Ramdas Pophale) SiO2 
 PCOD8234441
Probable space group: P B C M
;
_chemical_formula_sum "Si O2"
_cell_formula_units_Z 56
_cell_length_a 13.325319
_cell_length_b 9.251494
_cell_length_c 21.527231
_cell_angle_alpha 90.000000
_cell_angle_beta 90.000000
_cell_angle_gamma 90.000000
_cell_volume 2653.857852
_symmetry_space_group_name_H-M "P B C M"
_symmetry_group_IT_number 57
_symmetry_cell_setting 'orthorhombic'
loop_
_space_group_symop_operation_xyz
x,y,z
-x,-y,1/2+z
x,1/2-y,-z
-x,1/2+y,1/2-z
-x,-y,-z
x,y,1/2-z
-x,1/2+y,z
x,1/2-y,1/2+z
loop_
_atom_site_type_symbol
_atom_site_label
_atom_site_fract_x
_atom_site_fract_y
_atom_site_fract_z
Si Si1 0.700140 0.279313 0.322397
Si Si2 0.209073 0.988610 0.620673
Si Si3 0.575260 0.146950 0.942199
Si Si4 0.918134 0.745125 0.639877
Si Si5 0.356064 0.099994 0.521231
Si Si6 0.034650 0.870776 0.541542
Si Si7 0.897351 0.439634 0.318749
O O1 0.664163 0.301586 0.250000
O O2 0.612735 0.301678 0.373927
O O3 0.786720 0.393193 0.342142
O O4 0.741388 0.114780 0.327753
O O5 0.180604 0.145540 0.649624
O O6 0.282011 0.006348 0.562684
O O7 0.106750 0.916028 0.597294
O O8 0.454979 0.137016 0.938231
O O9 0.607041 0.250000 0.000000
O O10 0.618125 0.988829 0.958710
O O11 0.930755 0.806537 0.570029
O O12 0.016268 0.643520 0.644917
O O13 0.909527 0.886152 0.683169
O O14 0.304904 0.250000 0.500000
O O15 0.090228 0.750000 0.500000
O O16 0.000000 0.000000 0.500000
O O17 0.908957 0.379364 0.250000
#
# Coordination Sequence:
#
# PCOD8234441 Si02
#       7
#     8   8   8   8   8   8   8
#     4  11  25  45  69  98 132 177 228 279 344 410
#     4  12  25  40  65  96 134 179 220 276 334 409
#     4  10  21  46  73  98 131 168 221 279 342 407
#     4  12  23  41  58  92 130 175 221 273 331 388
#     4  10  24  40  70 104 131 166 220 275 342 413
#     4  12  24  38  56  89 134 171 220 273 332 382
#     4  11  23  41  63  87 122 175 226 269 322 394
#
# _framework density 21.101355999999999
#
# number of rings (size 3 to 8) (size 9 to 14) (size 15 to 20)
#    0.000    0.857    5.714    0.429    6.000    2.286 
#    0.000    0.714    0.000    0.000    0.000    0.000 
#    0.000    0.000    0.000    0.000    0.000    0.000 
#
# Total GULP energy -694022.145144 kJ/mol
# GULP energy per Si atom -12393.252592 kJ/mol
# Density = 2.105333 g / cm^3
# Si number density = 21.101356 Si / 1000 Ang^3
#
#
#
# Elastic Constant Matrix: (Units=GPa)
#
#
# Indices 1 2 3 4 5 6 
#
# 1 64.0095 24.8292 30.6922 0.0000 0.0000 0.0000
# 2 24.8292 125.0965 23.6806 0.0000 0.0000 0.0000
# 3 30.6922 23.6806 97.8036 0.0000 0.0000 0.0000
# 4 0.0000 0.0000 0.0000 34.1630 0.0000 0.0000
# 5 0.0000 0.0000 0.0000 0.0000 22.3816 0.0000
# 6 0.0000 0.0000 0.0000 0.0000 0.0000 31.2310
#
#
#
# Elastic Compliance Matrix: (Units=1/GPa)
#
#
# Indices 1 2 3 4 5 6 
#
# 1 0.019289 -0.002812 -0.005373 0.000000 0.000000 0.000000
# 2 -0.002812 0.008788 -0.001245 0.000000 0.000000 0.000000
# 3 -0.005373 -0.001245 0.012212 0.000000 0.000000 0.000000
# 4 0.000000 0.000000 0.000000 0.029271 0.000000 0.000000
# 5 0.000000 0.000000 0.000000 0.000000 0.044679 0.000000
# 6 0.000000 0.000000 0.000000 0.000000 0.000000 0.032019
#
#
# Mechanical properties :
#
#
# Convention : Reuss Voigt Hill
#
# Bulk Modulus (GPa) = 46.66329 49.47930 48.07130
# Shear Modulus (GPa) = 29.02558 31.40230 30.21394
#
# Velocity S-wave (km/s) = 3.71284 3.86186 3.78808
# Velocity P-wave (km/s) = 6.36727 6.58670 6.47791
#
# Compressibility (1/GPa) = 0.02143012
#
# Stress axis : x y z
#
# Youngs Moduli (GPa) = 51.84202 113.79650 81.88601
#
# Poissons Ratio (x) = 0.31994 0.43994
# Poissons Ratio (y) = 0.14576 0.10198
# Poissons Ratio (z) = 0.27852 0.14172
#
# Static dielectric constant tensor:
#      x y z
#    x 3.804920 0.000000 0.000000 
#    y 0.000000 4.253850 0.000000 
#    z 0.000000 0.000000 3.606600 
# 
# 
# High freq. dielectric constant tensor:
#      x y z
#    x 1.803470 0.000000 0.000000 
#    y 0.000000 1.852590 0.000000 
#    z 0.000000 0.000000 1.811050 
# 
# From -- ./inp_files/25417.got.cif
#   From: 2010.03.12/outbox.cif.g09.slc.cpg/sg57_13_cif.got.tgz:25417.got - 2010.04.16 15:48:40.
