data_PCOD8234369
_publ_section_title
;
Structure prediction by ZEFSAII (Michael W. Deem and Ramdas Pophale) SiO2 
 PCOD8234369
Probable space group: P B C M
;
_chemical_formula_sum "Si O2"
_cell_formula_units_Z 64
_cell_length_a 16.211279
_cell_length_b 10.738702
_cell_length_c 17.484703
_cell_angle_alpha 90.000000
_cell_angle_beta 90.000000
_cell_angle_gamma 90.000000
_cell_volume 3043.878623
_symmetry_space_group_name_H-M "P B C M"
_symmetry_group_IT_number 57
_symmetry_cell_setting 'orthorhombic'
loop_
_space_group_symop_operation_xyz
x,y,z
-x,-y,1/2+z
x,1/2-y,-z
-x,1/2+y,1/2-z
-x,-y,-z
x,y,1/2-z
-x,1/2+y,z
x,1/2-y,1/2+z
loop_
_atom_site_type_symbol
_atom_site_label
_atom_site_fract_x
_atom_site_fract_y
_atom_site_fract_z
Si Si1 0.751451 0.691075 0.162965
Si Si2 0.952356 0.323761 0.424335
Si Si3 0.452236 0.541248 0.341037
Si Si4 0.311228 0.849355 0.943109
Si Si5 0.130361 0.105619 0.610272
Si Si6 0.571624 0.761853 0.159956
Si Si7 0.831769 0.166458 0.162789
Si Si8 0.807357 0.987580 0.962412
O O1 0.739146 0.647516 0.250000
O O2 0.827309 0.785517 0.158218
O O3 0.666276 0.752451 0.131219
O O4 0.774664 0.569191 0.115900
O O5 0.979444 0.250000 0.500000
O O6 0.916989 0.230895 0.360553
O O7 0.884497 0.424107 0.446875
O O8 0.031593 0.387020 0.385924
O O9 0.437267 0.550742 0.250000
O O10 0.370770 0.582918 0.384471
O O11 0.469042 0.395791 0.365215
O O12 0.522894 0.638234 0.369272
O O13 0.240964 0.780656 0.891919
O O14 0.355284 0.750000 0.000000
O O15 0.270358 0.947768 0.999223
O O16 0.159802 0.115692 0.522110
O O17 0.160173 0.980097 0.650409
O O18 0.569396 0.758916 0.250000
O O19 0.809892 0.197094 0.250000
#
# Coordination Sequence:
#
# PCOD8234369 Si02
#       8
#     8   8   8   8   8   8   8   8
#     4  11  24  42  63  93 133 170 214 269 324 388
#     4  12  22  42  62  89 126 168 215 267 326 395
#     4  10  21  40  70  98 127 170 217 269 324 393
#     4  11  21  42  63  92 126 164 217 260 318 397
#     4  11  24  39  66  89 119 172 222 261 321 388
#     4   9  20  41  66  97 133 169 214 265 332 402
#     4  11  23  40  62  88 123 163 209 270 323 378
#     4  11  22  41  63  90 123 172 214 261 322 392
#
# _framework density 21.025805999999999
#
# number of rings (size 3 to 8) (size 9 to 14) (size 15 to 20)
#    0.000    1.250    3.750    3.750    1.750    3.500 
#    0.000    5.000    0.000    0.000    0.000    0.000 
#    0.000    0.000    0.000    0.000    0.000    0.000 
#
# Total GULP energy -793431.197611 kJ/mol
# GULP energy per Si atom -12397.362463 kJ/mol
# Density = 2.097795 g / cm^3
# Si number density = 21.025806 Si / 1000 Ang^3
#
#
#
# Elastic Constant Matrix: (Units=GPa)
#
#
# Indices 1 2 3 4 5 6 
#
# 1 86.3709 29.0055 15.4022 0.0000 0.0000 0.0000
# 2 29.0055 79.6845 27.8336 0.0000 0.0000 0.0000
# 3 15.4022 27.8336 92.4416 0.0000 0.0000 0.0000
# 4 0.0000 0.0000 0.0000 26.2315 0.0000 0.0000
# 5 0.0000 0.0000 0.0000 0.0000 26.7758 0.0000
# 6 0.0000 0.0000 0.0000 0.0000 0.0000 13.0652
#
#
#
# Elastic Compliance Matrix: (Units=1/GPa)
#
#
# Indices 1 2 3 4 5 6 
#
# 1 0.013249 -0.004528 -0.000844 0.000000 0.000000 0.000000
# 2 -0.004528 0.015572 -0.003934 0.000000 0.000000 0.000000
# 3 -0.000844 -0.003934 0.012143 0.000000 0.000000 0.000000
# 4 0.000000 0.000000 0.000000 0.038122 0.000000 0.000000
# 5 0.000000 0.000000 0.000000 0.000000 0.037347 0.000000
# 6 0.000000 0.000000 0.000000 0.000000 0.000000 0.076539
#
#
# Mechanical properties :
#
#
# Convention : Reuss Voigt Hill
#
# Bulk Modulus (GPa) = 44.74003 44.77550 44.75777
# Shear Modulus (GPa) = 22.82737 25.63155 24.22946
#
# Velocity S-wave (km/s) = 3.29855 3.49528 3.39834
# Velocity P-wave (km/s) = 5.98599 6.13441 6.06065
#
# Compressibility (1/GPa) = 0.02235135
#
# Stress axis : x y z
#
# Youngs Moduli (GPa) = 75.47694 64.21849 82.35295
#
# Poissons Ratio (x) = 0.29077 0.06952
# Poissons Ratio (y) = 0.34175 0.32399
# Poissons Ratio (z) = 0.06372 0.25265
#
# Static dielectric constant tensor:
#      x y z
#    x 3.860100 0.000000 0.000000 
#    y 0.000000 3.936020 0.000000 
#    z 0.000000 0.000000 3.955540 
# 
# 
# High freq. dielectric constant tensor:
#      x y z
#    x 1.820260 0.000000 0.000000 
#    y 0.000000 1.827200 0.000000 
#    z 0.000000 0.000000 1.815920 
# 
# From -- ./inp_files/22707.got.cif
#   From: 2010.03.12/outbox.cif.g09.slc.cpg/sg57_12_cif.got.tgz:22707.got - 2010.04.16 15:48:40.
