data_PCOD8234186
_publ_section_title
;
Structure prediction by ZEFSAII (Michael W. Deem and Ramdas Pophale) SiO2 
 PCOD8234186
Probable space group: P B C M
;
_chemical_formula_sum "Si O2"
_cell_formula_units_Z 56
_cell_length_a 19.161637
_cell_length_b 18.191310
_cell_length_c 8.733641
_cell_angle_alpha 90.000000
_cell_angle_beta 90.000000
_cell_angle_gamma 90.000000
_cell_volume 3044.331346
_symmetry_space_group_name_H-M "P B C M"
_symmetry_group_IT_number 57
_symmetry_cell_setting 'orthorhombic'
loop_
_space_group_symop_operation_xyz
x,y,z
-x,-y,1/2+z
x,1/2-y,-z
-x,1/2+y,1/2-z
-x,-y,-z
x,y,1/2-z
-x,1/2+y,z
x,1/2-y,1/2+z
loop_
_atom_site_type_symbol
_atom_site_label
_atom_site_fract_x
_atom_site_fract_y
_atom_site_fract_z
Si Si1 0.566217 0.329883 0.570549
Si Si2 0.704550 0.331345 0.068415
Si Si3 0.072963 0.476046 0.568008
Si Si4 0.586341 0.670587 0.428059
Si Si5 0.721508 0.588574 0.430058
Si Si6 0.206112 0.546522 0.430885
Si Si7 0.858307 0.672822 0.072488
O O1 0.559091 0.250000 0.500000
O O2 0.583586 0.325463 0.750000
O O3 0.630825 0.369532 0.484449
O O4 0.489970 0.366547 0.540380
O O5 0.709295 0.329522 0.250000
O O6 0.708206 0.250000 0.000000
O O7 0.768686 0.376284 0.999301
O O8 0.072634 0.482228 0.750000
O O9 0.130982 0.530899 0.503159
O O10 0.090798 0.392678 0.514848
O O11 0.000000 0.500000 0.500000
O O12 0.595035 0.750000 0.500000
O O13 0.597986 0.683220 0.250000
O O14 0.646295 0.616159 0.489252
O O15 0.722972 0.568951 0.250000
O O16 0.738079 0.515561 0.524180
O O17 0.778630 0.651330 0.467639
O O18 0.199193 0.552243 0.250000
O O19 0.868525 0.683663 0.250000
O O20 0.879812 0.750000 0.000000
#
# Coordination Sequence:
#
# PCOD8234186 Si02
#       7
#     8   8   8   8   8   8   8
#     4   9  16  28  46  71 100 134 175 219 265 316
#     4  11  21  36  57  79 103 134 172 220 269 316
#     4  10  21  39  60  84 112 144 177 214 259 312
#     4   9  17  28  46  71 103 139 178 222 267 312
#     4   9  18  33  49  72 106 142 176 217 263 308
#     4  11  22  37  57  81 105 135 173 213 259 317
#     4   9  18  31  51  78 109 140 176 215 254 301
#
# _framework density 18.394843999999999
#
# number of rings (size 3 to 8) (size 9 to 14) (size 15 to 20)
#    0.000    2.286    0.000    5.571    0.000    4.000 
#    0.000    1.429    0.000    1.714    0.000    0.000 
#    0.000    0.000    0.000    0.000    0.000    0.000 
#
# Total GULP energy -694159.491431 kJ/mol
# GULP energy per Si atom -12395.705204 kJ/mol
# Density = 1.835298 g / cm^3
# Si number density = 18.394844 Si / 1000 Ang^3
#
#
#
# Elastic Constant Matrix: (Units=GPa)
#
#
# Indices 1 2 3 4 5 6 
#
# 1 153.4903 70.7404 55.8612 0.0000 0.0000 0.0000
# 2 70.7404 80.4557 38.0219 0.0000 0.0000 0.0000
# 3 55.8612 38.0219 97.7954 0.0000 0.0000 0.0000
# 4 0.0000 0.0000 0.0000 30.6350 0.0000 0.0000
# 5 0.0000 0.0000 0.0000 0.0000 31.4717 0.0000
# 6 0.0000 0.0000 0.0000 0.0000 0.0000 16.4442
#
#
#
# Elastic Compliance Matrix: (Units=1/GPa)
#
#
# Indices 1 2 3 4 5 6 
#
# 1 0.011766 -0.008783 -0.003306 0.000000 0.000000 0.000000
# 2 -0.008783 0.021783 -0.003452 0.000000 0.000000 0.000000
# 3 -0.003306 -0.003452 0.013456 0.000000 0.000000 0.000000
# 4 0.000000 0.000000 0.000000 0.032642 0.000000 0.000000
# 5 0.000000 0.000000 0.000000 0.000000 0.031775 0.000000
# 6 0.000000 0.000000 0.000000 0.000000 0.000000 0.060812
#
#
# Mechanical properties :
#
#
# Convention : Reuss Voigt Hill
#
# Bulk Modulus (GPa) = 62.80333 73.44317 68.12325
# Shear Modulus (GPa) = 23.96656 26.85137 25.40896
#
# Velocity S-wave (km/s) = 3.61348 3.82478 3.72063
# Velocity P-wave (km/s) = 7.18509 7.71478 7.45464
#
# Compressibility (1/GPa) = 0.01592272
#
# Stress axis : x y z
#
# Youngs Moduli (GPa) = 84.98926 45.90740 74.31576
#
# Poissons Ratio (x) = 0.40320 0.24570
# Poissons Ratio (y) = 0.74646 0.25655
# Poissons Ratio (z) = 0.28099 0.15848
#
# Static dielectric constant tensor:
#      x y z
#    x 3.793570 0.000000 0.000000 
#    y 0.000000 3.263850 0.000000 
#    z 0.000000 0.000000 3.385160 
# 
# 
# High freq. dielectric constant tensor:
#      x y z
#    x 1.718660 0.000000 0.000000 
#    y 0.000000 1.689610 0.000000 
#    z 0.000000 0.000000 1.720010 
# 
# From -- ./inp_files/8335.got.cif
#   From: 2010.03.12/outbox.cif.g09.slc.cpg/sg57_5_cif.got.tgz:8335.got - 2010.04.16 15:48:40.
