data_PCOD8234563
_publ_section_title
;
Structure prediction by ZEFSAII (Michael W. Deem and Ramdas Pophale) SiO2 
 PCOD8234563
Probable space group: P B C M
;
_chemical_formula_sum "Si O2"
_cell_formula_units_Z 48
_cell_length_a 6.649530
_cell_length_b 13.740453
_cell_length_c 26.540734
_cell_angle_alpha 90.000000
_cell_angle_beta 90.000000
_cell_angle_gamma 90.000000
_cell_volume 2424.961959
_symmetry_space_group_name_H-M "P B C M"
_symmetry_group_IT_number 57
_symmetry_cell_setting 'orthorhombic'
loop_
_space_group_symop_operation_xyz
x,y,z
-x,-y,1/2+z
x,1/2-y,-z
-x,1/2+y,1/2-z
-x,-y,-z
x,y,1/2-z
-x,1/2+y,z
x,1/2-y,1/2+z
loop_
_atom_site_type_symbol
_atom_site_label
_atom_site_fract_x
_atom_site_fract_y
_atom_site_fract_z
Si Si1 0.484801 0.150916 0.973418
Si Si2 0.026315 0.025306 0.139742
Si Si3 0.708512 0.640886 0.868857
Si Si4 0.197626 0.488743 0.966498
Si Si5 0.317960 0.887892 0.193058
Si Si6 0.998144 0.224515 0.191173
O O1 0.355581 0.177248 0.923980
O O2 0.689303 0.092461 0.960739
O O3 0.553246 0.250000 0.000000
O O4 0.347060 0.089994 0.010931
O O5 0.844756 0.954260 0.125563
O O6 0.173088 0.976940 0.180156
O O7 0.141139 0.050905 0.088441
O O8 0.943429 0.121972 0.166150
O O9 0.512129 0.606010 0.840601
O O10 0.815536 0.727236 0.838325
O O11 0.000000 0.500000 0.000000
O O12 0.389099 0.899564 0.250000
O O13 0.202835 0.786842 0.184140
O O14 0.056875 0.214876 0.250000
#
# Coordination Sequence:
#
# PCOD8234563 Si02
#       6
#     8   8   8   8   8   8
#     4  11  24  41  64  92 126 164 206 253 310 366
#     4  11  22  41  64  89 127 163 203 255 313 364
#     4  11  22  41  63  90 124 162 206 254 308 365
#     4  11  23  42  62  94 127 160 209 254 301 376
#     4  10  22  40  62  89 123 158 204 256 305 367
#     4  10  23  40  62  91 120 158 207 253 305 369
#
# _framework density 19.794125999999999
#
# number of rings (size 3 to 8) (size 9 to 14) (size 15 to 20)
#    0.000    1.333    3.333    2.000    0.000    5.333 
#    0.000    1.667    0.000    0.000    0.000    0.000 
#    0.000    0.000    0.000    0.000    0.000    0.000 
#
# Total GULP energy -595431.468065 kJ/mol
# GULP energy per Si atom -12404.822251 kJ/mol
# Density = 1.974907 g / cm^3
# Si number density = 19.794126 Si / 1000 Ang^3
#
#
#
# Elastic Constant Matrix: (Units=GPa)
#
#
# Indices 1 2 3 4 5 6 
#
# 1 77.2100 6.4922 26.8102 0.0000 0.0000 0.0000
# 2 6.4922 45.1583 33.5888 0.0000 0.0000 0.0000
# 3 26.8102 33.5888 124.5909 0.0000 0.0000 0.0000
# 4 0.0000 0.0000 0.0000 32.8264 0.0000 0.0000
# 5 0.0000 0.0000 0.0000 0.0000 38.0800 0.0000
# 6 0.0000 0.0000 0.0000 0.0000 0.0000 14.7837
#
#
#
# Elastic Compliance Matrix: (Units=1/GPa)
#
#
# Indices 1 2 3 4 5 6 
#
# 1 0.014001 0.000285 -0.003090 0.000000 0.000000 0.000000
# 2 0.000285 0.027704 -0.007530 0.000000 0.000000 0.000000
# 3 -0.003090 -0.007530 0.010721 0.000000 0.000000 0.000000
# 4 0.000000 0.000000 0.000000 0.030463 0.000000 0.000000
# 5 0.000000 0.000000 0.000000 0.000000 0.026260 0.000000
# 6 0.000000 0.000000 0.000000 0.000000 0.000000 0.067642
#
#
# Mechanical properties :
#
#
# Convention : Reuss Voigt Hill
#
# Bulk Modulus (GPa) = 31.48926 42.30462 36.89694
# Shear Modulus (GPa) = 24.03308 29.14257 26.58782
#
# Velocity S-wave (km/s) = 3.48825 3.84120 3.66897
# Velocity P-wave (km/s) = 5.67157 6.41029 6.05221
#
# Compressibility (1/GPa) = 0.03175686
#
# Stress axis : x y z
#
# Youngs Moduli (GPa) = 71.42580 36.09540 93.27299
#
# Poissons Ratio (x) = -0.01030 0.28818
# Poissons Ratio (y) = -0.02038 0.70237
# Poissons Ratio (z) = 0.22068 0.27181
#
# Static dielectric constant tensor:
#      x y z
#    x 3.648100 0.000000 0.000000 
#    y 0.000000 3.589970 0.000000 
#    z 0.000000 0.000000 3.877480 
# 
# 
# High freq. dielectric constant tensor:
#      x y z
#    x 1.775610 0.000000 0.000000 
#    y 0.000000 1.768490 0.000000 
#    z 0.000000 0.000000 1.792930 
# 
# From -- ./inp_files/27947.got.cif
#   From: 2010.03.12/outbox.cif.g09.slc.cpg/sg57_14_cif.got.tgz:27947.got - 2010.04.16 15:48:40.
