data_PCOD8234691
_publ_section_title
;
Structure prediction by ZEFSAII (Michael W. Deem and Ramdas Pophale) SiO2 
 PCOD8234691
Probable space group: P B C M
;
_chemical_formula_sum "Si O2"
_cell_formula_units_Z 40
_cell_length_a 15.174282
_cell_length_b 13.566870
_cell_length_c 9.664880
_cell_angle_alpha 90.000000
_cell_angle_beta 90.000000
_cell_angle_gamma 90.000000
_cell_volume 1989.684792
_symmetry_space_group_name_H-M "P B C M"
_symmetry_group_IT_number 57
_symmetry_cell_setting 'orthorhombic'
loop_
_space_group_symop_operation_xyz
x,y,z
-x,-y,1/2+z
x,1/2-y,-z
-x,1/2+y,1/2-z
-x,-y,-z
x,y,1/2-z
-x,1/2+y,z
x,1/2-y,1/2+z
loop_
_atom_site_type_symbol
_atom_site_label
_atom_site_fract_x
_atom_site_fract_y
_atom_site_fract_z
Si Si1 0.599043 0.750000 0.500000
Si Si2 0.627835 0.051417 0.250000
Si Si3 0.471822 0.756227 0.750000
Si Si4 0.316610 0.452870 0.513488
Si Si5 0.564090 0.465855 0.250000
Si Si6 0.966373 0.150092 0.087040
Si Si7 0.123394 0.494117 0.594616
O O1 0.534928 0.777863 0.623084
O O2 0.661847 0.658027 0.535024
O O3 0.608662 0.167315 0.250000
O O4 0.686117 0.024801 0.117447
O O5 0.539167 0.987077 0.250000
O O6 0.424337 0.651391 0.750000
O O7 0.393008 0.489679 0.614114
O O8 0.222687 0.455249 0.587014
O O9 0.944928 0.168179 0.250000
O O10 0.061257 0.099694 0.066974
O O11 0.966573 0.250000 0.000000
O O12 0.892994 0.078660 0.019246
O O13 0.106116 0.535540 0.750000
#
# Coordination Sequence:
#
# PCOD8234691 Si02
#       7
#     4   4   4   8   4   8   8
#     4  12  22  38  64  92 122 164 220 272 326 370
#     4  12  24  42  60  91 130 171 222 266 328 383
#     4  12  24  40  64  86 118 176 224 260 324 384
#     4  12  24  41  64  95 131 166 216 280 320 383
#     4  12  22  44  64  87 128 175 214 274 322 381
#     4  10  22  44  73  99 130 171 211 260 328 401
#     4  10  23  44  66  97 135 170 211 266 327 389
#
# _framework density 20.103686
#
# number of rings (size 3 to 8) (size 9 to 14) (size 15 to 20)
#    0.000    0.800    5.000    2.400    2.800    0.800 
#    3.600    0.000    0.000    0.000    0.000    0.000 
#    0.000    0.000    0.000    0.000    0.000    0.000 
#
# Total GULP energy -496154.042014 kJ/mol
# GULP energy per Si atom -12403.851050 kJ/mol
# Density = 2.005793 g / cm^3
# Si number density = 20.103686 Si / 1000 Ang^3
#
#
#
# Elastic Constant Matrix: (Units=GPa)
#
#
# Indices 1 2 3 4 5 6 
#
# 1 69.0018 19.1949 12.4336 0.0000 0.0000 0.0000
# 2 19.1949 136.4788 31.8301 0.0000 0.0000 0.0000
# 3 12.4336 31.8301 128.7331 0.0000 0.0000 0.0000
# 4 0.0000 0.0000 0.0000 35.9896 0.0000 0.0000
# 5 0.0000 0.0000 0.0000 0.0000 32.0470 0.0000
# 6 0.0000 0.0000 0.0000 0.0000 0.0000 16.6359
#
#
#
# Elastic Compliance Matrix: (Units=1/GPa)
#
#
# Indices 1 2 3 4 5 6 
#
# 1 0.015202 -0.001906 -0.000997 0.000000 0.000000 0.000000
# 2 -0.001906 0.008014 -0.001798 0.000000 0.000000 0.000000
# 3 -0.000997 -0.001798 0.008309 0.000000 0.000000 0.000000
# 4 0.000000 0.000000 0.000000 0.027786 0.000000 0.000000
# 5 0.000000 0.000000 0.000000 0.000000 0.031204 0.000000
# 6 0.000000 0.000000 0.000000 0.000000 0.000000 0.060111
#
#
# Mechanical properties :
#
#
# Convention : Reuss Voigt Hill
#
# Bulk Modulus (GPa) = 45.19806 51.23675 48.21741
# Shear Modulus (GPa) = 29.86826 34.98483 32.42655
#
# Velocity S-wave (km/s) = 3.85867 4.17612 4.02053
# Velocity P-wave (km/s) = 6.51028 6.98533 6.75199
#
# Compressibility (1/GPa) = 0.02212484
#
# Stress axis : x y z
#
# Youngs Moduli (GPa) = 65.78021 124.77565 120.35470
#
# Poissons Ratio (x) = 0.23776 0.12001
# Poissons Ratio (y) = 0.12535 0.21635
# Poissons Ratio (z) = 0.06559 0.22429
#
# Static dielectric constant tensor:
#      x y z
#    x 3.435430 0.000000 0.000000 
#    y 0.000000 3.698840 0.000000 
#    z 0.000000 0.000000 3.721110 
# 
# 
# High freq. dielectric constant tensor:
#      x y z
#    x 1.771850 0.000000 0.000000 
#    y 0.000000 1.790130 0.000000 
#    z 0.000000 0.000000 1.804000 
# 
# From -- ./inp_files/4346.got.cif
#   From: 2010.03.12/outbox.cif.g09.slc.cpg/sg57_3_cif.got.tgz:4346.got - 2010.04.16 15:48:40.
