data_PCOD8234692
_publ_section_title
;
Structure prediction by ZEFSAII (Michael W. Deem and Ramdas Pophale) SiO2 
 PCOD8234692
Probable space group: P B C M
;
_chemical_formula_sum "Si O2"
_cell_formula_units_Z 40
_cell_length_a 8.573063
_cell_length_b 22.235943
_cell_length_c 9.993523
_cell_angle_alpha 90.000000
_cell_angle_beta 90.000000
_cell_angle_gamma 90.000000
_cell_volume 1905.066691
_symmetry_space_group_name_H-M "P B C M"
_symmetry_group_IT_number 57
_symmetry_cell_setting 'orthorhombic'
loop_
_space_group_symop_operation_xyz
x,y,z
-x,-y,1/2+z
x,1/2-y,-z
-x,1/2+y,1/2-z
-x,-y,-z
x,y,1/2-z
-x,1/2+y,z
x,1/2-y,1/2+z
loop_
_atom_site_type_symbol
_atom_site_label
_atom_site_fract_x
_atom_site_fract_y
_atom_site_fract_z
Si Si1 0.303867 0.826259 0.750000
Si Si2 0.325310 0.879678 0.470321
Si Si3 0.145772 0.999179 0.402053
Si Si4 0.813485 0.200000 0.750000
Si Si5 0.687210 0.883650 0.506284
Si Si6 0.172787 0.171205 0.750000
Si Si7 0.339680 0.201142 0.250000
O O1 0.275442 0.868694 0.623059
O O2 0.181308 0.772156 0.750000
O O3 0.473701 0.795611 0.750000
O O4 0.275376 0.822684 0.382056
O O5 0.509697 0.887916 0.459034
O O6 0.240752 0.937974 0.415060
O O7 0.085096 0.005266 0.250000
O O8 0.264417 0.052495 0.434728
O O9 0.000000 0.000000 0.500000
O O10 0.990311 0.180281 0.750000
O O11 0.792268 0.868127 0.379852
O O12 0.717505 0.832823 0.617513
O O13 0.271872 0.232167 0.750000
#
# Coordination Sequence:
#
# PCOD8234692 Si02
#       7
#     4   8   8   4   8   4   4
#     4  10  24  41  70  97 130 173 223 275 327 392
#     4  11  24  45  70  96 132 175 228 273 325 396
#     4  12  27  46  69 100 138 174 218 276 339 400
#     4  12  24  43  62 103 138 175 217 273 337 398
#     4  11  24  45  70  97 130 178 226 275 324 394
#     4  12  26  39  68  99 138 175 217 273 339 394
#     4  10  22  45  66  99 130 173 225 273 325 394
#
# _framework density 20.996639999999999
#
# number of rings (size 3 to 8) (size 9 to 14) (size 15 to 20)
#    0.000    0.800    2.000    4.800    2.800    8.000 
#    0.000    0.000    0.000    0.000    0.000    0.000 
#    0.000    0.000    0.000    0.000    0.000    0.000 
#
# Total GULP energy -496317.717742 kJ/mol
# GULP energy per Si atom -12407.942944 kJ/mol
# Density = 2.094885 g / cm^3
# Si number density = 20.996640 Si / 1000 Ang^3
#
#
#
# Elastic Constant Matrix: (Units=GPa)
#
#
# Indices 1 2 3 4 5 6 
#
# 1 104.3572 18.1119 49.2525 0.0000 0.0000 0.0000
# 2 18.1119 85.2592 21.2160 0.0000 0.0000 0.0000
# 3 49.2525 21.2160 153.6962 0.0000 0.0000 0.0000
# 4 0.0000 0.0000 0.0000 43.5854 0.0000 0.0000
# 5 0.0000 0.0000 0.0000 0.0000 27.5650 0.0000
# 6 0.0000 0.0000 0.0000 0.0000 0.0000 27.6617
#
#
#
# Elastic Compliance Matrix: (Units=1/GPa)
#
#
# Indices 1 2 3 4 5 6 
#
# 1 0.011492 -0.001579 -0.003465 0.000000 0.000000 0.000000
# 2 -0.001579 0.012363 -0.001201 0.000000 0.000000 0.000000
# 3 -0.003465 -0.001201 0.007782 0.000000 0.000000 0.000000
# 4 0.000000 0.000000 0.000000 0.022943 0.000000 0.000000
# 5 0.000000 0.000000 0.000000 0.000000 0.036278 0.000000
# 6 0.000000 0.000000 0.000000 0.000000 0.000000 0.036151
#
#
# Mechanical properties :
#
#
# Convention : Reuss Voigt Hill
#
# Bulk Modulus (GPa) = 52.22300 57.83040 55.02670
# Shear Modulus (GPa) = 34.27455 36.74457 35.50956
#
# Velocity S-wave (km/s) = 4.04466 4.18786 4.11688
# Velocity P-wave (km/s) = 6.83655 7.14050 6.99018
#
# Compressibility (1/GPa) = 0.01914865
#
# Stress axis : x y z
#
# Youngs Moduli (GPa) = 87.01951 80.88563 128.49667
#
# Poissons Ratio (x) = 0.12773 0.44519
# Poissons Ratio (y) = 0.13741 0.15427
# Poissons Ratio (z) = 0.30149 0.09711
#
# Static dielectric constant tensor:
#      x y z
#    x 3.818770 0.000000 0.000000 
#    y 0.000000 3.858910 0.000000 
#    z 0.000000 0.000000 4.045130 
# 
# 
# High freq. dielectric constant tensor:
#      x y z
#    x 1.826870 0.000000 0.000000 
#    y 0.000000 1.832830 0.000000 
#    z 0.000000 0.000000 1.844930 
# 
# From -- ./inp_files/1592.got.cif
#   From: 2010.03.12/outbox.cif.g09.slc.cpg/sg57_1_cif.got.tgz:1592.got - 2010.04.16 15:48:40.
