data_PCOD8234540
_publ_section_title
;
Structure prediction by ZEFSAII (Michael W. Deem and Ramdas Pophale) SiO2 
 PCOD8234540
Probable space group: P B C M
;
_chemical_formula_sum "Si O2"
_cell_formula_units_Z 40
_cell_length_a 5.492103
_cell_length_b 18.552598
_cell_length_c 17.612627
_cell_angle_alpha 90.000000
_cell_angle_beta 90.000000
_cell_angle_gamma 90.000000
_cell_volume 1794.599513
_symmetry_space_group_name_H-M "P B C M"
_symmetry_group_IT_number 57
_symmetry_cell_setting 'orthorhombic'
loop_
_space_group_symop_operation_xyz
x,y,z
-x,-y,1/2+z
x,1/2-y,-z
-x,1/2+y,1/2-z
-x,-y,-z
x,y,1/2-z
-x,1/2+y,z
x,1/2-y,1/2+z
loop_
_atom_site_type_symbol
_atom_site_label
_atom_site_fract_x
_atom_site_fract_y
_atom_site_fract_z
Si Si1 0.330504 0.554769 0.044787
Si Si2 0.972056 0.536766 0.163307
Si Si3 0.271322 0.176335 0.597623
Si Si4 0.283347 0.161095 0.080297
Si Si5 0.213980 0.602261 0.889553
O O1 0.462672 0.619265 0.089655
O O2 0.190773 0.508478 0.108971
O O3 0.500000 0.500000 0.000000
O O4 0.163476 0.589966 0.979412
O O5 0.050920 0.547295 0.250000
O O6 0.911499 0.614304 0.127120
O O7 0.767117 0.474579 0.155141
O O8 0.227135 0.166116 0.508552
O O9 0.295837 0.260580 0.618222
O O10 0.526393 0.140991 0.625316
O O11 0.026061 0.146334 0.639585
#
# Coordination Sequence:
#
# PCOD8234540 Si02
#       5
#     8   8   8   8   8
#     4  11  21  41  68  99 132 175 235 293 336 400
#     4  12  25  41  66  99 139 182 230 290 360 417
#     4  10  23  39  71  98 133 170 233 282 342 397
#     4  10  22  39  65 101 131 170 222 293 341 416
#     4  11  22  42  66  99 128 180 228 289 328 409
#
# _framework density 22.289096000000001
#
# number of rings (size 3 to 8) (size 9 to 14) (size 15 to 20)
#    0.000    1.200    4.000    3.000    2.800    2.400 
#    0.000    2.000    0.000    0.000    0.000    0.000 
#    0.000    0.000    0.000    0.000    0.000    0.000 
#
# Total GULP energy -495636.486773 kJ/mol
# GULP energy per Si atom -12390.912169 kJ/mol
# Density = 2.223837 g / cm^3
# Si number density = 22.289096 Si / 1000 Ang^3
#
#
#
# Elastic Constant Matrix: (Units=GPa)
#
#
# Indices 1 2 3 4 5 6 
#
# 1 136.5670 69.5041 38.6884 0.0000 0.0000 0.0000
# 2 69.5041 159.6628 22.8174 0.0000 0.0000 0.0000
# 3 38.6884 22.8174 81.3948 0.0000 0.0000 0.0000
# 4 0.0000 0.0000 0.0000 8.9903 0.0000 0.0000
# 5 0.0000 0.0000 0.0000 0.0000 13.3055 0.0000
# 6 0.0000 0.0000 0.0000 0.0000 0.0000 29.6428
#
#
#
# Elastic Compliance Matrix: (Units=1/GPa)
#
#
# Indices 1 2 3 4 5 6 
#
# 1 0.010446 -0.003998 -0.003845 0.000000 0.000000 0.000000
# 2 -0.003998 0.008055 -0.000358 0.000000 0.000000 0.000000
# 3 -0.003845 -0.000358 0.014213 0.000000 0.000000 0.000000
# 4 0.000000 0.000000 0.000000 0.111231 0.000000 0.000000
# 5 0.000000 0.000000 0.000000 0.000000 0.075157 0.000000
# 6 0.000000 0.000000 0.000000 0.000000 0.000000 0.033735
#
#
# Mechanical properties :
#
#
# Convention : Reuss Voigt Hill
#
# Bulk Modulus (GPa) = 61.29698 71.07160 66.18429
# Shear Modulus (GPa) = 18.20329 26.82870 22.51599
#
# Velocity S-wave (km/s) = 2.86088 3.47316 3.18178
# Velocity P-wave (km/s) = 6.20270 6.93104 6.57696
#
# Compressibility (1/GPa) = 0.01631402
#
# Stress axis : x y z
#
# Youngs Moduli (GPa) = 95.72764 124.15062 70.35596
#
# Poissons Ratio (x) = 0.49636 0.27049
# Poissons Ratio (y) = 0.38272 0.02516
# Poissons Ratio (z) = 0.36803 0.04440
#
# Static dielectric constant tensor:
#      x y z
#    x 4.059710 0.000000 0.000000 
#    y 0.000000 4.500240 0.000000 
#    z 0.000000 0.000000 3.623410 
# 
# 
# High freq. dielectric constant tensor:
#      x y z
#    x 1.881960 0.000000 0.000000 
#    y 0.000000 1.890930 0.000000 
#    z 0.000000 0.000000 1.824100 
# 
# From -- ./inp_files/20003.got.cif
#   From: 2010.03.12/outbox.cif.g09.slc.cpg/sg57_11_cif.got.tgz:20003.got - 2010.04.16 15:48:40.
