data_PCOD8234827
_publ_section_title
;
Structure prediction by ZEFSAII (Michael W. Deem and Ramdas Pophale) SiO2 
 PCOD8234827
Probable space group: P B C M
;
_chemical_formula_sum "Si O2"
_cell_formula_units_Z 24
_cell_length_a 13.978788
_cell_length_b 8.027374
_cell_length_c 8.572234
_cell_angle_alpha 90.000000
_cell_angle_beta 90.000000
_cell_angle_gamma 90.000000
_cell_volume 961.915745
_symmetry_space_group_name_H-M "P B C M"
_symmetry_group_IT_number 57
_symmetry_cell_setting 'orthorhombic'
loop_
_space_group_symop_operation_xyz
x,y,z
-x,-y,1/2+z
x,1/2-y,-z
-x,1/2+y,1/2-z
-x,-y,-z
x,y,1/2-z
-x,1/2+y,z
x,1/2-y,1/2+z
loop_
_atom_site_type_symbol
_atom_site_label
_atom_site_fract_x
_atom_site_fract_y
_atom_site_fract_z
Si Si1 0.125253 0.896603 0.750000
Si Si2 0.591108 0.420515 0.077146
Si Si3 0.799655 0.042339 0.576748
Si Si4 0.088677 0.288001 0.750000
O O1 0.177392 0.855323 0.582622
O O2 0.115995 0.096257 0.750000
O O3 0.025052 0.801325 0.750000
O O4 0.556318 0.385332 0.250000
O O5 0.689784 0.525994 0.068761
O O6 0.621201 0.250000 0.000000
O O7 0.500000 0.500000 0.000000
O O8 0.811071 0.143499 0.750000
O O9 0.868300 0.881050 0.595390
#
# Coordination Sequence:
#
# PCOD8234827 Si02
#       4
#     4   8   8   4
#     4  12  22  42  69  92 137 178 219 284 338 400
#     4  11  25  46  71 104 138 177 228 283 344 412
#     4   9  24  42  63  97 131 175 222 269 331 405
#     4  10  24  42  63 100 131 176 229 276 342 402
#
# _framework density 24.950209999999998
#
# number of rings (size 3 to 8) (size 9 to 14) (size 15 to 20)
#    1.000    0.667    0.000    3.000    4.667    5.333 
#    0.000    0.000    0.000    0.000    0.000    0.000 
#    0.000    0.000    0.000    0.000    0.000    0.000 
#
# Total GULP energy -297369.757768 kJ/mol
# GULP energy per Si atom -12390.406574 kJ/mol
# Density = 2.489342 g / cm^3
# Si number density = 24.950210 Si / 1000 Ang^3
#
#
#
# Elastic Constant Matrix: (Units=GPa)
#
#
# Indices 1 2 3 4 5 6 
#
# 1 214.4764 23.7679 91.2780 0.0000 0.0000 0.0000
# 2 23.7679 69.8377 75.4980 0.0000 0.0000 0.0000
# 3 91.2780 75.4980 210.5336 0.0000 0.0000 0.0000
# 4 0.0000 0.0000 0.0000 50.1848 0.0000 0.0000
# 5 0.0000 0.0000 0.0000 0.0000 44.9370 0.0000
# 6 0.0000 0.0000 0.0000 0.0000 0.0000 11.4191
#
#
#
# Elastic Compliance Matrix: (Units=1/GPa)
#
#
# Indices 1 2 3 4 5 6 
#
# 1 0.005780 0.001212 -0.002940 0.000000 0.000000 0.000000
# 2 0.001212 0.023638 -0.009002 0.000000 0.000000 0.000000
# 3 -0.002940 -0.009002 0.009253 0.000000 0.000000 0.000000
# 4 0.000000 0.000000 0.000000 0.019926 0.000000 0.000000
# 5 0.000000 0.000000 0.000000 0.000000 0.022253 0.000000
# 6 0.000000 0.000000 0.000000 0.000000 0.000000 0.087573
#
#
# Mechanical properties :
#
#
# Convention : Reuss Voigt Hill
#
# Bulk Modulus (GPa) = 58.10859 97.32615 77.71737
# Shear Modulus (GPa) = 25.55966 41.59510 33.57738
#
# Velocity S-wave (km/s) = 3.20414 4.08747 3.67246
# Velocity P-wave (km/s) = 6.08515 7.83386 7.01422
#
# Compressibility (1/GPa) = 0.01720916
#
# Stress axis : x y z
#
# Youngs Moduli (GPa) = 173.02295 42.30444 108.07603
#
# Poissons Ratio (x) = -0.05126 0.31777
# Poissons Ratio (y) = -0.20963 0.97290
# Poissons Ratio (z) = 0.50873 0.38083
#
# Static dielectric constant tensor:
#      x y z
#    x 4.449290 0.000000 0.000000 
#    y 0.000000 4.433850 0.000000 
#    z 0.000000 0.000000 5.115780 
# 
# 
# High freq. dielectric constant tensor:
#      x y z
#    x 1.998020 0.000000 0.000000 
#    y 0.000000 1.996210 0.000000 
#    z 0.000000 0.000000 2.033360 
# 
# From -- ./inp_files/3959.got.cif
#   From: 2010.03.12/outbox.cif.g09.slc.cpg/sg57_2_cif.got.tgz:3959.got - 2010.04.16 15:48:40.
