data_PCOD8234177
_publ_section_title
;
Structure prediction by ZEFSAII (Michael W. Deem and Ramdas Pophale) SiO2 
 PCOD8234177
Probable space group: P B C M
;
_chemical_formula_sum "Si O2"
_cell_formula_units_Z 48
_cell_length_a 19.266357
_cell_length_b 8.810563
_cell_length_c 14.051309
_cell_angle_alpha 90.000000
_cell_angle_beta 90.000000
_cell_angle_gamma 90.000000
_cell_volume 2385.173902
_symmetry_space_group_name_H-M "P B C M"
_symmetry_group_IT_number 57
_symmetry_cell_setting 'orthorhombic'
loop_
_space_group_symop_operation_xyz
x,y,z
-x,-y,1/2+z
x,1/2-y,-z
-x,1/2+y,1/2-z
-x,-y,-z
x,y,1/2-z
-x,1/2+y,z
x,1/2-y,1/2+z
loop_
_atom_site_type_symbol
_atom_site_label
_atom_site_fract_x
_atom_site_fract_y
_atom_site_fract_z
Si Si1 0.562938 0.091906 0.045718
Si Si2 0.676785 0.588319 0.449547
Si Si3 0.085608 0.571053 0.360648
Si Si4 0.166800 0.073606 0.016146
Si Si5 0.054726 0.585541 0.639045
Si Si6 0.539115 0.294845 0.750000
Si Si7 0.399518 0.448868 0.750000
O O1 0.564930 0.109671 0.159239
O O2 0.549705 0.250000 0.000000
O O3 0.500000 0.000000 0.000000
O O4 0.637051 0.027504 0.017103
O O5 0.667865 0.750000 0.500000
O O6 0.756498 0.536635 0.446233
O O7 0.647372 0.578109 0.342726
O O8 0.103184 0.557304 0.250000
O O9 0.153465 0.516699 0.417623
O O10 0.066257 0.741230 0.390868
O O11 0.022003 0.464361 0.393350
O O12 0.112487 0.021095 0.094515
O O13 0.156579 0.250000 0.000000
O O14 0.061692 0.559642 0.750000
O O15 0.455507 0.311944 0.750000
O O16 0.564865 0.118346 0.750000
#
# Coordination Sequence:
#
# PCOD8234177 Si02
#       7
#     8   8   8   8   8   4   4
#     4  12  23  42  67  98 134 165 220 272 324 396
#     4  11  27  46  65  96 135 177 218 277 329 404
#     4  10  21  40  64  95 128 166 222 279 324 387
#     4  11  24  42  61  89 128 176 213 262 336 390
#     4  10  21  38  66  96 125 168 219 278 328 384
#     4  12  24  42  74 102 128 179 215 274 338 382
#     4  12  26  46  72 102 132 171 225 270 344 402
#
# _framework density 20.124319
#
# number of rings (size 3 to 8) (size 9 to 14) (size 15 to 20)
#    0.000    1.000    3.333    2.500    3.500    3.333 
#    6.000    0.000    0.000    0.000    0.000    0.000 
#    0.000    0.000    0.000    0.000    0.000    0.000 
#
# Total GULP energy -595139.499913 kJ/mol
# GULP energy per Si atom -12398.739582 kJ/mol
# Density = 2.007852 g / cm^3
# Si number density = 20.124319 Si / 1000 Ang^3
#
#
#
# Elastic Constant Matrix: (Units=GPa)
#
#
# Indices 1 2 3 4 5 6 
#
# 1 129.8412 59.4784 68.6255 0.0000 0.0000 0.0000
# 2 59.4784 108.0423 45.3343 0.0000 0.0000 0.0000
# 3 68.6255 45.3343 150.0514 0.0000 0.0000 0.0000
# 4 0.0000 0.0000 0.0000 33.1015 0.0000 0.0000
# 5 0.0000 0.0000 0.0000 0.0000 48.0232 0.0000
# 6 0.0000 0.0000 0.0000 0.0000 0.0000 28.6971
#
#
#
# Elastic Compliance Matrix: (Units=1/GPa)
#
#
# Indices 1 2 3 4 5 6 
#
# 1 0.012115 -0.004975 -0.004038 0.000000 0.000000 0.000000
# 2 -0.004975 0.012642 -0.001544 0.000000 0.000000 0.000000
# 3 -0.004038 -0.001544 0.008977 0.000000 0.000000 0.000000
# 4 0.000000 0.000000 0.000000 0.030210 0.000000 0.000000
# 5 0.000000 0.000000 0.000000 0.000000 0.020823 0.000000
# 6 0.000000 0.000000 0.000000 0.000000 0.000000 0.034847
#
#
# Mechanical properties :
#
#
# Convention : Reuss Voigt Hill
#
# Bulk Modulus (GPa) = 79.23385 81.64570 80.43977
# Shear Modulus (GPa) = 34.49811 36.26415 35.38113
#
# Velocity S-wave (km/s) = 4.14484 4.24961 4.19755
# Velocity P-wave (km/s) = 7.89708 8.04597 7.97188
#
# Compressibility (1/GPa) = 0.01262087
#
# Stress axis : x y z
#
# Youngs Moduli (GPa) = 82.54421 79.09848 111.38988
#
# Poissons Ratio (x) = 0.39353 0.44974
# Poissons Ratio (y) = 0.41067 0.17201
# Poissons Ratio (z) = 0.33327 0.12215
#
# Static dielectric constant tensor:
#      x y z
#    x 3.697270 0.000000 0.000000 
#    y 0.000000 3.858150 0.000000 
#    z 0.000000 0.000000 3.694630 
# 
# 
# High freq. dielectric constant tensor:
#      x y z
#    x 1.781130 0.000000 0.000000 
#    y 0.000000 1.799720 0.000000 
#    z 0.000000 0.000000 1.807400 
# 
# From -- ./inp_files/19023.got.cif
#   From: 2010.03.12/outbox.cif.g09.slc.cpg/sg57_10_cif.got.tgz:19023.got - 2010.04.16 15:48:40.
