data_PCOD8234952
_publ_section_title
;
Structure prediction by ZEFSAII (Michael W. Deem and Ramdas Pophale) SiO2 
 PCOD8234952
Probable space group: P B C M
;
_chemical_formula_sum "Si O2"
_cell_formula_units_Z 48
_cell_length_a 9.934207
_cell_length_b 29.284893
_cell_length_c 8.800495
_cell_angle_alpha 90.000000
_cell_angle_beta 90.000000
_cell_angle_gamma 90.000000
_cell_volume 2560.259270
_symmetry_space_group_name_H-M "P B C M"
_symmetry_group_IT_number 57
_symmetry_cell_setting 'orthorhombic'
loop_
_space_group_symop_operation_xyz
x,y,z
-x,-y,1/2+z
x,1/2-y,-z
-x,1/2+y,1/2-z
-x,-y,-z
x,y,1/2-z
-x,1/2+y,z
x,1/2-y,1/2+z
loop_
_atom_site_type_symbol
_atom_site_label
_atom_site_fract_x
_atom_site_fract_y
_atom_site_fract_z
Si Si1 0.981056 0.626991 0.072385
Si Si2 0.473706 0.798072 0.570269
Si Si3 0.282822 0.879484 0.931137
Si Si4 0.880211 0.527491 0.071828
Si Si5 0.632973 0.479671 0.569905
Si Si6 0.220560 0.202467 0.430159
O O1 0.996457 0.635285 0.250000
O O2 0.905897 0.580167 0.038318
O O3 0.884589 0.665810 0.002080
O O4 0.131861 0.627792 0.001985
O O5 0.425915 0.750000 0.500000
O O6 0.461900 0.793745 0.750000
O O7 0.378164 0.838677 0.508685
O O8 0.626654 0.809664 0.519760
O O9 0.279471 0.880194 0.750000
O O10 0.339664 0.928126 0.989672
O O11 0.867898 0.517035 0.250000
O O12 0.747051 0.513823 0.984756
O O13 0.000000 0.500000 0.000000
O O14 0.500000 0.500000 0.500000
O O15 0.623613 0.480043 0.750000
O O16 0.174436 0.250000 0.500000
O O17 0.212366 0.204996 0.250000
#
# Coordination Sequence:
#
# PCOD8234952 Si02
#       6
#     8   8   8   8   8   8
#     4   9  18  33  55  80 105 142 183 219 267 333
#     4   9  18  33  54  76 102 138 178 221 269 323
#     4   9  18  34  55  78 106 142 183 221 267 332
#     4  11  21  37  60  84 115 152 189 230 278 333
#     4  11  23  39  58  84 115 150 191 235 281 333
#     4   9  18  33  54  77 103 136 178 221 268 324
#
# _framework density 18.748100000000001
#
# number of rings (size 3 to 8) (size 9 to 14) (size 15 to 20)
#    0.000    2.333    1.667    1.000    2.333    0.667 
#    0.000    3.333    0.000    0.000    0.000    0.000 
#    0.000    0.000    0.000    0.000    0.000    0.000 
#
# Total GULP energy -595114.689028 kJ/mol
# GULP energy per Si atom -12398.222688 kJ/mol
# Density = 1.870543 g / cm^3
# Si number density = 18.748100 Si / 1000 Ang^3
#
#
#
# Elastic Constant Matrix: (Units=GPa)
#
#
# Indices 1 2 3 4 5 6 
#
# 1 164.3607 93.8481 29.7603 0.0000 0.0000 0.0000
# 2 93.8481 142.2664 32.9247 0.0000 0.0000 0.0000
# 3 29.7603 32.9247 33.0557 0.0000 0.0000 0.0000
# 4 0.0000 0.0000 0.0000 29.6557 0.0000 0.0000
# 5 0.0000 0.0000 0.0000 0.0000 26.7926 0.0000
# 6 0.0000 0.0000 0.0000 0.0000 0.0000 30.2150
#
#
#
# Elastic Compliance Matrix: (Units=1/GPa)
#
#
# Indices 1 2 3 4 5 6 
#
# 1 0.010009 -0.005870 -0.003164 0.000000 0.000000 0.000000
# 2 -0.005870 0.012578 -0.007243 0.000000 0.000000 0.000000
# 3 -0.003164 -0.007243 0.040315 0.000000 0.000000 0.000000
# 4 0.000000 0.000000 0.000000 0.033720 0.000000 0.000000
# 5 0.000000 0.000000 0.000000 0.000000 0.037324 0.000000
# 6 0.000000 0.000000 0.000000 0.000000 0.000000 0.033096
#
#
# Mechanical properties :
#
#
# Convention : Reuss Voigt Hill
#
# Bulk Modulus (GPa) = 32.95221 72.52767 52.73994
# Shear Modulus (GPa) = 23.84227 29.54264 26.69246
#
# Velocity S-wave (km/s) = 3.56998 3.97390 3.77734
# Velocity P-wave (km/s) = 5.88281 7.73467 6.87141
#
# Compressibility (1/GPa) = 0.03034697
#
# Stress axis : x y z
#
# Youngs Moduli (GPa) = 99.91045 79.50599 24.80486
#
# Poissons Ratio (x) = 0.46672 0.07849
# Poissons Ratio (y) = 0.58650 0.17966
# Poissons Ratio (z) = 0.31613 0.57584
#
# Static dielectric constant tensor:
#      x y z
#    x 3.766110 0.000000 0.000000 
#    y 0.000000 3.607930 0.000000 
#    z 0.000000 0.000000 3.177060 
# 
# 
# High freq. dielectric constant tensor:
#      x y z
#    x 1.742020 0.000000 0.000000 
#    y 0.000000 1.738730 0.000000 
#    z 0.000000 0.000000 1.694540 
# 
# From -- ./inp_files/1996.got.cif
#   From: 2010.03.12/outbox.cif.g09.slc.cpg/sg57_1_cif.got.tgz:1996.got - 2010.04.16 15:48:40.
