data_PCOD8234750
_publ_section_title
;
Structure prediction by ZEFSAII (Michael W. Deem and Ramdas Pophale) SiO2 
 PCOD8234750
Probable space group: P B C M
;
_chemical_formula_sum "Si O2"
_cell_formula_units_Z 52
_cell_length_a 7.957202
_cell_length_b 19.475100
_cell_length_c 15.747811
_cell_angle_alpha 90.000000
_cell_angle_beta 90.000000
_cell_angle_gamma 90.000000
_cell_volume 2440.395825
_symmetry_space_group_name_H-M "P B C M"
_symmetry_group_IT_number 57
_symmetry_cell_setting 'orthorhombic'
loop_
_space_group_symop_operation_xyz
x,y,z
-x,-y,1/2+z
x,1/2-y,-z
-x,1/2+y,1/2-z
-x,-y,-z
x,y,1/2-z
-x,1/2+y,z
x,1/2-y,1/2+z
loop_
_atom_site_type_symbol
_atom_site_label
_atom_site_fract_x
_atom_site_fract_y
_atom_site_fract_z
Si Si1 0.258436 0.686378 0.750000
Si Si2 0.234045 0.561045 0.440318
Si Si3 0.449823 0.218861 0.250000
Si Si4 0.096182 0.461849 0.655375
Si Si5 0.399174 0.369373 0.250000
Si Si6 0.095396 0.614891 0.602958
Si Si7 0.582038 0.883919 0.599466
Si Si8 0.267368 0.403178 0.068716
O O1 0.350491 0.760812 0.750000
O O2 0.398480 0.625609 0.750000
O O3 0.149406 0.676853 0.664860
O O4 0.228314 0.605627 0.526783
O O5 0.396582 0.584361 0.386887
O O6 0.248421 0.481198 0.463978
O O7 0.058661 0.574394 0.392665
O O8 0.341301 0.289220 0.250000
O O9 0.402027 0.179573 0.163721
O O10 0.082324 0.434414 0.750000
O O11 0.077950 0.543856 0.654271
O O12 0.276255 0.439906 0.619392
O O13 0.335647 0.406025 0.164881
O O14 0.912214 0.634602 0.566689
O O15 0.611527 0.863977 0.499473
#
# Coordination Sequence:
#
# PCOD8234750 Si02
#       8
#     4   8   4   8   4   8   8   8
#     4  10  23  42  65  86 133 176 228 275 318 372
#     4  11  24  37  65 109 137 161 207 268 344 425
#     4  10  28  46  62  90 126 182 240 278 304 386
#     4  11  22  37  63 103 140 166 206 267 338 418
#     4  10  25  42  61  88 125 176 228 271 310 378
#     4  11  20  41  64 102 136 167 209 271 342 409
#     4  12  23  42  69  93 135 177 216 273 338 382
#     4  11  22  40  69 102 134 168 215 268 340 413
#
# _framework density 21.308017
#
# number of rings (size 3 to 8) (size 9 to 14) (size 15 to 20)
#    0.462    0.615    4.615    2.769    6.462    0.615 
#    0.000    3.077    3.385    0.000    0.000    0.000 
#    0.000    0.000    0.000    0.000    0.000    0.000 
#
# Total GULP energy -644583.783761 kJ/mol
# GULP energy per Si atom -12395.841995 kJ/mol
# Density = 2.125952 g / cm^3
# Si number density = 21.308017 Si / 1000 Ang^3
#
#
#
# Elastic Constant Matrix: (Units=GPa)
#
#
# Indices 1 2 3 4 5 6 
#
# 1 113.9720 8.5545 25.1321 0.0000 0.0000 0.0000
# 2 8.5545 23.3394 11.5300 0.0000 0.0000 0.0000
# 3 25.1321 11.5300 143.8940 0.0000 0.0000 0.0000
# 4 0.0000 0.0000 0.0000 21.5944 0.0000 0.0000
# 5 0.0000 0.0000 0.0000 0.0000 31.5894 0.0000
# 6 0.0000 0.0000 0.0000 0.0000 0.0000 15.7888
#
#
#
# Elastic Compliance Matrix: (Units=1/GPa)
#
#
# Indices 1 2 3 4 5 6 
#
# 1 0.009287 -0.002710 -0.001405 0.000000 0.000000 0.000000
# 2 -0.002710 0.045403 -0.003165 0.000000 0.000000 0.000000
# 3 -0.001405 -0.003165 0.007449 0.000000 0.000000 0.000000
# 4 0.000000 0.000000 0.000000 0.046308 0.000000 0.000000
# 5 0.000000 0.000000 0.000000 0.000000 0.031656 0.000000
# 6 0.000000 0.000000 0.000000 0.000000 0.000000 0.063336
#
#
# Mechanical properties :
#
#
# Convention : Reuss Voigt Hill
#
# Bulk Modulus (GPa) = 21.01761 41.29319 31.15540
# Shear Modulus (GPa) = 21.38051 29.52712 25.45381
#
# Velocity S-wave (km/s) = 3.17109 3.72658 3.46000
# Velocity P-wave (km/s) = 4.82627 6.15936 5.53311
#
# Compressibility (1/GPa) = 0.04757915
#
# Stress axis : x y z
#
# Youngs Moduli (GPa) = 107.67392 22.02517 134.25474
#
# Poissons Ratio (x) = 0.05969 0.18862
# Poissons Ratio (y) = 0.29180 0.42488
# Poissons Ratio (z) = 0.15128 0.06970
#
# Static dielectric constant tensor:
#      x y z
#    x 3.976240 0.000000 0.000000 
#    y 0.000000 3.285490 0.000000 
#    z 0.000000 0.000000 3.986860 
# 
# 
# High freq. dielectric constant tensor:
#      x y z
#    x 1.846230 0.000000 0.000000 
#    y 0.000000 1.779920 0.000000 
#    z 0.000000 0.000000 1.854820 
# 
# From -- ./inp_files/16678.got.cif
#   From: 2010.03.12/outbox.cif.g09.slc.cpg/sg57_9_cif.got.tgz:16678.got - 2010.04.16 15:48:40.
