data_PCOD8234243
_publ_section_title
;
Structure prediction by ZEFSAII (Michael W. Deem and Ramdas Pophale) SiO2 
 PCOD8234243
Probable space group: P B C M
;
_chemical_formula_sum "Si O2"
_cell_formula_units_Z 56
_cell_length_a 21.813376
_cell_length_b 14.205462
_cell_length_c 8.379267
_cell_angle_alpha 90.000000
_cell_angle_beta 90.000000
_cell_angle_gamma 90.000000
_cell_volume 2596.475789
_symmetry_space_group_name_H-M "P B C M"
_symmetry_group_IT_number 57
_symmetry_cell_setting 'orthorhombic'
loop_
_space_group_symop_operation_xyz
x,y,z
-x,-y,1/2+z
x,1/2-y,-z
-x,1/2+y,1/2-z
-x,-y,-z
x,y,1/2-z
-x,1/2+y,z
x,1/2-y,1/2+z
loop_
_atom_site_type_symbol
_atom_site_label
_atom_site_fract_x
_atom_site_fract_y
_atom_site_fract_z
Si Si1 0.336102 0.145396 0.060128
Si Si2 0.568327 0.991623 0.062345
Si Si3 0.913089 0.536737 0.936271
Si Si4 0.787633 0.955596 0.566594
Si Si5 0.641243 0.340017 0.434609
Si Si6 0.228088 0.846300 0.933329
Si Si7 0.968620 0.145308 0.562306
O O1 0.343467 0.140720 0.250000
O O2 0.276506 0.086138 0.000212
O O3 0.325644 0.250000 0.000000
O O4 0.398331 0.107135 0.976979
O O5 0.570783 0.012443 0.250000
O O6 0.500000 0.000000 0.000000
O O7 0.603882 0.066232 0.956187
O O8 0.920447 0.525434 0.750000
O O9 0.966085 0.605794 0.004003
O O10 0.847780 0.585395 0.978448
O O11 0.917360 0.430742 0.008814
O O12 0.792995 0.928724 0.750000
O O13 0.791749 0.067198 0.542447
O O14 0.601897 0.250000 0.500000
O O15 0.661001 0.331970 0.250000
O O16 0.698897 0.339312 0.553115
O O17 0.208714 0.863142 0.750000
O O18 0.197268 0.750000 0.000000
O O19 0.954563 0.250000 0.500000
O O20 0.969342 0.151461 0.750000
#
# Coordination Sequence:
#
# PCOD8234243 Si02
#       7
#     8   8   8   8   8   8   8
#     4  11  25  45  68  94 128 168 213 262 315 375
#     4  12  25  43  67  94 125 163 208 260 316 375
#     4  10  22  39  61  91 125 163 211 261 311 372
#     4  11  23  40  63  91 128 167 209 260 313 374
#     4  11  21  37  60  89 121 155 197 244 301 365
#     4  11  21  35  58  87 120 158 199 246 304 368
#     4  10  21  39  63  90 124 165 209 260 315 371
#
# _framework density 21.567693999999999
#
# number of rings (size 3 to 8) (size 9 to 14) (size 15 to 20)
#    0.000    1.143    1.429    6.429    0.000    5.143 
#    0.000    8.571    0.000    0.000    0.000    0.000 
#    0.000    0.000    0.000    0.000    0.000    0.000 
#
# Total GULP energy -694274.769486 kJ/mol
# GULP energy per Si atom -12397.763741 kJ/mol
# Density = 2.151860 g / cm^3
# Si number density = 21.567694 Si / 1000 Ang^3
#
#
#
# Elastic Constant Matrix: (Units=GPa)
#
#
# Indices 1 2 3 4 5 6 
#
# 1 108.4734 22.8336 19.8800 0.0000 0.0000 0.0000
# 2 22.8336 94.7716 19.2859 0.0000 0.0000 0.0000
# 3 19.8800 19.2859 91.7235 0.0000 0.0000 0.0000
# 4 0.0000 0.0000 0.0000 34.7416 0.0000 0.0000
# 5 0.0000 0.0000 0.0000 0.0000 32.8902 0.0000
# 6 0.0000 0.0000 0.0000 0.0000 0.0000 12.6408
#
#
#
# Elastic Compliance Matrix: (Units=1/GPa)
#
#
# Indices 1 2 3 4 5 6 
#
# 1 0.009967 -0.002050 -0.001729 0.000000 0.000000 0.000000
# 2 -0.002050 0.011445 -0.001962 0.000000 0.000000 0.000000
# 3 -0.001729 -0.001962 0.011690 0.000000 0.000000 0.000000
# 4 0.000000 0.000000 0.000000 0.028784 0.000000 0.000000
# 5 0.000000 0.000000 0.000000 0.000000 0.030404 0.000000
# 6 0.000000 0.000000 0.000000 0.000000 0.000000 0.079109
#
#
# Mechanical properties :
#
#
# Convention : Reuss Voigt Hill
#
# Bulk Modulus (GPa) = 46.25426 46.55194 46.40310
# Shear Modulus (GPa) = 26.30373 31.58580 28.94477
#
# Velocity S-wave (km/s) = 3.49605 3.83103 3.66736
# Velocity P-wave (km/s) = 6.14729 6.41872 6.28447
#
# Compressibility (1/GPa) = 0.02161963
#
# Stress axis : x y z
#
# Youngs Moduli (GPa) = 100.32900 87.37611 85.54522
#
# Poissons Ratio (x) = 0.17908 0.14794
# Poissons Ratio (y) = 0.20562 0.16786
# Poissons Ratio (z) = 0.17350 0.17145
#
# Static dielectric constant tensor:
#      x y z
#    x 3.670190 0.000000 0.000000 
#    y 0.000000 3.873860 0.000000 
#    z 0.000000 0.000000 3.867190 
# 
# 
# High freq. dielectric constant tensor:
#      x y z
#    x 1.844400 0.000000 0.000000 
#    y 0.000000 1.847580 0.000000 
#    z 0.000000 0.000000 1.853860 
# 
# From -- ./inp_files/8121.got.cif
#   From: 2010.03.12/outbox.cif.g09.slc.cpg/sg57_5_cif.got.tgz:8121.got - 2010.04.16 15:48:40.
