data_PCOD8234571
_publ_section_title
;
Structure prediction by ZEFSAII (Michael W. Deem and Ramdas Pophale) SiO2 
 PCOD8234571
Probable space group: P B C M
;
_chemical_formula_sum "Si O2"
_cell_formula_units_Z 48
_cell_length_a 9.768973
_cell_length_b 28.896466
_cell_length_c 8.811047
_cell_angle_alpha 90.000000
_cell_angle_beta 90.000000
_cell_angle_gamma 90.000000
_cell_volume 2487.259850
_symmetry_space_group_name_H-M "P B C M"
_symmetry_group_IT_number 57
_symmetry_cell_setting 'orthorhombic'
loop_
_space_group_symop_operation_xyz
x,y,z
-x,-y,1/2+z
x,1/2-y,-z
-x,1/2+y,1/2-z
-x,-y,-z
x,y,1/2-z
-x,1/2+y,z
x,1/2-y,1/2+z
loop_
_atom_site_type_symbol
_atom_site_label
_atom_site_fract_x
_atom_site_fract_y
_atom_site_fract_z
Si Si1 0.765560 0.798104 0.426884
Si Si2 0.481644 0.700400 0.070049
Si Si3 0.893492 0.966719 0.922469
Si Si4 0.276430 0.880369 0.570826
Si Si5 0.981465 0.623235 0.574035
Si Si6 0.375572 0.974471 0.422816
O O1 0.810805 0.750000 0.500000
O O2 0.733291 0.791623 0.250000
O O3 0.628087 0.816874 0.507097
O O4 0.892856 0.831395 0.455261
O O5 0.490638 0.705227 0.250000
O O6 0.368708 0.663049 0.019996
O O7 0.441291 0.750000 0.000000
O O8 0.939339 0.957974 0.750000
O O9 0.746299 0.989258 0.932604
O O10 0.890973 0.918602 0.010862
O O11 0.000000 0.000000 0.000000
O O12 0.271375 0.885210 0.750000
O O13 0.340349 0.927134 0.506505
O O14 0.124668 0.871832 0.510611
O O15 0.012428 0.614469 0.750000
O O16 0.411896 0.962264 0.250000
O O17 0.500000 0.000000 0.500000
#
# Coordination Sequence:
#
# PCOD8234571 Si02
#       6
#     8   8   8   8   8   8
#     4  10  22  40  63  91 121 156 199 246 299 358
#     4  10  22  40  63  90 120 156 199 245 300 359
#     4  11  23  40  63  89 121 161 202 245 298 355
#     4  11  24  41  62  90 122 159 203 249 301 358
#     4  11  24  40  61  91 122 159 203 247 301 359
#     4  11  25  42  62  90 123 160 203 249 300 357
#
# _framework density 19.298347
#
# number of rings (size 3 to 8) (size 9 to 14) (size 15 to 20)
#    0.000    1.333    1.667    4.000    2.333    8.000 
#    0.000    3.333    0.000    0.000    0.000    0.000 
#    0.000    0.000    0.000    0.000    0.000    0.000 
#
# Total GULP energy -595388.171370 kJ/mol
# GULP energy per Si atom -12403.920237 kJ/mol
# Density = 1.925442 g / cm^3
# Si number density = 19.298347 Si / 1000 Ang^3
#
#
#
# Elastic Constant Matrix: (Units=GPa)
#
#
# Indices 1 2 3 4 5 6 
#
# 1 115.1104 72.6122 64.2056 0.0000 0.0000 0.0000
# 2 72.6122 126.3447 68.8478 0.0000 0.0000 0.0000
# 3 64.2056 68.8478 122.5507 0.0000 0.0000 0.0000
# 4 0.0000 0.0000 0.0000 31.3726 0.0000 0.0000
# 5 0.0000 0.0000 0.0000 0.0000 33.8825 0.0000
# 6 0.0000 0.0000 0.0000 0.0000 0.0000 54.2749
#
#
#
# Elastic Compliance Matrix: (Units=1/GPa)
#
#
# Indices 1 2 3 4 5 6 
#
# 1 0.015097 -0.006293 -0.004374 0.000000 0.000000 0.000000
# 2 -0.006293 0.014030 -0.004585 0.000000 0.000000 0.000000
# 3 -0.004374 -0.004585 0.013027 0.000000 0.000000 0.000000
# 4 0.000000 0.000000 0.000000 0.031875 0.000000 0.000000
# 5 0.000000 0.000000 0.000000 0.000000 0.029514 0.000000
# 6 0.000000 0.000000 0.000000 0.000000 0.000000 0.018425
#
#
# Mechanical properties :
#
#
# Convention : Reuss Voigt Hill
#
# Bulk Modulus (GPa) = 85.83583 86.14856 85.99220
# Shear Modulus (GPa) = 31.97871 34.46200 33.22036
#
# Velocity S-wave (km/s) = 4.07513 4.23040 4.15349
# Velocity P-wave (km/s) = 8.16806 8.28245 8.22545
#
# Compressibility (1/GPa) = 0.01165015
#
# Stress axis : x y z
#
# Youngs Moduli (GPa) = 66.24050 71.27676 76.76171
#
# Poissons Ratio (x) = 0.44852 0.33576
# Poissons Ratio (y) = 0.41683 0.35195
# Poissons Ratio (z) = 0.28974 0.32681
#
# Static dielectric constant tensor:
#      x y z
#    x 3.392060 0.000000 0.000000 
#    y 0.000000 3.726900 0.000000 
#    z 0.000000 0.000000 3.767460 
# 
# 
# High freq. dielectric constant tensor:
#      x y z
#    x 1.759200 0.000000 0.000000 
#    y 0.000000 1.761920 0.000000 
#    z 0.000000 0.000000 1.772650 
# 
# From -- ./inp_files/2127.got.cif
#   From: 2010.03.12/outbox.cif.g09.slc.cpg/sg57_2_cif.got.tgz:2127.got - 2010.04.16 15:48:40.
