data_PCOD8234493
_publ_section_title
;
Structure prediction by ZEFSAII (Michael W. Deem and Ramdas Pophale) SiO2 
 PCOD8234493
Probable space group: P B C M
;
_chemical_formula_sum "Si O2"
_cell_formula_units_Z 36
_cell_length_a 5.030768
_cell_length_b 16.352873
_cell_length_c 21.447131
_cell_angle_alpha 90.000000
_cell_angle_beta 90.000000
_cell_angle_gamma 90.000000
_cell_volume 1764.402068
_symmetry_space_group_name_H-M "P B C M"
_symmetry_group_IT_number 57
_symmetry_cell_setting 'orthorhombic'
loop_
_space_group_symop_operation_xyz
x,y,z
-x,-y,1/2+z
x,1/2-y,-z
-x,1/2+y,1/2-z
-x,-y,-z
x,y,1/2-z
-x,1/2+y,z
x,1/2-y,1/2+z
loop_
_atom_site_type_symbol
_atom_site_label
_atom_site_fract_x
_atom_site_fract_y
_atom_site_fract_z
Si Si1 0.994292 0.736295 0.322201
Si Si2 0.934986 0.378810 0.409262
Si Si3 0.261855 0.750000 0.500000
Si Si4 0.509298 0.163022 0.383271
Si Si5 0.559115 0.984035 0.071705
O O1 0.921375 0.737365 0.250000
O O2 0.785784 0.681387 0.359933
O O3 0.990031 0.829548 0.346788
O O4 0.282814 0.697021 0.332836
O O5 0.928408 0.316792 0.467841
O O6 0.646183 0.418910 0.399884
O O7 0.145106 0.449372 0.422674
O O8 0.450649 0.793135 0.550363
O O9 0.542644 0.066261 0.388566
O O10 0.500000 0.000000 0.000000
#
# Coordination Sequence:
#
# PCOD8234493 Si02
#       5
#     8   8   4   8   8
#     4  11  25  46  66  89 124 175 224 260 296 370
#     4  11  24  39  65  93 131 165 211 253 321 373
#     4  10  22  38  64 100 124 170 204 264 318 382
#     4  11  24  40  68  93 131 162 214 258 323 374
#     4  12  24  39  61 100 136 161 194 262 332 389
#
# _framework density 20.403511000000002
#
# number of rings (size 3 to 8) (size 9 to 14) (size 15 to 20)
#    0.000    0.889    2.222    5.333    6.222    1.778 
#    0.000    6.667    0.000    0.000    0.000    0.000 
#    0.000    0.000    0.000    0.000    0.000    0.000 
#
# Total GULP energy -446666.489001 kJ/mol
# GULP energy per Si atom -12407.402472 kJ/mol
# Density = 2.035707 g / cm^3
# Si number density = 20.403511 Si / 1000 Ang^3
#
#
#
# Elastic Constant Matrix: (Units=GPa)
#
#
# Indices 1 2 3 4 5 6 
#
# 1 75.1427 19.4260 7.3730 0.0000 0.0000 0.0000
# 2 19.4260 121.6633 37.8901 0.0000 0.0000 0.0000
# 3 7.3730 37.8901 107.1189 0.0000 0.0000 0.0000
# 4 0.0000 0.0000 0.0000 14.6584 0.0000 0.0000
# 5 0.0000 0.0000 0.0000 0.0000 24.4297 0.0000
# 6 0.0000 0.0000 0.0000 0.0000 0.0000 52.3827
#
#
#
# Elastic Compliance Matrix: (Units=1/GPa)
#
#
# Indices 1 2 3 4 5 6 
#
# 1 0.013885 -0.002157 -0.000193 0.000000 0.000000 0.000000
# 2 -0.002157 0.009572 -0.003237 0.000000 0.000000 0.000000
# 3 -0.000193 -0.003237 0.010494 0.000000 0.000000 0.000000
# 4 0.000000 0.000000 0.000000 0.068220 0.000000 0.000000
# 5 0.000000 0.000000 0.000000 0.000000 0.040934 0.000000
# 6 0.000000 0.000000 0.000000 0.000000 0.000000 0.019090
#
#
# Mechanical properties :
#
#
# Convention : Reuss Voigt Hill
#
# Bulk Modulus (GPa) = 43.90518 48.14479 46.02498
# Shear Modulus (GPa) = 27.63027 34.24320 30.93674
#
# Velocity S-wave (km/s) = 3.68393 4.10115 3.89812
# Velocity P-wave (km/s) = 6.29764 6.78774 6.54728
#
# Compressibility (1/GPa) = 0.02277636
#
# Stress axis : x y z
#
# Youngs Moduli (GPa) = 72.02260 104.47115 95.29434
#
# Poissons Ratio (x) = 0.22534 0.01837
# Poissons Ratio (y) = 0.15535 0.30850
# Poissons Ratio (z) = 0.01388 0.33821
#
# Static dielectric constant tensor:
#      x y z
#    x 3.788500 0.000000 0.000000 
#    y 0.000000 4.045270 0.000000 
#    z 0.000000 0.000000 3.536860 
# 
# 
# High freq. dielectric constant tensor:
#      x y z
#    x 1.811870 0.000000 0.000000 
#    y 0.000000 1.811600 0.000000 
#    z 0.000000 0.000000 1.776830 
# 
# From -- ./inp_files/23463.got.cif
#   From: 2010.03.12/outbox.cif.g09.slc.cpg/sg57_12_cif.got.tgz:23463.got - 2010.04.16 15:48:40.
