data_PCOD8234718
_publ_section_title
;
Structure prediction by ZEFSAII (Michael W. Deem and Ramdas Pophale) SiO2 
 PCOD8234718
Probable space group: P B C M
;
_chemical_formula_sum "Si O2"
_cell_formula_units_Z 40
_cell_length_a 11.456568
_cell_length_b 13.643930
_cell_length_c 13.470016
_cell_angle_alpha 90.000000
_cell_angle_beta 90.000000
_cell_angle_gamma 90.000000
_cell_volume 2105.533382
_symmetry_space_group_name_H-M "P B C M"
_symmetry_group_IT_number 57
_symmetry_cell_setting 'orthorhombic'
loop_
_space_group_symop_operation_xyz
x,y,z
-x,-y,1/2+z
x,1/2-y,-z
-x,1/2+y,1/2-z
-x,-y,-z
x,y,1/2-z
-x,1/2+y,z
x,1/2-y,1/2+z
loop_
_atom_site_type_symbol
_atom_site_label
_atom_site_fract_x
_atom_site_fract_y
_atom_site_fract_z
Si Si1 0.640983 0.781233 0.250000
Si Si2 0.900649 0.859238 0.250000
Si Si3 0.474405 0.151020 0.949173
Si Si4 0.005116 0.843612 0.750000
Si Si5 0.253788 0.421194 0.750000
Si Si6 0.684283 0.498295 0.044965
Si Si7 0.093076 0.980658 0.915403
O O1 0.773205 0.814644 0.250000
O O2 0.571412 0.825790 0.340858
O O3 0.644745 0.662289 0.250000
O O4 0.001457 0.775066 0.250000
O O5 0.914560 0.923485 0.347834
O O6 0.586924 0.083639 0.946347
O O7 0.515038 0.250000 0.000000
O O8 0.370304 0.101530 0.011228
O O9 0.872941 0.876565 0.750000
O O10 0.068204 0.883584 0.849582
O O11 0.261428 0.489126 0.653470
O O12 0.780373 0.465798 0.964546
O O13 0.000000 0.000000 0.000000
#
# Coordination Sequence:
#
# PCOD8234718 Si02
#       7
#     4   4   8   4   4   8   8
#     4  11  20  38  66  91 123 157 219 262 293 374
#     4  10  23  40  64  94 120 166 211 263 306 368
#     4  11  23  41  61  93 125 166 212 256 314 379
#     4  10  23  40  63  97 121 160 219 255 313 374
#     4  11  20  38  65  94 122 161 213 262 302 372
#     4  11  23  40  65  90 128 167 207 260 319 372
#     4  11  22  42  64  91 130 164 207 259 316 381
#
# _framework density 18.997561000000001
#
# number of rings (size 3 to 8) (size 9 to 14) (size 15 to 20)
#    0.000    1.200    6.000    0.600    0.000    0.800 
#    3.600    2.000    0.000    0.000    0.000    0.000 
#    0.000    0.000    0.000    0.000    0.000    0.000 
#
# Total GULP energy -496049.275808 kJ/mol
# GULP energy per Si atom -12401.231895 kJ/mol
# Density = 1.895432 g / cm^3
# Si number density = 18.997561 Si / 1000 Ang^3
#
#
#
# Elastic Constant Matrix: (Units=GPa)
#
#
# Indices 1 2 3 4 5 6 
#
# 1 89.8698 39.5108 45.3408 0.0000 0.0000 0.0000
# 2 39.5108 100.0514 57.0940 0.0000 0.0000 0.0000
# 3 45.3408 57.0940 149.7918 0.0000 0.0000 0.0000
# 4 0.0000 0.0000 0.0000 16.1589 0.0000 0.0000
# 5 0.0000 0.0000 0.0000 0.0000 49.0776 0.0000
# 6 0.0000 0.0000 0.0000 0.0000 0.0000 22.8549
#
#
#
# Elastic Compliance Matrix: (Units=1/GPa)
#
#
# Indices 1 2 3 4 5 6 
#
# 1 0.014320 -0.004066 -0.002785 0.000000 0.000000 0.000000
# 2 -0.004066 0.013927 -0.004078 0.000000 0.000000 0.000000
# 3 -0.002785 -0.004078 0.009073 0.000000 0.000000 0.000000
# 4 0.000000 0.000000 0.000000 0.061885 0.000000 0.000000
# 5 0.000000 0.000000 0.000000 0.000000 0.020376 0.000000
# 6 0.000000 0.000000 0.000000 0.000000 0.000000 0.043754
#
#
# Mechanical properties :
#
#
# Convention : Reuss Voigt Hill
#
# Bulk Modulus (GPa) = 64.66844 69.28937 66.97890
# Shear Modulus (GPa) = 26.26778 30.80276 28.53527
#
# Velocity S-wave (km/s) = 3.72249 4.03104 3.87983
# Velocity P-wave (km/s) = 7.25191 7.63005 7.44338
#
# Compressibility (1/GPa) = 0.01546349
#
# Stress axis : x y z
#
# Youngs Moduli (GPa) = 69.83394 71.80050 110.21529
#
# Poissons Ratio (x) = 0.29193 0.30692
# Poissons Ratio (y) = 0.28393 0.44944
# Poissons Ratio (z) = 0.19447 0.29279
#
# Static dielectric constant tensor:
#      x y z
#    x 3.501430 0.000000 0.000000 
#    y 0.000000 3.717890 0.000000 
#    z 0.000000 0.000000 3.408220 
# 
# 
# High freq. dielectric constant tensor:
#      x y z
#    x 1.739720 0.000000 0.000000 
#    y 0.000000 1.737550 0.000000 
#    z 0.000000 0.000000 1.757480 
# 
# From -- ./inp_files/12770.got.cif
#   From: 2010.03.12/outbox.cif.g09.slc.cpg/sg57_7_cif.got.tgz:12770.got - 2010.04.16 15:48:40.
