data_PCOD8234581
_publ_section_title
;
Structure prediction by ZEFSAII (Michael W. Deem and Ramdas Pophale) SiO2 
 PCOD8234581
Probable space group: P B C M
;
_chemical_formula_sum "Si O2"
_cell_formula_units_Z 64
_cell_length_a 12.031154
_cell_length_b 19.382123
_cell_length_c 13.271139
_cell_angle_alpha 90.000000
_cell_angle_beta 90.000000
_cell_angle_gamma 90.000000
_cell_volume 3094.687702
_symmetry_space_group_name_H-M "P B C M"
_symmetry_group_IT_number 57
_symmetry_cell_setting 'orthorhombic'
loop_
_space_group_symop_operation_xyz
x,y,z
-x,-y,1/2+z
x,1/2-y,-z
-x,1/2+y,1/2-z
-x,-y,-z
x,y,1/2-z
-x,1/2+y,z
x,1/2-y,1/2+z
loop_
_atom_site_type_symbol
_atom_site_label
_atom_site_fract_x
_atom_site_fract_y
_atom_site_fract_z
Si Si1 0.374087 0.429591 0.131014
Si Si2 0.749999 0.138866 0.630107
Si Si3 0.510168 0.936105 0.631145
Si Si4 0.989831 0.936105 0.631145
Si Si5 0.750000 0.981445 0.630067
Si Si6 0.028048 0.826745 0.474221
Si Si7 0.471953 0.826745 0.474221
Si Si8 0.874086 0.570409 0.631014
O O1 0.367643 0.425350 0.250000
O O2 0.446930 0.494856 0.096872
O O3 0.431582 0.360045 0.093217
O O4 0.250000 0.437399 0.085101
O O5 0.749997 0.144286 0.750000
O O6 0.857745 0.177167 0.587448
O O7 0.642255 0.177169 0.587446
O O8 0.749998 0.060035 0.591917
O O9 0.500985 0.924296 0.750000
O O10 0.638363 0.942575 0.593188
O O11 0.455648 0.870478 0.576924
O O12 0.999010 0.924294 0.750000
O O13 0.044352 0.870478 0.576924
O O14 0.861637 0.942576 0.593183
O O15 0.053069 0.005144 0.596874
O O16 0.750006 0.983171 0.750000
O O17 0.988996 0.750000 0.500000
O O18 0.931581 0.860044 0.406783
O O19 0.511007 0.750000 0.500000
O O20 0.867639 0.574651 0.750000
#
# Coordination Sequence:
#
# PCOD8234581 Si02
#       8
#     8   8   8   8   8   8   8   8
#     4  10  22  41  66  93 122 163 213 265 317 368
#     4  11  23  43  68  91 122 163 212 262 316 379
#     4  10  22  40  64  94 125 163 214 267 312 366
#     4  10  22  40  64  94 125 163 214 267 312 366
#     4   9  18  37  66  93 115 157 215 262 308 351
#     4  12  26  40  62  93 129 169 209 251 321 380
#     4  12  26  40  62  93 129 169 209 251 321 380
#     4  10  22  41  66  93 122 163 213 265 317 368
#
# _framework density 20.680599999999998
#
# number of rings (size 3 to 8) (size 9 to 14) (size 15 to 20)
#    0.000    1.500    2.500    1.875    3.500    2.500 
#    0.000    0.000    0.000    0.000    0.000    0.000 
#    0.000    0.000    0.000    0.000    0.000    0.000 
#
# Total GULP energy -793975.103462 kJ/mol
# GULP energy per Si atom -12405.860992 kJ/mol
# Density = 2.063353 g / cm^3
# Si number density = 20.680600 Si / 1000 Ang^3
#
#
#
# Elastic Constant Matrix: (Units=GPa)
#
#
# Indices 1 2 3 4 5 6 
#
# 1 163.9503 53.9181 53.9945 0.0000 0.0000 0.0000
# 2 53.9181 150.2004 41.8019 0.0000 0.0000 0.0000
# 3 53.9945 41.8019 55.1329 0.0000 0.0000 0.0000
# 4 0.0000 0.0000 0.0000 22.0518 0.0000 0.0000
# 5 0.0000 0.0000 0.0000 0.0000 40.5555 0.0000
# 6 0.0000 0.0000 0.0000 0.0000 0.0000 6.6310
#
#
#
# Elastic Compliance Matrix: (Units=1/GPa)
#
#
# Indices 1 2 3 4 5 6 
#
# 1 0.009120 -0.000999 -0.008174 0.000000 0.000000 0.000000
# 2 -0.000999 0.008548 -0.005503 0.000000 0.000000 0.000000
# 3 -0.008174 -0.005503 0.030316 0.000000 0.000000 0.000000
# 4 0.000000 0.000000 0.000000 0.045348 0.000000 0.000000
# 5 0.000000 0.000000 0.000000 0.000000 0.024658 0.000000
# 6 0.000000 0.000000 0.000000 0.000000 0.000000 0.150807
#
#
# Mechanical properties :
#
#
# Convention : Reuss Voigt Hill
#
# Bulk Modulus (GPa) = 53.67207 74.30139 63.98673
# Shear Modulus (GPa) = 16.42801 28.48561 22.45681
#
# Velocity S-wave (km/s) = 2.82151 3.71537 3.29886
# Velocity P-wave (km/s) = 6.05176 7.37641 6.74667
#
# Compressibility (1/GPa) = 0.01863166
#
# Stress axis : x y z
#
# Youngs Moduli (GPa) = 109.64910 116.98942 32.98618
#
# Poissons Ratio (x) = 0.11686 0.26964
# Poissons Ratio (y) = 0.10952 0.18151
# Poissons Ratio (z) = 0.89631 0.64376
#
# Static dielectric constant tensor:
#      x y z
#    x 4.063310 0.000000 0.000000 
#    y 0.000000 3.437880 0.000000 
#    z 0.000000 0.000000 3.829790 
# 
# 
# High freq. dielectric constant tensor:
#      x y z
#    x 1.821290 0.000000 0.000000 
#    y 0.000000 1.779740 0.000000 
#    z 0.000000 0.000000 1.836530 
# 
# From -- ./inp_files/17975.got.cif
#   From: 2010.03.12/outbox.cif.g09.slc.cpg/sg57_9_cif.got.tgz:17975.got - 2010.04.16 15:48:40.
