data_PCOD8234027
_publ_section_title
;
Structure prediction by ZEFSAII (Michael W. Deem and Ramdas Pophale) SiO2 
 PCOD8234027
Probable space group: P B C M
;
_chemical_formula_sum "Si O2"
_cell_formula_units_Z 48
_cell_length_a 9.745455
_cell_length_b 14.741417
_cell_length_c 18.041841
_cell_angle_alpha 90.000000
_cell_angle_beta 90.000000
_cell_angle_gamma 90.000000
_cell_volume 2591.923642
_symmetry_space_group_name_H-M "P B C M"
_symmetry_group_IT_number 57
_symmetry_cell_setting 'orthorhombic'
loop_
_space_group_symop_operation_xyz
x,y,z
-x,-y,1/2+z
x,1/2-y,-z
-x,1/2+y,1/2-z
-x,-y,-z
x,y,1/2-z
-x,1/2+y,z
x,1/2-y,1/2+z
loop_
_atom_site_type_symbol
_atom_site_label
_atom_site_fract_x
_atom_site_fract_y
_atom_site_fract_z
Si Si1 0.093779 0.474430 0.931676
Si Si2 0.850679 0.726470 0.415568
Si Si3 0.056629 0.857924 0.335441
Si Si4 0.578966 0.824327 0.836329
Si Si5 0.366908 0.828713 0.334288
Si Si6 0.406001 0.999311 0.428991
O O1 0.071815 0.370085 0.908173
O O2 0.058272 0.537286 0.861288
O O3 0.250543 0.488770 0.956404
O O4 0.000000 0.500000 0.000000
O O5 0.815873 0.750000 0.500000
O O6 0.709470 0.726984 0.370451
O O7 0.948188 0.803406 0.383511
O O8 0.012760 0.855492 0.250000
O O9 0.205571 0.813325 0.348700
O O10 0.607490 0.840233 0.750000
O O11 0.443501 0.765080 0.850901
O O12 0.551537 0.920506 0.873895
O O13 0.391378 0.860702 0.250000
O O14 0.429327 0.905031 0.387155
O O15 0.500000 0.000000 0.500000
#
# Coordination Sequence:
#
# PCOD8234027 Si02
#       6
#     8   8   8   8   8   8
#     4  10  21  38  56  81 117 150 187 232 289 338
#     4  11  22  36  60  88 118 149 191 242 286 343
#     4  10  21  39  60  84 113 151 194 234 285 346
#     4  10  22  39  59  84 116 153 191 235 285 342
#     4   9  20  38  58  80 112 150 188 230 279 339
#     4  10  22  35  57  84 111 148 188 234 281 339
#
# _framework density 18.519062999999999
#
# number of rings (size 3 to 8) (size 9 to 14) (size 15 to 20)
#    0.000    2.000    1.667    1.000    4.667    6.000 
#    0.000    0.000    0.000    5.000    0.000    0.000 
#    0.000    0.000    0.000    0.000    0.000    0.000 
#
# Total GULP energy -595377.144760 kJ/mol
# GULP energy per Si atom -12403.690516 kJ/mol
# Density = 1.847691 g / cm^3
# Si number density = 18.519063 Si / 1000 Ang^3
#
#
#
# Elastic Constant Matrix: (Units=GPa)
#
#
# Indices 1 2 3 4 5 6 
#
# 1 55.5422 29.2736 49.3865 0.0000 0.0000 0.0000
# 2 29.2736 83.6902 40.5538 0.0000 0.0000 0.0000
# 3 49.3865 40.5538 128.0780 0.0000 0.0000 0.0000
# 4 0.0000 0.0000 0.0000 31.1218 0.0000 0.0000
# 5 0.0000 0.0000 0.0000 0.0000 33.2078 0.0000
# 6 0.0000 0.0000 0.0000 0.0000 0.0000 28.8874
#
#
#
# Elastic Compliance Matrix: (Units=1/GPa)
#
#
# Indices 1 2 3 4 5 6 
#
# 1 0.029521 -0.005682 -0.009584 0.000000 0.000000 0.000000
# 2 -0.005682 0.015208 -0.002624 0.000000 0.000000 0.000000
# 3 -0.009584 -0.002624 0.012334 0.000000 0.000000 0.000000
# 4 0.000000 0.000000 0.000000 0.032132 0.000000 0.000000
# 5 0.000000 0.000000 0.000000 0.000000 0.030113 0.000000
# 6 0.000000 0.000000 0.000000 0.000000 0.000000 0.034617
#
#
# Mechanical properties :
#
#
# Convention : Reuss Voigt Hill
#
# Bulk Modulus (GPa) = 46.98714 56.19313 51.59014
# Shear Modulus (GPa) = 25.40647 28.51652 26.96150
#
# Velocity S-wave (km/s) = 3.70795 3.92835 3.81974
# Velocity P-wave (km/s) = 6.61508 7.14039 6.88275
#
# Compressibility (1/GPa) = 0.02128242
#
# Stress axis : x y z
#
# Youngs Moduli (GPa) = 33.87442 65.75500 81.07455
#
# Poissons Ratio (x) = 0.37361 0.77702
# Poissons Ratio (y) = 0.19247 0.21278
# Poissons Ratio (z) = 0.32466 0.17257
#
# Static dielectric constant tensor:
#      x y z
#    x 3.434300 0.000000 0.000000 
#    y 0.000000 3.590560 0.000000 
#    z 0.000000 0.000000 3.013630 
# 
# 
# High freq. dielectric constant tensor:
#      x y z
#    x 1.717440 0.000000 0.000000 
#    y 0.000000 1.726570 0.000000 
#    z 0.000000 0.000000 1.727240 
# 
# From -- ./inp_files/17577.got.cif
#   From: 2010.03.12/outbox.cif.g09.slc.cpg/sg57_9_cif.got.tgz:17577.got - 2010.04.16 15:48:40.
