data_PCOD8234891
_publ_section_title
;
Structure prediction by ZEFSAII (Michael W. Deem and Ramdas Pophale) SiO2 
 PCOD8234891
Probable space group: P B C M
;
_chemical_formula_sum "Si O2"
_cell_formula_units_Z 48
_cell_length_a 8.740854
_cell_length_b 8.534129
_cell_length_c 30.901534
_cell_angle_alpha 90.000000
_cell_angle_beta 90.000000
_cell_angle_gamma 90.000000
_cell_volume 2305.117716
_symmetry_space_group_name_H-M "P B C M"
_symmetry_group_IT_number 57
_symmetry_cell_setting 'orthorhombic'
loop_
_space_group_symop_operation_xyz
x,y,z
-x,-y,1/2+z
x,1/2-y,-z
-x,1/2+y,1/2-z
-x,-y,-z
x,y,1/2-z
-x,1/2+y,z
x,1/2-y,1/2+z
loop_
_atom_site_type_symbol
_atom_site_label
_atom_site_fract_x
_atom_site_fract_y
_atom_site_fract_z
Si Si1 0.439448 0.409261 0.828219
Si Si2 0.909095 0.358079 0.871942
Si Si3 0.215453 0.197624 0.629112
Si Si4 0.465473 0.046412 0.920145
Si Si5 0.284376 0.720269 0.701962
Si Si6 0.291154 0.724470 0.452377
O O1 0.323420 0.261463 0.832302
O O2 0.503204 0.459577 0.874911
O O3 0.584819 0.351998 0.801207
O O4 0.355881 0.549188 0.804036
O O5 0.872272 0.536884 0.859022
O O6 0.847037 0.247141 0.833636
O O7 0.839832 0.312028 0.918161
O O8 0.089940 0.333110 0.878892
O O9 0.326718 0.171078 0.587563
O O10 0.619930 0.121062 0.937376
O O11 0.410604 0.919009 0.955047
O O12 0.211964 0.729788 0.750000
O O13 0.219401 0.750000 0.500000
#
# Coordination Sequence:
#
# PCOD8234891 Si02
#       6
#     8   8   8   8   8   8
#     4  12  19  41  66  91 124 162 216 260 307 365
#     4  11  23  42  61  91 131 166 209 252 318 383
#     4  11  22  39  69  89 122 175 201 256 320 365
#     4  11  19  39  65  92 119 164 212 257 308 358
#     4  12  23  39  64  94 127 166 209 260 313 371
#     4  11  22  38  63  93 126 163 209 259 309 368
#
# _framework density 20.823231
#
# number of rings (size 3 to 8) (size 9 to 14) (size 15 to 20)
#    0.000    0.667    8.333    2.000    0.000    0.000 
#    0.000    9.167    0.000    0.000    0.000    0.000 
#    0.000    0.000    0.000    0.000    0.000    0.000 
#
# Total GULP energy -595133.731764 kJ/mol
# GULP energy per Si atom -12398.619412 kJ/mol
# Density = 2.077584 g / cm^3
# Si number density = 20.823231 Si / 1000 Ang^3
#
#
#
# Elastic Constant Matrix: (Units=GPa)
#
#
# Indices 1 2 3 4 5 6 
#
# 1 74.3920 10.9316 22.0453 0.0000 0.0000 0.0000
# 2 10.9316 64.5589 18.6140 0.0000 0.0000 0.0000
# 3 22.0453 18.6140 112.2960 0.0000 0.0000 0.0000
# 4 0.0000 0.0000 0.0000 23.4875 0.0000 0.0000
# 5 0.0000 0.0000 0.0000 0.0000 10.6297 0.0000
# 6 0.0000 0.0000 0.0000 0.0000 0.0000 44.3333
#
#
#
# Elastic Compliance Matrix: (Units=1/GPa)
#
#
# Indices 1 2 3 4 5 6 
#
# 1 0.014450 -0.001711 -0.002553 0.000000 0.000000 0.000000
# 2 -0.001711 0.016470 -0.002394 0.000000 0.000000 0.000000
# 3 -0.002553 -0.002394 0.009803 0.000000 0.000000 0.000000
# 4 0.000000 0.000000 0.000000 0.042576 0.000000 0.000000
# 5 0.000000 0.000000 0.000000 0.000000 0.094076 0.000000
# 6 0.000000 0.000000 0.000000 0.000000 0.000000 0.022556
#
#
# Mechanical properties :
#
#
# Convention : Reuss Voigt Hill
#
# Bulk Modulus (GPa) = 36.48703 39.38095 37.93399
# Shear Modulus (GPa) = 22.48370 29.00050 25.74210
#
# Velocity S-wave (km/s) = 3.28951 3.73594 3.51981
# Velocity P-wave (km/s) = 5.65580 6.12884 5.89707
#
# Compressibility (1/GPa) = 0.02740700
#
# Stress axis : x y z
#
# Youngs Moduli (GPa) = 69.20265 60.71756 102.00822
#
# Poissons Ratio (x) = 0.10387 0.26045
# Poissons Ratio (y) = 0.11838 0.24422
# Poissons Ratio (z) = 0.17669 0.14537
#
# Static dielectric constant tensor:
#      x y z
#    x 3.807890 0.000000 0.000000 
#    y 0.000000 4.023420 0.000000 
#    z 0.000000 0.000000 3.566150 
# 
# 
# High freq. dielectric constant tensor:
#      x y z
#    x 1.808980 0.000000 0.000000 
#    y 0.000000 1.832120 0.000000 
#    z 0.000000 0.000000 1.786730 
# 
# From -- ./inp_files/29435.got.cif
#   From: 2010.03.12/outbox.cif.g09.slc.cpg/sg57_15_cif.got.tgz:29435.got - 2010.04.16 15:48:40.
