data_PCOD8234271
_publ_section_title
;
Structure prediction by ZEFSAII (Michael W. Deem and Ramdas Pophale) SiO2 
 PCOD8234271
Probable space group: P B C M
;
_chemical_formula_sum "Si O2"
_cell_formula_units_Z 48
_cell_length_a 9.835160
_cell_length_b 17.658347
_cell_length_c 13.641857
_cell_angle_alpha 90.000000
_cell_angle_beta 90.000000
_cell_angle_gamma 90.000000
_cell_volume 2369.217703
_symmetry_space_group_name_H-M "P B C M"
_symmetry_group_IT_number 57
_symmetry_cell_setting 'orthorhombic'
loop_
_space_group_symop_operation_xyz
x,y,z
-x,-y,1/2+z
x,1/2-y,-z
-x,1/2+y,1/2-z
-x,-y,-z
x,y,1/2-z
-x,1/2+y,z
x,1/2-y,1/2+z
loop_
_atom_site_type_symbol
_atom_site_label
_atom_site_fract_x
_atom_site_fract_y
_atom_site_fract_z
Si Si1 0.394692 0.333894 0.975724
Si Si2 0.143682 0.388451 0.637854
Si Si3 0.208321 0.942581 0.138765
Si Si4 0.111045 0.663463 0.024686
Si Si5 0.477065 0.053050 0.864181
Si Si6 0.364442 0.612242 0.363730
O O1 0.295189 0.368941 0.895332
O O2 0.542635 0.330332 0.925603
O O3 0.345441 0.250000 0.000000
O O4 0.397705 0.382953 0.075260
O O5 0.123119 0.362010 0.750000
O O6 0.127785 0.478694 0.628972
O O7 0.039913 0.345308 0.566925
O O8 0.205776 0.913473 0.250000
O O9 0.364890 0.950121 0.103677
O O10 0.126261 0.881903 0.076061
O O11 0.209824 0.628052 0.106566
O O12 0.143199 0.750000 0.000000
O O13 0.460712 0.072549 0.750000
O O14 0.408222 0.973138 0.889952
O O15 0.382846 0.629482 0.250000
#
# Coordination Sequence:
#
# PCOD8234271 Si02
#       6
#     8   8   8   8   8   8
#     4  12  23  39  62  95 125 164 204 257 319 372
#     4  11  24  44  65  86 123 168 214 255 305 371
#     4  10  21  40  66  93 122 167 213 256 306 366
#     4  12  25  42  61  96 128 167 202 259 320 368
#     4  10  21  39  64  95 128 163 207 261 309 362
#     4  11  22  39  64  90 122 163 212 255 303 368
#
# _framework density 20.259851999999999
#
# number of rings (size 3 to 8) (size 9 to 14) (size 15 to 20)
#    0.000    1.000    3.333    4.000    0.000    2.667 
#    0.000    2.500    0.000    0.000    0.000    0.000 
#    0.000    0.000    0.000    0.000    0.000    0.000 
#
# Total GULP energy -595509.889336 kJ/mol
# GULP energy per Si atom -12406.456028 kJ/mol
# Density = 2.021374 g / cm^3
# Si number density = 20.259852 Si / 1000 Ang^3
#
#
#
# Elastic Constant Matrix: (Units=GPa)
#
#
# Indices 1 2 3 4 5 6 
#
# 1 71.9035 15.9318 29.5094 0.0000 0.0000 0.0000
# 2 15.9318 92.5111 54.6912 0.0000 0.0000 0.0000
# 3 29.5094 54.6912 113.6255 0.0000 0.0000 0.0000
# 4 0.0000 0.0000 0.0000 16.5990 0.0000 0.0000
# 5 0.0000 0.0000 0.0000 0.0000 39.3576 0.0000
# 6 0.0000 0.0000 0.0000 0.0000 0.0000 18.0318
#
#
#
# Elastic Compliance Matrix: (Units=1/GPa)
#
#
# Indices 1 2 3 4 5 6 
#
# 1 0.015578 -0.000407 -0.003850 0.000000 0.000000 0.000000
# 2 -0.000407 0.015119 -0.007172 0.000000 0.000000 0.000000
# 3 -0.003850 -0.007172 0.013253 0.000000 0.000000 0.000000
# 4 0.000000 0.000000 0.000000 0.060244 0.000000 0.000000
# 5 0.000000 0.000000 0.000000 0.000000 0.025408 0.000000
# 6 0.000000 0.000000 0.000000 0.000000 0.000000 0.055457
#
#
# Mechanical properties :
#
#
# Convention : Reuss Voigt Hill
#
# Bulk Modulus (GPa) = 47.40912 53.14500 50.27706
# Shear Modulus (GPa) = 23.26151 26.65822 24.95987
#
# Velocity S-wave (km/s) = 3.39212 3.63135 3.51377
# Velocity P-wave (km/s) = 6.22843 6.62351 6.42901
#
# Compressibility (1/GPa) = 0.02109299
#
# Stress axis : x y z
#
# Youngs Moduli (GPa) = 64.19455 66.14019 75.45656
#
# Poissons Ratio (x) = 0.02690 0.29050
# Poissons Ratio (y) = 0.02611 0.54116
# Poissons Ratio (z) = 0.24714 0.47434
#
# Static dielectric constant tensor:
#      x y z
#    x 3.533270 0.000000 0.000000 
#    y 0.000000 3.536050 0.000000 
#    z 0.000000 0.000000 3.777410 
# 
# 
# High freq. dielectric constant tensor:
#      x y z
#    x 1.784940 0.000000 0.000000 
#    y 0.000000 1.784860 0.000000 
#    z 0.000000 0.000000 1.810020 
# 
# From -- ./inp_files/16351.got.cif
#   From: 2010.03.12/outbox.cif.g09.slc.cpg/sg57_9_cif.got.tgz:16351.got - 2010.04.16 15:48:40.
