data_PCOD8234748
_publ_section_title
;
Structure prediction by ZEFSAII (Michael W. Deem and Ramdas Pophale) SiO2 
 PCOD8234748
Probable space group: P B C M
;
_chemical_formula_sum "Si O2"
_cell_formula_units_Z 40
_cell_length_a 23.724473
_cell_length_b 8.488667
_cell_length_c 9.562126
_cell_angle_alpha 90.000000
_cell_angle_beta 90.000000
_cell_angle_gamma 90.000000
_cell_volume 1925.708437
_symmetry_space_group_name_H-M "P B C M"
_symmetry_group_IT_number 57
_symmetry_cell_setting 'orthorhombic'
loop_
_space_group_symop_operation_xyz
x,y,z
-x,-y,1/2+z
x,1/2-y,-z
-x,1/2+y,1/2-z
-x,-y,-z
x,y,1/2-z
-x,1/2+y,z
x,1/2-y,1/2+z
loop_
_atom_site_type_symbol
_atom_site_label
_atom_site_fract_x
_atom_site_fract_y
_atom_site_fract_z
Si Si1 0.953321 0.907062 0.913466
Si Si2 0.838380 0.096136 0.908657
Si Si3 0.456341 0.068353 0.250000
Si Si4 0.621465 0.064834 0.978057
Si Si5 0.423553 0.068060 0.750000
Si Si6 0.267255 0.099629 0.092239
O O1 0.971400 0.876180 0.750000
O O2 0.896310 0.003864 0.916784
O O3 0.942099 0.750000 0.000000
O O4 0.000000 0.000000 0.000000
O O5 0.824553 0.146505 0.750000
O O6 0.787819 0.988441 0.968023
O O7 0.844122 0.250000 0.000000
O O8 0.431793 0.983582 0.385538
O O9 0.523421 0.049614 0.250000
O O10 0.442495 0.252105 0.250000
O O11 0.616536 0.967644 0.120234
O O12 0.619775 0.250000 0.000000
O O13 0.680200 0.019549 0.906463
O O14 0.255641 0.156685 0.250000
O O15 0.281381 0.250000 0.000000
#
# Coordination Sequence:
#
# PCOD8234748 Si02
#       6
#     8   8   4   8   4   8
#     4  11  23  40  64  94 132 173 221 273 331 393
#     4  10  23  42  64  94 130 170 217 269 322 384
#     4  12  24  46  64  98 126 166 213 260 315 388
#     4  12  25  43  66  94 129 166 211 263 320 381
#     4  12  26  42  70  92 130 168 209 260 321 378
#     4  11  24  43  66  94 128 165 213 263 319 384
#
# _framework density 20.771577000000001
#
# number of rings (size 3 to 8) (size 9 to 14) (size 15 to 20)
#    0.000    0.800    1.000    6.600    1.400    4.000 
#    0.000    0.000    0.000    0.000    0.000    0.000 
#    0.000    0.000    0.000    0.000    0.000    0.000 
#
# Total GULP energy -496206.400128 kJ/mol
# GULP energy per Si atom -12405.160003 kJ/mol
# Density = 2.072430 g / cm^3
# Si number density = 20.771577 Si / 1000 Ang^3
#
#
#
# Elastic Constant Matrix: (Units=GPa)
#
#
# Indices 1 2 3 4 5 6 
#
# 1 98.9762 17.8445 22.7708 0.0000 0.0000 0.0000
# 2 17.8445 145.0506 48.9729 0.0000 0.0000 0.0000
# 3 22.7708 48.9729 125.0102 0.0000 0.0000 0.0000
# 4 0.0000 0.0000 0.0000 32.8253 0.0000 0.0000
# 5 0.0000 0.0000 0.0000 0.0000 34.0496 0.0000
# 6 0.0000 0.0000 0.0000 0.0000 0.0000 33.8372
#
#
#
# Elastic Compliance Matrix: (Units=1/GPa)
#
#
# Indices 1 2 3 4 5 6 
#
# 1 0.010616 -0.000753 -0.001639 0.000000 0.000000 0.000000
# 2 -0.000753 0.007998 -0.002996 0.000000 0.000000 0.000000
# 3 -0.001639 -0.002996 0.009472 0.000000 0.000000 0.000000
# 4 0.000000 0.000000 0.000000 0.030464 0.000000 0.000000
# 5 0.000000 0.000000 0.000000 0.000000 0.029369 0.000000
# 6 0.000000 0.000000 0.000000 0.000000 0.000000 0.029553
#
#
# Mechanical properties :
#
#
# Convention : Reuss Voigt Hill
#
# Bulk Modulus (GPa) = 57.76835 60.91261 59.34048
# Shear Modulus (GPa) = 37.30825 38.77233 38.04029
#
# Velocity S-wave (km/s) = 4.24266 4.32511 4.28408
# Velocity P-wave (km/s) = 7.20221 7.37094 7.28706
#
# Compressibility (1/GPa) = 0.01731052
#
# Stress axis : x y z
#
# Youngs Moduli (GPa) = 94.19572 125.02561 105.57811
#
# Poissons Ratio (x) = 0.09411 0.17303
# Poissons Ratio (y) = 0.07090 0.31634
# Poissons Ratio (z) = 0.15438 0.37461
#
# Static dielectric constant tensor:
#      x y z
#    x 3.901520 0.000000 0.000000 
#    y 0.000000 3.802620 0.000000 
#    z 0.000000 0.000000 3.932260 
# 
# 
# High freq. dielectric constant tensor:
#      x y z
#    x 1.827250 0.000000 0.000000 
#    y 0.000000 1.821910 0.000000 
#    z 0.000000 0.000000 1.826700 
# 
# From -- ./inp_files/8962.got.cif
#   From: 2010.03.12/outbox.cif.g09.slc.cpg/sg57_5_cif.got.tgz:8962.got - 2010.04.16 15:48:40.
