data_PCOD8234560
_publ_section_title
;
Structure prediction by ZEFSAII (Michael W. Deem and Ramdas Pophale) SiO2 
 PCOD8234560
Probable space group: P B C M
;
_chemical_formula_sum "Si O2"
_cell_formula_units_Z 48
_cell_length_a 10.232213
_cell_length_b 27.933807
_cell_length_c 8.377878
_cell_angle_alpha 90.000000
_cell_angle_beta 90.000000
_cell_angle_gamma 90.000000
_cell_volume 2394.604157
_symmetry_space_group_name_H-M "P B C M"
_symmetry_group_IT_number 57
_symmetry_cell_setting 'orthorhombic'
loop_
_space_group_symop_operation_xyz
x,y,z
-x,-y,1/2+z
x,1/2-y,-z
-x,1/2+y,1/2-z
-x,-y,-z
x,y,1/2-z
-x,1/2+y,z
x,1/2-y,1/2+z
loop_
_atom_site_type_symbol
_atom_site_label
_atom_site_fract_x
_atom_site_fract_y
_atom_site_fract_z
Si Si1 0.099371 0.698184 0.563272
Si Si2 0.004713 0.103833 0.432754
Si Si3 0.499081 0.891893 0.063178
Si Si4 0.240539 0.552267 0.933741
Si Si5 0.246507 0.051408 0.565616
Si Si6 0.384139 0.699911 0.435929
O O1 0.057535 0.750000 0.500000
O O2 0.074086 0.694596 0.750000
O O3 0.009456 0.659546 0.475264
O O4 0.250990 0.687367 0.528627
O O5 0.047821 0.098425 0.250000
O O6 0.868565 0.076561 0.457437
O O7 0.114207 0.081067 0.545104
O O8 0.501145 0.880542 0.250000
O O9 0.380602 0.926827 0.015905
O O10 0.632189 0.916724 0.006368
O O11 0.488060 0.841824 0.969066
O O12 0.208472 0.563811 0.750000
O O13 0.241498 0.495684 0.958572
O O14 0.263449 0.036809 0.750000
O O15 0.442472 0.750000 0.500000
O O16 0.351671 0.704561 0.250000
#
# Coordination Sequence:
#
# PCOD8234560 Si02
#       6
#     8   8   8   8   8   8
#     4  11  21  37  61  90 121 153 195 245 296 351
#     4  12  24  40  61  89 121 159 202 247 298 355
#     4  10  22  40  62  88 121 158 200 246 298 354
#     4  11  22  39  63  89 118 157 202 252 297 352
#     4  11  24  41  60  86 122 162 200 248 301 356
#     4  11  21  35  60  90 121 155 196 244 294 348
#
# _framework density 20.045068000000001
#
# number of rings (size 3 to 8) (size 9 to 14) (size 15 to 20)
#    0.000    1.000    1.667    7.500    0.000    2.000 
#    0.000    0.833    0.000    4.000    0.000    0.000 
#    0.000    0.000    0.000    0.000    0.000    0.000 
#
# Total GULP energy -595587.979110 kJ/mol
# GULP energy per Si atom -12408.082898 kJ/mol
# Density = 1.999944 g / cm^3
# Si number density = 20.045068 Si / 1000 Ang^3
#
#
#
# Elastic Constant Matrix: (Units=GPa)
#
#
# Indices 1 2 3 4 5 6 
#
# 1 81.4505 37.6674 17.4622 0.0000 0.0000 0.0000
# 2 37.6674 137.8502 20.8651 0.0000 0.0000 0.0000
# 3 17.4622 20.8651 72.6977 0.0000 0.0000 0.0000
# 4 0.0000 0.0000 0.0000 30.1315 0.0000 0.0000
# 5 0.0000 0.0000 0.0000 0.0000 18.6881 0.0000
# 6 0.0000 0.0000 0.0000 0.0000 0.0000 -3.5142
#
#
#
# Elastic Compliance Matrix: (Units=1/GPa)
#
#
# Indices 1 2 3 4 5 6 
#
# 1 0.014457 -0.003580 -0.002445 0.000000 0.000000 0.000000
# 2 -0.003580 0.008470 -0.001571 0.000000 0.000000 0.000000
# 3 -0.002445 -0.001571 0.014794 0.000000 0.000000 0.000000
# 4 0.000000 0.000000 0.000000 0.033188 0.000000 0.000000
# 5 0.000000 0.000000 0.000000 0.000000 0.053510 0.000000
# 6 0.000000 0.000000 0.000000 0.000000 0.000000 -0.284557
#
#
# Mechanical properties :
#
#
# Convention : Reuss Voigt Hill
#
# Bulk Modulus (GPa) = 44.38824 49.33197 46.86011
# Shear Modulus (GPa) = -36.38075 23.46131 -6.45972
#
# Velocity S-wave (km/s) = -4.26484 3.42486 -1.79711
# Velocity P-wave (km/s) = 1.43511 6.34851 4.37287
#
# Compressibility (1/GPa) = 0.02252849
#
# Stress axis : x y z
#
# Youngs Moduli (GPa) = 69.16889 118.05839 67.59575
#
# Poissons Ratio (x) = 0.42269 0.16528
# Poissons Ratio (y) = 0.24765 0.10620
# Poissons Ratio (z) = 0.16912 0.18548
#
# Static dielectric constant tensor:
#      x y z
#    x 3.476270 0.000000 0.000000 
#    y 0.000000 3.867540 0.000000 
#    z 0.000000 0.000000 3.583800 
# 
# 
# High freq. dielectric constant tensor:
#      x y z
#    x 1.761670 0.000000 0.000000 
#    y 0.000000 1.798940 0.000000 
#    z 0.000000 0.000000 1.791480 
# 
# From -- ./inp_files/2113.got.cif
#   From: 2010.03.12/outbox.cif.g09.slc.cpg/sg57_2_cif.got.tgz:2113.got - 2010.04.16 15:48:40.
