data_PCOD8234037
_publ_section_title
;
Structure prediction by ZEFSAII (Michael W. Deem and Ramdas Pophale) SiO2 
 PCOD8234037
Probable space group: P B C M
;
_chemical_formula_sum "Si O2"
_cell_formula_units_Z 48
_cell_length_a 9.846027
_cell_length_b 28.975664
_cell_length_c 9.107061
_cell_angle_alpha 90.000000
_cell_angle_beta 90.000000
_cell_angle_gamma 90.000000
_cell_volume 2598.200517
_symmetry_space_group_name_H-M "P B C M"
_symmetry_group_IT_number 57
_symmetry_cell_setting 'orthorhombic'
loop_
_space_group_symop_operation_xyz
x,y,z
-x,-y,1/2+z
x,1/2-y,-z
-x,1/2+y,1/2-z
-x,-y,-z
x,y,1/2-z
-x,1/2+y,z
x,1/2-y,1/2+z
loop_
_atom_site_type_symbol
_atom_site_label
_atom_site_fract_x
_atom_site_fract_y
_atom_site_fract_z
Si Si1 0.207089 0.702367 0.576796
Si Si2 0.371578 0.479442 0.078374
Si Si3 0.722702 0.878035 0.423774
Si Si4 0.482892 0.297269 0.420727
Si Si5 0.009871 0.631494 0.076984
Si Si6 0.105928 0.530609 0.418604
O O1 0.172175 0.750000 0.500000
O O2 0.181997 0.706143 0.750000
O O3 0.362595 0.688186 0.540916
O O4 0.103128 0.667052 0.507414
O O5 0.400535 0.478867 0.250000
O O6 0.335270 0.427650 0.025517
O O7 0.254663 0.515077 0.032273
O O8 0.500000 0.500000 0.000000
O O9 0.753072 0.877627 0.250000
O O10 0.613819 0.839153 0.469836
O O11 0.859317 0.867411 0.511691
O O12 0.439467 0.250000 0.500000
O O13 0.467093 0.287032 0.250000
O O14 0.003282 0.642437 0.250000
O O15 0.083106 0.583498 0.043160
O O16 0.083012 0.519723 0.250000
O O17 0.000000 0.500000 0.500000
#
# Coordination Sequence:
#
# PCOD8234037 Si02
#       6
#     8   8   8   8   8   8
#     4  10  21  39  62  86 114 148 187 233 284 340
#     4  10  22  38  57  83 115 150 190 237 285 340
#     4  10  21  39  59  82 115 152 192 235 284 341
#     4   9  20  38  60  85 111 145 186 230 282 337
#     4  11  23  37  57  87 117 150 192 236 284 339
#     4  10  21  38  58  82 114 152 193 235 281 335
#
# _framework density 18.474323999999999
#
# number of rings (size 3 to 8) (size 9 to 14) (size 15 to 20)
#    0.000    2.000    1.667    1.000    2.333    4.000 
#    0.000    1.667    0.000    0.000    0.000    0.000 
#    0.000    0.000    0.000    0.000    0.000    0.000 
#
# Total GULP energy -595230.109351 kJ/mol
# GULP energy per Si atom -12400.627278 kJ/mol
# Density = 1.843228 g / cm^3
# Si number density = 18.474324 Si / 1000 Ang^3
#
#
#
# Elastic Constant Matrix: (Units=GPa)
#
#
# Indices 1 2 3 4 5 6 
#
# 1 162.5960 112.2364 73.9420 0.0000 0.0000 0.0000
# 2 112.2364 146.5497 74.3425 0.0000 0.0000 0.0000
# 3 73.9420 74.3425 74.3282 0.0000 0.0000 0.0000
# 4 0.0000 0.0000 0.0000 33.2693 0.0000 0.0000
# 5 0.0000 0.0000 0.0000 0.0000 35.4131 0.0000
# 6 0.0000 0.0000 0.0000 0.0000 0.0000 47.5341
#
#
#
# Elastic Compliance Matrix: (Units=1/GPa)
#
#
# Indices 1 2 3 4 5 6 
#
# 1 0.014548 -0.007714 -0.006757 0.000000 0.000000 0.000000
# 2 -0.007714 0.017942 -0.010272 0.000000 0.000000 0.000000
# 3 -0.006757 -0.010272 0.030449 0.000000 0.000000 0.000000
# 4 0.000000 0.000000 0.000000 0.030058 0.000000 0.000000
# 5 0.000000 0.000000 0.000000 0.000000 0.028238 0.000000
# 6 0.000000 0.000000 0.000000 0.000000 0.000000 0.021038
#
#
# Mechanical properties :
#
#
# Convention : Reuss Voigt Hill
#
# Bulk Modulus (GPa) = 74.32597 100.50173 87.41385
# Shear Modulus (GPa) = 25.47886 31.44015 28.45950
#
# Velocity S-wave (km/s) = 3.71772 4.12980 3.92917
# Velocity P-wave (km/s) = 7.66472 8.78972 8.24643
#
# Compressibility (1/GPa) = 0.01345425
#
# Stress axis : x y z
#
# Youngs Moduli (GPa) = 68.74025 55.73518 32.84174
#
# Poissons Ratio (x) = 0.42993 0.22190
# Poissons Ratio (y) = 0.53025 0.33734
# Poissons Ratio (z) = 0.46445 0.57250
#
# Static dielectric constant tensor:
#      x y z
#    x 3.558830 0.000000 0.000000 
#    y 0.000000 3.501840 0.000000 
#    z 0.000000 0.000000 3.433330 
# 
# 
# High freq. dielectric constant tensor:
#      x y z
#    x 1.726840 0.000000 0.000000 
#    y 0.000000 1.727910 0.000000 
#    z 0.000000 0.000000 1.718210 
# 
# From -- ./inp_files/1968.got.cif
#   From: 2010.03.12/outbox.cif.g09.slc.cpg/sg57_1_cif.got.tgz:1968.got - 2010.04.16 15:48:40.
