data_PCOD8234412
_publ_section_title
;
Structure prediction by ZEFSAII (Michael W. Deem and Ramdas Pophale) SiO2 
 PCOD8234412
Probable space group: P B C M
;
_chemical_formula_sum "Si O2"
_cell_formula_units_Z 56
_cell_length_a 5.607068
_cell_length_b 14.779696
_cell_length_c 31.821104
_cell_angle_alpha 90.000000
_cell_angle_beta 90.000000
_cell_angle_gamma 90.000000
_cell_volume 2637.039088
_symmetry_space_group_name_H-M "P B C M"
_symmetry_group_IT_number 57
_symmetry_cell_setting 'orthorhombic'
loop_
_space_group_symop_operation_xyz
x,y,z
-x,-y,1/2+z
x,1/2-y,-z
-x,1/2+y,1/2-z
-x,-y,-z
x,y,1/2-z
-x,1/2+y,z
x,1/2-y,1/2+z
loop_
_atom_site_type_symbol
_atom_site_label
_atom_site_fract_x
_atom_site_fract_y
_atom_site_fract_z
Si Si1 0.085717 0.146504 0.509070
Si Si2 0.796177 0.937344 0.922414
Si Si3 0.411347 0.608798 0.944256
Si Si4 0.778555 0.491949 0.299047
Si Si5 0.835980 0.002516 0.359879
Si Si6 0.529156 0.153241 0.854814
Si Si7 0.457104 0.356006 0.649541
O O1 0.057760 0.250000 0.500000
O O2 0.085948 0.096475 0.464689
O O3 0.341142 0.131993 0.532206
O O4 0.838042 0.115849 0.530300
O O5 0.721967 0.856770 0.890646
O O6 0.975355 0.003620 0.897529
O O7 0.567228 0.002262 0.931706
O O8 0.373374 0.669324 0.902246
O O9 0.757308 0.474654 0.250000
O O10 0.699615 0.400831 0.323322
O O11 0.629286 0.580930 0.311935
O O12 0.048676 0.509100 0.313282
O O13 0.698079 0.096930 0.366362
O O14 0.704307 0.907028 0.361357
O O15 0.483594 0.252694 0.835090
#
# Coordination Sequence:
#
# PCOD8234412 Si02
#       7
#     8   8   8   8   8   8   8
#     4  12  28  41  64 101 139 186 245 295 344 406
#     4  11  23  41  63  94 133 183 230 287 345 413
#     4  12  24  43  66  96 139 188 235 291 349 415
#     4  10  23  44  67 100 135 171 225 284 355 426
#     4  10  21  42  66  94 134 177 222 281 355 414
#     4  11  23  42  69  99 133 180 227 282 351 415
#     4  10  23  41  70  96 136 175 233 277 351 422
#
# _framework density 21.235938000000001
#
# number of rings (size 3 to 8) (size 9 to 14) (size 15 to 20)
#    0.000    1.143    4.286    3.000    4.000    5.143 
#    0.000    1.429    0.000    0.000    0.000    0.000 
#    0.000    0.000    0.000    0.000    0.000    0.000 
#
# Total GULP energy -693831.487981 kJ/mol
# GULP energy per Si atom -12389.848000 kJ/mol
# Density = 2.118760 g / cm^3
# Si number density = 21.235938 Si / 1000 Ang^3
#
#
#
# Elastic Constant Matrix: (Units=GPa)
#
#
# Indices 1 2 3 4 5 6 
#
# 1 102.7746 28.1359 48.4054 0.0000 0.0000 0.0000
# 2 28.1359 145.3330 25.5115 0.0000 0.0000 0.0000
# 3 48.4054 25.5115 152.4380 0.0000 0.0000 0.0000
# 4 0.0000 0.0000 0.0000 18.6265 0.0000 0.0000
# 5 0.0000 0.0000 0.0000 0.0000 17.5488 0.0000
# 6 0.0000 0.0000 0.0000 0.0000 0.0000 16.7819
#
#
#
# Elastic Compliance Matrix: (Units=1/GPa)
#
#
# Indices 1 2 3 4 5 6 
#
# 1 0.011826 -0.001680 -0.003474 0.000000 0.000000 0.000000
# 2 -0.001680 0.007328 -0.000693 0.000000 0.000000 0.000000
# 3 -0.003474 -0.000693 0.007779 0.000000 0.000000 0.000000
# 4 0.000000 0.000000 0.000000 0.053687 0.000000 0.000000
# 5 0.000000 0.000000 0.000000 0.000000 0.056984 0.000000
# 6 0.000000 0.000000 0.000000 0.000000 0.000000 0.059588
#
#
# Mechanical properties :
#
#
# Convention : Reuss Voigt Hill
#
# Bulk Modulus (GPa) = 65.61965 67.18347 66.40156
# Shear Modulus (GPa) = 23.36830 30.49097 26.92963
#
# Velocity S-wave (km/s) = 3.32085 3.79333 3.56493
# Velocity P-wave (km/s) = 6.75806 7.13381 6.94847
#
# Compressibility (1/GPa) = 0.01523934
#
# Stress axis : x y z
#
# Youngs Moduli (GPa) = 84.55834 136.47109 128.54766
#
# Poissons Ratio (x) = 0.22922 0.44660
# Poissons Ratio (y) = 0.14203 0.08908
# Poissons Ratio (z) = 0.29377 0.09457
#
# Static dielectric constant tensor:
#      x y z
#    x 4.062390 0.000000 0.000000 
#    y 0.000000 4.466040 0.000000 
#    z 0.000000 0.000000 5.576930 
# 
# 
# High freq. dielectric constant tensor:
#      x y z
#    x 1.840330 0.000000 0.000000 
#    y 0.000000 1.830380 0.000000 
#    z 0.000000 0.000000 1.827500 
# 
# From -- ./inp_files/29172.got.cif
#   From: 2010.03.12/outbox.cif.g09.slc.cpg/sg57_15_cif.got.tgz:29172.got - 2010.04.16 15:48:40.
