data_PCOD8234294
_publ_section_title
;
Structure prediction by ZEFSAII (Michael W. Deem and Ramdas Pophale) SiO2 
 PCOD8234294
Probable space group: P B C M
;
_chemical_formula_sum "Si O2"
_cell_formula_units_Z 64
_cell_length_a 11.998538
_cell_length_b 31.078623
_cell_length_c 8.546549
_cell_angle_alpha 90.000000
_cell_angle_beta 90.000000
_cell_angle_gamma 90.000000
_cell_volume 3186.991363
_symmetry_space_group_name_H-M "P B C M"
_symmetry_group_IT_number 57
_symmetry_cell_setting 'orthorhombic'
loop_
_space_group_symop_operation_xyz
x,y,z
-x,-y,1/2+z
x,1/2-y,-z
-x,1/2+y,1/2-z
-x,-y,-z
x,y,1/2-z
-x,1/2+y,z
x,1/2-y,1/2+z
loop_
_atom_site_type_symbol
_atom_site_label
_atom_site_fract_x
_atom_site_fract_y
_atom_site_fract_z
Si Si1 0.021544 0.203850 0.565752
Si Si2 0.010309 0.047951 0.434752
Si Si3 0.130212 0.874906 0.435502
Si Si4 0.363077 0.889685 0.932325
Si Si5 0.405417 0.133847 0.929868
Si Si6 0.739395 0.705540 0.068510
Si Si7 0.609407 0.020405 0.928281
Si Si8 0.259417 0.063324 0.426565
O O1 0.981807 0.250000 0.500000
O O2 0.017218 0.206866 0.750000
O O3 0.145997 0.192043 0.513859
O O4 0.943356 0.165296 0.505151
O O5 0.992328 0.046371 0.250000
O O6 0.919759 0.079533 0.510096
O O7 0.131274 0.067546 0.478323
O O8 0.000000 0.000000 0.500000
O O9 0.142069 0.876091 0.250000
O O10 0.250395 0.866815 0.512138
O O11 0.383421 0.881745 0.750000
O O12 0.465438 0.870147 0.028590
O O13 0.352406 0.940177 0.965867
O O14 0.392670 0.147184 0.750000
O O15 0.353383 0.169983 0.039937
O O16 0.340328 0.089260 0.958330
O O17 0.764294 0.711118 0.250000
O O18 0.692985 0.750000 0.000000
O O19 0.586135 0.035503 0.750000
O O20 0.710073 0.986787 0.934021
O O21 0.500000 0.000000 0.000000
O O22 0.276737 0.080959 0.250000
#
# Coordination Sequence:
#
# PCOD8234294 Si02
#       8
#     8   8   8   8   8   8   8   8
#     4  10  21  39  66  97 127 159 200 250 305 367
#     4  11  23  39  60  87 121 162 205 253 307 365
#     4  11  24  42  62  88 123 163 208 257 311 372
#     4  12  25  41  61  86 119 160 207 254 305 363
#     4  12  24  39  61  88 119 154 197 245 298 355
#     4  11  22  39  64  93 126 157 193 240 296 359
#     4  11  21  36  58  85 119 158 202 250 299 356
#     4  10  22  38  58  85 118 154 198 247 298 354
#
# _framework density 20.081636
#
# number of rings (size 3 to 8) (size 9 to 14) (size 15 to 20)
#    0.000    1.000    1.250    7.125    0.000    6.500 
#    0.000    0.625    0.000    1.500    0.000    0.000 
#    0.000    0.000    0.000    0.000    0.000    0.000 
#
# Total GULP energy -793958.462640 kJ/mol
# GULP energy per Si atom -12405.600979 kJ/mol
# Density = 2.003593 g / cm^3
# Si number density = 20.081636 Si / 1000 Ang^3
#
#
#
# Elastic Constant Matrix: (Units=GPa)
#
#
# Indices 1 2 3 4 5 6 
#
# 1 105.9679 43.2640 17.6142 0.0000 0.0000 0.0000
# 2 43.2640 109.9105 21.0688 0.0000 0.0000 0.0000
# 3 17.6142 21.0688 79.7944 0.0000 0.0000 0.0000
# 4 0.0000 0.0000 0.0000 34.1173 0.0000 0.0000
# 5 0.0000 0.0000 0.0000 0.0000 30.4007 0.0000
# 6 0.0000 0.0000 0.0000 0.0000 0.0000 34.0572
#
#
#
# Elastic Compliance Matrix: (Units=1/GPa)
#
#
# Indices 1 2 3 4 5 6 
#
# 1 0.011391 -0.004215 -0.001401 0.000000 0.000000 0.000000
# 2 -0.004215 0.011143 -0.002012 0.000000 0.000000 0.000000
# 3 -0.001401 -0.002012 0.013373 0.000000 0.000000 0.000000
# 4 0.000000 0.000000 0.000000 0.029311 0.000000 0.000000
# 5 0.000000 0.000000 0.000000 0.000000 0.032894 0.000000
# 6 0.000000 0.000000 0.000000 0.000000 0.000000 0.029362
#
#
# Mechanical properties :
#
#
# Convention : Reuss Voigt Hill
#
# Bulk Modulus (GPa) = 48.42629 51.06296 49.74462
# Shear Modulus (GPa) = 33.41945 33.96343 33.69144
#
# Velocity S-wave (km/s) = 4.08386 4.11696 4.10045
# Velocity P-wave (km/s) = 6.81207 6.93412 6.87337
#
# Compressibility (1/GPa) = 0.02064994
#
# Stress axis : x y z
#
# Youngs Moduli (GPa) = 87.79115 89.74153 74.77890
#
# Poissons Ratio (x) = 0.37826 0.10480
# Poissons Ratio (y) = 0.37004 0.15044
# Poissons Ratio (z) = 0.12304 0.18054
#
# Static dielectric constant tensor:
#      x y z
#    x 3.611410 0.000000 0.000000 
#    y 0.000000 3.696110 0.000000 
#    z 0.000000 0.000000 3.674500 
# 
# 
# High freq. dielectric constant tensor:
#      x y z
#    x 1.788570 0.000000 0.000000 
#    y 0.000000 1.780550 0.000000 
#    z 0.000000 0.000000 1.796880 
# 
# From -- ./inp_files/3890.got.cif
#   From: 2010.03.12/outbox.cif.g09.slc.cpg/sg57_2_cif.got.tgz:3890.got - 2010.04.16 15:48:40.
