data_PCOD8234125
_publ_section_title
;
Structure prediction by ZEFSAII (Michael W. Deem and Ramdas Pophale) SiO2 
 PCOD8234125
Probable space group: P B C M
;
_chemical_formula_sum "Si O2"
_cell_formula_units_Z 48
_cell_length_a 14.724777
_cell_length_b 8.975676
_cell_length_c 17.787597
_cell_angle_alpha 90.000000
_cell_angle_beta 90.000000
_cell_angle_gamma 90.000000
_cell_volume 2350.894690
_symmetry_space_group_name_H-M "P B C M"
_symmetry_group_IT_number 57
_symmetry_cell_setting 'orthorhombic'
loop_
_space_group_symop_operation_xyz
x,y,z
-x,-y,1/2+z
x,1/2-y,-z
-x,1/2+y,1/2-z
-x,-y,-z
x,y,1/2-z
-x,1/2+y,z
x,1/2-y,1/2+z
loop_
_atom_site_type_symbol
_atom_site_label
_atom_site_fract_x
_atom_site_fract_y
_atom_site_fract_z
Si Si1 0.295452 0.387609 0.165561
Si Si2 0.591073 0.917936 0.023044
Si Si3 0.125216 0.967185 0.604611
Si Si4 0.977114 0.749150 0.410696
Si Si5 0.239388 0.584217 0.969393
Si Si6 0.185994 0.088478 0.337297
O O1 0.333206 0.398002 0.250000
O O2 0.379910 0.427730 0.111256
O O3 0.212422 0.507385 0.157962
O O4 0.257219 0.222915 0.147652
O O5 0.577517 0.750000 0.000000
O O6 0.500000 0.000000 0.000000
O O7 0.668971 0.992625 0.975031
O O8 0.160139 0.991074 0.519115
O O9 0.079920 0.802584 0.612241
O O10 0.044878 0.086153 0.620242
O O11 0.966721 0.750000 0.500000
O O12 0.910383 0.635270 0.370024
O O13 0.214323 0.562993 0.881599
O O14 0.255247 0.750000 0.000000
O O15 0.179009 0.048474 0.250000
#
# Coordination Sequence:
#
# PCOD8234125 Si02
#       6
#     8   8   8   8   8   8
#     4   9  20  41  64  90 129 173 212 265 332 383
#     4  11  22  41  69 100 126 160 211 263 317 399
#     4  10  22  33  60  86 123 170 222 269 318 375
#     4  11  20  34  56  88 121 164 223 275 313 376
#     4  11  22  39  62  92 126 167 216 268 321 389
#     4  10  21  38  61  88 123 171 218 268 330 379
#
# _framework density 20.417757999999999
#
# number of rings (size 3 to 8) (size 9 to 14) (size 15 to 20)
#    0.000    1.667    3.333    1.500    2.333    0.667 
#    0.000    5.000    0.000    0.000    0.000    0.000 
#    0.000    0.000    0.000    0.000    0.000    0.000 
#
# Total GULP energy -594771.830659 kJ/mol
# GULP energy per Si atom -12391.079805 kJ/mol
# Density = 2.037129 g / cm^3
# Si number density = 20.417758 Si / 1000 Ang^3
#
#
#
# Elastic Constant Matrix: (Units=GPa)
#
#
# Indices 1 2 3 4 5 6 
#
# 1 122.7278 56.8245 50.9679 0.0000 0.0000 0.0000
# 2 56.8245 109.4946 42.4664 0.0000 0.0000 0.0000
# 3 50.9679 42.4664 136.2611 0.0000 0.0000 0.0000
# 4 0.0000 0.0000 0.0000 26.0547 0.0000 0.0000
# 5 0.0000 0.0000 0.0000 0.0000 16.0212 0.0000
# 6 0.0000 0.0000 0.0000 0.0000 0.0000 36.2452
#
#
#
# Elastic Compliance Matrix: (Units=1/GPa)
#
#
# Indices 1 2 3 4 5 6 
#
# 1 0.011594 -0.004931 -0.002800 0.000000 0.000000 0.000000
# 2 -0.004931 0.012486 -0.002047 0.000000 0.000000 0.000000
# 3 -0.002800 -0.002047 0.009024 0.000000 0.000000 0.000000
# 4 0.000000 0.000000 0.000000 0.038381 0.000000 0.000000
# 5 0.000000 0.000000 0.000000 0.000000 0.062417 0.000000
# 6 0.000000 0.000000 0.000000 0.000000 0.000000 0.027590
#
#
# Mechanical properties :
#
#
# Convention : Reuss Voigt Hill
#
# Bulk Modulus (GPa) = 73.80994 74.33344 74.07169
# Shear Modulus (GPa) = 26.94500 30.21256 28.57878
#
# Velocity S-wave (km/s) = 3.63669 3.85089 3.74532
# Velocity P-wave (km/s) = 7.33910 7.50052 7.42025
#
# Compressibility (1/GPa) = 0.01354831
#
# Stress axis : x y z
#
# Youngs Moduli (GPa) = 86.25133 80.09118 110.81507
#
# Poissons Ratio (x) = 0.39493 0.31027
# Poissons Ratio (y) = 0.42531 0.22682
# Poissons Ratio (z) = 0.24150 0.16393
#
# Static dielectric constant tensor:
#      x y z
#    x 3.588610 0.000000 0.000000 
#    y 0.000000 3.703250 0.000000 
#    z 0.000000 0.000000 3.689760 
# 
# 
# High freq. dielectric constant tensor:
#      x y z
#    x 1.783680 0.000000 0.000000 
#    y 0.000000 1.798190 0.000000 
#    z 0.000000 0.000000 1.783780 
# 
# From -- ./inp_files/22451.got.cif
#   From: 2010.03.12/outbox.cif.g09.slc.cpg/sg57_12_cif.got.tgz:22451.got - 2010.04.16 15:48:40.
