data_PCOD8234048
_publ_section_title
;
Structure prediction by ZEFSAII (Michael W. Deem and Ramdas Pophale) SiO2 
 PCOD8234048
Probable space group: P B C M
;
_chemical_formula_sum "Si O2"
_cell_formula_units_Z 44
_cell_length_a 22.335585
_cell_length_b 5.160493
_cell_length_c 18.735842
_cell_angle_alpha 90.000000
_cell_angle_beta 90.000000
_cell_angle_gamma 90.000000
_cell_volume 2159.542425
_symmetry_space_group_name_H-M "P B C M"
_symmetry_group_IT_number 57
_symmetry_cell_setting 'orthorhombic'
loop_
_space_group_symop_operation_xyz
x,y,z
-x,-y,1/2+z
x,1/2-y,-z
-x,1/2+y,1/2-z
-x,-y,-z
x,y,1/2-z
-x,1/2+y,z
x,1/2-y,1/2+z
loop_
_atom_site_type_symbol
_atom_site_label
_atom_site_fract_x
_atom_site_fract_y
_atom_site_fract_z
Si Si1 0.964738 0.955558 0.250000
Si Si2 0.168403 0.502442 0.042665
Si Si3 0.465028 0.502761 0.835219
Si Si4 0.668902 0.502542 0.165881
Si Si5 0.742700 0.002718 0.165676
Si Si6 0.040153 0.953145 0.904322
O O1 0.931948 0.028662 0.323826
O O2 0.023060 0.146867 0.250000
O O3 0.195299 0.497910 0.122387
O O4 0.096321 0.514196 0.044243
O O5 0.189198 0.250000 0.000000
O O6 0.193073 0.750000 0.000000
O O7 0.463303 0.502323 0.750000
O O8 0.500408 0.253787 0.864161
O O9 0.397795 0.501053 0.867166
O O10 0.662361 0.500131 0.250000
O O11 0.705525 0.252478 0.141114
O O12 0.703489 0.758324 0.141432
O O13 0.758000 0.001212 0.250000
O O14 0.008988 0.676280 0.918355
#
# Coordination Sequence:
#
# PCOD8234048 Si02
#       6
#     4   8   8   8   8   8
#     4   8  16  32  54  82 108 136 174 216 256 322
#     4  12  26  41  59  86 116 145 186 239 283 339
#     4   9  15  23  40  71 112 149 176 217 279 335
#     4   9  17  31  51  78 110 149 193 229 273 333
#     4  10  21  38  59  79 109 153 194 234 276 329
#     4  10  21  38  60  84 112 144 179 224 283 341
#
# _framework density 20.374687999999999
#
# number of rings (size 3 to 8) (size 9 to 14) (size 15 to 20)
#    0.000    2.182    0.000    3.273    1.273    6.545 
#    0.000    0.000    0.000    0.000    0.000    0.000 
#    0.000   50.909    0.000    0.000    0.000    0.000 
#
# Total GULP energy -545445.882091 kJ/mol
# GULP energy per Si atom -12396.497320 kJ/mol
# Density = 2.032831 g / cm^3
# Si number density = 20.374688 Si / 1000 Ang^3
#
#
#
# Elastic Constant Matrix: (Units=GPa)
#
#
# Indices 1 2 3 4 5 6 
#
# 1 120.5668 59.0064 34.2107 0.0000 0.0000 0.0000
# 2 59.0064 185.9907 27.1582 0.0000 0.0000 0.0000
# 3 34.2107 27.1582 52.2790 0.0000 0.0000 0.0000
# 4 0.0000 0.0000 0.0000 11.5336 0.0000 0.0000
# 5 0.0000 0.0000 0.0000 0.0000 13.8346 0.0000
# 6 0.0000 0.0000 0.0000 0.0000 0.0000 27.6291
#
#
#
# Elastic Compliance Matrix: (Units=1/GPa)
#
#
# Indices 1 2 3 4 5 6 
#
# 1 0.011327 -0.002717 -0.006000 0.000000 0.000000 0.000000
# 2 -0.002717 0.006470 -0.001583 0.000000 0.000000 0.000000
# 3 -0.006000 -0.001583 0.023877 0.000000 0.000000 0.000000
# 4 0.000000 0.000000 0.000000 0.086703 0.000000 0.000000
# 5 0.000000 0.000000 0.000000 0.000000 0.072282 0.000000
# 6 0.000000 0.000000 0.000000 0.000000 0.000000 0.036194
#
#
# Mechanical properties :
#
#
# Convention : Reuss Voigt Hill
#
# Bulk Modulus (GPa) = 47.45544 66.62079 57.03812
# Shear Modulus (GPa) = 18.90518 26.49689 22.70104
#
# Velocity S-wave (km/s) = 3.04941 3.61013 3.34155
# Velocity P-wave (km/s) = 5.97833 7.08140 6.55312
#
# Compressibility (1/GPa) = 0.02107240
#
# Stress axis : x y z
#
# Youngs Moduli (GPa) = 88.28769 154.56438 41.88136
#
# Poissons Ratio (x) = 0.41999 0.25131
# Poissons Ratio (y) = 0.23990 0.06629
# Poissons Ratio (z) = 0.52976 0.24465
#
# Static dielectric constant tensor:
#      x y z
#    x 3.544720 0.000000 0.000000 
#    y 0.000000 3.916340 0.000000 
#    z 0.000000 0.000000 3.422500 
# 
# 
# High freq. dielectric constant tensor:
#      x y z
#    x 1.783140 0.000000 0.000000 
#    y 0.000000 1.817490 0.000000 
#    z 0.000000 0.000000 1.758970 
# 
# From -- ./inp_files/25670.got.cif
#   From: 2010.03.12/outbox.cif.g09.slc.cpg/sg57_13_cif.got.tgz:25670.got - 2010.04.16 15:48:40.
