data_PCOD8234303
_publ_section_title
;
Structure prediction by ZEFSAII (Michael W. Deem and Ramdas Pophale) SiO2 
 PCOD8234303
Probable space group: P B C M
;
_chemical_formula_sum "Si O2"
_cell_formula_units_Z 64
_cell_length_a 19.498879
_cell_length_b 9.174092
_cell_length_c 18.136614
_cell_angle_alpha 90.000000
_cell_angle_beta 90.000000
_cell_angle_gamma 90.000000
_cell_volume 3244.359306
_symmetry_space_group_name_H-M "P B C M"
_symmetry_group_IT_number 57
_symmetry_cell_setting 'orthorhombic'
loop_
_space_group_symop_operation_xyz
x,y,z
-x,-y,1/2+z
x,1/2-y,-z
-x,1/2+y,1/2-z
-x,-y,-z
x,y,1/2-z
-x,1/2+y,z
x,1/2-y,1/2+z
loop_
_atom_site_type_symbol
_atom_site_label
_atom_site_fract_x
_atom_site_fract_y
_atom_site_fract_z
Si Si1 0.549730 0.049676 0.334619
Si Si2 0.073778 0.442615 0.163697
Si Si3 0.305438 0.125201 0.447002
Si Si4 0.174598 0.939769 0.078781
Si Si5 0.415877 0.280744 0.665963
Si Si6 0.812141 0.110711 0.087535
Si Si7 0.058619 0.384831 0.837915
Si Si8 0.339701 0.608787 0.050139
O O1 0.567464 0.091712 0.250000
O O2 0.473534 0.101416 0.355186
O O3 0.602714 0.132392 0.388179
O O4 0.552251 0.877846 0.347986
O O5 0.069276 0.428693 0.250000
O O6 0.147893 0.506221 0.143367
O O7 0.063114 0.280169 0.131646
O O8 0.014245 0.550725 0.135603
O O9 0.273671 0.250000 0.500000
O O10 0.348386 0.198759 0.382135
O O11 0.245517 0.027876 0.411712
O O12 0.357150 0.025279 0.495641
O O13 0.180850 0.778328 0.112957
O O14 0.116828 0.022504 0.123109
O O15 0.156138 0.921888 0.992891
O O16 0.392422 0.299676 0.750000
O O17 0.731999 0.070005 0.089962
O O18 0.068345 0.395795 0.750000
O O19 0.329386 0.750000 0.000000
#
# Coordination Sequence:
#
# PCOD8234303 Si02
#       8
#     8   8   8   8   8   8   8   8
#     4  10  23  41  61  86 119 157 197 245 298 352
#     4  10  22  39  61  87 118 155 196 242 290 347
#     4  11  22  39  61  89 120 156 195 245 298 347
#     4  10  22  38  60  86 118 154 192 241 290 349
#     4  10  23  41  60  87 120 155 198 245 295 354
#     4  10  21  40  59  85 119 153 196 239 289 347
#     4  10  22  39  60  88 118 154 198 242 292 348
#     4  11  22  41  61  88 121 156 200 244 290 356
#
# _framework density 19.726545999999999
#
# number of rings (size 3 to 8) (size 9 to 14) (size 15 to 20)
#    0.000    1.750    3.750    0.750    5.250    4.000 
#    0.000    2.500    0.000    0.000    0.000    0.000 
#    0.000    0.000    0.000    0.000    0.000    0.000 
#
# Total GULP energy -793674.778424 kJ/mol
# GULP energy per Si atom -12401.168413 kJ/mol
# Density = 1.968165 g / cm^3
# Si number density = 19.726546 Si / 1000 Ang^3
#
#
#
# Elastic Constant Matrix: (Units=GPa)
#
#
# Indices 1 2 3 4 5 6 
#
# 1 97.0110 48.2255 45.7014 0.0000 0.0000 0.0000
# 2 48.2255 121.2753 29.5421 0.0000 0.0000 0.0000
# 3 45.7014 29.5421 41.9000 0.0000 0.0000 0.0000
# 4 0.0000 0.0000 0.0000 33.5496 0.0000 0.0000
# 5 0.0000 0.0000 0.0000 0.0000 35.7740 0.0000
# 6 0.0000 0.0000 0.0000 0.0000 0.0000 36.4391
#
#
#
# Elastic Compliance Matrix: (Units=1/GPa)
#
#
# Indices 1 2 3 4 5 6 
#
# 1 0.022415 -0.003571 -0.021930 0.000000 0.000000 0.000000
# 2 -0.003571 0.010525 -0.003525 0.000000 0.000000 0.000000
# 3 -0.021930 -0.003525 0.050272 0.000000 0.000000 0.000000
# 4 0.000000 0.000000 0.000000 0.029807 0.000000 0.000000
# 5 0.000000 0.000000 0.000000 0.000000 0.027953 0.000000
# 6 0.000000 0.000000 0.000000 0.000000 0.000000 0.027443
#
#
# Mechanical properties :
#
#
# Convention : Reuss Voigt Hill
#
# Bulk Modulus (GPa) = 39.74963 56.34713 48.04838
# Shear Modulus (GPa) = 21.28990 30.26704 25.77847
#
# Velocity S-wave (km/s) = 3.28876 3.92130 3.61888
# Velocity P-wave (km/s) = 5.88348 7.00916 6.47084
#
# Compressibility (1/GPa) = 0.02515747
#
# Stress axis : x y z
#
# Youngs Moduli (GPa) = 44.61375 95.01618 19.89186
#
# Poissons Ratio (x) = 0.33932 0.43623
# Poissons Ratio (y) = 0.15932 0.07012
# Poissons Ratio (z) = 0.97839 0.33496
#
# Static dielectric constant tensor:
#      x y z
#    x 3.492910 0.000000 0.000000 
#    y 0.000000 3.889600 0.000000 
#    z 0.000000 0.000000 3.483700 
# 
# 
# High freq. dielectric constant tensor:
#      x y z
#    x 1.762220 0.000000 0.000000 
#    y 0.000000 1.789450 0.000000 
#    z 0.000000 0.000000 1.756060 
# 
# From -- ./inp_files/23076.got.cif
#   From: 2010.03.12/outbox.cif.g09.slc.cpg/sg57_12_cif.got.tgz:23076.got - 2010.04.16 15:48:40.
