data_PCOD8234666
_publ_section_title
;
Structure prediction by ZEFSAII (Michael W. Deem and Ramdas Pophale) SiO2 
 PCOD8234666
Probable space group: P B C M
;
_chemical_formula_sum "Si O2"
_cell_formula_units_Z 32
_cell_length_a 14.268089
_cell_length_b 10.361993
_cell_length_c 9.500095
_cell_angle_alpha 90.000000
_cell_angle_beta 90.000000
_cell_angle_gamma 90.000000
_cell_volume 1404.549510
_symmetry_space_group_name_H-M "P B C M"
_symmetry_group_IT_number 57
_symmetry_cell_setting 'orthorhombic'
loop_
_space_group_symop_operation_xyz
x,y,z
-x,-y,1/2+z
x,1/2-y,-z
-x,1/2+y,1/2-z
-x,-y,-z
x,y,1/2-z
-x,1/2+y,z
x,1/2-y,1/2+z
loop_
_atom_site_type_symbol
_atom_site_label
_atom_site_fract_x
_atom_site_fract_y
_atom_site_fract_z
Si Si1 0.703525 0.885708 0.750000
Si Si2 0.044952 0.877392 0.922466
Si Si3 0.333019 0.085533 0.750000
Si Si4 0.602676 0.250000 0.000000
Si Si5 0.247104 0.949705 0.010215
Si Si6 0.508930 0.402170 0.750000
O O1 0.686758 0.734966 0.750000
O O2 0.598792 0.942851 0.750000
O O3 0.767135 0.935637 0.621871
O O4 0.030630 0.876313 0.750000
O O5 0.001865 0.750000 0.000000
O O6 0.153700 0.876675 0.964565
O O7 0.000000 0.000000 0.000000
O O8 0.285040 0.022089 0.621086
O O9 0.442274 0.043847 0.750000
O O10 0.674448 0.351874 0.071718
O O11 0.535688 0.181480 0.112958
#
# Coordination Sequence:
#
# PCOD8234666 Si02
#       6
#     4   8   4   4   8   4
#     4  12  27  38  68 105 144 198 246 311 371 452
#     4  12  28  52  84 118 156 199 257 322 394 476
#     4  10  24  44  61  98 142 187 241 314 367 443
#     4  10  22  42  72  96 134 188 246 302 358 446
#     4  11  24  45  73 101 142 195 243 304 378 451
#     4  10  25  40  65  99 142 187 253 309 376 425
#
# _framework density 22.783107000000001
#
# number of rings (size 3 to 8) (size 9 to 14) (size 15 to 20)
#    0.000    1.000    2.500    2.250   10.500    4.000 
#    0.000    0.000    0.000    0.000    0.000    0.000 
#    0.000    0.000    0.000    0.000    0.000    0.000 
#
# Total GULP energy -396438.353939 kJ/mol
# GULP energy per Si atom -12388.698561 kJ/mol
# Density = 2.273125 g / cm^3
# Si number density = 22.783107 Si / 1000 Ang^3
#
#
#
# Elastic Constant Matrix: (Units=GPa)
#
#
# Indices 1 2 3 4 5 6 
#
# 1 36.9134 8.1049 33.2212 0.0000 0.0000 0.0000
# 2 8.1049 144.9991 40.8713 0.0000 0.0000 0.0000
# 3 33.2212 40.8713 100.0342 0.0000 0.0000 0.0000
# 4 0.0000 0.0000 0.0000 44.9773 0.0000 0.0000
# 5 0.0000 0.0000 0.0000 0.0000 33.2987 0.0000
# 6 0.0000 0.0000 0.0000 0.0000 0.0000 22.7042
#
#
#
# Elastic Compliance Matrix: (Units=1/GPa)
#
#
# Indices 1 2 3 4 5 6 
#
# 1 0.038990 0.001662 -0.013628 0.000000 0.000000 0.000000
# 2 0.001662 0.007865 -0.003765 0.000000 0.000000 0.000000
# 3 -0.013628 -0.003765 0.016061 0.000000 0.000000 0.000000
# 4 0.000000 0.000000 0.000000 0.022233 0.000000 0.000000
# 5 0.000000 0.000000 0.000000 0.000000 0.030031 0.000000
# 6 0.000000 0.000000 0.000000 0.000000 0.000000 0.044045
#
#
# Mechanical properties :
#
#
# Convention : Reuss Voigt Hill
#
# Bulk Modulus (GPa) = 31.79274 49.59347 40.69310
# Shear Modulus (GPa) = 24.85438 33.51266 29.18352
#
# Velocity S-wave (km/s) = 3.30648 3.83945 3.58289
# Velocity P-wave (km/s) = 5.34433 6.43973 5.91743
#
# Compressibility (1/GPa) = 0.03145373
#
# Stress axis : x y z
#
# Youngs Moduli (GPa) = 25.64758 127.14472 62.26387
#
# Poissons Ratio (x) = -0.21129 0.84850
# Poissons Ratio (y) = -0.04262 0.23444
# Poissons Ratio (z) = 0.34951 0.47874
#
# Static dielectric constant tensor:
#      x y z
#    x 4.383640 0.000000 0.000000 
#    y 0.000000 6.623150 0.000000 
#    z 0.000000 0.000000 4.333980 
# 
# 
# High freq. dielectric constant tensor:
#      x y z
#    x 1.889730 0.000000 0.000000 
#    y 0.000000 1.919000 0.000000 
#    z 0.000000 0.000000 1.910780 
# 
# From -- ./inp_files/4149.got.cif
#   From: 2010.03.12/outbox.cif.g09.slc.cpg/sg57_3_cif.got.tgz:4149.got - 2010.04.16 15:48:40.
