data_PCOD8234941
_publ_section_title
;
Structure prediction by ZEFSAII (Michael W. Deem and Ramdas Pophale) SiO2 
 PCOD8234941
Probable space group: P B C M
;
_chemical_formula_sum "Si O2"
_cell_formula_units_Z 48
_cell_length_a 11.770043
_cell_length_b 8.754583
_cell_length_c 23.583277
_cell_angle_alpha 90.000000
_cell_angle_beta 90.000000
_cell_angle_gamma 90.000000
_cell_volume 2430.063745
_symmetry_space_group_name_H-M "P B C M"
_symmetry_group_IT_number 57
_symmetry_cell_setting 'orthorhombic'
loop_
_space_group_symop_operation_xyz
x,y,z
-x,-y,1/2+z
x,1/2-y,-z
-x,1/2+y,1/2-z
-x,-y,-z
x,y,1/2-z
-x,1/2+y,z
x,1/2-y,1/2+z
loop_
_atom_site_type_symbol
_atom_site_label
_atom_site_fract_x
_atom_site_fract_y
_atom_site_fract_z
Si Si1 0.121102 0.969938 0.473556
Si Si2 0.490566 0.127039 0.454766
Si Si3 0.901293 0.261307 0.366565
Si Si4 0.735250 0.695001 0.401427
Si Si5 0.268846 0.943108 0.918820
Si Si6 0.892327 0.580881 0.315080
O O1 0.097370 0.836689 0.428532
O O2 0.208006 0.911822 0.521271
O O3 0.173099 0.122590 0.444917
O O4 0.000000 0.000000 0.500000
O O5 0.456505 0.250000 0.500000
O O6 0.387362 0.115643 0.410231
O O7 0.607430 0.136614 0.419762
O O8 0.500000 0.000000 0.500000
O O9 0.795964 0.142222 0.367140
O O10 0.891295 0.396502 0.320445
O O11 0.010742 0.158261 0.353737
O O12 0.773489 0.650016 0.337722
O O13 0.726827 0.876661 0.407067
O O14 0.909659 0.626066 0.250000
#
# Coordination Sequence:
#
# PCOD8234941 Si02
#       6
#     8   8   8   8   8   8
#     4  11  21  35  55  89 131 161 195 238 301 374
#     4  12  22  38  61  93 129 172 200 237 296 373
#     4  11  24  37  61  90 116 160 201 249 311 367
#     4  11  23  39  60  89 122 167 208 247 304 366
#     4  12  23  37  59  92 131 164 198 244 304 377
#     4  11  24  44  65  86 117 157 211 269 313 357
#
# _framework density 19.752569000000001
#
# number of rings (size 3 to 8) (size 9 to 14) (size 15 to 20)
#    0.000    0.667    3.333    6.500    2.333    2.667 
#    0.000    0.833    0.000    5.000    0.000    0.000 
#    0.000    0.000    0.000    0.000    0.000    0.000 
#
# Total GULP energy -594790.366360 kJ/mol
# GULP energy per Si atom -12391.465966 kJ/mol
# Density = 1.970761 g / cm^3
# Si number density = 19.752569 Si / 1000 Ang^3
#
#
#
# Elastic Constant Matrix: (Units=GPa)
#
#
# Indices 1 2 3 4 5 6 
#
# 1 164.4874 37.7598 52.0913 0.0000 0.0000 0.0000
# 2 37.7598 82.4686 31.5766 0.0000 0.0000 0.0000
# 3 52.0913 31.5766 75.7070 0.0000 0.0000 0.0000
# 4 0.0000 0.0000 0.0000 23.0558 0.0000 0.0000
# 5 0.0000 0.0000 0.0000 0.0000 20.3139 0.0000
# 6 0.0000 0.0000 0.0000 0.0000 0.0000 30.8489
#
#
#
# Elastic Compliance Matrix: (Units=1/GPa)
#
#
# Indices 1 2 3 4 5 6 
#
# 1 0.008004 -0.001852 -0.004735 0.000000 0.000000 0.000000
# 2 -0.001852 0.014859 -0.004923 0.000000 0.000000 0.000000
# 3 -0.004735 -0.004923 0.018520 0.000000 0.000000 0.000000
# 4 0.000000 0.000000 0.000000 0.043373 0.000000 0.000000
# 5 0.000000 0.000000 0.000000 0.000000 0.049227 0.000000
# 6 0.000000 0.000000 0.000000 0.000000 0.000000 0.032416
#
#
# Mechanical properties :
#
#
# Convention : Reuss Voigt Hill
#
# Bulk Modulus (GPa) = 54.45738 62.83540 58.64639
# Shear Modulus (GPa) = 25.57013 28.25941 26.91477
#
# Velocity S-wave (km/s) = 3.60185 3.78652 3.69534
# Velocity P-wave (km/s) = 6.70279 7.14124 6.92549
#
# Compressibility (1/GPa) = 0.01836299
#
# Stress axis : x y z
#
# Youngs Moduli (GPa) = 124.93580 67.30016 53.99508
#
# Poissons Ratio (x) = 0.12463 0.25566
# Poissons Ratio (y) = 0.23136 0.26583
# Poissons Ratio (z) = 0.59157 0.33134
#
# Static dielectric constant tensor:
#      x y z
#    x 4.606890 0.000000 0.000000 
#    y 0.000000 4.067240 0.000000 
#    z 0.000000 0.000000 3.395550 
# 
# 
# High freq. dielectric constant tensor:
#      x y z
#    x 1.774850 0.000000 0.000000 
#    y 0.000000 1.795300 0.000000 
#    z 0.000000 0.000000 1.732860 
# 
# From -- ./inp_files/27122.got.cif
#   From: 2010.03.12/outbox.cif.g09.slc.cpg/sg57_14_cif.got.tgz:27122.got - 2010.04.16 15:48:40.
