data_PCOD8234395
_publ_section_title
;
Structure prediction by ZEFSAII (Michael W. Deem and Ramdas Pophale) SiO2 
 PCOD8234395
Probable space group: P B C M
;
_chemical_formula_sum "Si O2"
_cell_formula_units_Z 64
_cell_length_a 9.887300
_cell_length_b 21.830889
_cell_length_c 15.066210
_cell_angle_alpha 90.000000
_cell_angle_beta 90.000000
_cell_angle_gamma 90.000000
_cell_volume 3252.019565
_symmetry_space_group_name_H-M "P B C M"
_symmetry_group_IT_number 57
_symmetry_cell_setting 'orthorhombic'
loop_
_space_group_symop_operation_xyz
x,y,z
-x,-y,1/2+z
x,1/2-y,-z
-x,1/2+y,1/2-z
-x,-y,-z
x,y,1/2-z
-x,1/2+y,z
x,1/2-y,1/2+z
loop_
_atom_site_type_symbol
_atom_site_label
_atom_site_fract_x
_atom_site_fract_y
_atom_site_fract_z
Si Si1 0.379194 0.045991 0.510198
Si Si2 0.301520 0.255279 0.399717
Si Si3 0.006145 0.268160 0.354036
Si Si4 0.795604 0.127517 0.854052
Si Si5 0.034703 0.869887 0.647567
Si Si6 0.486375 0.361060 0.348768
Si Si7 0.274935 0.118259 0.151888
Si Si8 0.134173 0.538759 0.007277
O O1 0.407011 0.093980 0.587053
O O2 0.364036 0.081470 0.417676
O O3 0.500000 0.000000 0.500000
O O4 0.247789 0.008537 0.537500
O O5 0.351796 0.250000 0.500000
O O6 0.410042 0.296396 0.348571
O O7 0.302597 0.190340 0.351716
O O8 0.149924 0.284241 0.399521
O O9 0.033408 0.268864 0.250000
O O10 0.895041 0.317608 0.383240
O O11 0.953783 0.201001 0.382511
O O12 0.814156 0.111542 0.750000
O O13 0.642763 0.148021 0.876568
O O14 0.832077 0.067696 0.911198
O O15 0.081007 0.877892 0.750000
O O16 0.129677 0.909062 0.582882
O O17 0.882703 0.894157 0.633994
O O18 0.480659 0.388979 0.250000
O O19 0.315059 0.095070 0.250000
O O20 0.000000 0.500000 0.000000
#
# Coordination Sequence:
#
# PCOD8234395 Si02
#       8
#     8   8   8   8   8   8   8   8
#     4  12  25  44  61  92 125 163 220 258 301 369
#     4  11  21  37  67 100 126 155 205 263 315 370
#     4   9  20  39  64  95 124 155 203 255 313 382
#     4  10  24  44  65  91 126 169 206 251 319 380
#     4   9  20  40  64  93 124 157 200 257 316 370
#     4  11  24  45  66  90 130 170 207 260 316 374
#     4  10  21  41  67  91 124 167 205 250 313 379
#     4  12  25  40  64  90 122 161 214 262 303 364
#
# _framework density 19.680078000000002
#
# number of rings (size 3 to 8) (size 9 to 14) (size 15 to 20)
#    0.000    1.500    3.750    1.875    5.250    2.000 
#    4.500    0.000    0.000    0.000    0.000    0.000 
#    0.000    0.000    0.000    0.000    0.000    0.000 
#
# Total GULP energy -793821.357240 kJ/mol
# GULP energy per Si atom -12403.458707 kJ/mol
# Density = 1.963529 g / cm^3
# Si number density = 19.680078 Si / 1000 Ang^3
#
#
#
# Elastic Constant Matrix: (Units=GPa)
#
#
# Indices 1 2 3 4 5 6 
#
# 1 129.1171 63.7740 43.9803 0.0000 0.0000 0.0000
# 2 63.7740 90.9529 39.7384 0.0000 0.0000 0.0000
# 3 43.9803 39.7384 101.2188 0.0000 0.0000 0.0000
# 4 0.0000 0.0000 0.0000 14.9829 0.0000 0.0000
# 5 0.0000 0.0000 0.0000 0.0000 29.4280 0.0000
# 6 0.0000 0.0000 0.0000 0.0000 0.0000 39.9021
#
#
#
# Elastic Compliance Matrix: (Units=1/GPa)
#
#
# Indices 1 2 3 4 5 6 
#
# 1 0.012300 -0.007591 -0.002364 0.000000 0.000000 0.000000
# 2 -0.007591 0.017957 -0.003751 0.000000 0.000000 0.000000
# 3 -0.002364 -0.003751 0.012379 0.000000 0.000000 0.000000
# 4 0.000000 0.000000 0.000000 0.066743 0.000000 0.000000
# 5 0.000000 0.000000 0.000000 0.000000 0.033981 0.000000
# 6 0.000000 0.000000 0.000000 0.000000 0.000000 0.025061
#
#
# Mechanical properties :
#
#
# Convention : Reuss Voigt Hill
#
# Bulk Modulus (GPa) = 65.69173 68.47491 67.08332
# Shear Modulus (GPa) = 24.88697 28.44900 26.66798
#
# Velocity S-wave (km/s) = 3.55995 3.80619 3.68513
# Velocity P-wave (km/s) = 7.09577 7.36109 7.22965
#
# Compressibility (1/GPa) = 0.01522262
#
# Stress axis : x y z
#
# Youngs Moduli (GPa) = 81.30271 55.68986 80.77901
#
# Poissons Ratio (x) = 0.42277 0.19096
# Poissons Ratio (y) = 0.61720 0.30302
# Poissons Ratio (z) = 0.19219 0.20890
#
# Static dielectric constant tensor:
#      x y z
#    x 3.528350 0.000000 0.000000 
#    y 0.000000 3.517010 0.000000 
#    z 0.000000 0.000000 4.438220 
# 
# 
# High freq. dielectric constant tensor:
#      x y z
#    x 1.760870 0.000000 0.000000 
#    y 0.000000 1.769200 0.000000 
#    z 0.000000 0.000000 1.777170 
# 
# From -- ./inp_files/16946.got.cif
#   From: 2010.03.12/outbox.cif.g09.slc.cpg/sg57_9_cif.got.tgz:16946.got - 2010.04.16 15:48:40.
