data_PCOD8234629
_publ_section_title
;
Structure prediction by ZEFSAII (Michael W. Deem and Ramdas Pophale) SiO2 
 PCOD8234629
Probable space group: P B C M
;
_chemical_formula_sum "Si O2"
_cell_formula_units_Z 40
_cell_length_a 8.609581
_cell_length_b 16.260193
_cell_length_c 13.791537
_cell_angle_alpha 90.000000
_cell_angle_beta 90.000000
_cell_angle_gamma 90.000000
_cell_volume 1930.724828
_symmetry_space_group_name_H-M "P B C M"
_symmetry_group_IT_number 57
_symmetry_cell_setting 'orthorhombic'
loop_
_space_group_symop_operation_xyz
x,y,z
-x,-y,1/2+z
x,1/2-y,-z
-x,1/2+y,1/2-z
-x,-y,-z
x,y,1/2-z
-x,1/2+y,z
x,1/2-y,1/2+z
loop_
_atom_site_type_symbol
_atom_site_label
_atom_site_fract_x
_atom_site_fract_y
_atom_site_fract_z
Si Si1 0.951503 0.663809 0.862563
Si Si2 0.751989 0.677281 0.361207
Si Si3 0.736835 0.134946 0.518479
Si Si4 0.587340 0.240017 0.136579
Si Si5 0.831614 0.538362 0.508199
O O1 0.996733 0.652449 0.750000
O O2 0.097521 0.654217 0.933058
O O3 0.876440 0.752026 0.882864
O O4 0.826098 0.592954 0.893140
O O5 0.752972 0.651858 0.250000
O O6 0.582647 0.709016 0.391387
O O7 0.796299 0.595557 0.417152
O O8 0.717383 0.183954 0.416912
O O9 0.605874 0.167074 0.594546
O O10 0.711630 0.038349 0.494241
O O11 0.622442 0.238456 0.250000
O O12 0.000000 0.500000 0.500000
#
# Coordination Sequence:
#
# PCOD8234629 Si02
#       5
#     8   8   8   8   8
#     4  10  22  41  66  93 125 170 222 267 318 379
#     4  10  23  43  66  92 127 172 217 262 317 388
#     4  10  23  40  63  97 127 170 211 269 322 387
#     4  10  23  42  63  91 128 172 213 256 323 392
#     4  10  23  38  64  96 126 162 213 269 325 369
#
# _framework density 20.717607999999998
#
# number of rings (size 3 to 8) (size 9 to 14) (size 15 to 20)
#    0.000    2.000    0.000    1.200   16.800    5.600 
#    0.000    0.000    0.000    0.000    0.000    0.000 
#    0.000    0.000    0.000    0.000    0.000    0.000 
#
# Total GULP energy -495753.548094 kJ/mol
# GULP energy per Si atom -12393.838702 kJ/mol
# Density = 2.067045 g / cm^3
# Si number density = 20.717608 Si / 1000 Ang^3
#
#
#
# Elastic Constant Matrix: (Units=GPa)
#
#
# Indices 1 2 3 4 5 6 
#
# 1 78.8383 32.4118 39.1948 0.0000 0.0000 0.0000
# 2 32.4118 74.3359 8.8647 0.0000 0.0000 0.0000
# 3 39.1948 8.8647 97.8728 0.0000 0.0000 0.0000
# 4 0.0000 0.0000 0.0000 22.3692 0.0000 0.0000
# 5 0.0000 0.0000 0.0000 0.0000 36.5270 0.0000
# 6 0.0000 0.0000 0.0000 0.0000 0.0000 31.0888
#
#
#
# Elastic Compliance Matrix: (Units=1/GPa)
#
#
# Indices 1 2 3 4 5 6 
#
# 1 0.019300 -0.007575 -0.007043 0.000000 0.000000 0.000000
# 2 -0.007575 0.016573 0.001533 0.000000 0.000000 0.000000
# 3 -0.007043 0.001533 0.012899 0.000000 0.000000 0.000000
# 4 0.000000 0.000000 0.000000 0.044704 0.000000 0.000000
# 5 0.000000 0.000000 0.000000 0.000000 0.027377 0.000000
# 6 0.000000 0.000000 0.000000 0.000000 0.000000 0.032166
#
#
# Mechanical properties :
#
#
# Convention : Reuss Voigt Hill
#
# Bulk Modulus (GPa) = 44.24685 45.77663 45.01174
# Shear Modulus (GPa) = 26.77760 29.36870 28.07315
#
# Velocity S-wave (km/s) = 3.59904 3.76915 3.68508
# Velocity P-wave (km/s) = 6.21887 6.40980 6.31505
#
# Compressibility (1/GPa) = 0.02260048
#
# Stress axis : x y z
#
# Youngs Moduli (GPa) = 51.81374 60.34046 77.52559
#
# Poissons Ratio (x) = 0.45709 0.54600
# Poissons Ratio (y) = 0.39250 -0.11881
# Poissons Ratio (z) = 0.36492 -0.09248
#
# Static dielectric constant tensor:
#      x y z
#    x 3.781060 0.000000 0.000000 
#    y 0.000000 4.184070 0.000000 
#    z 0.000000 0.000000 3.930630 
# 
# 
# High freq. dielectric constant tensor:
#      x y z
#    x 1.802500 0.000000 0.000000 
#    y 0.000000 1.818650 0.000000 
#    z 0.000000 0.000000 1.818040 
# 
# From -- ./inp_files/15908.got.cif
#   From: 2010.03.12/outbox.cif.g09.slc.cpg/sg57_8_cif.got.tgz:15908.got - 2010.04.16 15:48:40.
