data_PCOD8234650
_publ_section_title
;
Structure prediction by ZEFSAII (Michael W. Deem and Ramdas Pophale) SiO2 
 PCOD8234650
Probable space group: P B C M
;
_chemical_formula_sum "Si O2"
_cell_formula_units_Z 40
_cell_length_a 5.669408
_cell_length_b 22.380655
_cell_length_c 13.893392
_cell_angle_alpha 90.000000
_cell_angle_beta 90.000000
_cell_angle_gamma 90.000000
_cell_volume 1762.863940
_symmetry_space_group_name_H-M "P B C M"
_symmetry_group_IT_number 57
_symmetry_cell_setting 'orthorhombic'
loop_
_space_group_symop_operation_xyz
x,y,z
-x,-y,1/2+z
x,1/2-y,-z
-x,1/2+y,1/2-z
-x,-y,-z
x,y,1/2-z
-x,1/2+y,z
x,1/2-y,1/2+z
loop_
_atom_site_type_symbol
_atom_site_label
_atom_site_fract_x
_atom_site_fract_y
_atom_site_fract_z
Si Si1 0.445388 0.471639 0.143777
Si Si2 0.753415 0.068243 0.023084
Si Si3 0.414244 0.238329 0.250000
Si Si4 0.914579 0.191127 0.750000
Si Si5 0.523805 0.809481 0.955770
Si Si6 0.125393 0.371823 0.418110
O O1 0.548577 0.482990 0.250000
O O2 0.655560 0.469124 0.067672
O O3 0.310447 0.408504 0.145626
O O4 0.272961 0.527393 0.117424
O O5 0.024830 0.081963 0.998335
O O6 0.636396 0.132631 0.037350
O O7 0.668274 0.273043 0.250000
O O8 0.405571 0.197554 0.344498
O O9 0.172300 0.276357 0.250000
O O10 0.916815 0.152010 0.652013
O O11 0.396769 0.750000 0.000000
O O12 0.753069 0.817711 0.024060
#
# Coordination Sequence:
#
# PCOD8234650 Si02
#       6
#     8   8   4   4   8   8
#     4  10  22  42  65  97 135 174 240 295 363 426
#     4  10  24  41  67  96 134 183 231 296 361 431
#     4  12  28  46  69 107 143 193 238 297 354 435
#     4  12  26  44  75 103 141 189 250 287 362 423
#     4  11  24  44  66  97 143 179 236 294 358 426
#     4  11  23  41  69  98 134 185 235 305 353 434
#
# _framework density 22.690348
#
# number of rings (size 3 to 8) (size 9 to 14) (size 15 to 20)
#    0.000    1.200    3.000    1.800    8.400    0.800 
#    1.800    0.000    0.000    0.000    0.000    0.000 
#    0.000    0.000    0.000    0.000    0.000    0.000 
#
# Total GULP energy -495779.850470 kJ/mol
# GULP energy per Si atom -12394.496262 kJ/mol
# Density = 2.263870 g / cm^3
# Si number density = 22.690348 Si / 1000 Ang^3
#
#
#
# Elastic Constant Matrix: (Units=GPa)
#
#
# Indices 1 2 3 4 5 6 
#
# 1 71.3073 12.6258 2.5420 0.0000 0.0000 0.0000
# 2 12.6258 92.4300 49.1225 0.0000 0.0000 0.0000
# 3 2.5420 49.1225 133.4738 0.0000 0.0000 0.0000
# 4 0.0000 0.0000 0.0000 35.3727 0.0000 0.0000
# 5 0.0000 0.0000 0.0000 0.0000 24.5021 0.0000
# 6 0.0000 0.0000 0.0000 0.0000 0.0000 22.1288
#
#
#
# Elastic Compliance Matrix: (Units=1/GPa)
#
#
# Indices 1 2 3 4 5 6 
#
# 1 0.014405 -0.002265 0.000559 0.000000 0.000000 0.000000
# 2 -0.002265 0.013806 -0.005038 0.000000 0.000000 0.000000
# 3 0.000559 -0.005038 0.009336 0.000000 0.000000 0.000000
# 4 0.000000 0.000000 0.000000 0.028270 0.000000 0.000000
# 5 0.000000 0.000000 0.000000 0.000000 0.040813 0.000000
# 6 0.000000 0.000000 0.000000 0.000000 0.000000 0.045190
#
#
# Mechanical properties :
#
#
# Convention : Reuss Voigt Hill
#
# Bulk Modulus (GPa) = 41.56412 47.31019 44.43715
# Shear Modulus (GPa) = 28.84738 31.92879 30.38809
#
# Velocity S-wave (km/s) = 3.56947 3.75527 3.66355
# Velocity P-wave (km/s) = 5.94524 6.30067 6.12553
#
# Compressibility (1/GPa) = 0.02405921
#
# Stress axis : x y z
#
# Youngs Moduli (GPa) = 69.42080 72.43363 107.11773
#
# Poissons Ratio (x) = 0.16405 -0.05990
# Poissons Ratio (y) = 0.15723 0.53964
# Poissons Ratio (z) = -0.03882 0.36491
#
# Static dielectric constant tensor:
#      x y z
#    x 3.890310 0.000000 0.000000 
#    y 0.000000 4.220660 0.000000 
#    z 0.000000 0.000000 4.253790 
# 
# 
# High freq. dielectric constant tensor:
#      x y z
#    x 1.877300 0.000000 0.000000 
#    y 0.000000 1.902740 0.000000 
#    z 0.000000 0.000000 1.903790 
# 
# From -- ./inp_files/14993.got.cif
#   From: 2010.03.12/outbox.cif.g09.slc.cpg/sg57_8_cif.got.tgz:14993.got - 2010.04.16 15:48:40.
