data_PCOD8234934
_publ_section_title
;
Structure prediction by ZEFSAII (Michael W. Deem and Ramdas Pophale) SiO2 
 PCOD8234934
Probable space group: P B C M
;
_chemical_formula_sum "Si O2"
_cell_formula_units_Z 64
_cell_length_a 12.472513
_cell_length_b 29.373476
_cell_length_c 9.028690
_cell_angle_alpha 90.000000
_cell_angle_beta 90.000000
_cell_angle_gamma 90.000000
_cell_volume 3307.760450
_symmetry_space_group_name_H-M "P B C M"
_symmetry_group_IT_number 57
_symmetry_cell_setting 'orthorhombic'
loop_
_space_group_symop_operation_xyz
x,y,z
-x,-y,1/2+z
x,1/2-y,-z
-x,1/2+y,1/2-z
-x,-y,-z
x,y,1/2-z
-x,1/2+y,z
x,1/2-y,1/2+z
loop_
_atom_site_type_symbol
_atom_site_label
_atom_site_fract_x
_atom_site_fract_y
_atom_site_fract_z
Si Si1 0.111107 0.294651 0.424731
Si Si2 0.969735 0.609316 0.924831
Si Si3 0.197656 0.034271 0.574624
Si Si4 0.381250 0.893777 0.575598
Si Si5 0.816989 0.440005 0.425170
Si Si6 0.677888 0.816771 0.918597
Si Si7 0.380289 0.080548 0.417839
Si Si8 0.561031 0.294299 0.922950
O O1 0.058042 0.250000 0.500000
O O2 0.099723 0.290204 0.250000
O O3 0.236087 0.296461 0.468501
O O4 0.052330 0.339943 0.487350
O O5 0.957790 0.610736 0.750000
O O6 0.088255 0.594223 0.973463
O O7 0.881844 0.573602 0.984966
O O8 0.194377 0.028520 0.750000
O O9 0.319316 0.045411 0.524990
O O10 0.158183 0.987926 0.500698
O O11 0.358212 0.898935 0.750000
O O12 0.294354 0.919939 0.480608
O O13 0.495719 0.915838 0.535038
O O14 0.379140 0.840599 0.528231
O O15 0.813252 0.446786 0.250000
O O16 0.705988 0.802466 0.750000
O O17 0.676876 0.870988 0.932166
O O18 0.563306 0.797402 0.968136
O O19 0.371666 0.062479 0.250000
O O20 0.573462 0.287971 0.750000
O O21 0.613382 0.250000 0.000000
#
# Coordination Sequence:
#
# PCOD8234934 Si02
#       8
#     8   8   8   8   8   8   8   8
#     4  11  21  35  54  81 114 148 183 224 274 331
#     4   9  21  40  59  81 114 147 183 233 280 325
#     4  11  21  37  61  88 114 144 182 229 286 340
#     4   9  20  39  57  79 114 151 187 232 279 329
#     4  11  23  40  60  82 108 146 192 237 282 332
#     4   9  17  31  51  80 114 147 179 220 272 326
#     4   9  18  34  57  84 117 149 181 224 274 328
#     4   9  18  32  52  78 110 145 184 228 275 327
#
# _framework density 19.348438999999999
#
# number of rings (size 3 to 8) (size 9 to 14) (size 15 to 20)
#    0.000    2.250    1.250    3.375    0.000    3.000 
#    0.000    7.500    0.000    3.000    0.000    0.000 
#    0.000    0.000    0.000    0.000    0.000    0.000 
#
# Total GULP energy -793591.399898 kJ/mol
# GULP energy per Si atom -12399.865623 kJ/mol
# Density = 1.930440 g / cm^3
# Si number density = 19.348439 Si / 1000 Ang^3
#
#
#
# Elastic Constant Matrix: (Units=GPa)
#
#
# Indices 1 2 3 4 5 6 
#
# 1 87.8286 54.7633 35.6915 0.0000 0.0000 0.0000
# 2 54.7633 143.3480 48.0031 0.0000 0.0000 0.0000
# 3 35.6915 48.0031 67.6997 0.0000 0.0000 0.0000
# 4 0.0000 0.0000 0.0000 35.6806 0.0000 0.0000
# 5 0.0000 0.0000 0.0000 0.0000 21.2916 0.0000
# 6 0.0000 0.0000 0.0000 0.0000 0.0000 16.2185
#
#
#
# Elastic Compliance Matrix: (Units=1/GPa)
#
#
# Indices 1 2 3 4 5 6 
#
# 1 0.016373 -0.004412 -0.005504 0.000000 0.000000 0.000000
# 2 -0.004412 0.010337 -0.005004 0.000000 0.000000 0.000000
# 3 -0.005504 -0.005004 0.021220 0.000000 0.000000 0.000000
# 4 0.000000 0.000000 0.000000 0.028026 0.000000 0.000000
# 5 0.000000 0.000000 0.000000 0.000000 0.046967 0.000000
# 6 0.000000 0.000000 0.000000 0.000000 0.000000 0.061658
#
#
# Mechanical properties :
#
#
# Convention : Reuss Voigt Hill
#
# Bulk Modulus (GPa) = 55.27196 63.97690 59.62443
# Shear Modulus (GPa) = 22.68069 25.33271 24.00670
#
# Velocity S-wave (km/s) = 3.42749 3.62234 3.52626
# Velocity P-wave (km/s) = 6.65524 7.11565 6.88929
#
# Compressibility (1/GPa) = 0.01809236
#
# Stress axis : x y z
#
# Youngs Moduli (GPa) = 61.07444 96.73836 47.12431
#
# Poissons Ratio (x) = 0.42682 0.25936
# Poissons Ratio (y) = 0.26947 0.23579
# Poissons Ratio (z) = 0.33613 0.48404
#
# Static dielectric constant tensor:
#      x y z
#    x 3.373870 0.000000 0.000000 
#    y 0.000000 3.800610 0.000000 
#    z 0.000000 0.000000 3.313320 
# 
# 
# High freq. dielectric constant tensor:
#      x y z
#    x 1.734130 0.000000 0.000000 
#    y 0.000000 1.766140 0.000000 
#    z 0.000000 0.000000 1.739520 
# 
# From -- ./inp_files/3724.got.cif
#   From: 2010.03.12/outbox.cif.g09.slc.cpg/sg57_2_cif.got.tgz:3724.got - 2010.04.16 15:48:40.
