data_PCOD8234341
_publ_section_title
;
Structure prediction by ZEFSAII (Michael W. Deem and Ramdas Pophale) SiO2 
 PCOD8234341
Probable space group: P B C M
;
_chemical_formula_sum "Si O2"
_cell_formula_units_Z 64
_cell_length_a 17.792899
_cell_length_b 19.858130
_cell_length_c 9.063065
_cell_angle_alpha 90.000000
_cell_angle_beta 90.000000
_cell_angle_gamma 90.000000
_cell_volume 3202.286303
_symmetry_space_group_name_H-M "P B C M"
_symmetry_group_IT_number 57
_symmetry_cell_setting 'orthorhombic'
loop_
_space_group_symop_operation_xyz
x,y,z
-x,-y,1/2+z
x,1/2-y,-z
-x,1/2+y,1/2-z
-x,-y,-z
x,y,1/2-z
-x,1/2+y,z
x,1/2-y,1/2+z
loop_
_atom_site_type_symbol
_atom_site_label
_atom_site_fract_x
_atom_site_fract_y
_atom_site_fract_z
Si Si1 0.424431 0.591563 0.078776
Si Si2 0.340519 0.486743 0.921612
Si Si3 0.865664 0.680158 0.924701
Si Si4 0.694974 0.648989 0.576688
Si Si5 0.447953 0.189676 0.419898
Si Si6 0.212975 0.948642 0.583226
Si Si7 0.286276 0.683252 0.414455
Si Si8 0.068891 0.464074 0.421750
O O1 0.411325 0.572491 0.250000
O O2 0.508686 0.619536 0.053293
O O3 0.362596 0.646839 0.029049
O O4 0.415753 0.525535 0.975876
O O5 0.348369 0.465537 0.750000
O O6 0.322819 0.425970 0.028770
O O7 0.270193 0.534664 0.951630
O O8 0.873667 0.688477 0.750000
O O9 0.779030 0.669398 0.971295
O O10 0.911618 0.612630 0.977238
O O11 0.895214 0.750000 0.000000
O O12 0.683486 0.657520 0.750000
O O13 0.635046 0.692911 0.488641
O O14 0.493740 0.250000 0.500000
O O15 0.441458 0.206700 0.250000
O O16 0.238141 0.971844 0.750000
O O17 0.213582 0.867026 0.579174
O O18 0.135426 0.983873 0.543825
O O19 0.265078 0.750000 0.500000
O O20 0.302174 0.707440 0.250000
O O21 0.050997 0.459982 0.250000
O O22 0.000000 0.500000 0.500000
#
# Coordination Sequence:
#
# PCOD8234341 Si02
#       8
#     8   8   8   8   8   8   8   8
#     4   9  20  37  54  73 108 155 196 239 299 362
#     4  11  21  33  56  87 112 141 191 247 294 348
#     4  10  22  40  64  91 121 159 199 241 291 350
#     4  11  22  39  60  81 114 157 195 242 300 356
#     4  11  23  38  55  79 110 149 198 250 304 362
#     4   9  18  37  58  78 114 156 191 229 287 354
#     4   9  17  30  52  78 105 146 191 237 289 342
#     4  10  21  40  64  91 121 157 195 234 287 348
#
# _framework density 19.985721999999999
#
# number of rings (size 3 to 8) (size 9 to 14) (size 15 to 20)
#    0.000    2.000    1.250    3.375    0.000    6.500 
#    0.000    0.625    0.000    3.000    0.000    0.000 
#    0.000    0.000    0.000    0.000    0.000    0.000 
#
# Total GULP energy -792908.650904 kJ/mol
# GULP energy per Si atom -12389.197670 kJ/mol
# Density = 1.994023 g / cm^3
# Si number density = 19.985722 Si / 1000 Ang^3
#
#
#
# Elastic Constant Matrix: (Units=GPa)
#
#
# Indices 1 2 3 4 5 6 
#
# 1 76.0467 28.6314 27.1462 0.0000 0.0000 0.0000
# 2 28.6314 103.5524 27.7983 0.0000 0.0000 0.0000
# 3 27.1462 27.7983 62.8627 0.0000 0.0000 0.0000
# 4 0.0000 0.0000 0.0000 36.0542 0.0000 0.0000
# 5 0.0000 0.0000 0.0000 0.0000 19.4274 0.0000
# 6 0.0000 0.0000 0.0000 0.0000 0.0000 -66.7512
#
#
#
# Elastic Compliance Matrix: (Units=1/GPa)
#
#
# Indices 1 2 3 4 5 6 
#
# 1 0.016315 -0.002972 -0.005731 0.000000 0.000000 0.000000
# 2 -0.002972 0.011499 -0.003801 0.000000 0.000000 0.000000
# 3 -0.005731 -0.003801 0.020063 0.000000 0.000000 0.000000
# 4 0.000000 0.000000 0.000000 0.027736 0.000000 0.000000
# 5 0.000000 0.000000 0.000000 0.000000 0.051474 0.000000
# 6 0.000000 0.000000 0.000000 0.000000 0.000000 -0.014981
#
#
# Mechanical properties :
#
#
# Convention : Reuss Voigt Hill
#
# Bulk Modulus (GPa) = 43.72919 45.51263 44.62091
# Shear Modulus (GPa) = 34.54517 8.33847 21.44182
#
# Velocity S-wave (km/s) = 4.16202 2.04482 3.27900
# Velocity P-wave (km/s) = 6.71002 5.32889 6.05893
#
# Compressibility (1/GPa) = 0.02286802
#
# Stress axis : x y z
#
# Youngs Moduli (GPa) = 61.29473 86.96178 49.84192
#
# Poissons Ratio (x) = 0.25849 0.28563
# Poissons Ratio (y) = 0.18220 0.18947
# Poissons Ratio (z) = 0.35126 0.33058
#
# Static dielectric constant tensor:
#      x y z
#    x 3.514900 0.000000 0.000000 
#    y 0.000000 4.722080 0.000000 
#    z 0.000000 0.000000 3.547640 
# 
# 
# High freq. dielectric constant tensor:
#      x y z
#    x 1.752950 0.000000 0.000000 
#    y 0.000000 1.796900 0.000000 
#    z 0.000000 0.000000 1.771210 
# 
# From -- ./inp_files/7232.got.cif
#   From: 2010.03.12/outbox.cif.g09.slc.cpg/sg57_4_cif.got.tgz:7232.got - 2010.04.16 15:48:40.
