data_PCOD8234530
_publ_section_title
;
Structure prediction by ZEFSAII (Michael W. Deem and Ramdas Pophale) SiO2 
 PCOD8234530
Probable space group: P B C M
;
_chemical_formula_sum "Si O2"
_cell_formula_units_Z 48
_cell_length_a 10.700382
_cell_length_b 15.140185
_cell_length_c 13.469092
_cell_angle_alpha 90.000000
_cell_angle_beta 90.000000
_cell_angle_gamma 90.000000
_cell_volume 2182.070527
_symmetry_space_group_name_H-M "P B C M"
_symmetry_group_IT_number 57
_symmetry_cell_setting 'orthorhombic'
loop_
_space_group_symop_operation_xyz
x,y,z
-x,-y,1/2+z
x,1/2-y,-z
-x,1/2+y,1/2-z
-x,-y,-z
x,y,1/2-z
-x,1/2+y,z
x,1/2-y,1/2+z
loop_
_atom_site_type_symbol
_atom_site_label
_atom_site_fract_x
_atom_site_fract_y
_atom_site_fract_z
Si Si1 0.662529 0.823949 0.635684
Si Si2 0.313025 0.752671 0.860804
Si Si3 0.571938 0.373132 0.999809
Si Si4 0.191240 0.353913 0.364914
Si Si5 0.908333 0.376157 0.362188
Si Si6 0.749970 0.980892 0.965234
O O1 0.616886 0.820559 0.750000
O O2 0.555459 0.854279 0.558214
O O3 0.730992 0.733410 0.604154
O O4 0.758102 0.905465 0.620108
O O5 0.350098 0.778698 0.750000
O O6 0.313726 0.840038 0.928669
O O7 0.177825 0.709794 0.868543
O O8 0.424070 0.686837 0.900075
O O9 0.611472 0.472520 0.030616
O O10 0.213548 0.375430 0.250000
O O11 0.236490 0.438419 0.426106
O O12 0.045301 0.340914 0.389855
O O13 0.904332 0.414744 0.250000
O O14 0.860040 0.450441 0.438784
#
# Coordination Sequence:
#
# PCOD8234530 Si02
#       6
#     8   8   8   8   8   8
#     4  11  24  43  63  91 128 171 213 259 319 386
#     4   9  19  37  64  89 121 164 206 257 314 371
#     4  10  22  39  61  92 127 157 215 258 308 375
#     4  10  23  41  62  91 130 168 210 257 316 379
#     4   9  19  41  65  92 125 163 210 260 313 376
#     4  11  22  40  63  97 124 164 213 264 319 368
#
# _framework density 21.997457000000001
#
# number of rings (size 3 to 8) (size 9 to 14) (size 15 to 20)
#    0.000    2.000    0.000    2.500    4.667    2.000 
#   15.000    0.000    0.000    0.000    0.000    0.000 
#    0.000    0.000    0.000    0.000    0.000    0.000 
#
# Total GULP energy -594776.319811 kJ/mol
# GULP energy per Si atom -12391.173329 kJ/mol
# Density = 2.194739 g / cm^3
# Si number density = 21.997457 Si / 1000 Ang^3
#
#
#
# Elastic Constant Matrix: (Units=GPa)
#
#
# Indices 1 2 3 4 5 6 
#
# 1 88.1419 28.6653 11.6963 0.0000 0.0000 0.0000
# 2 28.6653 104.0087 28.5799 0.0000 0.0000 0.0000
# 3 11.6963 28.5799 80.9816 0.0000 0.0000 0.0000
# 4 0.0000 0.0000 0.0000 33.2663 0.0000 0.0000
# 5 0.0000 0.0000 0.0000 0.0000 32.2505 0.0000
# 6 0.0000 0.0000 0.0000 0.0000 0.0000 23.8259
#
#
#
# Elastic Compliance Matrix: (Units=1/GPa)
#
#
# Indices 1 2 3 4 5 6 
#
# 1 0.012493 -0.003264 -0.000653 0.000000 0.000000 0.000000
# 2 -0.003264 0.011500 -0.003587 0.000000 0.000000 0.000000
# 3 -0.000653 -0.003587 0.013709 0.000000 0.000000 0.000000
# 4 0.000000 0.000000 0.000000 0.030060 0.000000 0.000000
# 5 0.000000 0.000000 0.000000 0.000000 0.031007 0.000000
# 6 0.000000 0.000000 0.000000 0.000000 0.000000 0.041971
#
#
# Mechanical properties :
#
#
# Convention : Reuss Voigt Hill
#
# Bulk Modulus (GPa) = 44.06294 45.66833 44.86563
# Shear Modulus (GPa) = 30.61608 31.48124 31.04866
#
# Velocity S-wave (km/s) = 3.73473 3.78713 3.76102
# Velocity P-wave (km/s) = 6.21868 6.31894 6.26901
#
# Compressibility (1/GPa) = 0.02269481
#
# Stress axis : x y z
#
# Youngs Moduli (GPa) = 80.04211 86.95798 72.94648
#
# Poissons Ratio (x) = 0.28383 0.04760
# Poissons Ratio (y) = 0.26125 0.26166
# Poissons Ratio (z) = 0.05223 0.31192
#
# Static dielectric constant tensor:
#      x y z
#    x 3.976370 0.000000 0.000000 
#    y 0.000000 4.108800 0.000000 
#    z 0.000000 0.000000 4.104070 
# 
# 
# High freq. dielectric constant tensor:
#      x y z
#    x 1.859170 0.000000 0.000000 
#    y 0.000000 1.865090 0.000000 
#    z 0.000000 0.000000 1.872840 
# 
# From -- ./inp_files/17633.got.cif
#   From: 2010.03.12/outbox.cif.g09.slc.cpg/sg57_9_cif.got.tgz:17633.got - 2010.04.16 15:48:40.
