data_PCOD8234375
_publ_section_title
;
Structure prediction by ZEFSAII (Michael W. Deem and Ramdas Pophale) SiO2 
 PCOD8234375
Probable space group: P B C M
;
_chemical_formula_sum "Si O2"
_cell_formula_units_Z 40
_cell_length_a 15.382935
_cell_length_b 11.602401
_cell_length_c 10.052876
_cell_angle_alpha 90.000000
_cell_angle_beta 90.000000
_cell_angle_gamma 90.000000
_cell_volume 1794.227059
_symmetry_space_group_name_H-M "P B C M"
_symmetry_group_IT_number 57
_symmetry_cell_setting 'orthorhombic'
loop_
_space_group_symop_operation_xyz
x,y,z
-x,-y,1/2+z
x,1/2-y,-z
-x,1/2+y,1/2-z
-x,-y,-z
x,y,1/2-z
-x,1/2+y,z
x,1/2-y,1/2+z
loop_
_atom_site_type_symbol
_atom_site_label
_atom_site_fract_x
_atom_site_fract_y
_atom_site_fract_z
Si Si1 0.662258 0.089460 0.518332
Si Si2 0.880735 0.680644 0.250000
Si Si3 0.174286 0.431377 0.250000
Si Si4 0.444146 0.579485 0.250000
Si Si5 0.251924 0.375055 0.976021
Si Si6 0.821398 0.250000 0.500000
Si Si7 0.451975 0.664900 0.750000
Si Si8 0.918536 0.169366 0.250000
O O1 0.615974 0.080239 0.377931
O O2 0.759685 0.138897 0.507167
O O3 0.607327 0.167622 0.618456
O O4 0.674462 0.960862 0.582492
O O5 0.885004 0.818183 0.250000
O O6 0.832164 0.634089 0.381598
O O7 0.979438 0.642958 0.250000
O O8 0.232444 0.431839 0.381531
O O9 0.114989 0.541042 0.250000
O O10 0.493858 0.455325 0.250000
O O11 0.497394 0.705339 0.250000
O O12 0.294296 0.250000 0.000000
O O13 0.885958 0.242127 0.375526
#
# Coordination Sequence:
#
# PCOD8234375 Si02
#       8
#     8   4   4   4   8   4   4   4
#     4  12  23  44  71  96 138 177 227 281 326 416
#     4  10  25  41  59  97 136 170 231 295 345 394
#     4  10  21  41  61  83 130 173 217 281 354 385
#     4  12  26  45  71 105 142 181 217 283 347 412
#     4  10  22  41  66  93 129 182 230 279 344 400
#     4  12  24  42  70 102 126 184 238 268 352 398
#     4  12  26  44  71 104 144 173 221 279 351 407
#     4  12  26  41  66  97 134 177 236 288 341 416
#
# _framework density 22.293721999999999
#
# number of rings (size 3 to 8) (size 9 to 14) (size 15 to 20)
#    0.000    0.800    4.000    3.000    4.200    4.000 
#    0.000    0.000    0.000    0.000    0.000    0.000 
#    0.000    0.000    0.000    0.000    0.000    0.000 
#
# Total GULP energy -495636.970829 kJ/mol
# GULP energy per Si atom -12390.924271 kJ/mol
# Density = 2.224298 g / cm^3
# Si number density = 22.293722 Si / 1000 Ang^3
#
#
#
# Elastic Constant Matrix: (Units=GPa)
#
#
# Indices 1 2 3 4 5 6 
#
# 1 49.3050 42.1177 26.8184 0.0000 0.0000 0.0000
# 2 42.1177 166.5705 15.3620 0.0000 0.0000 0.0000
# 3 26.8184 15.3620 140.2707 0.0000 0.0000 0.0000
# 4 0.0000 0.0000 0.0000 2.7506 0.0000 0.0000
# 5 0.0000 0.0000 0.0000 0.0000 13.9521 0.0000
# 6 0.0000 0.0000 0.0000 0.0000 0.0000 22.9483
#
#
#
# Elastic Compliance Matrix: (Units=1/GPa)
#
#
# Indices 1 2 3 4 5 6 
#
# 1 0.028680 -0.006815 -0.004737 0.000000 0.000000 0.000000
# 2 -0.006815 0.007684 0.000461 0.000000 0.000000 0.000000
# 3 -0.004737 0.000461 0.007984 0.000000 0.000000 0.000000
# 4 0.000000 0.000000 0.000000 0.363553 0.000000 0.000000
# 5 0.000000 0.000000 0.000000 0.000000 0.071674 0.000000
# 6 0.000000 0.000000 0.000000 0.000000 0.000000 0.043576
#
#
# Mechanical properties :
#
#
# Convention : Reuss Voigt Hill
#
# Bulk Modulus (GPa) = 45.11155 58.30470 51.70813
# Shear Modulus (GPa) = 9.04616 26.05343 17.54979
#
# Velocity S-wave (km/s) = 2.01656 3.42225 2.80877
# Velocity P-wave (km/s) = 5.06962 6.46726 5.81062
#
# Compressibility (1/GPa) = 0.02216727
#
# Stress axis : x y z
#
# Youngs Moduli (GPa) = 34.86758 130.13931 125.24736
#
# Poissons Ratio (x) = 0.88689 0.59329
# Poissons Ratio (y) = 0.23762 -0.05779
# Poissons Ratio (z) = 0.16517 -0.06005
#
# Static dielectric constant tensor:
#      x y z
#    x 3.690360 0.000000 0.000000 
#    y 0.000000 4.678610 0.000000 
#    z 0.000000 0.000000 4.115290 
# 
# 
# High freq. dielectric constant tensor:
#      x y z
#    x 1.844660 0.000000 0.000000 
#    y 0.000000 1.913580 0.000000 
#    z 0.000000 0.000000 1.895680 
# 
# From -- ./inp_files/6346.got.cif
#   From: 2010.03.12/outbox.cif.g09.slc.cpg/sg57_4_cif.got.tgz:6346.got - 2010.04.16 15:48:40.
