data_PCOD8234910
_publ_section_title
;
Structure prediction by ZEFSAII (Michael W. Deem and Ramdas Pophale) SiO2 
 PCOD8234910
Probable space group: P B C M
;
_chemical_formula_sum "Si O2"
_cell_formula_units_Z 32
_cell_length_a 8.849599
_cell_length_b 12.557692
_cell_length_c 14.062694
_cell_angle_alpha 90.000000
_cell_angle_beta 90.000000
_cell_angle_gamma 90.000000
_cell_volume 1562.794758
_symmetry_space_group_name_H-M "P B C M"
_symmetry_group_IT_number 57
_symmetry_cell_setting 'orthorhombic'
loop_
_space_group_symop_operation_xyz
x,y,z
-x,-y,1/2+z
x,1/2-y,-z
-x,1/2+y,1/2-z
-x,-y,-z
x,y,1/2-z
-x,1/2+y,z
x,1/2-y,1/2+z
loop_
_atom_site_type_symbol
_atom_site_label
_atom_site_fract_x
_atom_site_fract_y
_atom_site_fract_z
Si Si1 0.945394 0.405220 0.250000
Si Si2 0.929616 0.553019 0.092122
Si Si3 0.651996 0.796781 0.596524
Si Si4 0.548631 0.405857 0.750000
Si Si5 0.120753 0.662013 0.250000
Si Si6 0.286695 0.122281 0.750000
O O1 0.865089 0.457066 0.157740
O O2 0.934608 0.281402 0.250000
O O3 0.124989 0.436851 0.250000
O O4 0.798368 0.635323 0.065399
O O5 0.057923 0.611883 0.153082
O O6 0.000000 0.500000 0.000000
O O7 0.576602 0.750000 0.500000
O O8 0.540768 0.874175 0.654391
O O9 0.699876 0.695359 0.657801
O O10 0.699815 0.336993 0.750000
O O11 0.583014 0.531972 0.750000
#
# Coordination Sequence:
#
# PCOD8234910 Si02
#       6
#     4   8   8   4   4   4
#     4  11  20  41  66  94 136 169 223 281 330 395
#     4  11  23  40  69 101 125 178 228 276 332 398
#     4  11  25  44  67  98 135 181 220 273 348 403
#     4  11  25  44  66 100 134 184 225 273 341 410
#     4  11  23  42  65  99 133 173 225 275 333 395
#     4  11  20  43  69  89 141 178 217 281 336 400
#
# _framework density 20.476137999999999
#
# number of rings (size 3 to 8) (size 9 to 14) (size 15 to 20)
#    0.000    1.000    5.000    3.750    0.000    5.000 
#    4.500    0.000    0.000    0.000    0.000    0.000 
#    0.000    0.000    0.000    0.000    0.000    0.000 
#
# Total GULP energy -396770.087693 kJ/mol
# GULP energy per Si atom -12399.065240 kJ/mol
# Density = 2.042953 g / cm^3
# Si number density = 20.476138 Si / 1000 Ang^3
#
#
#
# Elastic Constant Matrix: (Units=GPa)
#
#
# Indices 1 2 3 4 5 6 
#
# 1 97.2697 38.4193 36.3431 0.0000 0.0000 0.0000
# 2 38.4193 142.7370 73.3526 0.0000 0.0000 0.0000
# 3 36.3431 73.3526 164.4342 0.0000 0.0000 0.0000
# 4 0.0000 0.0000 0.0000 28.3756 0.0000 0.0000
# 5 0.0000 0.0000 0.0000 0.0000 72.5607 0.0000
# 6 0.0000 0.0000 0.0000 0.0000 0.0000 47.4994
#
#
#
# Elastic Compliance Matrix: (Units=1/GPa)
#
#
# Indices 1 2 3 4 5 6 
#
# 1 0.011799 -0.002382 -0.001545 0.000000 0.000000 0.000000
# 2 -0.002382 0.009570 -0.003743 0.000000 0.000000 0.000000
# 3 -0.001545 -0.003743 0.008093 0.000000 0.000000 0.000000
# 4 0.000000 0.000000 0.000000 0.035242 0.000000 0.000000
# 5 0.000000 0.000000 0.000000 0.000000 0.013782 0.000000
# 6 0.000000 0.000000 0.000000 0.000000 0.000000 0.021053
#
#
# Mechanical properties :
#
#
# Convention : Reuss Voigt Hill
#
# Bulk Modulus (GPa) = 70.81071 77.85234 74.33152
# Shear Modulus (GPa) = 41.81130 46.77555 44.29342
#
# Velocity S-wave (km/s) = 4.52370 4.78472 4.65604
# Velocity P-wave (km/s) = 7.87034 8.28422 8.07993
#
# Compressibility (1/GPa) = 0.01412216
#
# Stress axis : x y z
#
# Youngs Moduli (GPa) = 84.75461 104.48875 123.56855
#
# Poissons Ratio (x) = 0.24885 0.19095
# Poissons Ratio (y) = 0.20185 0.46250
# Poissons Ratio (z) = 0.13097 0.39109
#
# Static dielectric constant tensor:
#      x y z
#    x 3.571390 0.000000 0.000000 
#    y 0.000000 3.926960 0.000000 
#    z 0.000000 0.000000 3.821600 
# 
# 
# High freq. dielectric constant tensor:
#      x y z
#    x 1.781260 0.000000 0.000000 
#    y 0.000000 1.826120 0.000000 
#    z 0.000000 0.000000 1.807480 
# 
# From -- ./inp_files/15625.got.cif
#   From: 2010.03.12/outbox.cif.g09.slc.cpg/sg57_8_cif.got.tgz:15625.got - 2010.04.16 15:48:40.
