data_PCOD8234627
_publ_section_title
;
Structure prediction by ZEFSAII (Michael W. Deem and Ramdas Pophale) SiO2 
 PCOD8234627
Probable space group: P B C M
;
_chemical_formula_sum "Si O2"
_cell_formula_units_Z 56
_cell_length_a 12.751019
_cell_length_b 13.424146
_cell_length_c 14.395869
_cell_angle_alpha 90.000000
_cell_angle_beta 90.000000
_cell_angle_gamma 90.000000
_cell_volume 2464.163077
_symmetry_space_group_name_H-M "P B C M"
_symmetry_group_IT_number 57
_symmetry_cell_setting 'orthorhombic'
loop_
_space_group_symop_operation_xyz
x,y,z
-x,-y,1/2+z
x,1/2-y,-z
-x,1/2+y,1/2-z
-x,-y,-z
x,y,1/2-z
-x,1/2+y,z
x,1/2-y,1/2+z
loop_
_atom_site_type_symbol
_atom_site_label
_atom_site_fract_x
_atom_site_fract_y
_atom_site_fract_z
Si Si1 0.339236 0.237402 0.100755
Si Si2 0.139971 0.380840 0.649194
Si Si3 0.665089 0.954956 0.352471
Si Si4 0.550541 0.348172 0.855788
Si Si5 0.914877 0.329587 0.854179
Si Si6 0.194729 0.962007 0.495655
Si Si7 0.270976 0.809609 0.356064
O O1 0.247648 0.181318 0.155452
O O2 0.374608 0.341172 0.148447
O O3 0.445326 0.173560 0.087214
O O4 0.289393 0.250000 0.000000
O O5 0.129551 0.432923 0.750000
O O6 0.131158 0.468202 0.574253
O O7 0.039211 0.308071 0.634223
O O8 0.712778 0.979317 0.250000
O O9 0.573601 0.035166 0.371596
O O10 0.746464 0.963326 0.435480
O O11 0.522449 0.324613 0.750000
O O12 0.650551 0.280331 0.885682
O O13 0.891406 0.374291 0.750000
O O14 0.849033 0.228095 0.862974
O O15 0.882137 0.400197 0.938914
O O16 0.277148 0.897119 0.432933
O O17 0.295537 0.846158 0.250000
#
# Coordination Sequence:
#
# PCOD8234627 Si02
#       7
#     8   8   8   8   8   8   8
#     4  12  26  44  69 100 135 176 226 271 335 396
#     4  11  25  46  65  93 138 179 221 276 337 399
#     4  11  24  44  69  98 132 176 222 268 334 398
#     4  10  23  43  68  96 134 177 221 272 327 392
#     4  10  22  42  67  95 134 178 222 276 332 396
#     4  12  22  40  68 103 129 172 220 281 333 394
#     4  10  22  41  66 100 133 173 222 272 335 392
#
# _framework density 22.725767999999999
#
# number of rings (size 3 to 8) (size 9 to 14) (size 15 to 20)
#    0.000    1.143    2.857    3.000    2.000    2.857 
#    2.571    1.429    0.000    0.000    0.000    0.000 
#    0.000    0.000    0.000    0.000    0.000    0.000 
#
# Total GULP energy -693992.097113 kJ/mol
# GULP energy per Si atom -12392.716020 kJ/mol
# Density = 2.267404 g / cm^3
# Si number density = 22.725768 Si / 1000 Ang^3
#
#
#
# Elastic Constant Matrix: (Units=GPa)
#
#
# Indices 1 2 3 4 5 6 
#
# 1 98.6838 17.6460 20.3385 0.0000 0.0000 0.0000
# 2 17.6460 83.7238 27.0377 0.0000 0.0000 0.0000
# 3 20.3385 27.0377 130.0210 0.0000 0.0000 0.0000
# 4 0.0000 0.0000 0.0000 37.1510 0.0000 0.0000
# 5 0.0000 0.0000 0.0000 0.0000 16.2405 0.0000
# 6 0.0000 0.0000 0.0000 0.0000 0.0000 23.8108
#
#
#
# Elastic Compliance Matrix: (Units=1/GPa)
#
#
# Indices 1 2 3 4 5 6 
#
# 1 0.010730 -0.001843 -0.001295 0.000000 0.000000 0.000000
# 2 -0.001843 0.013121 -0.002440 0.000000 0.000000 0.000000
# 3 -0.001295 -0.002440 0.008401 0.000000 0.000000 0.000000
# 4 0.000000 0.000000 0.000000 0.026917 0.000000 0.000000
# 5 0.000000 0.000000 0.000000 0.000000 0.061574 0.000000
# 6 0.000000 0.000000 0.000000 0.000000 0.000000 0.041998
#
#
# Mechanical properties :
#
#
# Convention : Reuss Voigt Hill
#
# Bulk Modulus (GPa) = 47.40545 49.16367 48.28456
# Shear Modulus (GPa) = 27.63512 31.93423 29.78468
#
# Velocity S-wave (km/s) = 3.49094 3.75267 3.62417
# Velocity P-wave (km/s) = 6.09540 6.36059 6.22941
#
# Compressibility (1/GPa) = 0.02109462
#
# Stress axis : x y z
#
# Youngs Moduli (GPa) = 93.19763 76.21653 119.03258
#
# Poissons Ratio (x) = 0.14048 0.15416
# Poissons Ratio (y) = 0.17178 0.29045
# Poissons Ratio (z) = 0.12070 0.18597
#
# Static dielectric constant tensor:
#      x y z
#    x 3.837110 0.000000 0.000000 
#    y 0.000000 3.867250 0.000000 
#    z 0.000000 0.000000 4.388230 
# 
# 
# High freq. dielectric constant tensor:
#      x y z
#    x 1.879230 0.000000 0.000000 
#    y 0.000000 1.876050 0.000000 
#    z 0.000000 0.000000 1.926010 
# 
# From -- ./inp_files/17732.got.cif
#   From: 2010.03.12/outbox.cif.g09.slc.cpg/sg57_9_cif.got.tgz:17732.got - 2010.04.16 15:48:40.
