data_PCOD8234720
_publ_section_title
;
Structure prediction by ZEFSAII (Michael W. Deem and Ramdas Pophale) SiO2 
 PCOD8234720
Probable space group: P B C M
;
_chemical_formula_sum "Si O2"
_cell_formula_units_Z 48
_cell_length_a 9.285345
_cell_length_b 8.375206
_cell_length_c 27.740093
_cell_angle_alpha 90.000000
_cell_angle_beta 90.000000
_cell_angle_gamma 90.000000
_cell_volume 2157.254857
_symmetry_space_group_name_H-M "P B C M"
_symmetry_group_IT_number 57
_symmetry_cell_setting 'orthorhombic'
loop_
_space_group_symop_operation_xyz
x,y,z
-x,-y,1/2+z
x,1/2-y,-z
-x,1/2+y,1/2-z
-x,-y,-z
x,y,1/2-z
-x,1/2+y,z
x,1/2-y,1/2+z
loop_
_atom_site_type_symbol
_atom_site_label
_atom_site_fract_x
_atom_site_fract_y
_atom_site_fract_z
Si Si1 0.395509 0.083357 0.932530
Si Si2 0.694964 0.075037 0.975584
Si Si3 0.814766 0.096281 0.367755
Si Si4 0.886795 0.050099 0.610849
Si Si5 0.639380 0.653390 0.356445
Si Si6 0.400080 0.466656 0.304523
O O1 0.567569 0.056456 0.936003
O O2 0.373584 0.256720 0.908313
O O3 0.319364 0.940729 0.902961
O O4 0.325999 0.068614 0.986031
O O5 0.842310 0.048090 0.945795
O O6 0.691597 0.250000 0.000000
O O7 0.860574 0.276965 0.367586
O O8 0.752711 0.055550 0.314498
O O9 0.945070 0.984062 0.384459
O O10 0.796680 0.926313 0.643220
O O11 0.520044 0.519255 0.344079
O O12 0.626687 0.779236 0.312890
O O13 0.450500 0.498018 0.250000
#
# Coordination Sequence:
#
# PCOD8234720 Si02
#       6
#     8   8   8   8   8   8
#     4  10  23  40  64  96 133 175 225 272 335 381
#     4  11  23  40  64  98 130 177 232 284 312 392
#     4  11  23  45  64  93 132 180 215 277 344 404
#     4  12  25  44  65  91 136 178 226 267 341 397
#     4  11  24  41  69  96 131 175 208 273 336 398
#     4  11  23  44  72 104 130 164 220 276 336 412
#
# _framework density 22.250499999999999
#
# number of rings (size 3 to 8) (size 9 to 14) (size 15 to 20)
#    0.000    1.000    1.667    6.500    7.000    0.667 
#    0.000    5.000    0.000    0.000    0.000    0.000 
#    0.000    0.000    0.000    0.000    0.000    0.000 
#
# Total GULP energy -595026.662225 kJ/mol
# GULP energy per Si atom -12396.388796 kJ/mol
# Density = 2.219986 g / cm^3
# Si number density = 22.250500 Si / 1000 Ang^3
#
#
#
# Elastic Constant Matrix: (Units=GPa)
#
#
# Indices 1 2 3 4 5 6 
#
# 1 75.6361 18.2640 47.2128 0.0000 0.0000 0.0000
# 2 18.2640 109.1872 29.8396 0.0000 0.0000 0.0000
# 3 47.2128 29.8396 107.4308 0.0000 0.0000 0.0000
# 4 0.0000 0.0000 0.0000 29.8308 0.0000 0.0000
# 5 0.0000 0.0000 0.0000 0.0000 27.5200 0.0000
# 6 0.0000 0.0000 0.0000 0.0000 0.0000 37.4633
#
#
#
# Elastic Compliance Matrix: (Units=1/GPa)
#
#
# Indices 1 2 3 4 5 6 
#
# 1 0.018307 -0.000934 -0.007786 0.000000 0.000000 0.000000
# 2 -0.000934 0.009959 -0.002355 0.000000 0.000000 0.000000
# 3 -0.007786 -0.002355 0.013384 0.000000 0.000000 0.000000
# 4 0.000000 0.000000 0.000000 0.033522 0.000000 0.000000
# 5 0.000000 0.000000 0.000000 0.000000 0.036337 0.000000
# 6 0.000000 0.000000 0.000000 0.000000 0.000000 0.026693
#
#
# Mechanical properties :
#
#
# Convention : Reuss Voigt Hill
#
# Bulk Modulus (GPa) = 51.28648 53.65411 52.47029
# Shear Modulus (GPa) = 29.96657 32.09201 31.02929
#
# Velocity S-wave (km/s) = 3.67383 3.80189 3.73841
# Velocity P-wave (km/s) = 6.41059 6.59079 6.50131
#
# Compressibility (1/GPa) = 0.01949832
#
# Stress axis : x y z
#
# Youngs Moduli (GPa) = 54.62446 100.41577 74.71511
#
# Poissons Ratio (x) = 0.09383 0.58172
# Poissons Ratio (y) = 0.05104 0.17598
# Poissons Ratio (z) = 0.42529 0.23652
#
# Static dielectric constant tensor:
#      x y z
#    x 4.116700 0.000000 0.000000 
#    y 0.000000 4.076620 0.000000 
#    z 0.000000 0.000000 3.933350 
# 
# 
# High freq. dielectric constant tensor:
#      x y z
#    x 1.866250 0.000000 0.000000 
#    y 0.000000 1.893190 0.000000 
#    z 0.000000 0.000000 1.863210 
# 
# From -- ./inp_files/29487.got.cif
#   From: 2010.03.12/outbox.cif.g09.slc.cpg/sg57_15_cif.got.tgz:29487.got - 2010.04.16 15:48:40.
