data_PCOD8234512
_publ_section_title
;
Structure prediction by ZEFSAII (Michael W. Deem and Ramdas Pophale) SiO2 
 PCOD8234512
Probable space group: P B C M
;
_chemical_formula_sum "Si O2"
_cell_formula_units_Z 40
_cell_length_a 22.634650
_cell_length_b 5.076529
_cell_length_c 17.033342
_cell_angle_alpha 90.000000
_cell_angle_beta 90.000000
_cell_angle_gamma 90.000000
_cell_volume 1957.223949
_symmetry_space_group_name_H-M "P B C M"
_symmetry_group_IT_number 57
_symmetry_cell_setting 'orthorhombic'
loop_
_space_group_symop_operation_xyz
x,y,z
-x,-y,1/2+z
x,1/2-y,-z
-x,1/2+y,1/2-z
-x,-y,-z
x,y,1/2-z
-x,1/2+y,z
x,1/2-y,1/2+z
loop_
_atom_site_type_symbol
_atom_site_label
_atom_site_fract_x
_atom_site_fract_y
_atom_site_fract_z
Si Si1 0.537601 0.569493 0.157973
Si Si2 0.034385 0.055103 0.656568
Si Si3 0.648491 0.494045 0.448187
Si Si4 0.166738 0.344534 0.341462
Si Si5 0.776434 0.164218 0.912097
O O1 0.550742 0.563476 0.250000
O O2 0.503071 0.828603 0.131461
O O3 0.600120 0.567000 0.115779
O O4 0.032691 0.055739 0.750000
O O5 0.101774 0.076205 0.628133
O O6 0.994738 0.291369 0.622535
O O7 0.663009 0.750000 0.500000
O O8 0.707569 0.406471 0.403041
O O9 0.625086 0.250000 0.500000
O O10 0.167144 0.269585 0.250000
O O11 0.210375 0.590089 0.355233
O O12 0.185333 0.088638 0.389857
O O13 0.792401 0.250000 0.000000
#
# Coordination Sequence:
#
# PCOD8234512 Si02
#       5
#     8   8   8   8   8
#     4  10  22  39  59  87 121 152 184 233 296 344
#     4   9  17  31  53  82 114 145 184 240 294 339
#     4  11  23  40  61  85 113 153 202 238 277 344
#     4  11  22  37  62  91 114 149 203 247 287 351
#     4  11  23  41  59  83 122 160 192 239 303 351
#
# _framework density 20.437107999999998
#
# number of rings (size 3 to 8) (size 9 to 14) (size 15 to 20)
#    0.000    1.600    0.000    6.000    0.000    7.200 
#    0.000    2.000    0.000   12.000    0.000    0.000 
#    0.000    0.000    0.000    0.000    0.000    0.000 
#
# Total GULP energy -496172.643257 kJ/mol
# GULP energy per Si atom -12404.316081 kJ/mol
# Density = 2.039059 g / cm^3
# Si number density = 20.437108 Si / 1000 Ang^3
#
#
#
# Elastic Constant Matrix: (Units=GPa)
#
#
# Indices 1 2 3 4 5 6 
#
# 1 137.4195 52.2822 53.2614 0.0000 0.0000 0.0000
# 2 52.2822 152.2995 22.8621 0.0000 0.0000 0.0000
# 3 53.2614 22.8621 42.3244 0.0000 0.0000 0.0000
# 4 0.0000 0.0000 0.0000 580.3921 0.0000 0.0000
# 5 0.0000 0.0000 0.0000 0.0000 3.7364 0.0000
# 6 0.0000 0.0000 0.0000 0.0000 0.0000 34.3766
#
#
#
# Elastic Compliance Matrix: (Units=1/GPa)
#
#
# Indices 1 2 3 4 5 6 
#
# 1 0.015050 -0.002529 -0.017573 0.000000 0.000000 0.000000
# 2 -0.002529 0.007570 -0.000907 0.000000 0.000000 0.000000
# 3 -0.017573 -0.000907 0.046232 0.000000 0.000000 0.000000
# 4 0.000000 0.000000 0.000000 0.001723 0.000000 0.000000
# 5 0.000000 0.000000 0.000000 0.000000 0.267638 0.000000
# 6 0.000000 0.000000 0.000000 0.000000 0.000000 0.029090
#
#
# Mechanical properties :
#
#
# Convention : Reuss Voigt Hill
#
# Bulk Modulus (GPa) = 37.26664 65.42832 51.34748
# Shear Modulus (GPa) = 11.95413 137.27687 74.61550
#
# Velocity S-wave (km/s) = 2.42114 8.20465 6.04889
# Velocity P-wave (km/s) = 5.10786 11.03807 8.60027
#
# Compressibility (1/GPa) = 0.02683365
#
# Stress axis : x y z
#
# Youngs Moduli (GPa) = 66.44469 132.09695 21.63020
#
# Poissons Ratio (x) = 0.33401 0.38012
# Poissons Ratio (y) = 0.16801 0.01962
# Poissons Ratio (z) = 1.16766 0.11985
#
# Static dielectric constant tensor:
#      x y z
#    x 3.745240 0.000000 0.000000 
#    y 0.000000 4.007760 0.000000 
#    z 0.000000 0.000000 3.404220 
# 
# 
# High freq. dielectric constant tensor:
#      x y z
#    x 1.808980 0.000000 0.000000 
#    y 0.000000 1.823250 0.000000 
#    z 0.000000 0.000000 1.774810 
# 
# From -- ./inp_files/22766.got.cif
#   From: 2010.03.12/outbox.cif.g09.slc.cpg/sg57_12_cif.got.tgz:22766.got - 2010.04.16 15:48:40.
