data_PCOD8234029
_publ_section_title
;
Structure prediction by ZEFSAII (Michael W. Deem and Ramdas Pophale) SiO2 
 PCOD8234029
Probable space group: P B C M
;
_chemical_formula_sum "Si O2"
_cell_formula_units_Z 64
_cell_length_a 21.874974
_cell_length_b 8.998804
_cell_length_c 16.008507
_cell_angle_alpha 90.000000
_cell_angle_beta 90.000000
_cell_angle_gamma 90.000000
_cell_volume 3151.252248
_symmetry_space_group_name_H-M "P B C M"
_symmetry_group_IT_number 57
_symmetry_cell_setting 'orthorhombic'
loop_
_space_group_symop_operation_xyz
x,y,z
-x,-y,1/2+z
x,1/2-y,-z
-x,1/2+y,1/2-z
-x,-y,-z
x,y,1/2-z
-x,1/2+y,z
x,1/2-y,1/2+z
loop_
_atom_site_type_symbol
_atom_site_label
_atom_site_fract_x
_atom_site_fract_y
_atom_site_fract_z
Si Si1 0.314538 0.414781 0.489430
Si Si2 0.550549 0.650973 0.570699
Si Si3 0.270241 0.618779 0.343917
Si Si4 0.461057 0.056308 0.158448
Si Si5 0.668534 0.422450 0.343727
Si Si6 0.085219 0.398127 0.034106
Si Si7 0.133199 0.864527 0.842424
Si Si8 0.048097 0.648423 0.575955
O O1 0.287866 0.250000 0.500000
O O2 0.386428 0.410890 0.467569
O O3 0.279566 0.492976 0.413338
O O4 0.300541 0.491451 0.578872
O O5 0.516675 0.750000 0.500000
O O6 0.511464 0.506980 0.594839
O O7 0.559650 0.771916 0.644638
O O8 0.277802 0.550974 0.250000
O O9 0.319552 0.748196 0.357790
O O10 0.202758 0.691011 0.354070
O O11 0.490534 0.048956 0.250000
O O12 0.403649 0.947067 0.152358
O O13 0.692732 0.470435 0.250000
O O14 0.125869 0.498620 0.093773
O O15 0.025071 0.349252 0.087778
O O16 0.119446 0.250000 0.000000
O O17 0.067268 0.481272 0.947580
O O18 0.123066 0.929925 0.750000
O O19 0.086521 0.723753 0.849185
O O20 0.069048 0.750000 0.500000
#
# Coordination Sequence:
#
# PCOD8234029 Si02
#       8
#     8   8   8   8   8   8   8   8
#     4  11  23  41  63  89 118 158 196 250 313 360
#     4  11  23  39  58  87 120 150 192 241 296 364
#     4  10  24  42  63  86 116 160 208 255 299 359
#     4  11  23  39  60  88 119 153 193 241 298 359
#     4  10  22  41  61  88 119 154 203 249 297 361
#     4   9  17  32  56  86 117 155 195 240 289 350
#     4  10  21  38  57  86 121 154 200 249 296 353
#     4   8  16  32  55  80 114 155 196 232 284 345
#
# _framework density 20.309387000000001
#
# number of rings (size 3 to 8) (size 9 to 14) (size 15 to 20)
#    0.000    2.000    2.500    1.875    1.750    5.500 
#    0.000    0.625    0.000    3.000    0.000    0.000 
#    0.000    0.000    0.000    0.000    0.000    0.000 
#
# Total GULP energy -792936.268507 kJ/mol
# GULP energy per Si atom -12389.629195 kJ/mol
# Density = 2.026316 g / cm^3
# Si number density = 20.309387 Si / 1000 Ang^3
#
#
#
# Elastic Constant Matrix: (Units=GPa)
#
#
# Indices 1 2 3 4 5 6 
#
# 1 52.9587 27.6081 26.1791 0.0000 0.0000 0.0000
# 2 27.6081 98.8458 42.7528 0.0000 0.0000 0.0000
# 3 26.1791 42.7528 128.9096 0.0000 0.0000 0.0000
# 4 0.0000 0.0000 0.0000 32.2187 0.0000 0.0000
# 5 0.0000 0.0000 0.0000 0.0000 25.8115 0.0000
# 6 0.0000 0.0000 0.0000 0.0000 0.0000 23.7207
#
#
#
# Elastic Compliance Matrix: (Units=1/GPa)
#
#
# Indices 1 2 3 4 5 6 
#
# 1 0.023035 -0.005149 -0.002970 0.000000 0.000000 0.000000
# 2 -0.005149 0.012962 -0.003253 0.000000 0.000000 0.000000
# 3 -0.002970 -0.003253 0.009439 0.000000 0.000000 0.000000
# 4 0.000000 0.000000 0.000000 0.031038 0.000000 0.000000
# 5 0.000000 0.000000 0.000000 0.000000 0.038742 0.000000
# 6 0.000000 0.000000 0.000000 0.000000 0.000000 0.042157
#
#
# Mechanical properties :
#
#
# Convention : Reuss Voigt Hill
#
# Bulk Modulus (GPa) = 44.06927 52.64380 48.35654
# Shear Modulus (GPa) = 26.64061 28.62846 27.63453
#
# Velocity S-wave (km/s) = 3.62572 3.75856 3.69274
# Velocity P-wave (km/s) = 6.26689 6.69424 6.48409
#
# Compressibility (1/GPa) = 0.02269155
#
# Stress axis : x y z
#
# Youngs Moduli (GPa) = 43.41170 77.14857 105.93787
#
# Poissons Ratio (x) = 0.39725 0.31467
# Poissons Ratio (y) = 0.22353 0.34463
# Poissons Ratio (z) = 0.12895 0.25098
#
# Static dielectric constant tensor:
#      x y z
#    x 3.413000 0.000000 0.000000 
#    y 0.000000 3.845910 0.000000 
#    z 0.000000 0.000000 3.947580 
# 
# 
# High freq. dielectric constant tensor:
#      x y z
#    x 1.769040 0.000000 0.000000 
#    y 0.000000 1.791810 0.000000 
#    z 0.000000 0.000000 1.797000 
# 
# From -- ./inp_files/19539.got.cif
#   From: 2010.03.12/outbox.cif.g09.slc.cpg/sg57_10_cif.got.tgz:19539.got - 2010.04.16 15:48:40.
