data_PCOD8234497
_publ_section_title
;
Structure prediction by ZEFSAII (Michael W. Deem and Ramdas Pophale) SiO2 
 PCOD8234497
Probable space group: P B C M
;
_chemical_formula_sum "Si O2"
_cell_formula_units_Z 48
_cell_length_a 18.989234
_cell_length_b 9.039861
_cell_length_c 14.074507
_cell_angle_alpha 90.000000
_cell_angle_beta 90.000000
_cell_angle_gamma 90.000000
_cell_volume 2416.030376
_symmetry_space_group_name_H-M "P B C M"
_symmetry_group_IT_number 57
_symmetry_cell_setting 'orthorhombic'
loop_
_space_group_symop_operation_xyz
x,y,z
-x,-y,1/2+z
x,1/2-y,-z
-x,1/2+y,1/2-z
-x,-y,-z
x,y,1/2-z
-x,1/2+y,z
x,1/2-y,1/2+z
loop_
_atom_site_type_symbol
_atom_site_label
_atom_site_fract_x
_atom_site_fract_y
_atom_site_fract_z
Si Si1 0.398003 0.912369 0.250000
Si Si2 0.178148 0.417304 0.519864
Si Si3 0.309564 0.600671 0.942764
Si Si4 0.048145 0.340777 0.641689
Si Si5 0.517249 0.131378 0.250000
Si Si6 0.087649 0.493019 0.141731
Si Si7 0.437320 0.913862 0.545007
O O1 0.348784 0.877855 0.158902
O O2 0.468991 0.809112 0.250000
O O3 0.434355 0.078094 0.250000
O O4 0.202955 0.250000 0.500000
O O5 0.240299 0.503012 0.573415
O O6 0.108620 0.423807 0.583981
O O7 0.158229 0.501735 0.421719
O O8 0.288957 0.750000 0.000000
O O9 0.363770 0.512131 0.011792
O O10 0.058852 0.389753 0.750000
O O11 0.052177 0.166490 0.626776
O O12 0.970474 0.389004 0.607560
O O13 0.557515 0.072385 0.157595
O O14 0.111273 0.520012 0.250000
O O15 0.437206 0.750000 0.500000
O O16 0.500000 0.000000 0.500000
#
# Coordination Sequence:
#
# PCOD8234497 Si02
#       7
#     4   8   8   8   4   8   8
#     4  12  24  42  66  94 118 151 201 244 308 357
#     4  10  22  39  57  82 120 162 199 239 299 355
#     4  11  24  42  59  86 125 157 193 247 294 363
#     4   9  18  33  58  85 114 151 197 252 294 344
#     4  12  20  42  68  90 118 155 193 248 306 347
#     4   9  18  35  56  84 116 149 201 251 291 344
#     4  11  21  38  62  88 118 148 194 242 291 355
#
# _framework density 19.867298999999999
#
# number of rings (size 3 to 8) (size 9 to 14) (size 15 to 20)
#    0.000    1.667    5.000    0.500    1.167    2.000 
#    6.000    0.000    0.000    0.000    0.000    0.000 
#    0.000    0.000    0.000    0.000    0.000    0.000 
#
# Total GULP energy -594800.382946 kJ/mol
# GULP energy per Si atom -12391.674645 kJ/mol
# Density = 1.982208 g / cm^3
# Si number density = 19.867299 Si / 1000 Ang^3
#
#
#
# Elastic Constant Matrix: (Units=GPa)
#
#
# Indices 1 2 3 4 5 6 
#
# 1 80.0571 31.2808 33.6738 0.0000 0.0000 0.0000
# 2 31.2808 44.9529 21.3381 0.0000 0.0000 0.0000
# 3 33.6738 21.3381 125.0471 0.0000 0.0000 0.0000
# 4 0.0000 0.0000 0.0000 24.3672 0.0000 0.0000
# 5 0.0000 0.0000 0.0000 0.0000 27.4489 0.0000
# 6 0.0000 0.0000 0.0000 0.0000 0.0000 35.6449
#
#
#
# Elastic Compliance Matrix: (Units=1/GPa)
#
#
# Indices 1 2 3 4 5 6 
#
# 1 0.018114 -0.011196 -0.002967 0.000000 0.000000 0.000000
# 2 -0.011196 0.031127 -0.002296 0.000000 0.000000 0.000000
# 3 -0.002967 -0.002296 0.009188 0.000000 0.000000 0.000000
# 4 0.000000 0.000000 0.000000 0.041039 0.000000 0.000000
# 5 0.000000 0.000000 0.000000 0.000000 0.036431 0.000000
# 6 0.000000 0.000000 0.000000 0.000000 0.000000 0.028055
#
#
# Mechanical properties :
#
#
# Convention : Reuss Voigt Hill
#
# Bulk Modulus (GPa) = 39.20270 46.96027 43.08149
# Shear Modulus (GPa) = 24.34563 28.40982 26.37773
#
# Velocity S-wave (km/s) = 3.50439 3.78561 3.64771
# Velocity P-wave (km/s) = 6.01244 6.54187 6.28273
#
# Compressibility (1/GPa) = 0.02550845
#
# Stress axis : x y z
#
# Youngs Moduli (GPa) = 55.20626 32.12696 108.83845
#
# Poissons Ratio (x) = 0.35970 0.32296
# Poissons Ratio (y) = 0.61810 0.24994
# Poissons Ratio (z) = 0.16382 0.07378
#
# Static dielectric constant tensor:
#      x y z
#    x 4.177220 0.000000 0.000000 
#    y 0.000000 3.524240 0.000000 
#    z 0.000000 0.000000 3.819090 
# 
# 
# High freq. dielectric constant tensor:
#      x y z
#    x 1.763770 0.000000 0.000000 
#    y 0.000000 1.756820 0.000000 
#    z 0.000000 0.000000 1.794470 
# 
# From -- ./inp_files/18997.got.cif
#   From: 2010.03.12/outbox.cif.g09.slc.cpg/sg57_10_cif.got.tgz:18997.got - 2010.04.16 15:48:40.
