data_PCOD8234780
_publ_section_title
;
Structure prediction by ZEFSAII (Michael W. Deem and Ramdas Pophale) SiO2 
 PCOD8234780
Probable space group: P B C M
;
_chemical_formula_sum "Si O2"
_cell_formula_units_Z 48
_cell_length_a 10.900314
_cell_length_b 11.350036
_cell_length_c 18.142414
_cell_angle_alpha 90.000000
_cell_angle_beta 90.000000
_cell_angle_gamma 90.000000
_cell_volume 2244.560525
_symmetry_space_group_name_H-M "P B C M"
_symmetry_group_IT_number 57
_symmetry_cell_setting 'orthorhombic'
loop_
_space_group_symop_operation_xyz
x,y,z
-x,-y,1/2+z
x,1/2-y,-z
-x,1/2+y,1/2-z
-x,-y,-z
x,y,1/2-z
-x,1/2+y,z
x,1/2-y,1/2+z
loop_
_atom_site_type_symbol
_atom_site_label
_atom_site_fract_x
_atom_site_fract_y
_atom_site_fract_z
Si Si1 0.269643 0.003474 0.576708
Si Si2 0.947002 0.330017 0.565914
Si Si3 0.795725 0.929665 0.576776
Si Si4 0.334331 0.232403 0.835966
Si Si5 0.396196 0.806946 0.666437
Si Si6 0.842192 0.344430 0.167127
O O1 0.133895 0.946950 0.578747
O O2 0.370516 0.912689 0.608851
O O3 0.294705 0.037081 0.491175
O O4 0.272294 0.121887 0.624266
O O5 0.890623 0.250000 0.500000
O O6 0.940699 0.252646 0.640501
O O7 0.086265 0.360452 0.545783
O O8 0.722600 0.853775 0.635779
O O9 0.851189 0.042500 0.616397
O O10 0.307536 0.219870 0.750000
O O11 0.478744 0.239915 0.853599
O O12 0.401169 0.859299 0.750000
O O13 0.293781 0.707586 0.660374
O O14 0.875939 0.379740 0.250000
#
# Coordination Sequence:
#
# PCOD8234780 Si02
#       6
#     8   8   8   8   8   8
#     4  11  23  43  69  95 128 175 223 266 328 398
#     4  11  23  44  69  92 130 175 215 270 335 394
#     4  12  25  41  66 101 133 172 217 276 335 389
#     4  11  25  43  65  97 135 172 220 274 327 387
#     4   9  22  44  68  92 129 180 222 269 329 388
#     4  10  23  43  66  95 130 173 222 268 328 398
#
# _framework density 21.385033
#
# number of rings (size 3 to 8) (size 9 to 14) (size 15 to 20)
#    0.000    1.333    1.667    3.000    4.667    2.667 
#    3.000    0.000    0.000    0.000    0.000    0.000 
#    0.000    0.000    0.000    0.000    0.000    0.000 
#
# Total GULP energy -595325.069229 kJ/mol
# GULP energy per Si atom -12402.605609 kJ/mol
# Density = 2.133636 g / cm^3
# Si number density = 21.385033 Si / 1000 Ang^3
#
#
#
# Elastic Constant Matrix: (Units=GPa)
#
#
# Indices 1 2 3 4 5 6 
#
# 1 73.2447 28.0159 36.6291 0.0000 0.0000 0.0000
# 2 28.0159 99.4096 59.1060 0.0000 0.0000 0.0000
# 3 36.6291 59.1060 147.0610 0.0000 0.0000 0.0000
# 4 0.0000 0.0000 0.0000 48.7003 0.0000 0.0000
# 5 0.0000 0.0000 0.0000 0.0000 26.1530 0.0000
# 6 0.0000 0.0000 0.0000 0.0000 0.0000 23.6496
#
#
#
# Elastic Compliance Matrix: (Units=1/GPa)
#
#
# Indices 1 2 3 4 5 6 
#
# 1 0.016185 -0.002844 -0.002888 0.000000 0.000000 0.000000
# 2 -0.002844 0.013718 -0.004805 0.000000 0.000000 0.000000
# 3 -0.002888 -0.004805 0.009450 0.000000 0.000000 0.000000
# 4 0.000000 0.000000 0.000000 0.020534 0.000000 0.000000
# 5 0.000000 0.000000 0.000000 0.000000 0.038237 0.000000
# 6 0.000000 0.000000 0.000000 0.000000 0.000000 0.042284
#
#
# Mechanical properties :
#
#
# Convention : Reuss Voigt Hill
#
# Bulk Modulus (GPa) = 54.70822 63.02416 58.86619
# Shear Modulus (GPa) = 29.83734 32.76487 31.30110
#
# Velocity S-wave (km/s) = 3.73935 3.91850 3.82997
# Velocity P-wave (km/s) = 6.65445 7.07163 6.86621
#
# Compressibility (1/GPa) = 0.01827879
#
# Stress axis : x y z
#
# Youngs Moduli (GPa) = 61.78525 72.89774 105.81473
#
# Poissons Ratio (x) = 0.20733 0.30561
# Poissons Ratio (y) = 0.17572 0.50844
# Poissons Ratio (z) = 0.17845 0.35027
#
# Static dielectric constant tensor:
#      x y z
#    x 3.657020 0.000000 0.000000 
#    y 0.000000 3.900840 0.000000 
#    z 0.000000 0.000000 4.100410 
# 
# 
# High freq. dielectric constant tensor:
#      x y z
#    x 1.825450 0.000000 0.000000 
#    y 0.000000 1.851250 0.000000 
#    z 0.000000 0.000000 1.849540 
# 
# From -- ./inp_files/21789.got.cif
#   From: 2010.03.12/outbox.cif.g09.slc.cpg/sg57_11_cif.got.tgz:21789.got - 2010.04.16 15:48:40.
