data_PCOD8234317
_publ_section_title
;
Structure prediction by ZEFSAII (Michael W. Deem and Ramdas Pophale) SiO2 
 PCOD8234317
Probable space group: P B C M
;
_chemical_formula_sum "Si O2"
_cell_formula_units_Z 56
_cell_length_a 11.627577
_cell_length_b 11.288765
_cell_length_c 21.408093
_cell_angle_alpha 90.000000
_cell_angle_beta 90.000000
_cell_angle_gamma 90.000000
_cell_volume 2810.047359
_symmetry_space_group_name_H-M "P B C M"
_symmetry_group_IT_number 57
_symmetry_cell_setting 'orthorhombic'
loop_
_space_group_symop_operation_xyz
x,y,z
-x,-y,1/2+z
x,1/2-y,-z
-x,1/2+y,1/2-z
-x,-y,-z
x,y,1/2-z
-x,1/2+y,z
x,1/2-y,1/2+z
loop_
_atom_site_type_symbol
_atom_site_label
_atom_site_fract_x
_atom_site_fract_y
_atom_site_fract_z
Si Si1 0.777038 0.945158 0.820183
Si Si2 0.610184 0.689535 0.093638
Si Si3 0.637162 0.324286 0.559744
Si Si4 0.955625 0.933511 0.060918
Si Si5 0.846473 0.306971 0.377243
Si Si6 0.969233 0.100162 0.319916
Si Si7 0.299899 0.092506 0.963783
O O1 0.739592 0.969637 0.750000
O O2 0.674824 0.868625 0.848658
O O3 0.895171 0.870908 0.825564
O O4 0.795186 0.071998 0.851635
O O5 0.474122 0.669154 0.104506
O O6 0.634171 0.830600 0.088900
O O7 0.655947 0.626172 0.031755
O O8 0.595345 0.250000 0.500000
O O9 0.743887 0.259082 0.589365
O O10 0.677772 0.454811 0.543455
O O11 0.834505 0.875790 0.042697
O O12 0.049548 0.832008 0.074525
O O13 0.935044 0.012943 0.123375
O O14 0.000000 0.000000 0.000000
O O15 0.897962 0.222262 0.323641
O O16 0.945294 0.045478 0.250000
#
# Coordination Sequence:
#
# PCOD8234317 Si02
#       7
#     8   8   8   8   8   8   8
#     4  10  22  42  66  91 126 174 219 266 319 383
#     4  11  24  40  64  89 127 167 219 262 319 387
#     4  12  23  40  64  97 129 169 210 267 329 396
#     4  11  22  38  61  97 135 162 209 272 329 389
#     4  11  23  38  67  97 131 167 215 266 335 394
#     4  10  21  40  62  93 130 171 215 265 332 403
#     4  11  22  41  64  94 127 164 207 265 329 385
#
# _framework density 19.92849
#
# number of rings (size 3 to 8) (size 9 to 14) (size 15 to 20)
#    0.000    1.143    2.857    5.143    2.000    1.714 
#    0.000    2.143    0.000    0.000    0.000    0.000 
#    0.000    0.000    0.000    0.000    0.000    0.000 
#
# Total GULP energy -694305.364237 kJ/mol
# GULP energy per Si atom -12398.310076 kJ/mol
# Density = 1.988313 g / cm^3
# Si number density = 19.928490 Si / 1000 Ang^3
#
#
#
# Elastic Constant Matrix: (Units=GPa)
#
#
# Indices 1 2 3 4 5 6 
#
# 1 123.9417 42.2480 16.2080 0.0000 0.0000 0.0000
# 2 42.2480 85.8133 31.5970 0.0000 0.0000 0.0000
# 3 16.2080 31.5970 61.6012 0.0000 0.0000 0.0000
# 4 0.0000 0.0000 0.0000 23.6951 0.0000 0.0000
# 5 0.0000 0.0000 0.0000 0.0000 27.3808 0.0000
# 6 0.0000 0.0000 0.0000 0.0000 0.0000 16.6240
#
#
#
# Elastic Compliance Matrix: (Units=1/GPa)
#
#
# Indices 1 2 3 4 5 6 
#
# 1 0.009696 -0.004727 -0.000127 0.000000 0.000000 0.000000
# 2 -0.004727 0.016671 -0.007307 0.000000 0.000000 0.000000
# 3 -0.000127 -0.007307 0.020015 0.000000 0.000000 0.000000
# 4 0.000000 0.000000 0.000000 0.042203 0.000000 0.000000
# 5 0.000000 0.000000 0.000000 0.000000 0.036522 0.000000
# 6 0.000000 0.000000 0.000000 0.000000 0.000000 0.060154
#
#
# Mechanical properties :
#
#
# Convention : Reuss Voigt Hill
#
# Bulk Modulus (GPa) = 45.33035 50.16247 47.74641
# Shear Modulus (GPa) = 23.04828 25.62687 24.33757
#
# Velocity S-wave (km/s) = 3.40450 3.58989 3.49842
# Velocity P-wave (km/s) = 6.18466 6.51222 6.35055
#
# Compressibility (1/GPa) = 0.02206028
#
# Stress axis : x y z
#
# Youngs Moduli (GPa) = 103.13346 59.98424 49.96281
#
# Poissons Ratio (x) = 0.28355 0.00632
# Poissons Ratio (y) = 0.48752 0.36509
# Poissons Ratio (z) = 0.01305 0.43832
#
# Static dielectric constant tensor:
#      x y z
#    x 3.883310 0.000000 0.000000 
#    y 0.000000 5.630930 0.000000 
#    z 0.000000 0.000000 3.694960 
# 
# 
# High freq. dielectric constant tensor:
#      x y z
#    x 1.789190 0.000000 0.000000 
#    y 0.000000 1.782880 0.000000 
#    z 0.000000 0.000000 1.762650 
# 
# From -- ./inp_files/25038.got.cif
#   From: 2010.03.12/outbox.cif.g09.slc.cpg/sg57_13_cif.got.tgz:25038.got - 2010.04.16 15:48:40.
