data_PCOD8234182
_publ_section_title
;
Structure prediction by ZEFSAII (Michael W. Deem and Ramdas Pophale) SiO2 
 PCOD8234182
Probable space group: P B C M
;
_chemical_formula_sum "Si O2"
_cell_formula_units_Z 64
_cell_length_a 24.015130
_cell_length_b 8.363432
_cell_length_c 15.616750
_cell_angle_alpha 90.000000
_cell_angle_beta 90.000000
_cell_angle_gamma 90.000000
_cell_volume 3136.607164
_symmetry_space_group_name_H-M "P B C M"
_symmetry_group_IT_number 57
_symmetry_cell_setting 'orthorhombic'
loop_
_space_group_symop_operation_xyz
x,y,z
-x,-y,1/2+z
x,1/2-y,-z
-x,1/2+y,1/2-z
-x,-y,-z
x,y,1/2-z
-x,1/2+y,z
x,1/2-y,1/2+z
loop_
_atom_site_type_symbol
_atom_site_label
_atom_site_fract_x
_atom_site_fract_y
_atom_site_fract_z
Si Si1 0.957493 0.017296 0.654045
Si Si2 0.634802 0.439844 0.496928
Si Si3 0.832608 0.527949 0.846281
Si Si4 0.149646 0.148691 0.083570
Si Si5 0.761078 0.439142 0.504335
Si Si6 0.563285 0.449681 0.845856
Si Si7 0.939804 0.343300 0.589525
Si Si8 0.557533 0.070963 0.845766
O O1 0.963749 0.948743 0.750000
O O2 0.902517 0.956474 0.608014
O O3 0.010151 0.970653 0.595485
O O4 0.952123 0.208859 0.660742
O O5 0.632332 0.250000 0.500000
O O6 0.698237 0.497265 0.488285
O O7 0.608265 0.510680 0.584492
O O8 0.601233 0.502806 0.413685
O O9 0.826959 0.462568 0.750000
O O10 0.839040 0.720719 0.842436
O O11 0.777067 0.489559 0.899289
O O12 0.883292 0.439769 0.894209
O O13 0.134887 0.250000 0.000000
O O14 0.201403 0.029412 0.066678
O O15 0.768710 0.250000 0.500000
O O16 0.579926 0.509204 0.750000
O O17 0.559900 0.260301 0.847301
O O18 0.503897 0.518907 0.873594
O O19 0.936824 0.250000 0.500000
O O20 0.571664 0.006549 0.750000
#
# Coordination Sequence:
#
# PCOD8234182 Si02
#       8
#     8   8   8   8   8   8   8   8
#     4  12  23  37  58  87 115 143 183 233 282 338
#     4   9  18  33  54  78 106 143 185 229 278 334
#     4  11  22  39  60  84 114 150 190 239 289 340
#     4  10  21  39  59  80 111 150 185 225 282 342
#     4  10  21  39  60  82 110 147 195 240 284 340
#     4   9  17  30  51  78 110 142 178 221 272 330
#     4  12  24  40  61  86 117 152 188 229 286 350
#     4   9  17  31  50  77 109 143 180 224 274 330
#
# _framework density 20.404212000000001
#
# number of rings (size 3 to 8) (size 9 to 14) (size 15 to 20)
#    0.000    1.750    0.000    6.000    0.000    0.500 
#    0.000    7.500    0.000    1.500    0.000    0.000 
#    0.000    0.000    0.000    0.000    0.000    0.000 
#
# Total GULP energy -793485.207161 kJ/mol
# GULP energy per Si atom -12398.206362 kJ/mol
# Density = 2.035777 g / cm^3
# Si number density = 20.404212 Si / 1000 Ang^3
#
#
#
# Elastic Constant Matrix: (Units=GPa)
#
#
# Indices 1 2 3 4 5 6 
#
# 1 112.4730 24.3326 46.9718 0.0000 0.0000 0.0000
# 2 24.3326 66.0042 8.6690 0.0000 0.0000 0.0000
# 3 46.9718 8.6690 104.3209 0.0000 0.0000 0.0000
# 4 0.0000 0.0000 0.0000 21.8118 0.0000 0.0000
# 5 0.0000 0.0000 0.0000 0.0000 16.7208 0.0000
# 6 0.0000 0.0000 0.0000 0.0000 0.0000 29.1387
#
#
#
# Elastic Compliance Matrix: (Units=1/GPa)
#
#
# Indices 1 2 3 4 5 6 
#
# 1 0.011774 -0.003685 -0.004995 0.000000 0.000000 0.000000
# 2 -0.003685 0.016471 0.000290 0.000000 0.000000 0.000000
# 3 -0.004995 0.000290 0.011811 0.000000 0.000000 0.000000
# 4 0.000000 0.000000 0.000000 0.045847 0.000000 0.000000
# 5 0.000000 0.000000 0.000000 0.000000 0.059806 0.000000
# 6 0.000000 0.000000 0.000000 0.000000 0.000000 0.034319
#
#
# Mechanical properties :
#
#
# Convention : Reuss Voigt Hill
#
# Bulk Modulus (GPa) = 42.96125 49.19388 46.07757
# Shear Modulus (GPa) = 24.44206 27.05590 25.74898
#
# Velocity S-wave (km/s) = 3.46481 3.64537 3.55624
# Velocity P-wave (km/s) = 6.09158 6.47150 6.28441
#
# Compressibility (1/GPa) = 0.02327679
#
# Stress axis : x y z
#
# Youngs Moduli (GPa) = 84.93046 60.71371 84.66749
#
# Poissons Ratio (x) = 0.22370 0.42295
# Poissons Ratio (y) = 0.31293 -0.02458
# Poissons Ratio (z) = 0.42426 -0.01763
#
# Static dielectric constant tensor:
#      x y z
#    x 3.652600 0.000000 0.000000 
#    y 0.000000 3.750900 0.000000 
#    z 0.000000 0.000000 3.998630 
# 
# 
# High freq. dielectric constant tensor:
#      x y z
#    x 1.789100 0.000000 0.000000 
#    y 0.000000 1.793590 0.000000 
#    z 0.000000 0.000000 1.804140 
# 
# From -- ./inp_files/19473.got.cif
#   From: 2010.03.12/outbox.cif.g09.slc.cpg/sg57_10_cif.got.tgz:19473.got - 2010.04.16 15:48:40.
