data_PCOD8234396
_publ_section_title
;
Structure prediction by ZEFSAII (Michael W. Deem and Ramdas Pophale) SiO2 
 PCOD8234396
Probable space group: P B C M
;
_chemical_formula_sum "Si O2"
_cell_formula_units_Z 40
_cell_length_a 8.162590
_cell_length_b 16.921367
_cell_length_c 14.201333
_cell_angle_alpha 90.000000
_cell_angle_beta 90.000000
_cell_angle_gamma 90.000000
_cell_volume 1961.519088
_symmetry_space_group_name_H-M "P B C M"
_symmetry_group_IT_number 57
_symmetry_cell_setting 'orthorhombic'
loop_
_space_group_symop_operation_xyz
x,y,z
-x,-y,1/2+z
x,1/2-y,-z
-x,1/2+y,1/2-z
-x,-y,-z
x,y,1/2-z
-x,1/2+y,z
x,1/2-y,1/2+z
loop_
_atom_site_type_symbol
_atom_site_label
_atom_site_fract_x
_atom_site_fract_y
_atom_site_fract_z
Si Si1 0.738629 0.674722 0.750000
Si Si2 0.565285 0.917979 0.089353
Si Si3 0.351618 0.672192 0.056528
Si Si4 0.984821 0.548505 0.750000
Si Si5 0.147373 0.525139 0.065575
Si Si6 0.455123 0.326193 0.750000
Si Si7 0.641657 0.494542 0.250000
O O1 0.658949 0.643384 0.845240
O O2 0.927702 0.641766 0.750000
O O3 0.704669 0.768501 0.750000
O O4 0.685757 0.979821 0.037797
O O5 0.437615 0.964706 0.153974
O O6 0.487721 0.870728 0.004680
O O7 0.187072 0.618664 0.063471
O O8 0.428278 0.689190 0.159523
O O9 0.296288 0.750000 0.000000
O O10 0.901715 0.500048 0.668145
O O11 0.177977 0.542064 0.750000
O O12 0.000000 0.500000 0.000000
O O13 0.370347 0.411284 0.750000
#
# Coordination Sequence:
#
# PCOD8234396 Si02
#       7
#     4   8   8   4   8   4   4
#     4   9  20  41  62  93 134 169 208 285 345 381
#     4  10  21  41  67  94 128 177 229 269 321 416
#     4  12  24  41  67  98 134 174 227 283 331 405
#     4  10  23  42  61  96 137 172 221 279 335 405
#     4  11  23  41  65  96 136 175 220 275 337 400
#     4  12  23  40  69 100 129 170 233 283 331 395
#     4  11  22  41  74  97 128 181 232 265 329 407
#
# _framework density 20.392358000000002
#
# number of rings (size 3 to 8) (size 9 to 14) (size 15 to 20)
#    0.000    1.200    4.000    3.000    2.800    0.000 
#    0.000    7.000    0.000    0.000    0.000    0.000 
#    0.000    0.000    0.000    0.000    0.000    0.000 
#
# Total GULP energy -495811.990516 kJ/mol
# GULP energy per Si atom -12395.299763 kJ/mol
# Density = 2.034594 g / cm^3
# Si number density = 20.392358 Si / 1000 Ang^3
#
#
#
# Elastic Constant Matrix: (Units=GPa)
#
#
# Indices 1 2 3 4 5 6 
#
# 1 131.5078 68.0140 35.5140 0.0000 0.0000 0.0000
# 2 68.0140 143.5876 49.4046 0.0000 0.0000 0.0000
# 3 35.5140 49.4046 126.2532 0.0000 0.0000 0.0000
# 4 0.0000 0.0000 0.0000 29.5811 0.0000 0.0000
# 5 0.0000 0.0000 0.0000 0.0000 30.1892 0.0000
# 6 0.0000 0.0000 0.0000 0.0000 0.0000 27.4636
#
#
#
# Elastic Compliance Matrix: (Units=1/GPa)
#
#
# Indices 1 2 3 4 5 6 
#
# 1 0.010209 -0.004447 -0.001132 0.000000 0.000000 0.000000
# 2 -0.004447 0.009985 -0.002656 0.000000 0.000000 0.000000
# 3 -0.001132 -0.002656 0.009278 0.000000 0.000000 0.000000
# 4 0.000000 0.000000 0.000000 0.033805 0.000000 0.000000
# 5 0.000000 0.000000 0.000000 0.000000 0.033124 0.000000
# 6 0.000000 0.000000 0.000000 0.000000 0.000000 0.036412
#
#
# Mechanical properties :
#
#
# Convention : Reuss Voigt Hill
#
# Bulk Modulus (GPa) = 76.90508 78.57930 77.74219
# Shear Modulus (GPa) = 32.54829 34.00784 33.27807
#
# Velocity S-wave (km/s) = 3.99946 4.08815 4.04405
# Velocity P-wave (km/s) = 7.68909 7.80393 7.74672
#
# Compressibility (1/GPa) = 0.01300304
#
# Stress axis : x y z
#
# Youngs Moduli (GPa) = 97.94846 100.15450 107.77694
#
# Poissons Ratio (x) = 0.44534 0.12199
# Poissons Ratio (y) = 0.43553 0.28629
# Poissons Ratio (z) = 0.11086 0.26604
#
# Static dielectric constant tensor:
#      x y z
#    x 3.842670 0.000000 0.000000 
#    y 0.000000 3.979390 0.000000 
#    z 0.000000 0.000000 3.611220 
# 
# 
# High freq. dielectric constant tensor:
#      x y z
#    x 1.783990 0.000000 0.000000 
#    y 0.000000 1.799600 0.000000 
#    z 0.000000 0.000000 1.822270 
# 
# From -- ./inp_files/15999.got.cif
#   From: 2010.03.12/outbox.cif.g09.slc.cpg/sg57_8_cif.got.tgz:15999.got - 2010.04.16 15:48:40.
