data_PCOD8234260
_publ_section_title
;
Structure prediction by ZEFSAII (Michael W. Deem and Ramdas Pophale) SiO2 
 PCOD8234260
Probable space group: P B C M
;
_chemical_formula_sum "Si O2"
_cell_formula_units_Z 40
_cell_length_a 16.246144
_cell_length_b 14.368536
_cell_length_c 8.427465
_cell_angle_alpha 90.000000
_cell_angle_beta 90.000000
_cell_angle_gamma 90.000000
_cell_volume 1967.251007
_symmetry_space_group_name_H-M "P B C M"
_symmetry_group_IT_number 57
_symmetry_cell_setting 'orthorhombic'
loop_
_space_group_symop_operation_xyz
x,y,z
-x,-y,1/2+z
x,1/2-y,-z
-x,1/2+y,1/2-z
-x,-y,-z
x,y,1/2-z
-x,1/2+y,z
x,1/2-y,1/2+z
loop_
_atom_site_type_symbol
_atom_site_label
_atom_site_fract_x
_atom_site_fract_y
_atom_site_fract_z
Si Si1 0.628072 0.514986 0.565629
Si Si2 0.062521 0.150253 0.934128
Si Si3 0.196558 0.479601 0.932085
Si Si4 0.890183 0.352885 0.564207
Si Si5 0.476919 0.645558 0.936120
O O1 0.650142 0.514517 0.750000
O O2 0.708549 0.541314 0.466579
O O3 0.595813 0.412618 0.518657
O O4 0.562603 0.595009 0.522334
O O5 0.039393 0.158605 0.750000
O O6 0.089352 0.250000 0.000000
O O7 0.139061 0.082370 0.956034
O O8 0.982569 0.111319 0.026765
O O9 0.177388 0.456610 0.750000
O O10 0.177356 0.586505 0.972361
O O11 0.879480 0.250000 0.500000
O O12 0.873008 0.358367 0.750000
O O13 0.460091 0.646183 0.750000
O O14 0.478711 0.750000 0.000000
#
# Coordination Sequence:
#
# PCOD8234260 Si02
#       5
#     8   8   8   8   8
#     4  10  22  40  60  87 119 150 191 238 284 340
#     4  11  22  39  60  85 116 154 198 242 290 343
#     4  12  24  39  59  86 119 155 194 240 292 342
#     4  11  22  39  60  85 116 153 197 243 291 344
#     4  10  21  39  64  89 116 151 188 230 284 344
#
# _framework density 20.332941999999999
#
# number of rings (size 3 to 8) (size 9 to 14) (size 15 to 20)
#    0.000    1.200    0.000    8.400    0.000    4.000 
#    0.000    6.000    0.000    0.000    0.000    0.000 
#    0.000    0.000    0.000    0.000    0.000    0.000 
#
# Total GULP energy -496263.179649 kJ/mol
# GULP energy per Si atom -12406.579491 kJ/mol
# Density = 2.028666 g / cm^3
# Si number density = 20.332942 Si / 1000 Ang^3
#
#
#
# Elastic Constant Matrix: (Units=GPa)
#
#
# Indices 1 2 3 4 5 6 
#
# 1 57.1459 -0.8682 8.5640 0.0000 0.0000 0.0000
# 2 -0.8682 65.9073 9.5010 0.0000 0.0000 0.0000
# 3 8.5640 9.5010 93.4369 0.0000 0.0000 0.0000
# 4 0.0000 0.0000 0.0000 33.3374 0.0000 0.0000
# 5 0.0000 0.0000 0.0000 0.0000 33.1355 0.0000
# 6 0.0000 0.0000 0.0000 0.0000 0.0000 17.2950
#
#
#
# Elastic Compliance Matrix: (Units=1/GPa)
#
#
# Indices 1 2 3 4 5 6 
#
# 1 0.017757 0.000476 -0.001676 0.000000 0.000000 0.000000
# 2 0.000476 0.015411 -0.001611 0.000000 0.000000 0.000000
# 3 -0.001676 -0.001611 0.011020 0.000000 0.000000 0.000000
# 4 0.000000 0.000000 0.000000 0.029996 0.000000 0.000000
# 5 0.000000 0.000000 0.000000 0.000000 0.030179 0.000000
# 6 0.000000 0.000000 0.000000 0.000000 0.000000 0.057820
#
#
# Mechanical properties :
#
#
# Convention : Reuss Voigt Hill
#
# Bulk Modulus (GPa) = 25.92931 27.87597 26.90264
# Shear Modulus (GPa) = 27.67605 30.03980 28.85793
#
# Velocity S-wave (km/s) = 3.69337 3.84786 3.77141
# Velocity P-wave (km/s) = 5.56489 5.78627 5.67666
#
# Compressibility (1/GPa) = 0.03856639
#
# Stress axis : x y z
#
# Youngs Moduli (GPa) = 56.31436 64.88758 90.74577
#
# Poissons Ratio (x) = -0.03085 0.15208
# Poissons Ratio (y) = -0.02678 0.14616
# Poissons Ratio (z) = 0.09438 0.10451
#
# Static dielectric constant tensor:
#      x y z
#    x 3.692300 0.000000 0.000000 
#    y 0.000000 3.718580 0.000000 
#    z 0.000000 0.000000 3.779210 
# 
# 
# High freq. dielectric constant tensor:
#      x y z
#    x 1.790690 0.000000 0.000000 
#    y 0.000000 1.799120 0.000000 
#    z 0.000000 0.000000 1.812190 
# 
# From -- ./inp_files/4268.got.cif
#   From: 2010.03.12/outbox.cif.g09.slc.cpg/sg57_3_cif.got.tgz:4268.got - 2010.04.16 15:48:40.
