data_PCOD8234115
_publ_section_title
;
Structure prediction by ZEFSAII (Michael W. Deem and Ramdas Pophale) SiO2 
 PCOD8234115
Probable space group: P B C M
;
_chemical_formula_sum "Si O2"
_cell_formula_units_Z 40
_cell_length_a 25.008042
_cell_length_b 5.199745
_cell_length_c 14.824969
_cell_angle_alpha 90.000000
_cell_angle_beta 90.000000
_cell_angle_gamma 90.000000
_cell_volume 1927.771387
_symmetry_space_group_name_H-M "P B C M"
_symmetry_group_IT_number 57
_symmetry_cell_setting 'orthorhombic'
loop_
_space_group_symop_operation_xyz
x,y,z
-x,-y,1/2+z
x,1/2-y,-z
-x,1/2+y,1/2-z
-x,-y,-z
x,y,1/2-z
-x,1/2+y,z
x,1/2-y,1/2+z
loop_
_atom_site_type_symbol
_atom_site_label
_atom_site_fract_x
_atom_site_fract_y
_atom_site_fract_z
Si Si1 0.877231 0.701263 0.103782
Si Si2 0.373115 0.506746 0.948759
Si Si3 0.811888 0.306001 0.852943
Si Si4 0.964825 0.619489 0.250000
Si Si5 0.473623 0.463639 0.852940
Si Si6 0.729033 0.250000 0.000000
O O1 0.836580 0.462424 0.112170
O O2 0.930177 0.635795 0.159247
O O3 0.853669 0.961618 0.145823
O O4 0.892504 0.750000 0.000000
O O5 0.408327 0.487533 0.857894
O O6 0.385995 0.250000 0.000000
O O7 0.308401 0.547293 0.943813
O O8 0.398192 0.750000 0.000000
O O9 0.791337 0.271327 0.750000
O O10 0.764386 0.383320 0.921850
O O11 0.991003 0.339529 0.250000
O O12 0.490847 0.453274 0.750000
O O13 0.495974 0.204147 0.899665
#
# Coordination Sequence:
#
# PCOD8234115 Si02
#       6
#     8   8   8   4   8   4
#     4  12  24  44  71 101 132 175 227 270 323 387
#     4  10  23  39  57  88 127 155 203 261 324 381
#     4  12  23  42  70  96 130 176 223 277 321 389
#     4  12  26  44  70 102 148 170 218 278 336 394
#     4  10  21  38  61  87 117 162 211 260 317 388
#     4  10  26  40  64  96 130 166 224 268 334 384
#
# _framework density 20.74935
#
# number of rings (size 3 to 8) (size 9 to 14) (size 15 to 20)
#    0.600    0.400    4.000    2.400    2.800    4.000 
#    0.000    1.000    0.000    0.000    0.000    0.000 
#    0.000    0.000    0.000    0.000    0.000    0.000 
#
# Total GULP energy -495543.744308 kJ/mol
# GULP energy per Si atom -12388.593608 kJ/mol
# Density = 2.070212 g / cm^3
# Si number density = 20.749350 Si / 1000 Ang^3
#
#
#
# Elastic Constant Matrix: (Units=GPa)
#
#
# Indices 1 2 3 4 5 6 
#
# 1 99.5171 16.5607 35.5483 0.0000 0.0000 0.0000
# 2 16.5607 132.8332 11.3871 0.0000 0.0000 0.0000
# 3 35.5483 11.3871 86.3389 0.0000 0.0000 0.0000
# 4 0.0000 0.0000 0.0000 20.1185 0.0000 0.0000
# 5 0.0000 0.0000 0.0000 0.0000 37.7701 0.0000
# 6 0.0000 0.0000 0.0000 0.0000 0.0000 34.0768
#
#
#
# Elastic Compliance Matrix: (Units=1/GPa)
#
#
# Indices 1 2 3 4 5 6 
#
# 1 0.011932 -0.001079 -0.004771 0.000000 0.000000 0.000000
# 2 -0.001079 0.007712 -0.000573 0.000000 0.000000 0.000000
# 3 -0.004771 -0.000573 0.013622 0.000000 0.000000 0.000000
# 4 0.000000 0.000000 0.000000 0.049705 0.000000 0.000000
# 5 0.000000 0.000000 0.000000 0.000000 0.026476 0.000000
# 6 0.000000 0.000000 0.000000 0.000000 0.000000 0.029345
#
#
# Mechanical properties :
#
#
# Convention : Reuss Voigt Hill
#
# Bulk Modulus (GPa) = 48.96781 49.52016 49.24399
# Shear Modulus (GPa) = 31.55683 35.40596 33.48139
#
# Velocity S-wave (km/s) = 3.90405 4.13530 4.02134
# Velocity P-wave (km/s) = 6.63122 6.83510 6.73393
#
# Compressibility (1/GPa) = 0.02042158
#
# Stress axis : x y z
#
# Youngs Moduli (GPa) = 83.80761 129.67074 73.41066
#
# Poissons Ratio (x) = 0.13987 0.35021
# Poissons Ratio (y) = 0.09040 0.04206
# Poissons Ratio (z) = 0.39981 0.07430
#
# Static dielectric constant tensor:
#      x y z
#    x 3.716370 0.000000 0.000000 
#    y 0.000000 4.094610 0.000000 
#    z 0.000000 0.000000 3.667170 
# 
# 
# High freq. dielectric constant tensor:
#      x y z
#    x 1.805670 0.000000 0.000000 
#    y 0.000000 1.831500 0.000000 
#    z 0.000000 0.000000 1.803490 
# 
# From -- ./inp_files/19442.got.cif
#   From: 2010.03.12/outbox.cif.g09.slc.cpg/sg57_10_cif.got.tgz:19442.got - 2010.04.16 15:48:40.
