data_PCOD8234903
_publ_section_title
;
Structure prediction by ZEFSAII (Michael W. Deem and Ramdas Pophale) SiO2 
 PCOD8234903
Probable space group: P B C M
;
_chemical_formula_sum "Si O2"
_cell_formula_units_Z 48
_cell_length_a 13.452651
_cell_length_b 19.150645
_cell_length_c 10.104605
_cell_angle_alpha 90.000000
_cell_angle_beta 90.000000
_cell_angle_gamma 90.000000
_cell_volume 2603.218503
_symmetry_space_group_name_H-M "P B C M"
_symmetry_group_IT_number 57
_symmetry_cell_setting 'orthorhombic'
loop_
_space_group_symop_operation_xyz
x,y,z
-x,-y,1/2+z
x,1/2-y,-z
-x,1/2+y,1/2-z
-x,-y,-z
x,y,1/2-z
-x,1/2+y,z
x,1/2-y,1/2+z
loop_
_atom_site_type_symbol
_atom_site_label
_atom_site_fract_x
_atom_site_fract_y
_atom_site_fract_z
Si Si1 0.412129 0.416252 0.750000
Si Si2 0.902011 0.573557 0.602361
Si Si3 0.362779 0.667605 0.750000
Si Si4 0.937227 0.409181 0.898309
Si Si5 0.311594 0.449324 0.486666
Si Si6 0.536531 0.942536 0.250000
Si Si7 0.276345 0.611993 0.488753
Si Si8 0.401457 0.829401 0.750000
O O1 0.342223 0.412495 0.622251
O O2 0.477753 0.485635 0.750000
O O3 0.482685 0.348932 0.750000
O O4 0.922069 0.602993 0.750000
O O5 0.921771 0.491576 0.600328
O O6 0.788307 0.588164 0.563312
O O7 0.974760 0.612319 0.498832
O O8 0.461476 0.621567 0.750000
O O9 0.294737 0.653458 0.623207
O O10 0.396191 0.746927 0.750000
O O11 0.965157 0.384202 0.750000
O O12 0.835828 0.371864 0.943349
O O13 0.397383 0.438184 0.380303
O O14 0.293716 0.530579 0.514345
O O15 0.351834 0.637858 0.378672
#
# Coordination Sequence:
#
# PCOD8234903 Si02
#       8
#     4   8   4   8   8   4   8   4
#     4  12  22  34  59  81 110 155 197 236 283 346
#     4   9  18  31  49  81 115 142 174 225 276 328
#     4  12  26  36  55  85 113 149 195 238 275 346
#     4   9  18  31  52  77 112 146 175 216 276 334
#     4  11  20  34  57  85 113 149 190 233 290 340
#     4  12  20  38  55  81 112 151 197 234 281 340
#     4  11  20  37  56  81 115 151 183 231 286 345
#     4  12  24  40  55  79 117 151 191 236 289 334
#
# _framework density 18.438713
#
# number of rings (size 3 to 8) (size 9 to 14) (size 15 to 20)
#    0.000    1.333    5.000    2.000    2.333    0.000 
#    0.000    0.000    0.000    0.000    0.000    7.000 
#    0.000    0.000    0.000    0.000    0.000    0.000 
#
# Total GULP energy -595339.599395 kJ/mol
# GULP energy per Si atom -12402.908321 kJ/mol
# Density = 1.839675 g / cm^3
# Si number density = 18.438713 Si / 1000 Ang^3
#
#
#
# Elastic Constant Matrix: (Units=GPa)
#
#
# Indices 1 2 3 4 5 6 
#
# 1 115.5196 18.2008 68.9366 0.0000 0.0000 0.0000
# 2 18.2008 47.9069 14.0194 0.0000 0.0000 0.0000
# 3 68.9366 14.0194 173.3270 0.0000 0.0000 0.0000
# 4 0.0000 0.0000 0.0000 7.4957 0.0000 0.0000
# 5 0.0000 0.0000 0.0000 0.0000 1372.2935 0.0000
# 6 0.0000 0.0000 0.0000 0.0000 0.0000 8.7516
#
#
#
# Elastic Compliance Matrix: (Units=1/GPa)
#
#
# Indices 1 2 3 4 5 6 
#
# 1 0.011807 -0.003187 -0.004438 0.000000 0.000000 0.000000
# 2 -0.003187 0.022240 -0.000531 0.000000 0.000000 0.000000
# 3 -0.004438 -0.000531 0.007578 0.000000 0.000000 0.000000
# 4 0.000000 0.000000 0.000000 0.133410 0.000000 0.000000
# 5 0.000000 0.000000 0.000000 0.000000 0.000729 0.000000
# 6 0.000000 0.000000 0.000000 0.000000 0.000000 0.114265
#
#
# Mechanical properties :
#
#
# Convention : Reuss Voigt Hill
#
# Bulk Modulus (GPa) = 39.50724 59.89633 49.70179
# Shear Modulus (GPa) = 15.88413 293.41460 154.64936
#
# Velocity S-wave (km/s) = 2.93824 12.62835 9.16811
# Velocity P-wave (km/s) = 5.74315 15.65848 11.79347
#
# Compressibility (1/GPa) = 0.02531181
#
# Stress axis : x y z
#
# Youngs Moduli (GPa) = 84.69396 44.96381 131.96737
#
# Poissons Ratio (x) = 0.14330 0.58571
# Poissons Ratio (y) = 0.26992 0.07012
# Poissons Ratio (z) = 0.37589 0.02389
#
# Static dielectric constant tensor:
#      x y z
#    x 3.670490 0.000000 0.000000 
#    y 0.000000 2.947710 0.000000 
#    z 0.000000 0.000000 3.673280 
# 
# 
# High freq. dielectric constant tensor:
#      x y z
#    x 1.725410 0.000000 0.000000 
#    y 0.000000 1.655620 0.000000 
#    z 0.000000 0.000000 1.740440 
# 
# From -- ./inp_files/4796.got.cif
#   From: 2010.03.12/outbox.cif.g09.slc.cpg/sg57_3_cif.got.tgz:4796.got - 2010.04.16 15:48:40.
