data_PCOD8234698
_publ_section_title
;
Structure prediction by ZEFSAII (Michael W. Deem and Ramdas Pophale) SiO2 
 PCOD8234698
Probable space group: P B C M
;
_chemical_formula_sum "Si O2"
_cell_formula_units_Z 40
_cell_length_a 11.953695
_cell_length_b 8.881818
_cell_length_c 17.009684
_cell_angle_alpha 90.000000
_cell_angle_beta 90.000000
_cell_angle_gamma 90.000000
_cell_volume 1805.927394
_symmetry_space_group_name_H-M "P B C M"
_symmetry_group_IT_number 57
_symmetry_cell_setting 'orthorhombic'
loop_
_space_group_symop_operation_xyz
x,y,z
-x,-y,1/2+z
x,1/2-y,-z
-x,1/2+y,1/2-z
-x,-y,-z
x,y,1/2-z
-x,1/2+y,z
x,1/2-y,1/2+z
loop_
_atom_site_type_symbol
_atom_site_label
_atom_site_fract_x
_atom_site_fract_y
_atom_site_fract_z
Si Si1 0.910581 0.464234 0.620946
Si Si2 0.115695 0.291596 0.250000
Si Si3 0.713452 0.970970 0.750000
Si Si4 0.371135 0.465896 0.585708
Si Si5 0.135204 0.743100 0.250000
Si Si6 0.537047 0.250000 0.000000
Si Si7 0.127213 0.095916 0.038740
O O1 0.883479 0.614809 0.668986
O O2 0.836231 0.337478 0.666600
O O3 0.871896 0.469817 0.530122
O O4 0.046289 0.441483 0.613176
O O5 0.225451 0.189268 0.250000
O O6 0.997612 0.209170 0.250000
O O7 0.627067 0.992592 0.821276
O O8 0.813409 0.093211 0.750000
O O9 0.387202 0.627437 0.544409
O O10 0.462551 0.341856 0.562385
O O11 0.251752 0.391237 0.569523
O O12 0.084631 0.250000 0.000000
#
# Coordination Sequence:
#
# PCOD8234698 Si02
#       7
#     8   4   4   8   4   4   8
#     4  10  23  37  59  95 136 182 218 262 318 399
#     4  11  21  39  57  91 138 178 214 263 319 398
#     4  12  26  40  72  98 134 184 219 275 342 408
#     4  11  24  46  70  99 126 175 222 289 349 403
#     4  11  21  37  57  93 136 174 217 268 317 390
#     4  10  26  48  74  92 130 168 228 306 348 394
#     4  11  21  38  66  94 133 179 230 268 329 409
#
# _framework density 22.149284000000002
#
# number of rings (size 3 to 8) (size 9 to 14) (size 15 to 20)
#    0.000    1.200    1.000    6.000    2.800    2.400 
#    1.800    0.000    0.000    1.200    0.000    0.000 
#    0.000    0.000    0.000    0.000    0.000    0.000 
#
# Total GULP energy -495723.866006 kJ/mol
# GULP energy per Si atom -12393.096650 kJ/mol
# Density = 2.209887 g / cm^3
# Si number density = 22.149284 Si / 1000 Ang^3
#
#
#
# Elastic Constant Matrix: (Units=GPa)
#
#
# Indices 1 2 3 4 5 6 
#
# 1 66.8851 28.2761 37.0326 0.0000 0.0000 0.0000
# 2 28.2761 113.0603 45.0809 0.0000 0.0000 0.0000
# 3 37.0326 45.0809 155.2588 0.0000 0.0000 0.0000
# 4 0.0000 0.0000 0.0000 22.0455 0.0000 0.0000
# 5 0.0000 0.0000 0.0000 0.0000 34.6578 0.0000
# 6 0.0000 0.0000 0.0000 0.0000 0.0000 20.6559
#
#
#
# Elastic Compliance Matrix: (Units=1/GPa)
#
#
# Indices 1 2 3 4 5 6 
#
# 1 0.018188 -0.003188 -0.003413 0.000000 0.000000 0.000000
# 2 -0.003188 0.010562 -0.002306 0.000000 0.000000 0.000000
# 3 -0.003413 -0.002306 0.007924 0.000000 0.000000 0.000000
# 4 0.000000 0.000000 0.000000 0.045361 0.000000 0.000000
# 5 0.000000 0.000000 0.000000 0.000000 0.028854 0.000000
# 6 0.000000 0.000000 0.000000 0.000000 0.000000 0.048412
#
#
# Mechanical properties :
#
#
# Convention : Reuss Voigt Hill
#
# Bulk Modulus (GPa) = 53.02077 61.77595 57.39836
# Shear Modulus (GPa) = 27.26250 30.45946 28.86098
#
# Velocity S-wave (km/s) = 3.51216 3.71238 3.61365
# Velocity P-wave (km/s) = 6.35900 6.80639 6.58649
#
# Compressibility (1/GPa) = 0.01886053
#
# Stress axis : x y z
#
# Youngs Moduli (GPa) = 54.98044 94.68108 126.19113
#
# Poissons Ratio (x) = 0.30186 0.43064
# Poissons Ratio (y) = 0.17528 0.29103
# Poissons Ratio (z) = 0.18763 0.21836
#
# Static dielectric constant tensor:
#      x y z
#    x 3.644380 0.000000 0.000000 
#    y 0.000000 3.985970 0.000000 
#    z 0.000000 0.000000 4.558200 
# 
# 
# High freq. dielectric constant tensor:
#      x y z
#    x 1.836460 0.000000 0.000000 
#    y 0.000000 1.877830 0.000000 
#    z 0.000000 0.000000 1.899250 
# 
# From -- ./inp_files/21689.got.cif
#   From: 2010.03.12/outbox.cif.g09.slc.cpg/sg57_11_cif.got.tgz:21689.got - 2010.04.16 15:48:40.
