data_PCOD8234605
_publ_section_title
;
Structure prediction by ZEFSAII (Michael W. Deem and Ramdas Pophale) SiO2 
 PCOD8234605
Probable space group: P B C M
;
_chemical_formula_sum "Si O2"
_cell_formula_units_Z 36
_cell_length_a 21.408647
_cell_length_b 5.016104
_cell_length_c 15.127108
_cell_angle_alpha 90.000000
_cell_angle_beta 90.000000
_cell_angle_gamma 90.000000
_cell_volume 1624.469872
_symmetry_space_group_name_H-M "P B C M"
_symmetry_group_IT_number 57
_symmetry_cell_setting 'orthorhombic'
loop_
_space_group_symop_operation_xyz
x,y,z
-x,-y,1/2+z
x,1/2-y,-z
-x,1/2+y,1/2-z
-x,-y,-z
x,y,1/2-z
-x,1/2+y,z
x,1/2-y,1/2+z
loop_
_atom_site_type_symbol
_atom_site_label
_atom_site_fract_x
_atom_site_fract_y
_atom_site_fract_z
Si Si1 0.363388 0.321420 0.598305
Si Si2 0.833309 0.999158 0.443429
Si Si3 0.038130 0.429024 0.145322
Si Si4 0.541303 0.859722 0.750000
Si Si5 0.289120 0.688237 0.149509
O O1 0.387509 0.250000 0.500000
O O2 0.419699 0.417714 0.660787
O O3 0.313182 0.562918 0.590432
O O4 0.334614 0.061986 0.643206
O O5 0.856029 0.250000 0.500000
O O6 0.779565 0.102039 0.378993
O O7 0.806980 0.750000 0.500000
O O8 0.892017 0.891213 0.389151
O O9 0.042096 0.425467 0.250000
O O10 0.005496 0.693851 0.109206
O O11 0.517420 0.557263 0.750000
O O12 0.286716 0.789770 0.250000
#
# Coordination Sequence:
#
# PCOD8234605 Si02
#       5
#     8   8   8   4   8
#     4  12  25  45  72 103 138 181 226 280 337 396
#     4  12  25  39  61  96 130 166 219 278 339 403
#     4  10  22  41  62  85 121 171 221 270 333 405
#     4  12  26  46  72 104 144 180 228 272 328 400
#     4  12  23  44  69  97 135 177 225 278 344 402
#
# _framework density 22.161076000000001
#
# number of rings (size 3 to 8) (size 9 to 14) (size 15 to 20)
#    0.000    0.444    2.222    7.333    0.000    3.556 
#    0.000    6.667    0.000    0.000    0.000    0.000 
#    0.000    0.000    0.000    0.000    0.000    0.000 
#
# Total GULP energy -446668.136751 kJ/mol
# GULP energy per Si atom -12407.448243 kJ/mol
# Density = 2.211064 g / cm^3
# Si number density = 22.161076 Si / 1000 Ang^3
#
#
#
# Elastic Constant Matrix: (Units=GPa)
#
#
# Indices 1 2 3 4 5 6 
#
# 1 97.2958 8.4033 56.6258 0.0000 0.0000 0.0000
# 2 8.4033 109.6194 41.3316 0.0000 0.0000 0.0000
# 3 56.6258 41.3316 96.0550 0.0000 0.0000 0.0000
# 4 0.0000 0.0000 0.0000 28.7869 0.0000 0.0000
# 5 0.0000 0.0000 0.0000 0.0000 21.9373 0.0000
# 6 0.0000 0.0000 0.0000 0.0000 0.0000 39.3978
#
#
#
# Elastic Compliance Matrix: (Units=1/GPa)
#
#
# Indices 1 2 3 4 5 6 
#
# 1 0.016356 0.002843 -0.010865 0.000000 0.000000 0.000000
# 2 0.002843 0.011383 -0.006574 0.000000 0.000000 0.000000
# 3 -0.010865 -0.006574 0.019645 0.000000 0.000000 0.000000
# 4 0.000000 0.000000 0.000000 0.034738 0.000000 0.000000
# 5 0.000000 0.000000 0.000000 0.000000 0.045584 0.000000
# 6 0.000000 0.000000 0.000000 0.000000 0.000000 0.025382
#
#
# Mechanical properties :
#
#
# Convention : Reuss Voigt Hill
#
# Bulk Modulus (GPa) = 54.97230 57.29908 56.13569
# Shear Modulus (GPa) = 26.54698 31.13170 28.83934
#
# Velocity S-wave (km/s) = 3.46484 3.75212 3.61134
# Velocity P-wave (km/s) = 6.39269 6.68454 6.54024
#
# Compressibility (1/GPa) = 0.01819098
#
# Stress axis : x y z
#
# Youngs Moduli (GPa) = 61.13958 87.84837 50.90416
#
# Poissons Ratio (x) = -0.24975 0.55309
# Poissons Ratio (y) = -0.17381 0.33465
# Poissons Ratio (z) = 0.66431 0.57752
#
# Static dielectric constant tensor:
#      x y z
#    x 3.826040 0.000000 0.000000 
#    y 0.000000 4.243920 0.000000 
#    z 0.000000 0.000000 3.994950 
# 
# 
# High freq. dielectric constant tensor:
#      x y z
#    x 1.871730 0.000000 0.000000 
#    y 0.000000 1.891370 0.000000 
#    z 0.000000 0.000000 1.878130 
# 
# From -- ./inp_files/19219.got.cif
#   From: 2010.03.12/outbox.cif.g09.slc.cpg/sg57_10_cif.got.tgz:19219.got - 2010.04.16 15:48:40.
