data_PCOD8234859
_publ_section_title
;
Structure prediction by ZEFSAII (Michael W. Deem and Ramdas Pophale) SiO2 
 PCOD8234859
Probable space group: P B C M
;
_chemical_formula_sum "Si O2"
_cell_formula_units_Z 40
_cell_length_a 11.304116
_cell_length_b 8.124475
_cell_length_c 16.461566
_cell_angle_alpha 90.000000
_cell_angle_beta 90.000000
_cell_angle_gamma 90.000000
_cell_volume 1511.830350
_symmetry_space_group_name_H-M "P B C M"
_symmetry_group_IT_number 57
_symmetry_cell_setting 'orthorhombic'
loop_
_space_group_symop_operation_xyz
x,y,z
-x,-y,1/2+z
x,1/2-y,-z
-x,1/2+y,1/2-z
-x,-y,-z
x,y,1/2-z
-x,1/2+y,z
x,1/2-y,1/2+z
loop_
_atom_site_type_symbol
_atom_site_label
_atom_site_fract_x
_atom_site_fract_y
_atom_site_fract_z
Si Si1 0.014448 0.568143 0.840067
Si Si2 0.841264 0.151148 0.083810
Si Si3 0.248664 0.403416 0.660014
Si Si4 0.350966 0.439124 0.156752
Si Si5 0.574519 0.392872 0.440668
O O1 0.955096 0.578435 0.750000
O O2 0.094669 0.730862 0.851415
O O3 0.108092 0.417734 0.842768
O O4 0.916995 0.520495 0.909238
O O5 0.704847 0.099041 0.108724
O O6 0.846914 0.250000 0.000000
O O7 0.300138 0.444089 0.750000
O O8 0.266719 0.213825 0.638242
O O9 0.306278 0.523895 0.592794
O O10 0.356550 0.492292 0.250000
O O11 0.481297 0.369292 0.132656
O O12 0.618017 0.250000 0.500000
O O13 0.500000 0.500000 0.500000
#
# Coordination Sequence:
#
# PCOD8234859 Si02
#       5
#     8   8   8   8   8
#     4  11  24  45  72 103 144 195 248 301 372 458
#     4  12  27  45  73 110 150 192 250 317 382 447
#     4  10  24  46  73 105 145 195 254 306 366 448
#     4  11  25  47  75 103 146 200 252 307 377 461
#     4  12  26  45  71 107 148 194 244 311 374 438
#
# _framework density 26.457995
#
# number of rings (size 3 to 8) (size 9 to 14) (size 15 to 20)
#    0.000    0.800    2.000    4.200    5.600    1.600 
#    0.000    0.000    0.000    0.000    0.000    0.000 
#    0.000    0.000    0.000    0.000    0.000    0.000 
#
# Total GULP energy -495524.721440 kJ/mol
# GULP energy per Si atom -12388.118036 kJ/mol
# Density = 2.639778 g / cm^3
# Si number density = 26.457995 Si / 1000 Ang^3
#
#
#
# Elastic Constant Matrix: (Units=GPa)
#
#
# Indices 1 2 3 4 5 6 
#
# 1 118.4713 17.0821 50.2243 0.0000 0.0000 0.0000
# 2 17.0821 75.3468 62.1664 0.0000 0.0000 0.0000
# 3 50.2243 62.1664 161.0143 0.0000 0.0000 0.0000
# 4 0.0000 0.0000 0.0000 52.7004 0.0000 0.0000
# 5 0.0000 0.0000 0.0000 0.0000 44.0953 0.0000
# 6 0.0000 0.0000 0.0000 0.0000 0.0000 31.7125
#
#
#
# Elastic Compliance Matrix: (Units=1/GPa)
#
#
# Indices 1 2 3 4 5 6 
#
# 1 0.009737 0.000438 -0.003206 0.000000 0.000000 0.000000
# 2 0.000438 0.019496 -0.007664 0.000000 0.000000 0.000000
# 3 -0.003206 -0.007664 0.010170 0.000000 0.000000 0.000000
# 4 0.000000 0.000000 0.000000 0.018975 0.000000 0.000000
# 5 0.000000 0.000000 0.000000 0.000000 0.022678 0.000000
# 6 0.000000 0.000000 0.000000 0.000000 0.000000 0.031533
#
#
# Mechanical properties :
#
#
# Convention : Reuss Voigt Hill
#
# Bulk Modulus (GPa) = 53.94272 68.19758 61.07015
# Shear Modulus (GPa) = 35.80817 40.72561 38.26689
#
# Velocity S-wave (km/s) = 3.68285 3.92759 3.80719
# Velocity P-wave (km/s) = 6.20619 6.81173 6.51600
#
# Compressibility (1/GPa) = 0.01853818
#
# Stress axis : x y z
#
# Youngs Moduli (GPa) = 102.70126 51.29288 98.33145
#
# Poissons Ratio (x) = -0.02246 0.31528
# Poissons Ratio (y) = -0.04497 0.75359
# Poissons Ratio (z) = 0.32929 0.39310
#
# Static dielectric constant tensor:
#      x y z
#    x 23.700150 0.000000 0.000000 
#    y 0.000000 4.732490 0.000000 
#    z 0.000000 0.000000 4.795370 
# 
# 
# High freq. dielectric constant tensor:
#      x y z
#    x 2.079770 0.000000 0.000000 
#    y 0.000000 2.069990 0.000000 
#    z 0.000000 0.000000 2.060250 
# 
# From -- ./inp_files/21585.got.cif
#   From: 2010.03.12/outbox.cif.g09.slc.cpg/sg57_11_cif.got.tgz:21585.got - 2010.04.16 15:48:40.
