data_PCOD8234066
_publ_section_title
;
Structure prediction by ZEFSAII (Michael W. Deem and Ramdas Pophale) SiO2 
 PCOD8234066
Probable space group: P B C M
;
_chemical_formula_sum "Si O2"
_cell_formula_units_Z 28
_cell_length_a 12.919797
_cell_length_b 5.081931
_cell_length_c 19.215163
_cell_angle_alpha 90.000000
_cell_angle_beta 90.000000
_cell_angle_gamma 90.000000
_cell_volume 1261.619889
_symmetry_space_group_name_H-M "P B C M"
_symmetry_group_IT_number 57
_symmetry_cell_setting 'orthorhombic'
loop_
_space_group_symop_operation_xyz
x,y,z
-x,-y,1/2+z
x,1/2-y,-z
-x,1/2+y,1/2-z
-x,-y,-z
x,y,1/2-z
-x,1/2+y,z
x,1/2-y,1/2+z
loop_
_atom_site_type_symbol
_atom_site_label
_atom_site_fract_x
_atom_site_fract_y
_atom_site_fract_z
Si Si1 0.567893 0.044249 0.828892
Si Si2 0.710952 0.997980 0.957066
Si Si3 0.929763 0.547423 0.400256
Si Si4 0.062810 0.548611 0.750000
O O1 0.610700 0.019034 0.750000
O O2 0.521703 0.332103 0.842368
O O3 0.663086 0.998400 0.880366
O O4 0.835416 0.988525 0.952840
O O5 0.674651 0.250000 0.000000
O O6 0.668959 0.750000 0.000000
O O7 0.880151 0.524370 0.322134
O O8 0.981747 0.830219 0.412939
O O9 0.960254 0.360775 0.750000
#
# Coordination Sequence:
#
# PCOD8234066 Si02
#       4
#     8   8   8   4
#     4  10  23  45  70  94 122 161 207 260 318 374
#     4  12  26  40  62  97 128 167 209 252 315 371
#     4  10  21  38  59  86 125 167 209 253 301 361
#     4   8  16  32  54  80 106 150 206 250 294 338
#
# _framework density 22.193691000000001
#
# number of rings (size 3 to 8) (size 9 to 14) (size 15 to 20)
#    0.000    1.714    0.000    3.429    2.000    6.857 
#    0.000    0.000    0.000    0.000    0.000    0.000 
#    0.000    0.000    0.000    0.000    0.000    0.000 
#
# Total GULP energy -347164.818208 kJ/mol
# GULP energy per Si atom -12398.743507 kJ/mol
# Density = 2.214318 g / cm^3
# Si number density = 22.193691 Si / 1000 Ang^3
#
#
#
# Elastic Constant Matrix: (Units=GPa)
#
#
# Indices 1 2 3 4 5 6 
#
# 1 64.8490 16.8801 49.4271 0.0000 0.0000 0.0000
# 2 16.8801 133.8908 39.5483 0.0000 0.0000 0.0000
# 3 49.4271 39.5483 113.2675 0.0000 0.0000 0.0000
# 4 0.0000 0.0000 0.0000 32.8194 0.0000 0.0000
# 5 0.0000 0.0000 0.0000 0.0000 42.0046 0.0000
# 6 0.0000 0.0000 0.0000 0.0000 0.0000 -12.1484
#
#
#
# Elastic Compliance Matrix: (Units=1/GPa)
#
#
# Indices 1 2 3 4 5 6 
#
# 1 0.023106 0.000073 -0.010108 0.000000 0.000000 0.000000
# 2 0.000073 0.008328 -0.002939 0.000000 0.000000 0.000000
# 3 -0.010108 -0.002939 0.014266 0.000000 0.000000 0.000000
# 4 0.000000 0.000000 0.000000 0.030470 0.000000 0.000000
# 5 0.000000 0.000000 0.000000 0.000000 0.023807 0.000000
# 6 0.000000 0.000000 0.000000 0.000000 0.000000 -0.082316
#
#
# Mechanical properties :
#
#
# Convention : Reuss Voigt Hill
#
# Bulk Modulus (GPa) = 50.63358 58.19094 54.41226
# Shear Modulus (GPa) = 99.61336 26.27857 62.94596
#
# Velocity S-wave (km/s) = 6.70679 3.44474 5.33139
# Velocity P-wave (km/s) = 9.10158 6.48831 7.90370
#
# Compressibility (1/GPa) = 0.01974974
#
# Stress axis : x y z
#
# Youngs Moduli (GPa) = 43.27898 120.07886 70.09682
#
# Poissons Ratio (x) = -0.00873 0.70855
# Poissons Ratio (y) = -0.00315 0.20605
# Poissons Ratio (z) = 0.43747 0.35297
#
# Static dielectric constant tensor:
#      x y z
#    x 3.351110 0.000000 0.000000 
#    y 0.000000 4.105870 0.000000 
#    z 0.000000 0.000000 4.356460 
# 
# 
# High freq. dielectric constant tensor:
#      x y z
#    x 1.830030 0.000000 0.000000 
#    y 0.000000 1.890580 0.000000 
#    z 0.000000 0.000000 1.897700 
# 
# From -- ./inp_files/24759.got.cif
#   From: 2010.03.12/outbox.cif.g09.slc.cpg/sg57_13_cif.got.tgz:24759.got - 2010.04.16 15:48:40.
