data_PCOD8234349
_publ_section_title
;
Structure prediction by ZEFSAII (Michael W. Deem and Ramdas Pophale) SiO2 
 PCOD8234349
Probable space group: P B C M
;
_chemical_formula_sum "Si O2"
_cell_formula_units_Z 48
_cell_length_a 9.907632
_cell_length_b 28.863206
_cell_length_c 8.473972
_cell_angle_alpha 90.000000
_cell_angle_beta 90.000000
_cell_angle_gamma 90.000000
_cell_volume 2423.268075
_symmetry_space_group_name_H-M "P B C M"
_symmetry_group_IT_number 57
_symmetry_cell_setting 'orthorhombic'
loop_
_space_group_symop_operation_xyz
x,y,z
-x,-y,1/2+z
x,1/2-y,-z
-x,1/2+y,1/2-z
-x,-y,-z
x,y,1/2-z
-x,1/2+y,z
x,1/2-y,1/2+z
loop_
_atom_site_type_symbol
_atom_site_label
_atom_site_fract_x
_atom_site_fract_y
_atom_site_fract_z
Si Si1 0.789688 0.199664 0.563069
Si Si2 0.982143 0.376175 0.566457
Si Si3 0.882066 0.030759 0.566663
Si Si4 0.482277 0.199999 0.935049
Si Si5 0.722637 0.878847 0.061610
Si Si6 0.363718 0.020051 0.933811
O O1 0.824035 0.250000 0.500000
O O2 0.814200 0.195613 0.750000
O O3 0.635418 0.186957 0.517096
O O4 0.891522 0.168137 0.466185
O O5 0.977467 0.389784 0.750000
O O6 0.134964 0.366192 0.515550
O O7 0.918072 0.416183 0.459912
O O8 0.860546 0.020808 0.750000
O O9 0.747733 0.017896 0.474178
O O10 0.000000 0.000000 0.500000
O O11 0.469295 0.203536 0.750000
O O12 0.384071 0.159615 0.998682
O O13 0.437950 0.250000 0.000000
O O14 0.737699 0.878902 0.250000
O O15 0.673971 0.929148 0.997763
O O16 0.380318 0.025583 0.750000
O O17 0.500000 0.000000 0.000000
#
# Coordination Sequence:
#
# PCOD8234349 Si02
#       6
#     8   8   8   8   8   8
#     4  10  21  40  65  92 124 160 202 255 309 369
#     4  12  25  40  62  93 124 163 209 254 309 371
#     4  12  24  42  65  90 124 164 207 256 312 370
#     4   9  20  39  63  90 119 157 199 246 305 363
#     4  10  22  41  62  87 123 164 205 251 308 367
#     4  11  24  41  63  92 126 165 208 256 308 368
#
# _framework density 19.807960999999999
#
# number of rings (size 3 to 8) (size 9 to 14) (size 15 to 20)
#    0.000    1.333    1.667    4.000    2.333    2.667 
#    0.000    1.667    0.000    0.000    0.000    0.000 
#    0.000    0.000    0.000    0.000    0.000    0.000 
#
# Total GULP energy -595356.745440 kJ/mol
# GULP energy per Si atom -12403.265530 kJ/mol
# Density = 1.976288 g / cm^3
# Si number density = 19.807961 Si / 1000 Ang^3
#
#
#
# Elastic Constant Matrix: (Units=GPa)
#
#
# Indices 1 2 3 4 5 6 
#
# 1 153.4944 79.3420 20.9385 0.0000 0.0000 0.0000
# 2 79.3420 124.0784 20.3301 0.0000 0.0000 0.0000
# 3 20.9385 20.3301 48.8809 0.0000 0.0000 0.0000
# 4 0.0000 0.0000 0.0000 33.6392 0.0000 0.0000
# 5 0.0000 0.0000 0.0000 0.0000 33.8953 0.0000
# 6 0.0000 0.0000 0.0000 0.0000 0.0000 105.7114
#
#
#
# Elastic Compliance Matrix: (Units=1/GPa)
#
#
# Indices 1 2 3 4 5 6 
#
# 1 0.009864 -0.006026 -0.001719 0.000000 0.000000 0.000000
# 2 -0.006026 0.012330 -0.002547 0.000000 0.000000 0.000000
# 3 -0.001719 -0.002547 0.022254 0.000000 0.000000 0.000000
# 4 0.000000 0.000000 0.000000 0.029727 0.000000 0.000000
# 5 0.000000 0.000000 0.000000 0.000000 0.029503 0.000000
# 6 0.000000 0.000000 0.000000 0.000000 0.000000 0.009460
#
#
# Mechanical properties :
#
#
# Convention : Reuss Voigt Hill
#
# Bulk Modulus (GPa) = 41.90456 63.07498 52.48977
# Shear Modulus (GPa) = 35.29170 48.37205 41.83188
#
# Velocity S-wave (km/s) = 4.22559 4.94707 4.60050
# Velocity P-wave (km/s) = 6.70886 8.03391 7.40110
#
# Compressibility (1/GPa) = 0.02386375
#
# Stress axis : x y z
#
# Youngs Moduli (GPa) = 101.37559 81.10236 44.93657
#
# Poissons Ratio (x) = 0.48873 0.07725
# Poissons Ratio (y) = 0.61089 0.11445
# Poissons Ratio (z) = 0.17428 0.20656
#
# Static dielectric constant tensor:
#      x y z
#    x 3.807860 0.000000 0.000000 
#    y 0.000000 5.424000 0.000000 
#    z 0.000000 0.000000 3.579330 
# 
# 
# High freq. dielectric constant tensor:
#      x y z
#    x 1.783560 0.000000 0.000000 
#    y 0.000000 1.781690 0.000000 
#    z 0.000000 0.000000 1.774820 
# 
# From -- ./inp_files/1976.got.cif
#   From: 2010.03.12/outbox.cif.g09.slc.cpg/sg57_1_cif.got.tgz:1976.got - 2010.04.16 15:48:40.
