data_PCOD8234990
_publ_section_title
;
Structure prediction by ZEFSAII (Michael W. Deem and Ramdas Pophale) SiO2 
 PCOD8234990
Probable space group: P B C M
;
_chemical_formula_sum "Si O2"
_cell_formula_units_Z 48
_cell_length_a 30.698064
_cell_length_b 9.058011
_cell_length_c 8.608577
_cell_angle_alpha 90.000000
_cell_angle_beta 90.000000
_cell_angle_gamma 90.000000
_cell_volume 2393.730202
_symmetry_space_group_name_H-M "P B C M"
_symmetry_group_IT_number 57
_symmetry_cell_setting 'orthorhombic'
loop_
_space_group_symop_operation_xyz
x,y,z
-x,-y,1/2+z
x,1/2-y,-z
-x,1/2+y,1/2-z
-x,-y,-z
x,y,1/2-z
-x,1/2+y,z
x,1/2-y,1/2+z
loop_
_atom_site_type_symbol
_atom_site_label
_atom_site_fract_x
_atom_site_fract_y
_atom_site_fract_z
Si Si1 0.459520 0.587541 0.933680
Si Si2 0.959858 0.088393 0.434324
Si Si3 0.791215 0.591028 0.568499
Si Si4 0.130677 0.911691 0.066312
Si Si5 0.625280 0.588506 0.067047
Si Si6 0.704489 0.412065 0.930377
O O1 0.463161 0.593177 0.750000
O O2 0.415280 0.509376 0.989570
O O3 0.459623 0.750000 0.000000
O O4 0.500000 0.500000 0.000000
O O5 0.964872 0.250000 0.500000
O O6 0.960405 0.087320 0.250000
O O7 0.914077 0.023308 0.495234
O O8 0.000000 0.000000 0.500000
O O9 0.778920 0.750000 0.500000
O O10 0.802010 0.604693 0.750000
O O11 0.832397 0.527566 0.477659
O O12 0.751596 0.480444 0.537784
O O13 0.126155 0.898180 0.250000
O O14 0.141927 0.750000 0.000000
O O15 0.626917 0.600686 0.250000
O O16 0.619409 0.750000 0.000000
O O17 0.669647 0.516885 0.009878
O O18 0.693468 0.402348 0.750000
O O19 0.702625 0.250000 0.000000
#
# Coordination Sequence:
#
# PCOD8234990 Si02
#       6
#     8   8   8   8   8   8
#     4  11  24  41  63  91 123 161 203 251 302 359
#     4  11  22  39  61  88 120 156 198 245 296 353
#     4  11  24  41  61  89 121 156 197 245 297 352
#     4  11  22  39  62  88 118 156 198 243 295 353
#     4  11  24  41  63  91 124 160 201 248 301 356
#     4  11  24  41  64  91 122 159 201 246 297 355
#
# _framework density 20.052384
#
# number of rings (size 3 to 8) (size 9 to 14) (size 15 to 20)
#    0.000    1.000    0.000    8.000    0.000   11.333 
#    0.000    3.333    0.000    0.000    0.000    0.000 
#    0.000    0.000    0.000    0.000    0.000    0.000 
#
# Total GULP energy -595473.667136 kJ/mol
# GULP energy per Si atom -12405.701399 kJ/mol
# Density = 2.000674 g / cm^3
# Si number density = 20.052384 Si / 1000 Ang^3
#
#
#
# Elastic Constant Matrix: (Units=GPa)
#
#
# Indices 1 2 3 4 5 6 
#
# 1 124.7460 53.6724 58.8365 0.0000 0.0000 0.0000
# 2 53.6724 128.1407 50.6445 0.0000 0.0000 0.0000
# 3 58.8365 50.6445 134.7369 0.0000 0.0000 0.0000
# 4 0.0000 0.0000 0.0000 41.1346 0.0000 0.0000
# 5 0.0000 0.0000 0.0000 0.0000 36.1179 0.0000
# 6 0.0000 0.0000 0.0000 0.0000 0.0000 -2.4982
#
#
#
# Elastic Compliance Matrix: (Units=1/GPa)
#
#
# Indices 1 2 3 4 5 6 
#
# 1 0.011120 -0.003216 -0.003647 0.000000 0.000000 0.000000
# 2 -0.003216 0.010096 -0.002390 0.000000 0.000000 0.000000
# 3 -0.003647 -0.002390 0.009913 0.000000 0.000000 0.000000
# 4 0.000000 0.000000 0.000000 0.024310 0.000000 0.000000
# 5 0.000000 0.000000 0.000000 0.000000 0.027687 0.000000
# 6 0.000000 0.000000 0.000000 0.000000 0.000000 -0.400293
#
#
# Mechanical properties :
#
#
# Convention : Reuss Voigt Hill
#
# Bulk Modulus (GPa) = 79.22890 79.32560 79.27725
# Shear Modulus (GPa) = -16.98069 29.91553 6.46742
#
# Velocity S-wave (km/s) = -2.91317 3.86666 1.79785
# Velocity P-wave (km/s) = 5.31802 7.71880 6.62802
#
# Compressibility (1/GPa) = 0.01262166
#
# Stress axis : x y z
#
# Youngs Moduli (GPa) = 89.92594 99.05091 100.87888
#
# Poissons Ratio (x) = 0.31859 0.36791
# Poissons Ratio (y) = 0.28924 0.24113
# Poissons Ratio (z) = 0.32796 0.23676
#
# Static dielectric constant tensor:
#      x y z
#    x 3.814740 0.000000 0.000000 
#    y 0.000000 3.727860 0.000000 
#    z 0.000000 0.000000 3.884630 
# 
# 
# High freq. dielectric constant tensor:
#      x y z
#    x 1.802780 0.000000 0.000000 
#    y 0.000000 1.792610 0.000000 
#    z 0.000000 0.000000 1.804170 
# 
# From -- ./inp_files/9999.got.cif
#   From: 2010.03.12/outbox.cif.g09.slc.cpg/sg57_5_cif.got.tgz:9999.got - 2010.04.16 15:48:40.
