data_PCOD8234654
_publ_section_title
;
Structure prediction by ZEFSAII (Michael W. Deem and Ramdas Pophale) SiO2 
 PCOD8234654
Probable space group: P B C M
;
_chemical_formula_sum "Si O2"
_cell_formula_units_Z 56
_cell_length_a 20.428396
_cell_length_b 8.424913
_cell_length_c 14.662221
_cell_angle_alpha 90.000000
_cell_angle_beta 90.000000
_cell_angle_gamma 90.000000
_cell_volume 2523.477600
_symmetry_space_group_name_H-M "P B C M"
_symmetry_group_IT_number 57
_symmetry_cell_setting 'orthorhombic'
loop_
_space_group_symop_operation_xyz
x,y,z
-x,-y,1/2+z
x,1/2-y,-z
-x,1/2+y,1/2-z
-x,-y,-z
x,y,1/2-z
-x,1/2+y,z
x,1/2-y,1/2+z
loop_
_atom_site_type_symbol
_atom_site_label
_atom_site_fract_x
_atom_site_fract_y
_atom_site_fract_z
Si Si1 0.914804 0.425272 0.645430
Si Si2 0.946170 0.062898 0.645527
Si Si3 0.700267 0.523419 0.455247
Si Si4 0.532311 0.478783 0.651580
Si Si5 0.421130 0.835419 0.088147
Si Si6 0.338973 0.158259 0.641222
Si Si7 0.841298 0.933649 0.984543
O O1 0.892287 0.445486 0.750000
O O2 0.931688 0.244406 0.622338
O O3 0.856216 0.482330 0.580967
O O4 0.978085 0.531880 0.623603
O O5 0.930994 0.019480 0.750000
O O6 0.901826 0.949789 0.583939
O O7 0.655809 0.375085 0.423563
O O8 0.674166 0.662378 0.389130
O O9 0.698844 0.551857 0.565351
O O10 0.777008 0.488008 0.437249
O O11 0.505909 0.523816 0.750000
O O12 0.564584 0.303281 0.660962
O O13 0.465301 0.505072 0.594492
O O14 0.585813 0.610956 0.623846
O O15 0.448968 0.750000 0.000000
O O16 0.319747 0.131895 0.750000
O O17 0.825366 0.750000 0.000000
#
# Coordination Sequence:
#
# PCOD8234654 Si02
#       7
#     8   8   8   8   8   8   8
#     4  10  22  42  69  98 132 173 219 274 326 379
#     4  10  22  42  67 100 134 170 220 272 325 381
#     4  11  25  44  64  95 130 176 220 258 328 393
#     4  11  24  42  68  98 123 162 218 274 332 393
#     4  12  24  40  67  92 129 165 208 268 333 391
#     4  10  22  44  67  91 126 164 215 271 319 383
#     4  12  24  41  65  96 132 177 221 266 322 393
#
# _framework density 22.191596000000001
#
# number of rings (size 3 to 8) (size 9 to 14) (size 15 to 20)
#    0.000    1.143    2.857    3.429    2.000    6.286 
#    0.000    0.000    0.000    0.000    0.000    0.000 
#    0.000    0.000    0.000    0.000    0.000    0.000 
#
# Total GULP energy -693798.581152 kJ/mol
# GULP energy per Si atom -12389.260378 kJ/mol
# Density = 2.214109 g / cm^3
# Si number density = 22.191596 Si / 1000 Ang^3
#
#
#
# Elastic Constant Matrix: (Units=GPa)
#
#
# Indices 1 2 3 4 5 6 
#
# 1 116.1196 55.9348 33.0621 0.0000 0.0000 0.0000
# 2 55.9348 93.9612 18.1585 0.0000 0.0000 0.0000
# 3 33.0621 18.1585 70.5984 0.0000 0.0000 0.0000
# 4 0.0000 0.0000 0.0000 26.2037 0.0000 0.0000
# 5 0.0000 0.0000 0.0000 0.0000 26.5292 0.0000
# 6 0.0000 0.0000 0.0000 0.0000 0.0000 33.1972
#
#
#
# Elastic Compliance Matrix: (Units=1/GPa)
#
#
# Indices 1 2 3 4 5 6 
#
# 1 0.013255 -0.007041 -0.004397 0.000000 0.000000 0.000000
# 2 -0.007041 0.014940 -0.000545 0.000000 0.000000 0.000000
# 3 -0.004397 -0.000545 0.016364 0.000000 0.000000 0.000000
# 4 0.000000 0.000000 0.000000 0.038163 0.000000 0.000000
# 5 0.000000 0.000000 0.000000 0.000000 0.037694 0.000000
# 6 0.000000 0.000000 0.000000 0.000000 0.000000 0.030123
#
#
# Mechanical properties :
#
#
# Convention : Reuss Voigt Hill
#
# Bulk Modulus (GPa) = 48.56023 54.99889 51.77956
# Shear Modulus (GPa) = 27.56812 28.75428 28.16120
#
# Velocity S-wave (km/s) = 3.52842 3.60353 3.56617
# Velocity P-wave (km/s) = 6.20721 6.49241 6.35141
#
# Compressibility (1/GPa) = 0.02059298
#
# Stress axis : x y z
#
# Youngs Moduli (GPa) = 75.44100 66.93592 61.11046
#
# Poissons Ratio (x) = 0.47131 0.26868
# Poissons Ratio (y) = 0.53120 0.03331
# Poissons Ratio (z) = 0.33168 0.03649
#
# Static dielectric constant tensor:
#      x y z
#    x 3.938040 0.000000 0.000000 
#    y 0.000000 10.481840 0.000000 
#    z 0.000000 0.000000 4.249330 
# 
# 
# High freq. dielectric constant tensor:
#      x y z
#    x 1.864930 0.000000 0.000000 
#    y 0.000000 1.870900 0.000000 
#    z 0.000000 0.000000 1.883440 
# 
# From -- ./inp_files/19346.got.cif
#   From: 2010.03.12/outbox.cif.g09.slc.cpg/sg57_10_cif.got.tgz:19346.got - 2010.04.16 15:48:40.
