data_PCOD8234457
_publ_section_title
;
Structure prediction by ZEFSAII (Michael W. Deem and Ramdas Pophale) SiO2 
 PCOD8234457
Probable space group: P B C M
;
_chemical_formula_sum "Si O2"
_cell_formula_units_Z 48
_cell_length_a 30.622560
_cell_length_b 9.165893
_cell_length_c 8.697545
_cell_angle_alpha 90.000000
_cell_angle_beta 90.000000
_cell_angle_gamma 90.000000
_cell_volume 2441.253966
_symmetry_space_group_name_H-M "P B C M"
_symmetry_group_IT_number 57
_symmetry_cell_setting 'orthorhombic'
loop_
_space_group_symop_operation_xyz
x,y,z
-x,-y,1/2+z
x,1/2-y,-z
-x,1/2+y,1/2-z
-x,-y,-z
x,y,1/2-z
-x,1/2+y,z
x,1/2-y,1/2+z
loop_
_atom_site_type_symbol
_atom_site_label
_atom_site_fract_x
_atom_site_fract_y
_atom_site_fract_z
Si Si1 0.119203 0.589191 0.068504
Si Si2 0.619634 0.402976 0.569183
Si Si3 0.460878 0.091645 0.931916
Si Si4 0.717339 0.095273 0.067885
Si Si5 0.203792 0.094101 0.929259
Si Si6 0.040209 0.088673 0.433064
O O1 0.109503 0.593784 0.250000
O O2 0.166124 0.520835 0.030302
O O3 0.117110 0.750000 0.000000
O O4 0.084373 0.488805 0.983907
O O5 0.604437 0.250000 0.500000
O O6 0.618993 0.384169 0.750000
O O7 0.585493 0.524896 0.514830
O O8 0.668345 0.446497 0.512510
O O9 0.465268 0.095991 0.750000
O O10 0.463987 0.250000 0.000000
O O11 0.500000 0.000000 0.000000
O O12 0.720301 0.108223 0.250000
O O13 0.750588 0.971723 0.006486
O O14 0.731707 0.250000 0.000000
O O15 0.207213 0.119867 0.750000
O O16 0.193271 0.250000 0.000000
O O17 0.039130 0.250000 0.500000
O O18 0.037176 0.094946 0.250000
O O19 0.000000 0.000000 0.500000
#
# Coordination Sequence:
#
# PCOD8234457 Si02
#       6
#     8   8   8   8   8   8
#     4  11  23  40  61  88 118 153 194 238 286 340
#     4   9  19  35  56  80 109 142 181 226 276 330
#     4  11  23  38  56  80 109 144 183 229 279 334
#     4   9  18  35  56  81 110 144 184 228 275 330
#     4  10  22  37  56  82 115 150 188 232 281 333
#     4  12  25  43  65  91 122 157 195 239 287 339
#
# _framework density 19.662026000000001
#
# number of rings (size 3 to 8) (size 9 to 14) (size 15 to 20)
#    0.000    1.667    0.000    4.500    0.000    6.667 
#    0.000    0.000    0.000    0.000    0.000    0.000 
#    0.000    0.000    0.000    0.000    0.000    0.000 
#
# Total GULP energy -595304.845325 kJ/mol
# GULP energy per Si atom -12402.184278 kJ/mol
# Density = 1.961727 g / cm^3
# Si number density = 19.662026 Si / 1000 Ang^3
#
#
#
# Elastic Constant Matrix: (Units=GPa)
#
#
# Indices 1 2 3 4 5 6 
#
# 1 134.0361 83.2489 58.5920 0.0000 0.0000 0.0000
# 2 83.2489 173.3930 59.8087 0.0000 0.0000 0.0000
# 3 58.5920 59.8087 83.7234 0.0000 0.0000 0.0000
# 4 0.0000 0.0000 0.0000 39.3899 0.0000 0.0000
# 5 0.0000 0.0000 0.0000 0.0000 27.6163 0.0000
# 6 0.0000 0.0000 0.0000 0.0000 0.0000 47.7964
#
#
#
# Elastic Compliance Matrix: (Units=1/GPa)
#
#
# Indices 1 2 3 4 5 6 
#
# 1 0.012513 -0.003964 -0.005925 0.000000 0.000000 0.000000
# 2 -0.003964 0.008909 -0.003590 0.000000 0.000000 0.000000
# 3 -0.005925 -0.003590 0.018655 0.000000 0.000000 0.000000
# 4 0.000000 0.000000 0.000000 0.025387 0.000000 0.000000
# 5 0.000000 0.000000 0.000000 0.000000 0.036210 0.000000
# 6 0.000000 0.000000 0.000000 0.000000 0.000000 0.020922
#
#
# Mechanical properties :
#
#
# Convention : Reuss Voigt Hill
#
# Bulk Modulus (GPa) = 76.22730 88.27242 82.24986
# Shear Modulus (GPa) = 32.48293 35.59405 34.03849
#
# Velocity S-wave (km/s) = 4.06897 4.25937 4.16526
# Velocity P-wave (km/s) = 7.80566 8.31757 8.06568
#
# Compressibility (1/GPa) = 0.01311866
#
# Stress axis : x y z
#
# Youngs Moduli (GPa) = 79.91920 112.25085 53.60423
#
# Poissons Ratio (x) = 0.44494 0.31761
# Poissons Ratio (y) = 0.31678 0.19244
# Poissons Ratio (z) = 0.47353 0.40298
#
# Static dielectric constant tensor:
#      x y z
#    x 4.152680 0.000000 0.000000 
#    y 0.000000 3.622800 0.000000 
#    z 0.000000 0.000000 3.612050 
# 
# 
# High freq. dielectric constant tensor:
#      x y z
#    x 1.786530 0.000000 0.000000 
#    y 0.000000 1.773860 0.000000 
#    z 0.000000 0.000000 1.768080 
# 
# From -- ./inp_files/10033.got.cif
#   From: 2010.03.12/outbox.cif.g09.slc.cpg/sg57_6_cif.got.tgz:10033.got - 2010.04.16 15:48:40.
