data_PCOD8234085
_publ_section_title
;
Structure prediction by ZEFSAII (Michael W. Deem and Ramdas Pophale) SiO2 
 PCOD8234085
Probable space group: P B C M
;
_chemical_formula_sum "Si O2"
_cell_formula_units_Z 40
_cell_length_a 12.623052
_cell_length_b 9.346781
_cell_length_c 16.741651
_cell_angle_alpha 90.000000
_cell_angle_beta 90.000000
_cell_angle_gamma 90.000000
_cell_volume 1975.262063
_symmetry_space_group_name_H-M "P B C M"
_symmetry_group_IT_number 57
_symmetry_cell_setting 'orthorhombic'
loop_
_space_group_symop_operation_xyz
x,y,z
-x,-y,1/2+z
x,1/2-y,-z
-x,1/2+y,1/2-z
-x,-y,-z
x,y,1/2-z
-x,1/2+y,z
x,1/2-y,1/2+z
loop_
_atom_site_type_symbol
_atom_site_label
_atom_site_fract_x
_atom_site_fract_y
_atom_site_fract_z
Si Si1 0.683546 0.301005 0.843293
Si Si2 0.282316 0.475907 0.657091
Si Si3 0.475948 0.127894 0.057511
Si Si4 0.915487 0.703763 0.345357
Si Si5 0.886402 0.025302 0.155137
O O1 0.654900 0.319260 0.750000
O O2 0.579878 0.322901 0.895444
O O3 0.771453 0.416031 0.870961
O O4 0.730498 0.143928 0.860665
O O5 0.291269 0.445391 0.750000
O O6 0.388405 0.412351 0.621117
O O7 0.180848 0.393138 0.621913
O O8 0.431555 0.250000 0.000000
O O9 0.500000 0.000000 0.000000
O O10 0.916092 0.706517 0.250000
O O11 0.023375 0.632241 0.378206
O O12 0.903698 0.865230 0.379144
O O13 0.894009 0.022180 0.250000
#
# Coordination Sequence:
#
# PCOD8234085 Si02
#       5
#     8   8   8   8   8
#     4  10  21  38  60  86 116 151 194 240 284 339
#     4  10  21  38  60  86 116 151 194 239 284 340
#     4  12  25  42  59  82 116 156 194 239 292 345
#     4   9  17  30  53  85 117 148 185 234 286 336
#     4   9  17  30  53  85 117 148 185 233 286 337
#
# _framework density 20.250475999999999
#
# number of rings (size 3 to 8) (size 9 to 14) (size 15 to 20)
#    0.000    2.000    2.000    1.800    2.800    4.800 
#    0.000    0.000    0.000    2.400    0.000    0.000 
#    0.000    0.000    0.000    0.000    0.000    0.000 
#
# Total GULP energy -495997.704941 kJ/mol
# GULP energy per Si atom -12399.942624 kJ/mol
# Density = 2.020439 g / cm^3
# Si number density = 20.250476 Si / 1000 Ang^3
#
#
#
# Elastic Constant Matrix: (Units=GPa)
#
#
# Indices 1 2 3 4 5 6 
#
# 1 94.3245 29.7007 23.5861 0.0000 0.0000 0.0000
# 2 29.7007 129.3774 28.6034 0.0000 0.0000 0.0000
# 3 23.5861 28.6034 28.1384 0.0000 0.0000 0.0000
# 4 0.0000 0.0000 0.0000 23.1146 0.0000 0.0000
# 5 0.0000 0.0000 0.0000 0.0000 -3.0273 0.0000
# 6 0.0000 0.0000 0.0000 0.0000 0.0000 43.0870
#
#
#
# Elastic Compliance Matrix: (Units=1/GPa)
#
#
# Indices 1 2 3 4 5 6 
#
# 1 0.013472 -0.000769 -0.010511 0.000000 0.000000 0.000000
# 2 -0.000769 0.010014 -0.009535 0.000000 0.000000 0.000000
# 3 -0.010511 -0.009535 0.054041 0.000000 0.000000 0.000000
# 4 0.000000 0.000000 0.000000 0.043263 0.000000 0.000000
# 5 0.000000 0.000000 0.000000 0.000000 -0.330331 0.000000
# 6 0.000000 0.000000 0.000000 0.000000 0.000000 0.023209
#
#
# Mechanical properties :
#
#
# Convention : Reuss Voigt Hill
#
# Bulk Modulus (GPa) = 27.85662 46.18008 37.01835
# Shear Modulus (GPa) = -37.66852 23.96489 -6.85181
#
# Velocity S-wave (km/s) = -4.31760 3.44382 -1.84143
# Velocity P-wave (km/s) = 3.32711 6.21829 3.71467
#
# Compressibility (1/GPa) = 0.03589811
#
# Stress axis : x y z
#
# Youngs Moduli (GPa) = 74.22749 99.86172 18.50430
#
# Poissons Ratio (x) = 0.07679 0.19450
# Poissons Ratio (y) = 0.05708 0.17644
# Poissons Ratio (z) = 0.78020 0.95216
#
# Static dielectric constant tensor:
#      x y z
#    x 3.794760 0.000000 0.000000 
#    y 0.000000 4.029780 0.000000 
#    z 0.000000 0.000000 3.271330 
# 
# 
# High freq. dielectric constant tensor:
#      x y z
#    x 1.799870 0.000000 0.000000 
#    y 0.000000 1.810530 0.000000 
#    z 0.000000 0.000000 1.751660 
# 
# From -- ./inp_files/18195.got.cif
#   From: 2010.03.12/outbox.cif.g09.slc.cpg/sg57_10_cif.got.tgz:18195.got - 2010.04.16 15:48:40.
