data_PCOD8234567
_publ_section_title
;
Structure prediction by ZEFSAII (Michael W. Deem and Ramdas Pophale) SiO2 
 PCOD8234567
Probable space group: P B C M
;
_chemical_formula_sum "Si O2"
_cell_formula_units_Z 48
_cell_length_a 8.009656
_cell_length_b 29.627162
_cell_length_c 9.910308
_cell_angle_alpha 90.000000
_cell_angle_beta 90.000000
_cell_angle_gamma 90.000000
_cell_volume 2351.749544
_symmetry_space_group_name_H-M "P B C M"
_symmetry_group_IT_number 57
_symmetry_cell_setting 'orthorhombic'
loop_
_space_group_symop_operation_xyz
x,y,z
-x,-y,1/2+z
x,1/2-y,-z
-x,1/2+y,1/2-z
-x,-y,-z
x,y,1/2-z
-x,1/2+y,z
x,1/2-y,1/2+z
loop_
_atom_site_type_symbol
_atom_site_label
_atom_site_fract_x
_atom_site_fract_y
_atom_site_fract_z
Si Si1 0.498994 0.292517 0.404550
Si Si2 0.286676 0.985684 0.250000
Si Si3 0.145983 0.196228 0.512188
Si Si4 0.521935 0.921742 0.750000
Si Si5 0.157740 0.136284 0.250000
Si Si6 0.034186 0.958381 0.750000
Si Si7 0.737100 0.434571 0.524182
Si Si8 0.179358 0.653301 0.599487
O O1 0.489762 0.250000 0.500000
O O2 0.524741 0.277183 0.250000
O O3 0.321579 0.318892 0.418993
O O4 0.656212 0.321329 0.455785
O O5 0.326180 0.958317 0.387031
O O6 0.400569 0.029020 0.250000
O O7 0.094954 0.000892 0.250000
O O8 0.142978 0.250000 0.500000
O O9 0.123131 0.169288 0.374034
O O10 0.986169 0.183739 0.602340
O O11 0.652634 0.880958 0.750000
O O12 0.418488 0.917344 0.887833
O O13 0.039305 0.092325 0.250000
O O14 0.146808 0.966468 0.883388
O O15 0.849329 0.391143 0.488924
O O16 0.219501 0.637179 0.750000
#
# Coordination Sequence:
#
# PCOD8234567 Si02
#       8
#     8   4   8   4   4   4   8   8
#     4  10  23  41  60  90 124 163 212 262 318 375
#     4  11  22  40  67  91 130 159 203 260 320 393
#     4  11  24  39  64  91 126 170 214 267 314 377
#     4  10  24  40  68  92 126 165 208 264 314 382
#     4  11  22  42  61  91 122 166 220 254 317 371
#     4  10  22  40  62  92 122 162 205 260 309 384
#     4  11  21  41  62  94 124 161 209 255 320 382
#     4  11  22  40  63  91 128 164 210 261 319 375
#
# _framework density 20.410337999999999
#
# number of rings (size 3 to 8) (size 9 to 14) (size 15 to 20)
#    0.000    1.333    2.500    3.000    5.833    0.000 
#    4.500    0.000    0.000    0.000    0.000    0.000 
#    0.000    0.000    0.000    0.000    0.000    0.000 
#
# Total GULP energy -595067.028237 kJ/mol
# GULP energy per Si atom -12397.229755 kJ/mol
# Density = 2.036388 g / cm^3
# Si number density = 20.410338 Si / 1000 Ang^3
#
#
#
# Elastic Constant Matrix: (Units=GPa)
#
#
# Indices 1 2 3 4 5 6 
#
# 1 113.0433 16.1933 15.0005 0.0000 0.0000 0.0000
# 2 16.1933 66.8729 28.7279 0.0000 0.0000 0.0000
# 3 15.0005 28.7279 109.1869 0.0000 0.0000 0.0000
# 4 0.0000 0.0000 0.0000 21.1301 0.0000 0.0000
# 5 0.0000 0.0000 0.0000 0.0000 24.3542 0.0000
# 6 0.0000 0.0000 0.0000 0.0000 0.0000 27.1752
#
#
#
# Elastic Compliance Matrix: (Units=1/GPa)
#
#
# Indices 1 2 3 4 5 6 
#
# 1 0.009221 -0.001904 -0.000766 0.000000 0.000000 0.000000
# 2 -0.001904 0.017252 -0.004278 0.000000 0.000000 0.000000
# 3 -0.000766 -0.004278 0.010389 0.000000 0.000000 0.000000
# 4 0.000000 0.000000 0.000000 0.047326 0.000000 0.000000
# 5 0.000000 0.000000 0.000000 0.000000 0.041061 0.000000
# 6 0.000000 0.000000 0.000000 0.000000 0.000000 0.036798
#
#
# Mechanical properties :
#
#
# Convention : Reuss Voigt Hill
#
# Bulk Modulus (GPa) = 43.53955 45.43850 44.48903
# Shear Modulus (GPa) = 27.23350 29.81067 28.52208
#
# Velocity S-wave (km/s) = 3.65677 3.82588 3.74228
# Velocity P-wave (km/s) = 6.26160 6.46740 6.36534
#
# Compressibility (1/GPa) = 0.02296762
#
# Stress axis : x y z
#
# Youngs Moduli (GPa) = 108.45396 57.96305 96.25276
#
# Poissons Ratio (x) = 0.11035 0.07372
# Poissons Ratio (y) = 0.20647 0.41174
# Poissons Ratio (z) = 0.08306 0.24795
#
# Static dielectric constant tensor:
#      x y z
#    x 4.027660 0.000000 0.000000 
#    y 0.000000 3.502880 0.000000 
#    z 0.000000 0.000000 3.702260 
# 
# 
# High freq. dielectric constant tensor:
#      x y z
#    x 1.809700 0.000000 0.000000 
#    y 0.000000 1.785760 0.000000 
#    z 0.000000 0.000000 1.809460 
# 
# From -- ./inp_files/2215.got.cif
#   From: 2010.03.12/outbox.cif.g09.slc.cpg/sg57_2_cif.got.tgz:2215.got - 2010.04.16 15:48:40.
