data_PCOD8234157
_publ_section_title
;
Structure prediction by ZEFSAII (Michael W. Deem and Ramdas Pophale) SiO2 
 PCOD8234157
Probable space group: P B C M
;
_chemical_formula_sum "Si O2"
_cell_formula_units_Z 40
_cell_length_a 5.995824
_cell_length_b 22.325117
_cell_length_c 13.838555
_cell_angle_alpha 90.000000
_cell_angle_beta 90.000000
_cell_angle_gamma 90.000000
_cell_volume 1852.393993
_symmetry_space_group_name_H-M "P B C M"
_symmetry_group_IT_number 57
_symmetry_cell_setting 'orthorhombic'
loop_
_space_group_symop_operation_xyz
x,y,z
-x,-y,1/2+z
x,1/2-y,-z
-x,1/2+y,1/2-z
-x,-y,-z
x,y,1/2-z
-x,1/2+y,z
x,1/2-y,1/2+z
loop_
_atom_site_type_symbol
_atom_site_label
_atom_site_fract_x
_atom_site_fract_y
_atom_site_fract_z
Si Si1 0.667522 0.341272 0.991722
Si Si2 0.035991 0.069672 0.512844
Si Si3 0.284677 0.156692 0.636365
Si Si4 0.702313 0.871842 0.644283
Si Si5 0.980432 0.266076 0.858053
O O1 0.533865 0.373709 0.906945
O O2 0.808078 0.287434 0.940797
O O3 0.811539 0.394624 0.038319
O O4 0.501091 0.317971 0.077302
O O5 0.219080 0.090918 0.593484
O O6 0.114130 0.087662 0.406483
O O7 0.000000 0.000000 0.500000
O O8 0.341898 0.152899 0.750000
O O9 0.068512 0.199232 0.616051
O O10 0.667852 0.898442 0.750000
O O11 0.793568 0.804238 0.643901
O O12 0.870378 0.267345 0.750000
#
# Coordination Sequence:
#
# PCOD8234157 Si02
#       5
#     8   8   8   8   8
#     4  10  21  38  63  86 115 158 200 245 303 362
#     4  10  23  40  57  83 120 161 207 255 303 357
#     4  10  23  40  60  90 124 160 205 252 305 369
#     4   9  19  35  58  88 115 145 193 248 304 365
#     4   9  19  37  60  89 121 149 186 241 303 367
#
# _framework density 21.593679000000002
#
# number of rings (size 3 to 8) (size 9 to 14) (size 15 to 20)
#    0.000    2.400    0.000    0.600    0.000   16.000 
#    0.000    6.000    0.000    6.000    0.000    0.000 
#    0.000    0.000    0.000    0.000    0.000    0.000 
#
# Total GULP energy -495667.853187 kJ/mol
# GULP energy per Si atom -12391.696330 kJ/mol
# Density = 2.154453 g / cm^3
# Si number density = 21.593679 Si / 1000 Ang^3
#
#
#
# Elastic Constant Matrix: (Units=GPa)
#
#
# Indices 1 2 3 4 5 6 
#
# 1 97.1983 33.5090 57.6524 0.0000 0.0000 0.0000
# 2 33.5090 110.7733 50.1748 0.0000 0.0000 0.0000
# 3 57.6524 50.1748 167.4007 0.0000 0.0000 0.0000
# 4 0.0000 0.0000 0.0000 18.5100 0.0000 0.0000
# 5 0.0000 0.0000 0.0000 0.0000 35.0419 0.0000
# 6 0.0000 0.0000 0.0000 0.0000 0.0000 18.5364
#
#
#
# Elastic Compliance Matrix: (Units=1/GPa)
#
#
# Indices 1 2 3 4 5 6 
#
# 1 0.013406 -0.002273 -0.003936 0.000000 0.000000 0.000000
# 2 -0.002273 0.010831 -0.002464 0.000000 0.000000 0.000000
# 3 -0.003936 -0.002464 0.008068 0.000000 0.000000 0.000000
# 4 0.000000 0.000000 0.000000 0.054025 0.000000 0.000000
# 5 0.000000 0.000000 0.000000 0.000000 0.028537 0.000000
# 6 0.000000 0.000000 0.000000 0.000000 0.000000 0.053948
#
#
# Mechanical properties :
#
#
# Convention : Reuss Voigt Hill
#
# Bulk Modulus (GPa) = 66.84317 73.11608 69.97963
# Shear Modulus (GPa) = 26.15802 30.02006 28.08904
#
# Velocity S-wave (km/s) = 3.48426 3.73262 3.61057
# Velocity P-wave (km/s) = 6.87087 7.24638 7.06112
#
# Compressibility (1/GPa) = 0.01496039
#
# Stress axis : x y z
#
# Youngs Moduli (GPa) = 74.59180 92.32915 123.95223
#
# Poissons Ratio (x) = 0.20983 0.48787
# Poissons Ratio (y) = 0.16952 0.30537
# Poissons Ratio (z) = 0.29359 0.22746
#
# Static dielectric constant tensor:
#      x y z
#    x 3.980810 0.000000 0.000000 
#    y 0.000000 3.603140 0.000000 
#    z 0.000000 0.000000 4.470560 
# 
# 
# High freq. dielectric constant tensor:
#      x y z
#    x 1.851380 0.000000 0.000000 
#    y 0.000000 1.815270 0.000000 
#    z 0.000000 0.000000 1.863310 
# 
# From -- ./inp_files/14949.got.cif
#   From: 2010.03.12/outbox.cif.g09.slc.cpg/sg57_8_cif.got.tgz:14949.got - 2010.04.16 15:48:40.
