data_PCOD8234987
_publ_section_title
;
Structure prediction by ZEFSAII (Michael W. Deem and Ramdas Pophale) SiO2 
 PCOD8234987
Probable space group: P B C M
;
_chemical_formula_sum "Si O2"
_cell_formula_units_Z 48
_cell_length_a 10.178448
_cell_length_b 9.975280
_cell_length_c 26.313170
_cell_angle_alpha 90.000000
_cell_angle_beta 90.000000
_cell_angle_gamma 90.000000
_cell_volume 2671.651636
_symmetry_space_group_name_H-M "P B C M"
_symmetry_group_IT_number 57
_symmetry_cell_setting 'orthorhombic'
loop_
_space_group_symop_operation_xyz
x,y,z
-x,-y,1/2+z
x,1/2-y,-z
-x,1/2+y,1/2-z
-x,-y,-z
x,y,1/2-z
-x,1/2+y,z
x,1/2-y,1/2+z
loop_
_atom_site_type_symbol
_atom_site_label
_atom_site_fract_x
_atom_site_fract_y
_atom_site_fract_z
Si Si1 0.243070 0.528947 0.595471
Si Si2 0.997030 0.126107 0.963895
Si Si3 0.381621 0.982590 0.193463
Si Si4 0.619636 0.712803 0.692672
Si Si5 0.253695 0.281296 0.410394
Si Si6 0.516934 0.371462 0.465741
O O1 0.256652 0.538075 0.656567
O O2 0.232723 0.375290 0.576873
O O3 0.374458 0.598585 0.575895
O O4 0.117324 0.612070 0.577758
O O5 0.131347 0.137429 0.932490
O O6 0.967020 0.250000 0.000000
O O7 0.000000 0.000000 0.000000
O O8 0.329657 0.952380 0.250000
O O9 0.501257 0.885973 0.179359
O O10 0.434302 0.135181 0.188362
O O11 0.674441 0.685320 0.750000
O O12 0.733504 0.691779 0.650343
O O13 0.382127 0.332630 0.438732
O O14 0.568508 0.250000 0.500000
O O15 0.500000 0.500000 0.500000
#
# Coordination Sequence:
#
# PCOD8234987 Si02
#       6
#     8   8   8   8   8   8
#     4  11  22  39  59  86 114 153 195 235 293 344
#     4  12  24  43  60  80 116 164 198 237 287 341
#     4   9  18  35  59  87 117 146 184 237 294 345
#     4   9  18  35  60  87 116 148 184 235 294 345
#     4  11  22  40  58  85 119 150 191 242 291 340
#     4  12  22  35  56  84 114 148 190 242 285 335
#
# _framework density 17.966414
#
# number of rings (size 3 to 8) (size 9 to 14) (size 15 to 20)
#    0.000    1.333    5.000    2.000    0.000    0.000 
#    3.000    0.833    0.000    0.000    0.000    0.000 
#    0.000    0.000    0.000    0.000    0.000    0.000 
#
# Total GULP energy -595162.686093 kJ/mol
# GULP energy per Si atom -12399.222627 kJ/mol
# Density = 1.792552 g / cm^3
# Si number density = 17.966414 Si / 1000 Ang^3
#
#
#
# Elastic Constant Matrix: (Units=GPa)
#
#
# Indices 1 2 3 4 5 6 
#
# 1 115.8045 38.7534 59.9232 0.0000 0.0000 0.0000
# 2 38.7534 101.0394 53.5945 0.0000 0.0000 0.0000
# 3 59.9232 53.5945 122.6325 0.0000 0.0000 0.0000
# 4 0.0000 0.0000 0.0000 27.9608 0.0000 0.0000
# 5 0.0000 0.0000 0.0000 0.0000 31.4448 0.0000
# 6 0.0000 0.0000 0.0000 0.0000 0.0000 27.3161
#
#
#
# Elastic Compliance Matrix: (Units=1/GPa)
#
#
# Indices 1 2 3 4 5 6 
#
# 1 0.011836 -0.001916 -0.004946 0.000000 0.000000 0.000000
# 2 -0.001916 0.013194 -0.004830 0.000000 0.000000 0.000000
# 3 -0.004946 -0.004830 0.012682 0.000000 0.000000 0.000000
# 4 0.000000 0.000000 0.000000 0.035764 0.000000 0.000000
# 5 0.000000 0.000000 0.000000 0.000000 0.031802 0.000000
# 6 0.000000 0.000000 0.000000 0.000000 0.000000 0.036608
#
#
# Mechanical properties :
#
#
# Convention : Reuss Voigt Hill
#
# Bulk Modulus (GPa) = 69.79445 71.55763 70.67604
# Shear Modulus (GPa) = 29.40371 29.82469 29.61420
#
# Velocity S-wave (km/s) = 4.04987 4.07876 4.06434
# Velocity P-wave (km/s) = 7.79744 7.88015 7.83890
#
# Compressibility (1/GPa) = 0.01432779
#
# Stress axis : x y z
#
# Youngs Moduli (GPa) = 84.48947 75.79210 78.85091
#
# Poissons Ratio (x) = 0.14522 0.39000
# Poissons Ratio (y) = 0.16188 0.38085
# Poissons Ratio (z) = 0.41789 0.36607
#
# Static dielectric constant tensor:
#      x y z
#    x 3.159780 0.000000 0.000000 
#    y 0.000000 3.485250 0.000000 
#    z 0.000000 0.000000 3.660000 
# 
# 
# High freq. dielectric constant tensor:
#      x y z
#    x 1.668060 0.000000 0.000000 
#    y 0.000000 1.707200 0.000000 
#    z 0.000000 0.000000 1.715180 
# 
# From -- ./inp_files/29490.got.cif
#   From: 2010.03.12/outbox.cif.g09.slc.cpg/sg57_15_cif.got.tgz:29490.got - 2010.04.16 15:48:40.
