data_PCOD8234866
_publ_section_title
;
Structure prediction by ZEFSAII (Michael W. Deem and Ramdas Pophale) SiO2 
 PCOD8234866
Probable space group: P B C M
;
_chemical_formula_sum "Si O2"
_cell_formula_units_Z 28
_cell_length_a 8.972396
_cell_length_b 6.482062
_cell_length_c 19.321237
_cell_angle_alpha 90.000000
_cell_angle_beta 90.000000
_cell_angle_gamma 90.000000
_cell_volume 1123.715940
_symmetry_space_group_name_H-M "P B C M"
_symmetry_group_IT_number 57
_symmetry_cell_setting 'orthorhombic'
loop_
_space_group_symop_operation_xyz
x,y,z
-x,-y,1/2+z
x,1/2-y,-z
-x,1/2+y,1/2-z
-x,-y,-z
x,y,1/2-z
-x,1/2+y,z
x,1/2-y,1/2+z
loop_
_atom_site_type_symbol
_atom_site_label
_atom_site_fract_x
_atom_site_fract_y
_atom_site_fract_z
Si Si1 0.885783 0.399794 0.250000
Si Si2 0.295444 0.250000 0.500000
Si Si3 0.777257 0.947307 0.250000
Si Si4 0.723075 0.482163 0.119389
Si Si5 0.389102 0.529734 0.381838
O O1 0.791037 0.193269 0.250000
O O2 0.835704 0.529488 0.182613
O O3 0.059813 0.341838 0.250000
O O4 0.203566 0.399570 0.552582
O O5 0.396018 0.399337 0.452658
O O6 0.686742 0.893848 0.179854
O O7 0.705352 0.238207 0.105592
O O8 0.560387 0.581015 0.136750
#
# Coordination Sequence:
#
# PCOD8234866 Si02
#       5
#     4   4   4   8   8
#     4  10  25  44  68  91 125 167 219 266 308 371
#     4  12  24  38  68  92 140 164 202 256 332 372
#     4  10  25  44  68  91 125 167 219 266 308 371
#     4  11  23  40  66  99 127 163 214 259 315 377
#     4  11  23  40  66  99 127 163 214 259 315 377
#
# _framework density 24.917331000000001
#
# number of rings (size 3 to 8) (size 9 to 14) (size 15 to 20)
#    0.000    1.143    2.857    2.571    4.000    0.000 
#    0.000    1.429    0.000    0.000    0.000    0.000 
#    0.000    0.000    0.000    0.000    0.000    0.000 
#
# Total GULP energy -347052.735174 kJ/mol
# GULP energy per Si atom -12394.740542 kJ/mol
# Density = 2.486062 g / cm^3
# Si number density = 24.917331 Si / 1000 Ang^3
#
#
#
# Elastic Constant Matrix: (Units=GPa)
#
#
# Indices 1 2 3 4 5 6 
#
# 1 81.0850 30.4650 76.1717 0.0000 0.0000 0.0000
# 2 30.4650 90.3986 58.9432 0.0000 0.0000 0.0000
# 3 76.1717 58.9432 220.7552 0.0000 0.0000 0.0000
# 4 0.0000 0.0000 0.0000 37.9757 0.0000 0.0000
# 5 0.0000 0.0000 0.0000 0.0000 10.8432 0.0000
# 6 0.0000 0.0000 0.0000 0.0000 0.0000 29.9038
#
#
#
# Elastic Compliance Matrix: (Units=1/GPa)
#
#
# Indices 1 2 3 4 5 6 
#
# 1 0.018717 -0.002539 -0.005780 0.000000 0.000000 0.000000
# 2 -0.002539 0.013738 -0.002792 0.000000 0.000000 0.000000
# 3 -0.005780 -0.002792 0.007270 0.000000 0.000000 0.000000
# 4 0.000000 0.000000 0.000000 0.026333 0.000000 0.000000
# 5 0.000000 0.000000 0.000000 0.000000 0.092224 0.000000
# 6 0.000000 0.000000 0.000000 0.000000 0.000000 0.033441
#
#
# Mechanical properties :
#
#
# Convention : Reuss Voigt Hill
#
# Bulk Modulus (GPa) = 57.13497 80.37762 68.75630
# Shear Modulus (GPa) = 22.75014 30.85511 26.80262
#
# Velocity S-wave (km/s) = 3.02491 3.52277 3.28329
# Velocity P-wave (km/s) = 5.93125 6.99101 6.48282
#
# Compressibility (1/GPa) = 0.01750241
#
# Stress axis : x y z
#
# Youngs Moduli (GPa) = 53.42833 72.78912 137.55197
#
# Poissons Ratio (x) = 0.18479 0.79510
# Poissons Ratio (y) = 0.13564 0.38408
# Poissons Ratio (z) = 0.30884 0.20325
#
# Static dielectric constant tensor:
#      x y z
#    x 3.764150 0.000000 0.000000 
#    y 0.000000 4.825670 0.000000 
#    z 0.000000 0.000000 4.805150 
# 
# 
# High freq. dielectric constant tensor:
#      x y z
#    x 1.930520 0.000000 0.000000 
#    y 0.000000 2.040150 0.000000 
#    z 0.000000 0.000000 2.003860 
# 
# From -- ./inp_files/20440.got.cif
#   From: 2010.03.12/outbox.cif.g09.slc.cpg/sg57_11_cif.got.tgz:20440.got - 2010.04.16 15:48:40.
