data_PCOD8234539
_publ_section_title
;
Structure prediction by ZEFSAII (Michael W. Deem and Ramdas Pophale) SiO2 
 PCOD8234539
Probable space group: P B C M
;
_chemical_formula_sum "Si O2"
_cell_formula_units_Z 48
_cell_length_a 16.136862
_cell_length_b 9.998217
_cell_length_c 14.420817
_cell_angle_alpha 90.000000
_cell_angle_beta 90.000000
_cell_angle_gamma 90.000000
_cell_volume 2326.652422
_symmetry_space_group_name_H-M "P B C M"
_symmetry_group_IT_number 57
_symmetry_cell_setting 'orthorhombic'
loop_
_space_group_symop_operation_xyz
x,y,z
-x,-y,1/2+z
x,1/2-y,-z
-x,1/2+y,1/2-z
-x,-y,-z
x,y,1/2-z
-x,1/2+y,z
x,1/2-y,1/2+z
loop_
_atom_site_type_symbol
_atom_site_label
_atom_site_fract_x
_atom_site_fract_y
_atom_site_fract_z
Si Si1 0.810218 0.609906 0.144307
Si Si2 0.239636 0.595245 0.007470
Si Si3 0.032666 0.264132 0.140772
Si Si4 0.904408 0.048171 0.359827
Si Si5 0.405756 0.040531 0.504113
Si Si6 0.359170 0.265938 0.645132
O O1 0.823969 0.560475 0.250000
O O2 0.890404 0.680135 0.099845
O O3 0.740422 0.725968 0.141014
O O4 0.787658 0.478484 0.086464
O O5 0.185348 0.537437 0.092479
O O6 0.338443 0.575732 0.024019
O O7 0.220841 0.750000 0.000000
O O8 0.039172 0.254298 0.250000
O O9 0.037797 0.420082 0.110672
O O10 0.949729 0.186278 0.107432
O O11 0.889154 0.046340 0.250000
O O12 0.393657 0.143078 0.587594
O O13 0.391005 0.098610 0.401879
O O14 0.500000 0.000000 0.500000
O O15 0.392614 0.256809 0.750000
#
# Coordination Sequence:
#
# PCOD8234539 Si02
#       6
#     8   8   8   8   8   8
#     4   9  19  39  62  84 116 158 206 251 296 355
#     4  11  25  39  58  91 122 160 203 248 314 378
#     4   9  19  36  62  88 120 163 205 252 303 354
#     4  10  22  40  61  90 126 164 210 257 307 365
#     4  10  22  39  64  87 123 157 193 257 318 374
#     4   9  19  38  64  89 113 153 204 248 298 370
#
# _framework density 20.630500999999999
#
# number of rings (size 3 to 8) (size 9 to 14) (size 15 to 20)
#    0.000    2.333    0.000    1.000    4.667    6.000 
#    0.000    0.000    0.000    0.000    0.000    0.000 
#    0.000    0.000    0.000    0.000    0.000    0.000 
#
# Total GULP energy -594909.737752 kJ/mol
# GULP energy per Si atom -12393.952870 kJ/mol
# Density = 2.058354 g / cm^3
# Si number density = 20.630501 Si / 1000 Ang^3
#
#
#
# Elastic Constant Matrix: (Units=GPa)
#
#
# Indices 1 2 3 4 5 6 
#
# 1 128.9617 42.0159 41.5551 0.0000 0.0000 0.0000
# 2 42.0159 116.9306 39.3434 0.0000 0.0000 0.0000
# 3 41.5551 39.3434 105.5767 0.0000 0.0000 0.0000
# 4 0.0000 0.0000 0.0000 21.2018 0.0000 0.0000
# 5 0.0000 0.0000 0.0000 0.0000 24.6001 0.0000
# 6 0.0000 0.0000 0.0000 0.0000 0.0000 20.2285
#
#
#
# Elastic Compliance Matrix: (Units=1/GPa)
#
#
# Indices 1 2 3 4 5 6 
#
# 1 0.009459 -0.002454 -0.002809 0.000000 0.000000 0.000000
# 2 -0.002454 0.010415 -0.002915 0.000000 0.000000 0.000000
# 3 -0.002809 -0.002915 0.011664 0.000000 0.000000 0.000000
# 4 0.000000 0.000000 0.000000 0.047166 0.000000 0.000000
# 5 0.000000 0.000000 0.000000 0.000000 0.040650 0.000000
# 6 0.000000 0.000000 0.000000 0.000000 0.000000 0.049435
#
#
# Mechanical properties :
#
#
# Convention : Reuss Voigt Hill
#
# Bulk Modulus (GPa) = 65.86812 66.36644 66.11728
# Shear Modulus (GPa) = 26.28756 28.44303 27.36529
#
# Velocity S-wave (km/s) = 3.57348 3.71710 3.64600
# Velocity P-wave (km/s) = 7.00166 7.11768 7.05991
#
# Compressibility (1/GPa) = 0.01518185
#
# Stress axis : x y z
#
# Youngs Moduli (GPa) = 105.72310 96.01848 85.73672
#
# Poissons Ratio (x) = 0.23560 0.24080
# Poissons Ratio (y) = 0.25942 0.24994
# Poissons Ratio (z) = 0.29693 0.27992
#
# Static dielectric constant tensor:
#      x y z
#    x 3.877680 0.000000 0.000000 
#    y 0.000000 3.772220 0.000000 
#    z 0.000000 0.000000 3.825640 
# 
# 
# High freq. dielectric constant tensor:
#      x y z
#    x 1.803070 0.000000 0.000000 
#    y 0.000000 1.801550 0.000000 
#    z 0.000000 0.000000 1.806820 
# 
# From -- ./inp_files/18942.got.cif
#   From: 2010.03.12/outbox.cif.g09.slc.cpg/sg57_10_cif.got.tgz:18942.got - 2010.04.16 15:48:40.
