data_PCOD8234857
_publ_section_title
;
Structure prediction by ZEFSAII (Michael W. Deem and Ramdas Pophale) SiO2 
 PCOD8234857
Probable space group: P B C M
;
_chemical_formula_sum "Si O2"
_cell_formula_units_Z 48
_cell_length_a 16.601785
_cell_length_b 9.027373
_cell_length_c 15.347038
_cell_angle_alpha 90.000000
_cell_angle_beta 90.000000
_cell_angle_gamma 90.000000
_cell_volume 2300.068345
_symmetry_space_group_name_H-M "P B C M"
_symmetry_group_IT_number 57
_symmetry_cell_setting 'orthorhombic'
loop_
_space_group_symop_operation_xyz
x,y,z
-x,-y,1/2+z
x,1/2-y,-z
-x,1/2+y,1/2-z
-x,-y,-z
x,y,1/2-z
-x,1/2+y,z
x,1/2-y,1/2+z
loop_
_atom_site_type_symbol
_atom_site_label
_atom_site_fract_x
_atom_site_fract_y
_atom_site_fract_z
Si Si1 0.919327 0.819690 0.750000
Si Si2 0.672478 0.898876 0.349633
Si Si3 0.909759 0.331613 0.250000
Si Si4 0.514255 0.861928 0.437269
Si Si5 0.198651 0.845589 0.088173
Si Si6 0.356638 0.774297 0.648633
Si Si7 0.187338 0.305955 0.911822
O O1 0.870606 0.761131 0.666799
O O2 0.007549 0.754961 0.750000
O O3 0.926444 0.995028 0.750000
O O4 0.697274 0.879684 0.250000
O O5 0.575367 0.882087 0.357405
O O6 0.726339 0.779565 0.401870
O O7 0.682677 0.068669 0.382793
O O8 0.862397 0.285578 0.337817
O O9 0.561212 0.750000 0.500000
O O10 0.433471 0.781338 0.404613
O O11 0.500000 0.000000 0.500000
O O12 0.287613 0.841840 0.128255
O O13 0.191245 0.019432 0.073618
O O14 0.185870 0.750000 0.000000
O O15 0.380073 0.780442 0.750000
O O16 0.145799 0.250000 0.000000
#
# Coordination Sequence:
#
# PCOD8234857 Si02
#       7
#     4   8   4   8   8   8   8
#     4  10  24  46  70 101 140 173 224 275 335 410
#     4  11  24  42  64  93 130 175 227 274 336 398
#     4  10  24  46  70 103 138 179 220 277 335 406
#     4  12  25  42  60  92 133 172 226 279 330 393
#     4  11  24  43  69 101 137 177 225 276 342 406
#     4  11  24  42  63  91 130 176 226 276 333 398
#     4  11  24  43  68 102 136 176 224 278 338 409
#
# _framework density 20.868946000000001
#
# number of rings (size 3 to 8) (size 9 to 14) (size 15 to 20)
#    0.000    1.000    3.333    2.500    4.667    3.333 
#    0.000    3.333    0.000    0.000    0.000    0.000 
#    0.000    0.000    0.000    0.000    0.000    0.000 
#
# Total GULP energy -594733.713500 kJ/mol
# GULP energy per Si atom -12390.285698 kJ/mol
# Density = 2.082145 g / cm^3
# Si number density = 20.868946 Si / 1000 Ang^3
#
#
#
# Elastic Constant Matrix: (Units=GPa)
#
#
# Indices 1 2 3 4 5 6 
#
# 1 100.8252 13.0216 54.7464 0.0000 0.0000 0.0000
# 2 13.0216 72.8335 59.5721 0.0000 0.0000 0.0000
# 3 54.7464 59.5721 137.5098 0.0000 0.0000 0.0000
# 4 0.0000 0.0000 0.0000 36.0112 0.0000 0.0000
# 5 0.0000 0.0000 0.0000 0.0000 14.6432 0.0000
# 6 0.0000 0.0000 0.0000 0.0000 0.0000 38.7609
#
#
#
# Elastic Compliance Matrix: (Units=1/GPa)
#
#
# Indices 1 2 3 4 5 6 
#
# 1 0.013055 0.002969 -0.006484 0.000000 0.000000 0.000000
# 2 0.002969 0.021940 -0.010687 0.000000 0.000000 0.000000
# 3 -0.006484 -0.010687 0.014484 0.000000 0.000000 0.000000
# 4 0.000000 0.000000 0.000000 0.027769 0.000000 0.000000
# 5 0.000000 0.000000 0.000000 0.000000 0.068291 0.000000
# 6 0.000000 0.000000 0.000000 0.000000 0.000000 0.025799
#
#
# Mechanical properties :
#
#
# Convention : Reuss Voigt Hill
#
# Bulk Modulus (GPa) = 47.44839 62.87207 55.16023
# Shear Modulus (GPa) = 24.18170 30.13828 27.15999
#
# Velocity S-wave (km/s) = 3.40772 3.80434 3.61148
# Velocity P-wave (km/s) = 6.18621 7.03490 6.62416
#
# Compressibility (1/GPa) = 0.02107553
#
# Stress axis : x y z
#
# Youngs Moduli (GPa) = 76.59651 45.57808 69.04350
#
# Poissons Ratio (x) = -0.13534 0.44769
# Poissons Ratio (y) = -0.22744 0.73788
# Poissons Ratio (z) = 0.49666 0.48710
#
# Static dielectric constant tensor:
#      x y z
#    x 3.723710 0.000000 0.000000 
#    y 0.000000 3.947330 0.000000 
#    z 0.000000 0.000000 4.047860 
# 
# 
# High freq. dielectric constant tensor:
#      x y z
#    x 1.806360 0.000000 0.000000 
#    y 0.000000 1.830410 0.000000 
#    z 0.000000 0.000000 1.835560 
# 
# From -- ./inp_files/19009.got.cif
#   From: 2010.03.12/outbox.cif.g09.slc.cpg/sg57_10_cif.got.tgz:19009.got - 2010.04.16 15:48:40.
