data_PCOD8234682
_publ_section_title
;
Structure prediction by ZEFSAII (Michael W. Deem and Ramdas Pophale) SiO2 
 PCOD8234682
Probable space group: P B C M
;
_chemical_formula_sum "Si O2"
_cell_formula_units_Z 40
_cell_length_a 12.273150
_cell_length_b 8.106937
_cell_length_c 16.533984
_cell_angle_alpha 90.000000
_cell_angle_beta 90.000000
_cell_angle_gamma 90.000000
_cell_volume 1645.092617
_symmetry_space_group_name_H-M "P B C M"
_symmetry_group_IT_number 57
_symmetry_cell_setting 'orthorhombic'
loop_
_space_group_symop_operation_xyz
x,y,z
-x,-y,1/2+z
x,1/2-y,-z
-x,1/2+y,1/2-z
-x,-y,-z
x,y,1/2-z
-x,1/2+y,z
x,1/2-y,1/2+z
loop_
_atom_site_type_symbol
_atom_site_label
_atom_site_fract_x
_atom_site_fract_y
_atom_site_fract_z
Si Si1 0.845005 0.617370 0.909371
Si Si2 0.974507 0.582307 0.344511
Si Si3 0.389209 0.690127 0.845438
Si Si4 0.812763 0.093114 0.942562
Si Si5 0.380388 0.071430 0.843383
O O1 0.929189 0.764657 0.895321
O O2 0.727380 0.664601 0.873259
O O3 0.898679 0.455344 0.865301
O O4 0.825967 0.573737 0.003503
O O5 0.958825 0.615857 0.250000
O O6 0.905536 0.419661 0.373136
O O7 0.376743 0.648290 0.750000
O O8 0.303587 0.587275 0.898240
O O9 0.367340 0.880298 0.864401
O O10 0.508342 0.644198 0.880600
O O11 0.829012 0.250000 0.000000
O O12 0.390785 0.106582 0.750000
#
# Coordination Sequence:
#
# PCOD8234682 Si02
#       5
#     8   8   8   8   8
#     4  12  26  47  73 107 146 189 242 301 369 427
#     4  12  27  48  76 106 142 192 247 301 360 435
#     4  10  23  44  72 104 144 193 243 297 357 430
#     4  12  25  47  71 106 148 193 235 299 364 430
#     4  10  22  43  71 104 144 191 244 296 353 428
#
# _framework density 24.314741000000001
#
# number of rings (size 3 to 8) (size 9 to 14) (size 15 to 20)
#    0.000    0.800    2.000    4.800    2.800    0.800 
#    0.000    0.000    0.000    0.000    0.000    0.000 
#    0.000    0.000    0.000    0.000    0.000    0.000 
#
# Total GULP energy -495952.190095 kJ/mol
# GULP energy per Si atom -12398.804752 kJ/mol
# Density = 2.425940 g / cm^3
# Si number density = 24.314741 Si / 1000 Ang^3
#
#
#
# Elastic Constant Matrix: (Units=GPa)
#
#
# Indices 1 2 3 4 5 6 
#
# 1 148.4865 14.5322 45.6760 0.0000 0.0000 0.0000
# 2 14.5322 -4.9858 98.0713 0.0000 0.0000 0.0000
# 3 45.6760 98.0713 -31.9513 0.0000 0.0000 0.0000
# 4 0.0000 0.0000 0.0000 37.8122 0.0000 0.0000
# 5 0.0000 0.0000 0.0000 0.0000 34.0548 0.0000
# 6 0.0000 0.0000 0.0000 0.0000 0.0000 37.2906
#
#
#
# Elastic Compliance Matrix: (Units=1/GPa)
#
#
# Indices 1 2 3 4 5 6 
#
# 1 0.007524 -0.003933 -0.001315 0.000000 0.000000 0.000000
# 2 -0.003933 0.005433 0.011056 0.000000 0.000000 0.000000
# 3 -0.001315 0.011056 0.000757 0.000000 0.000000 0.000000
# 4 0.000000 0.000000 0.000000 0.026446 0.000000 0.000000
# 5 0.000000 0.000000 0.000000 0.000000 0.029364 0.000000
# 6 0.000000 0.000000 0.000000 0.000000 0.000000 0.026816
#
#
# Mechanical properties :
#
#
# Convention : Reuss Voigt Hill
#
# Bulk Modulus (GPa) = 39.47775 47.56758 43.52267
# Shear Modulus (GPa) = 53.66604 18.71618 36.19111
#
# Velocity S-wave (km/s) = 4.70312 2.77744 3.86222
# Velocity P-wave (km/s) = 6.76490 5.46729 6.15041
#
# Compressibility (1/GPa) = 0.02533072
#
# Stress axis : x y z
#
# Youngs Moduli (GPa) = 132.90881 184.04459 1321.20020
#
# Poissons Ratio (x) = 0.72377 1.73715
# Poissons Ratio (y) = 0.52268 -14.60670
# Poissons Ratio (z) = 0.17475 -2.03473
#
# Static dielectric constant tensor:
#      x y z
#    x 4.669000 0.000000 0.000000 
#    y 0.000000 4.472190 0.000000 
#    z 0.000000 0.000000 4.272280 
# 
# 
# High freq. dielectric constant tensor:
#      x y z
#    x 1.982490 0.000000 0.000000 
#    y 0.000000 1.970120 0.000000 
#    z 0.000000 0.000000 1.960490 
# 
# From -- ./inp_files/21630.got.cif
#   From: 2010.03.12/outbox.cif.g09.slc.cpg/sg57_11_cif.got.tgz:21630.got - 2010.04.16 15:48:40.
