data_PCOD8234195
_publ_section_title
;
Structure prediction by ZEFSAII (Michael W. Deem and Ramdas Pophale) SiO2 
 PCOD8234195
Probable space group: P B C M
;
_chemical_formula_sum "Si O2"
_cell_formula_units_Z 64
_cell_length_a 9.222368
_cell_length_b 15.756241
_cell_length_c 20.541488
_cell_angle_alpha 90.000000
_cell_angle_beta 90.000000
_cell_angle_gamma 90.000000
_cell_volume 2984.880598
_symmetry_space_group_name_H-M "P B C M"
_symmetry_group_IT_number 57
_symmetry_cell_setting 'orthorhombic'
loop_
_space_group_symop_operation_xyz
x,y,z
-x,-y,1/2+z
x,1/2-y,-z
-x,1/2+y,1/2-z
-x,-y,-z
x,y,1/2-z
-x,1/2+y,z
x,1/2-y,1/2+z
loop_
_atom_site_type_symbol
_atom_site_label
_atom_site_fract_x
_atom_site_fract_y
_atom_site_fract_z
Si Si1 0.805831 0.828383 0.364748
Si Si2 0.008149 0.971191 0.323639
Si Si3 0.741033 0.580711 0.500242
Si Si4 0.484943 0.404030 0.606891
Si Si5 0.040971 0.193092 0.061915
Si Si6 0.810201 0.428307 0.919312
Si Si7 0.332936 0.938221 0.326810
Si Si8 0.490892 0.224707 0.823092
O O1 0.744802 0.866993 0.432544
O O2 0.901395 0.743506 0.375478
O O3 0.670114 0.812796 0.318536
O O4 0.909938 0.888477 0.324571
O O5 0.019969 0.006508 0.250000
O O6 0.931539 0.040380 0.368500
O O7 0.166795 0.945079 0.350399
O O8 0.581723 0.588857 0.466524
O O9 0.856507 0.611302 0.446875
O O10 0.791914 0.484764 0.515677
O O11 0.653719 0.424601 0.612174
O O12 0.411286 0.476077 0.650326
O O13 0.474210 0.307717 0.631997
O O14 0.872127 0.165076 0.064020
O O15 0.063758 0.250000 0.000000
O O16 0.347310 0.935269 0.250000
O O17 0.403725 0.849325 0.353032
O O18 0.541459 0.249936 0.750000
#
# Coordination Sequence:
#
# PCOD8234195 Si02
#       8
#     8   8   8   8   8   8   8   8
#     4  10  21  40  65  92 128 164 212 262 324 382
#     4  10  22  41  67  92 124 169 216 269 324 381
#     4  10  21  42  62  90 126 165 210 261 320 381
#     4  12  24  41  66  96 132 170 217 264 322 384
#     4  10  21  39  60  91 127 167 204 262 320 384
#     4  11  24  40  62  94 125 170 216 261 321 385
#     4  10  23  43  65  94 130 170 216 269 325 381
#     4  11  24  42  66  93 127 171 214 264 323 385
#
# _framework density 21.441395
#
# number of rings (size 3 to 8) (size 9 to 14) (size 15 to 20)
#    0.000    1.500    1.250    3.750    1.750    4.000 
#    2.250    0.625    0.000    0.000    0.000    0.000 
#    0.000    0.000    0.000    0.000    0.000    0.000 
#
# Total GULP energy -793193.842654 kJ/mol
# GULP energy per Si atom -12393.653791 kJ/mol
# Density = 2.139259 g / cm^3
# Si number density = 21.441395 Si / 1000 Ang^3
#
#
#
# Elastic Constant Matrix: (Units=GPa)
#
#
# Indices 1 2 3 4 5 6 
#
# 1 120.2403 45.9988 19.4606 0.0000 0.0000 0.0000
# 2 45.9988 86.8148 11.0022 0.0000 0.0000 0.0000
# 3 19.4606 11.0022 46.4098 0.0000 0.0000 0.0000
# 4 0.0000 0.0000 0.0000 14.1564 0.0000 0.0000
# 5 0.0000 0.0000 0.0000 0.0000 29.3546 0.0000
# 6 0.0000 0.0000 0.0000 0.0000 0.0000 40.1640
#
#
#
# Elastic Compliance Matrix: (Units=1/GPa)
#
#
# Indices 1 2 3 4 5 6 
#
# 1 0.010900 -0.005357 -0.003301 0.000000 0.000000 0.000000
# 2 -0.005357 0.014509 -0.001193 0.000000 0.000000 0.000000
# 3 -0.003301 -0.001193 0.023214 0.000000 0.000000 0.000000
# 4 0.000000 0.000000 0.000000 0.070639 0.000000 0.000000
# 5 0.000000 0.000000 0.000000 0.000000 0.034066 0.000000
# 6 0.000000 0.000000 0.000000 0.000000 0.000000 0.024898
#
#
# Mechanical properties :
#
#
# Convention : Reuss Voigt Hill
#
# Bulk Modulus (GPa) = 34.57712 45.15424 39.86568
# Shear Modulus (GPa) = 24.08842 28.53524 26.31183
#
# Velocity S-wave (km/s) = 3.35543 3.65204 3.50687
# Velocity P-wave (km/s) = 5.58330 6.23604 5.91868
#
# Compressibility (1/GPa) = 0.02892086
#
# Stress axis : x y z
#
# Youngs Moduli (GPa) = 91.74021 68.92509 43.07730
#
# Poissons Ratio (x) = 0.36925 0.14219
# Poissons Ratio (y) = 0.49147 0.05139
# Poissons Ratio (z) = 0.30281 0.08223
#
# Static dielectric constant tensor:
#      x y z
#    x 4.058040 0.000000 0.000000 
#    y 0.000000 4.212770 0.000000 
#    z 0.000000 0.000000 3.637780 
# 
# 
# High freq. dielectric constant tensor:
#      x y z
#    x 1.852480 0.000000 0.000000 
#    y 0.000000 1.847280 0.000000 
#    z 0.000000 0.000000 1.827800 
# 
# From -- ./inp_files/24631.got.cif
#   From: 2010.03.12/outbox.cif.g09.slc.cpg/sg57_13_cif.got.tgz:24631.got - 2010.04.16 15:48:40.
