data_PCOD8234700
_publ_section_title
;
Structure prediction by ZEFSAII (Michael W. Deem and Ramdas Pophale) SiO2 
 PCOD8234700
Probable space group: P B C M
;
_chemical_formula_sum "Si O2"
_cell_formula_units_Z 28
_cell_length_a 16.220367
_cell_length_b 5.123761
_cell_length_c 14.816935
_cell_angle_alpha 90.000000
_cell_angle_beta 90.000000
_cell_angle_gamma 90.000000
_cell_volume 1231.424857
_symmetry_space_group_name_H-M "P B C M"
_symmetry_group_IT_number 57
_symmetry_cell_setting 'orthorhombic'
loop_
_space_group_symop_operation_xyz
x,y,z
-x,-y,1/2+z
x,1/2-y,-z
-x,1/2+y,1/2-z
-x,-y,-z
x,y,1/2-z
-x,1/2+y,z
x,1/2-y,1/2+z
loop_
_atom_site_type_symbol
_atom_site_label
_atom_site_fract_x
_atom_site_fract_y
_atom_site_fract_z
Si Si1 0.946214 0.344759 0.750000
Si Si2 0.184988 0.812398 0.899217
Si Si3 0.715248 0.690016 0.353430
Si Si4 0.464164 0.456757 0.900156
O O1 0.892731 0.396677 0.660582
O O2 0.020394 0.550531 0.750000
O O3 0.223509 0.554208 0.855738
O O4 0.248721 0.054502 0.903010
O O5 0.154757 0.750000 0.000000
O O6 0.696965 0.763526 0.250000
O O7 0.632096 0.606886 0.404055
O O8 0.484498 0.727662 0.849097
O O9 0.500000 0.500000 0.000000
#
# Coordination Sequence:
#
# PCOD8234700 Si02
#       4
#     4   8   8   8
#     4  12  26  50  80 110 154 180 232 314 372 448
#     4  12  27  46  76 113 143 195 247 291 378 450
#     4  12  24  45  72 101 151 196 251 310 361 442
#     4  10  23  38  60  96 139 186 245 296 370 398
#
# _framework density 22.737888999999999
#
# number of rings (size 3 to 8) (size 9 to 14) (size 15 to 20)
#    0.000    0.571    2.857    4.286   12.000    2.286 
#    0.000    0.000    0.000    0.000    0.000    0.000 
#    0.000    0.000    0.000    0.000    0.000    0.000 
#
# Total GULP energy -347225.707037 kJ/mol
# GULP energy per Si atom -12400.918108 kJ/mol
# Density = 2.268614 g / cm^3
# Si number density = 22.737889 Si / 1000 Ang^3
#
#
#
# Elastic Constant Matrix: (Units=GPa)
#
#
# Indices 1 2 3 4 5 6 
#
# 1 113.7426 33.3169 52.4816 0.0000 0.0000 0.0000
# 2 33.3169 175.9843 17.9815 0.0000 0.0000 0.0000
# 3 52.4816 17.9815 115.2053 0.0000 0.0000 0.0000
# 4 0.0000 0.0000 0.0000 24.3947 0.0000 0.0000
# 5 0.0000 0.0000 0.0000 0.0000 21.0040 0.0000
# 6 0.0000 0.0000 0.0000 0.0000 0.0000 51.9779
#
#
#
# Elastic Compliance Matrix: (Units=1/GPa)
#
#
# Indices 1 2 3 4 5 6 
#
# 1 0.011602 -0.001683 -0.005023 0.000000 0.000000 0.000000
# 2 -0.001683 0.006019 -0.000173 0.000000 0.000000 0.000000
# 3 -0.005023 -0.000173 0.010995 0.000000 0.000000 0.000000
# 4 0.000000 0.000000 0.000000 0.040992 0.000000 0.000000
# 5 0.000000 0.000000 0.000000 0.000000 0.047610 0.000000
# 6 0.000000 0.000000 0.000000 0.000000 0.000000 0.019239
#
#
# Mechanical properties :
#
#
# Convention : Reuss Voigt Hill
#
# Bulk Modulus (GPa) = 67.29933 68.05469 67.67701
# Shear Modulus (GPa) = 32.22319 39.55214 35.88766
#
# Velocity S-wave (km/s) = 3.76860 4.17523 3.97712
# Velocity P-wave (km/s) = 6.97127 7.29647 7.13572
#
# Compressibility (1/GPa) = 0.01485899
#
# Stress axis : x y z
#
# Youngs Moduli (GPa) = 86.18936 166.15047 90.94900
#
# Poissons Ratio (x) = 0.27969 0.45681
# Poissons Ratio (y) = 0.14508 0.01569
# Poissons Ratio (z) = 0.43290 0.02867
#
# Static dielectric constant tensor:
#      x y z
#    x 3.911700 0.000000 0.000000 
#    y 0.000000 1.205030 0.000000 
#    z 0.000000 0.000000 3.946880 
# 
# 
# High freq. dielectric constant tensor:
#      x y z
#    x 1.887230 0.000000 0.000000 
#    y 0.000000 1.931300 0.000000 
#    z 0.000000 0.000000 1.894110 
# 
# From -- ./inp_files/18728.got.cif
#   From: 2010.03.12/outbox.cif.g09.slc.cpg/sg57_10_cif.got.tgz:18728.got - 2010.04.16 15:48:40.
