data_PCOD8234945
_publ_section_title
;
Structure prediction by ZEFSAII (Michael W. Deem and Ramdas Pophale) SiO2 
 PCOD8234945
Probable space group: P B C M
;
_chemical_formula_sum "Si O2"
_cell_formula_units_Z 64
_cell_length_a 19.374182
_cell_length_b 10.092612
_cell_length_c 17.049494
_cell_angle_alpha 90.000000
_cell_angle_beta 90.000000
_cell_angle_gamma 90.000000
_cell_volume 3333.791593
_symmetry_space_group_name_H-M "P B C M"
_symmetry_group_IT_number 57
_symmetry_cell_setting 'orthorhombic'
loop_
_space_group_symop_operation_xyz
x,y,z
-x,-y,1/2+z
x,1/2-y,-z
-x,1/2+y,1/2-z
-x,-y,-z
x,y,1/2-z
-x,1/2+y,z
x,1/2-y,1/2+z
loop_
_atom_site_type_symbol
_atom_site_label
_atom_site_fract_x
_atom_site_fract_y
_atom_site_fract_z
Si Si1 0.149732 0.977960 0.087078
Si Si2 0.918045 0.232975 0.340021
Si Si3 0.291136 0.402073 0.909773
Si Si4 0.707764 0.608253 0.595522
Si Si5 0.556854 0.903419 0.907564
Si Si6 0.148635 0.479053 0.096739
Si Si7 0.076504 0.275589 0.842340
Si Si8 0.443944 0.103688 0.905783
O O1 0.228954 0.000894 0.115448
O O2 0.099303 0.078529 0.131519
O O3 0.129168 0.828988 0.108332
O O4 0.140789 0.991909 0.994640
O O5 0.909646 0.273124 0.250000
O O6 0.997105 0.243976 0.366400
O O7 0.893469 0.082688 0.351791
O O8 0.278683 0.256891 0.872482
O O9 0.366573 0.453333 0.881534
O O10 0.291961 0.387357 0.002396
O O11 0.770687 0.515063 0.623880
O O12 0.632384 0.557446 0.623805
O O13 0.542251 0.754144 0.876849
O O14 0.500945 0.003908 0.869972
O O15 0.551983 0.902402 0.000915
O O16 0.120620 0.331956 0.111034
O O17 0.087455 0.259200 0.750000
#
# Coordination Sequence:
#
# PCOD8234945 Si02
#       8
#     8   8   8   8   8   8   8   8
#     4  11  21  36  58  82 107 139 180 223 267 316
#     4  11  25  41  53  75 112 143 172 220 277 323
#     4   8  14  27  46  69 100 134 169 213 259 302
#     4   8  14  27  46  69 100 134 169 213 259 302
#     4   8  13  22  37  60  94 134 168 198 244 305
#     4  11  21  36  58  82 107 139 180 223 267 316
#     4  11  23  39  59  79 104 141 178 218 269 323
#     4   8  13  22  37  60  94 134 168 198 244 305
#
# _framework density 19.197361999999998
#
# number of rings (size 3 to 8) (size 9 to 14) (size 15 to 20)
#    0.000    2.500    1.250    3.750    0.000    5.000 
#    2.250    0.000    0.000    0.000    0.000    0.000 
#    0.000    6.000    0.000    0.000    0.000    0.000 
#
# Total GULP energy -793279.627681 kJ/mol
# GULP energy per Si atom -12394.994183 kJ/mol
# Density = 1.915367 g / cm^3
# Si number density = 19.197362 Si / 1000 Ang^3
#
#
#
# Elastic Constant Matrix: (Units=GPa)
#
#
# Indices 1 2 3 4 5 6 
#
# 1 163.2560 51.0131 25.6818 0.0000 0.0000 0.0000
# 2 51.0131 71.6256 9.0820 0.0000 0.0000 0.0000
# 3 25.6818 9.0820 25.9080 0.0000 0.0000 0.0000
# 4 0.0000 0.0000 0.0000 19.7241 0.0000 0.0000
# 5 0.0000 0.0000 0.0000 0.0000 -2.2842 0.0000
# 6 0.0000 0.0000 0.0000 0.0000 0.0000 35.9267
#
#
#
# Elastic Compliance Matrix: (Units=1/GPa)
#
#
# Indices 1 2 3 4 5 6 
#
# 1 0.008928 -0.005480 -0.006929 0.000000 0.000000 0.000000
# 2 -0.005480 0.017975 -0.000869 0.000000 0.000000 0.000000
# 3 -0.006929 -0.000869 0.045771 0.000000 0.000000 0.000000
# 4 0.000000 0.000000 0.000000 0.050699 0.000000 0.000000
# 5 0.000000 0.000000 0.000000 0.000000 -0.437790 0.000000
# 6 0.000000 0.000000 0.000000 0.000000 0.000000 0.027834
#
#
# Mechanical properties :
#
#
# Convention : Reuss Voigt Hill
#
# Bulk Modulus (GPa) = 21.68347 48.03814 34.86081
# Shear Modulus (GPa) = -20.43694 22.34083 0.95194
#
# Velocity S-wave (km/s) = -3.26632 3.41507 0.70495
# Velocity P-wave (km/s) = 1.70456 6.37400 4.34295
#
# Compressibility (1/GPa) = 0.04611808
#
# Stress axis : x y z
#
# Youngs Moduli (GPa) = 112.01208 55.63425 21.84792
#
# Poissons Ratio (x) = 0.30487 0.15138
# Poissons Ratio (y) = 0.61381 0.01898
# Poissons Ratio (z) = 0.77610 0.04834
#
# Static dielectric constant tensor:
#      x y z
#    x 4.045800 0.000000 0.000000 
#    y 0.000000 3.521630 0.000000 
#    z 0.000000 0.000000 3.000030 
# 
# 
# High freq. dielectric constant tensor:
#      x y z
#    x 1.765870 0.000000 0.000000 
#    y 0.000000 1.733780 0.000000 
#    z 0.000000 0.000000 1.700630 
# 
# From -- ./inp_files/23011.got.cif
#   From: 2010.03.12/outbox.cif.g09.slc.cpg/sg57_12_cif.got.tgz:23011.got - 2010.04.16 15:48:40.
