data_PCOD8234524
_publ_section_title
;
Structure prediction by ZEFSAII (Michael W. Deem and Ramdas Pophale) SiO2 
 PCOD8234524
Probable space group: P B C M
;
_chemical_formula_sum "Si O2"
_cell_formula_units_Z 56
_cell_length_a 13.738248
_cell_length_b 10.699233
_cell_length_c 17.720101
_cell_angle_alpha 90.000000
_cell_angle_beta 90.000000
_cell_angle_gamma 90.000000
_cell_volume 2604.654900
_symmetry_space_group_name_H-M "P B C M"
_symmetry_group_IT_number 57
_symmetry_cell_setting 'orthorhombic'
loop_
_space_group_symop_operation_xyz
x,y,z
-x,-y,1/2+z
x,1/2-y,-z
-x,1/2+y,1/2-z
-x,-y,-z
x,y,1/2-z
-x,1/2+y,z
x,1/2-y,1/2+z
loop_
_atom_site_type_symbol
_atom_site_label
_atom_site_fract_x
_atom_site_fract_y
_atom_site_fract_z
Si Si1 0.403825 0.377629 0.168714
Si Si2 0.597560 0.258266 0.165535
Si Si3 0.060538 0.277590 0.662513
Si Si4 0.738743 0.410743 0.419793
Si Si5 0.961674 0.458682 0.081052
Si Si6 0.272678 0.348173 0.832549
Si Si7 0.590796 0.056437 0.454401
O O1 0.372935 0.436570 0.250000
O O2 0.521465 0.373457 0.163622
O O3 0.367041 0.236759 0.164376
O O4 0.359370 0.451755 0.098492
O O5 0.603870 0.200468 0.250000
O O6 0.704149 0.309915 0.142515
O O7 0.555310 0.160726 0.104676
O O8 0.027429 0.266926 0.750000
O O9 0.030811 0.417235 0.633275
O O10 0.176495 0.265131 0.652888
O O11 0.018912 0.159725 0.615862
O O12 0.853680 0.402968 0.430771
O O13 0.711315 0.549995 0.395923
O O14 0.676632 0.385405 0.495280
O O15 0.000000 0.500000 0.000000
O O16 0.262627 0.412928 0.750000
O O17 0.500000 0.000000 0.500000
#
# Coordination Sequence:
#
# PCOD8234524 Si02
#       7
#     8   8   8   8   8   8   8
#     4  10  22  39  61  88 122 163 209 259 310 371
#     4  11  24  41  62  89 126 170 214 262 319 386
#     4  10  22  43  70  95 127 169 223 272 331 407
#     4  11  24  41  64  91 128 166 211 262 327 393
#     4  11  25  44  67 100 133 174 216 283 350 411
#     4   9  20  40  65  91 119 160 209 261 317 383
#     4  12  24  39  61  92 128 165 213 263 318 381
#
# _framework density 21.499969
#
# number of rings (size 3 to 8) (size 9 to 14) (size 15 to 20)
#    0.000    1.429    1.429    3.000    2.000    5.714 
#    0.000    0.000    0.000    0.000    0.000    0.000 
#    0.000    0.000    0.000    0.000    0.000    0.000 
#
# Total GULP energy -694002.175165 kJ/mol
# GULP energy per Si atom -12392.895985 kJ/mol
# Density = 2.145103 g / cm^3
# Si number density = 21.499969 Si / 1000 Ang^3
#
#
#
# Elastic Constant Matrix: (Units=GPa)
#
#
# Indices 1 2 3 4 5 6 
#
# 1 90.3618 27.2630 43.3350 0.0000 0.0000 0.0000
# 2 27.2630 85.7279 48.5311 0.0000 0.0000 0.0000
# 3 43.3350 48.5311 151.3131 0.0000 0.0000 0.0000
# 4 0.0000 0.0000 0.0000 35.8993 0.0000 0.0000
# 5 0.0000 0.0000 0.0000 0.0000 23.7718 0.0000
# 6 0.0000 0.0000 0.0000 0.0000 0.0000 32.5976
#
#
#
# Elastic Compliance Matrix: (Units=1/GPa)
#
#
# Indices 1 2 3 4 5 6 
#
# 1 0.013262 -0.002526 -0.002988 0.000000 0.000000 0.000000
# 2 -0.002526 0.014734 -0.004002 0.000000 0.000000 0.000000
# 3 -0.002988 -0.004002 0.008748 0.000000 0.000000 0.000000
# 4 0.000000 0.000000 0.000000 0.027856 0.000000 0.000000
# 5 0.000000 0.000000 0.000000 0.000000 0.042067 0.000000
# 6 0.000000 0.000000 0.000000 0.000000 0.000000 0.030677
#
#
# Mechanical properties :
#
#
# Convention : Reuss Voigt Hill
#
# Bulk Modulus (GPa) = 56.46053 62.85122 59.65588
# Shear Modulus (GPa) = 30.81115 32.33865 31.57490
#
# Velocity S-wave (km/s) = 3.78971 3.88251 3.83639
# Velocity P-wave (km/s) = 6.74292 7.02817 6.88702
#
# Compressibility (1/GPa) = 0.01771149
#
# Stress axis : x y z
#
# Youngs Moduli (GPa) = 75.40545 67.87116 114.30986
#
# Poissons Ratio (x) = 0.17144 0.34154
# Poissons Ratio (y) = 0.19047 0.45749
# Poissons Ratio (z) = 0.22530 0.27163
#
# Static dielectric constant tensor:
#      x y z
#    x 3.808200 0.000000 0.000000 
#    y 0.000000 3.786270 0.000000 
#    z 0.000000 0.000000 4.165790 
# 
# 
# High freq. dielectric constant tensor:
#      x y z
#    x 1.832520 0.000000 0.000000 
#    y 0.000000 1.842290 0.000000 
#    z 0.000000 0.000000 1.862950 
# 
# From -- ./inp_files/18548.got.cif
#   From: 2010.03.12/outbox.cif.g09.slc.cpg/sg57_10_cif.got.tgz:18548.got - 2010.04.16 15:48:40.
