data_PCOD8234946
_publ_section_title
;
Structure prediction by ZEFSAII (Michael W. Deem and Ramdas Pophale) SiO2 
 PCOD8234946
Probable space group: P B C M
;
_chemical_formula_sum "Si O2"
_cell_formula_units_Z 32
_cell_length_a 10.013214
_cell_length_b 19.768060
_cell_length_c 8.934623
_cell_angle_alpha 90.000000
_cell_angle_beta 90.000000
_cell_angle_gamma 90.000000
_cell_volume 1768.535494
_symmetry_space_group_name_H-M "P B C M"
_symmetry_group_IT_number 57
_symmetry_cell_setting 'orthorhombic'
loop_
_space_group_symop_operation_xyz
x,y,z
-x,-y,1/2+z
x,1/2-y,-z
-x,1/2+y,1/2-z
-x,-y,-z
x,y,1/2-z
-x,1/2+y,z
x,1/2-y,1/2+z
loop_
_atom_site_type_symbol
_atom_site_label
_atom_site_fract_x
_atom_site_fract_y
_atom_site_fract_z
Si Si1 0.405347 0.091082 0.574261
Si Si2 0.036597 0.929242 0.926251
Si Si3 0.156752 0.322614 0.071880
Si Si4 0.339174 0.941650 0.923163
O O1 0.421241 0.091359 0.750000
O O2 0.301271 0.148531 0.523559
O O3 0.551057 0.105413 0.504458
O O4 0.348994 0.018843 0.516969
O O5 0.004385 0.932362 0.750000
O O6 0.192295 0.913314 0.955318
O O7 0.957758 0.869889 0.006333
O O8 0.000000 0.000000 0.000000
O O9 0.141200 0.319265 0.250000
O O10 0.138725 0.250000 0.000000
O O11 0.374213 0.939854 0.750000
#
# Coordination Sequence:
#
# PCOD8234946 Si02
#       4
#     8   8   8   8
#     4   9  18  34  54  80 112 144 182 230 279 334
#     4  11  21  36  58  86 117 152 192 239 287 339
#     4  11  23  40  58  83 116 152 194 236 287 349
#     4   9  18  33  54  83 113 140 182 232 279 332
#
# _framework density 18.094066999999999
#
# number of rings (size 3 to 8) (size 9 to 14) (size 15 to 20)
#    0.000    2.000    2.500    1.500    0.000    4.000 
#    0.000    1.250    0.000    3.000    0.000    0.000 
#    0.000    0.000    0.000    0.000    0.000    0.000 
#
# Total GULP energy -396812.840922 kJ/mol
# GULP energy per Si atom -12400.401279 kJ/mol
# Density = 1.805288 g / cm^3
# Si number density = 18.094067 Si / 1000 Ang^3
#
#
#
# Elastic Constant Matrix: (Units=GPa)
#
#
# Indices 1 2 3 4 5 6 
#
# 1 138.2143 72.9491 61.7025 0.0000 0.0000 0.0000
# 2 72.9491 125.7546 51.2669 0.0000 0.0000 0.0000
# 3 61.7025 51.2669 73.3992 0.0000 0.0000 0.0000
# 4 0.0000 0.0000 0.0000 29.1583 0.0000 0.0000
# 5 0.0000 0.0000 0.0000 0.0000 36.8771 0.0000
# 6 0.0000 0.0000 0.0000 0.0000 0.0000 27.4740
#
#
#
# Elastic Compliance Matrix: (Units=1/GPa)
#
#
# Indices 1 2 3 4 5 6 
#
# 1 0.013083 -0.004342 -0.007965 0.000000 0.000000 0.000000
# 2 -0.004342 0.012559 -0.005122 0.000000 0.000000 0.000000
# 3 -0.007965 -0.005122 0.023897 0.000000 0.000000 0.000000
# 4 0.000000 0.000000 0.000000 0.034296 0.000000 0.000000
# 5 0.000000 0.000000 0.000000 0.000000 0.027117 0.000000
# 6 0.000000 0.000000 0.000000 0.000000 0.000000 0.036398
#
#
# Mechanical properties :
#
#
# Convention : Reuss Voigt Hill
#
# Bulk Modulus (GPa) = 68.11549 78.80059 73.45804
# Shear Modulus (GPa) = 26.72353 28.79852 27.76103
#
# Velocity S-wave (km/s) = 3.84724 3.99381 3.92121
# Velocity P-wave (km/s) = 7.58037 8.05683 7.82223
#
# Compressibility (1/GPa) = 0.01468095
#
# Stress axis : x y z
#
# Youngs Moduli (GPa) = 76.43711 79.62565 41.84556
#
# Poissons Ratio (x) = 0.34573 0.33331
# Poissons Ratio (y) = 0.33189 0.21433
# Poissons Ratio (z) = 0.60883 0.40783
#
# Static dielectric constant tensor:
#      x y z
#    x -2.472650 0.000000 0.000000 
#    y 0.000000 3.221910 0.000000 
#    z 0.000000 0.000000 3.357560 
# 
# 
# High freq. dielectric constant tensor:
#      x y z
#    x 1.715610 0.000000 0.000000 
#    y 0.000000 1.674000 0.000000 
#    z 0.000000 0.000000 1.707130 
# 
# From -- ./inp_files/1245.got.cif
#   From: 2010.03.12/outbox.cif.g09.slc.cpg/sg57_1_cif.got.tgz:1245.got - 2010.04.16 15:48:40.
