data_PCOD8234246
_publ_section_title
;
Structure prediction by ZEFSAII (Michael W. Deem and Ramdas Pophale) SiO2 
 PCOD8234246
Probable space group: P B C M
;
_chemical_formula_sum "Si O2"
_cell_formula_units_Z 40
_cell_length_a 24.905625
_cell_length_b 9.239389
_cell_length_c 8.558383
_cell_angle_alpha 90.000000
_cell_angle_beta 90.000000
_cell_angle_gamma 90.000000
_cell_volume 1969.393113
_symmetry_space_group_name_H-M "P B C M"
_symmetry_group_IT_number 57
_symmetry_cell_setting 'orthorhombic'
loop_
_space_group_symop_operation_xyz
x,y,z
-x,-y,1/2+z
x,1/2-y,-z
-x,1/2+y,1/2-z
-x,-y,-z
x,y,1/2-z
-x,1/2+y,z
x,1/2-y,1/2+z
loop_
_atom_site_type_symbol
_atom_site_label
_atom_site_fract_x
_atom_site_fract_y
_atom_site_fract_z
Si Si1 0.861166 0.096592 0.932378
Si Si2 0.263363 0.904607 0.433000
Si Si3 0.646561 0.909573 0.065481
Si Si4 0.951521 0.591797 0.566188
Si Si5 0.450591 0.910414 0.435025
O O1 0.873735 0.094839 0.750000
O O2 0.798940 0.068302 0.968884
O O3 0.879957 0.250000 0.000000
O O4 0.894166 0.971423 0.016276
O O5 0.282034 0.750000 0.500000
O O6 0.276232 0.908557 0.250000
O O7 0.294523 0.033027 0.520341
O O8 0.638793 0.906989 0.250000
O O9 0.637565 0.750000 0.000000
O O10 0.604507 0.017745 0.988331
O O11 0.957199 0.750000 0.500000
O O12 0.955627 0.595922 0.750000
O O13 0.000000 0.500000 0.500000
O O14 0.453999 0.750000 0.500000
O O15 0.453447 0.906215 0.250000
O O16 0.500000 0.000000 0.500000
#
# Coordination Sequence:
#
# PCOD8234246 Si02
#       5
#     8   8   8   8   8
#     4  10  21  39  63  91 123 159 201 247 300 358
#     4  10  21  39  63  91 123 161 203 249 300 358
#     4  12  25  42  63  90 124 163 206 253 304 359
#     4  12  25  42  63  88 120 157 200 247 300 358
#     4  12  25  44  67  94 126 162 204 250 303 361
#
# _framework density 20.310824
#
# number of rings (size 3 to 8) (size 9 to 14) (size 15 to 20)
#    0.000    0.800    0.000    8.400    0.000    3.200 
#    0.000    0.000    0.000    0.000    0.000    0.000 
#    0.000    0.000    0.000    0.000    0.000    0.000 
#
# Total GULP energy -496315.406305 kJ/mol
# GULP energy per Si atom -12407.885158 kJ/mol
# Density = 2.026460 g / cm^3
# Si number density = 20.310824 Si / 1000 Ang^3
#
#
#
# Elastic Constant Matrix: (Units=GPa)
#
#
# Indices 1 2 3 4 5 6 
#
# 1 103.8906 75.1071 60.8290 0.0000 0.0000 0.0000
# 2 75.1071 179.8192 81.4588 0.0000 0.0000 0.0000
# 3 60.8290 81.4588 193.1334 0.0000 0.0000 0.0000
# 4 0.0000 0.0000 0.0000 44.1283 0.0000 0.0000
# 5 0.0000 0.0000 0.0000 0.0000 41.4180 0.0000
# 6 0.0000 0.0000 0.0000 0.0000 0.0000 43.9683
#
#
#
# Elastic Compliance Matrix: (Units=1/GPa)
#
#
# Indices 1 2 3 4 5 6 
#
# 1 0.014723 -0.005005 -0.002526 0.000000 0.000000 0.000000
# 2 -0.005005 0.008576 -0.002041 0.000000 0.000000 0.000000
# 3 -0.002526 -0.002041 0.006834 0.000000 0.000000 0.000000
# 4 0.000000 0.000000 0.000000 0.022661 0.000000 0.000000
# 5 0.000000 0.000000 0.000000 0.000000 0.024144 0.000000
# 6 0.000000 0.000000 0.000000 0.000000 0.000000 0.022744
#
#
# Mechanical properties :
#
#
# Convention : Reuss Voigt Hill
#
# Bulk Modulus (GPa) = 90.99829 101.29257 96.14543
# Shear Modulus (GPa) = 40.81979 43.19947 42.00963
#
# Velocity S-wave (km/s) = 4.48789 4.61686 4.55283
# Velocity P-wave (km/s) = 8.47083 8.85438 8.66473
#
# Compressibility (1/GPa) = 0.01098922
#
# Stress axis : x y z
#
# Youngs Moduli (GPa) = 67.92074 116.60151 146.32438
#
# Poissons Ratio (x) = 0.58362 0.36963
# Poissons Ratio (y) = 0.33996 0.29862
# Poissons Ratio (z) = 0.17157 0.23796
#
# Static dielectric constant tensor:
#      x y z
#    x 3.851130 0.000000 0.000000 
#    y 0.000000 3.840860 0.000000 
#    z 0.000000 0.000000 3.938260 
# 
# 
# High freq. dielectric constant tensor:
#      x y z
#    x 1.808860 0.000000 0.000000 
#    y 0.000000 1.803990 0.000000 
#    z 0.000000 0.000000 1.817450 
# 
# From -- ./inp_files/8913.got.cif
#   From: 2010.03.12/outbox.cif.g09.slc.cpg/sg57_5_cif.got.tgz:8913.got - 2010.04.16 15:48:40.
