data_PCOD8234418
_publ_section_title
;
Structure prediction by ZEFSAII (Michael W. Deem and Ramdas Pophale) SiO2 
 PCOD8234418
Probable space group: P B C M
;
_chemical_formula_sum "Si O2"
_cell_formula_units_Z 56
_cell_length_a 11.437430
_cell_length_b 11.170070
_cell_length_c 21.317854
_cell_angle_alpha 90.000000
_cell_angle_beta 90.000000
_cell_angle_gamma 90.000000
_cell_volume 2723.502808
_symmetry_space_group_name_H-M "P B C M"
_symmetry_group_IT_number 57
_symmetry_cell_setting 'orthorhombic'
loop_
_space_group_symop_operation_xyz
x,y,z
-x,-y,1/2+z
x,1/2-y,-z
-x,1/2+y,1/2-z
-x,-y,-z
x,y,1/2-z
-x,1/2+y,z
x,1/2-y,1/2+z
loop_
_atom_site_type_symbol
_atom_site_label
_atom_site_fract_x
_atom_site_fract_y
_atom_site_fract_z
Si Si1 0.826690 0.217906 0.927245
Si Si2 0.905113 0.755180 0.074259
Si Si3 0.584407 0.845771 0.681065
Si Si4 0.297319 0.116620 0.861112
Si Si5 0.318309 0.854486 0.678374
Si Si6 0.747199 0.950514 0.586000
Si Si7 0.574457 0.617714 0.514800
O O1 0.759368 0.297758 0.876610
O O2 0.961177 0.225197 0.907156
O O3 0.782430 0.084829 0.922006
O O4 0.804533 0.250000 0.000000
O O5 0.828228 0.860362 0.105831
O O6 0.861208 0.628329 0.102908
O O7 0.892755 0.750000 0.000000
O O8 0.580979 0.902327 0.750000
O O9 0.661946 0.725338 0.682952
O O10 0.451345 0.823916 0.659043
O O11 0.645871 0.944750 0.638012
O O12 0.399449 0.109704 0.912309
O O13 0.292680 0.996067 0.821241
O O14 0.290746 0.808675 0.750000
O O15 0.695292 0.890196 0.523321
O O16 0.516428 0.750000 0.500000
O O17 0.500000 0.500000 0.500000
#
# Coordination Sequence:
#
# PCOD8234418 Si02
#       7
#     8   8   8   8   8   8   8
#     4  11  27  41  69 102 132 175 228 279 334 400
#     4  10  21  42  67  95 131 173 217 272 333 396
#     4  10  23  42  66  91 125 174 221 266 334 407
#     4  11  21  41  67  93 126 172 222 265 337 400
#     4  11  26  45  64  96 136 174 219 282 345 410
#     4  11  22  42  64  95 129 173 218 267 342 393
#     4  12  23  37  63 102 144 171 213 279 345 410
#
# _framework density 20.561755999999999
#
# number of rings (size 3 to 8) (size 9 to 14) (size 15 to 20)
#    0.000    1.143    4.286    2.143    6.000    2.286 
#    0.000    3.571    0.000    0.000    0.000    0.000 
#    0.000    0.000    0.000    0.000    0.000    0.000 
#
# Total GULP energy -694112.497182 kJ/mol
# GULP energy per Si atom -12394.866021 kJ/mol
# Density = 2.051496 g / cm^3
# Si number density = 20.561756 Si / 1000 Ang^3
#
#
#
# Elastic Constant Matrix: (Units=GPa)
#
#
# Indices 1 2 3 4 5 6 
#
# 1 131.7788 45.5864 51.7663 0.0000 0.0000 0.0000
# 2 45.5864 128.4934 20.6095 0.0000 0.0000 0.0000
# 3 51.7663 20.6095 96.9640 0.0000 0.0000 0.0000
# 4 0.0000 0.0000 0.0000 24.7316 0.0000 0.0000
# 5 0.0000 0.0000 0.0000 0.0000 25.7449 0.0000
# 6 0.0000 0.0000 0.0000 0.0000 0.0000 66.0669
#
#
#
# Elastic Compliance Matrix: (Units=1/GPa)
#
#
# Indices 1 2 3 4 5 6 
#
# 1 0.010581 -0.002948 -0.005022 0.000000 0.000000 0.000000
# 2 -0.002948 0.008879 -0.000313 0.000000 0.000000 0.000000
# 3 -0.005022 -0.000313 0.013061 0.000000 0.000000 0.000000
# 4 0.000000 0.000000 0.000000 0.040434 0.000000 0.000000
# 5 0.000000 0.000000 0.000000 0.000000 0.038843 0.000000
# 6 0.000000 0.000000 0.000000 0.000000 0.000000 0.015136
#
#
# Mechanical properties :
#
#
# Convention : Reuss Voigt Hill
#
# Bulk Modulus (GPa) = 62.68319 65.90674 64.29497
# Shear Modulus (GPa) = 33.59770 39.26027 36.42899
#
# Velocity S-wave (km/s) = 4.04665 4.37439 4.21371
# Velocity P-wave (km/s) = 7.23777 7.59186 7.41693
#
# Compressibility (1/GPa) = 0.01595324
#
# Stress axis : x y z
#
# Youngs Moduli (GPa) = 94.50568 112.62835 76.56401
#
# Poissons Ratio (x) = 0.33208 0.38454
# Poissons Ratio (y) = 0.27865 0.02397
# Poissons Ratio (z) = 0.47465 0.03526
#
# Static dielectric constant tensor:
#      x y z
#    x 3.958680 0.000000 0.000000 
#    y 0.000000 3.548220 0.000000 
#    z 0.000000 0.000000 3.734400 
# 
# 
# High freq. dielectric constant tensor:
#      x y z
#    x 1.801660 0.000000 0.000000 
#    y 0.000000 1.807860 0.000000 
#    z 0.000000 0.000000 1.803560 
# 
# From -- ./inp_files/25054.got.cif
#   From: 2010.03.12/outbox.cif.g09.slc.cpg/sg57_13_cif.got.tgz:25054.got - 2010.04.16 15:48:40.
