data_PCOD8234649
_publ_section_title
;
Structure prediction by ZEFSAII (Michael W. Deem and Ramdas Pophale) SiO2 
 PCOD8234649
Probable space group: P B C M
;
_chemical_formula_sum "Si O2"
_cell_formula_units_Z 44
_cell_length_a 7.602197
_cell_length_b 13.808316
_cell_length_c 19.464485
_cell_angle_alpha 90.000000
_cell_angle_beta 90.000000
_cell_angle_gamma 90.000000
_cell_volume 2043.255865
_symmetry_space_group_name_H-M "P B C M"
_symmetry_group_IT_number 57
_symmetry_cell_setting 'orthorhombic'
loop_
_space_group_symop_operation_xyz
x,y,z
-x,-y,1/2+z
x,1/2-y,-z
-x,1/2+y,1/2-z
-x,-y,-z
x,y,1/2-z
-x,1/2+y,z
x,1/2-y,1/2+z
loop_
_atom_site_type_symbol
_atom_site_label
_atom_site_fract_x
_atom_site_fract_y
_atom_site_fract_z
Si Si1 0.200867 0.896171 0.250000
Si Si2 0.809495 0.108026 0.382439
Si Si3 0.947720 0.892185 0.750000
Si Si4 0.993327 0.140236 0.516772
Si Si5 0.322908 0.822041 0.389848
Si Si6 0.685894 0.594823 0.610679
Si Si7 0.181713 0.188867 0.750000
O O1 0.318725 0.864058 0.313572
O O2 0.022236 0.836824 0.250000
O O3 0.164501 0.010137 0.250000
O O4 0.928590 0.116184 0.315704
O O5 0.943613 0.086334 0.445829
O O6 0.696868 0.205761 0.393979
O O7 0.670204 0.020241 0.373886
O O8 0.805748 0.805410 0.750000
O O9 0.032812 0.250000 0.500000
O O10 0.829781 0.126774 0.567661
O O11 0.166465 0.100324 0.552447
O O12 0.509734 0.857234 0.420356
O O13 0.731257 0.649028 0.681223
#
# Coordination Sequence:
#
# PCOD8234649 Si02
#       7
#     4   8   4   8   8   8   4
#     4  12  21  42  67  94 130 172 216 263 328 383
#     4  11  22  41  67  95 129 176 213 266 332 383
#     4  12  22  40  74  92 126 172 216 266 328 386
#     4  10  22  42  65  94 131 175 213 264 329 385
#     4  11  24  42  64  95 136 166 214 276 319 383
#     4  12  24  41  68  97 130 170 224 265 322 395
#     4  12  21  40  65  98 124 170 216 263 318 387
#
# _framework density 21.534258999999999
#
# number of rings (size 3 to 8) (size 9 to 14) (size 15 to 20)
#    0.000    0.727    5.455    2.182    0.000    4.364 
#    0.000    3.636    0.000    0.000    0.000    0.000 
#    0.000    0.000    0.000    0.000    0.000    0.000 
#
# Total GULP energy -545657.472706 kJ/mol
# GULP energy per Si atom -12401.306198 kJ/mol
# Density = 2.148525 g / cm^3
# Si number density = 21.534259 Si / 1000 Ang^3
#
#
#
# Elastic Constant Matrix: (Units=GPa)
#
#
# Indices 1 2 3 4 5 6 
#
# 1 131.6330 56.0070 37.0834 0.0000 0.0000 0.0000
# 2 56.0070 104.5981 18.2156 0.0000 0.0000 0.0000
# 3 37.0834 18.2156 117.8407 0.0000 0.0000 0.0000
# 4 0.0000 0.0000 0.0000 21.3540 0.0000 0.0000
# 5 0.0000 0.0000 0.0000 0.0000 -34.2061 0.0000
# 6 0.0000 0.0000 0.0000 0.0000 0.0000 24.4542
#
#
#
# Elastic Compliance Matrix: (Units=1/GPa)
#
#
# Indices 1 2 3 4 5 6 
#
# 1 0.010512 -0.005192 -0.002505 0.000000 0.000000 0.000000
# 2 -0.005192 0.012390 -0.000281 0.000000 0.000000 0.000000
# 3 -0.002505 -0.000281 0.009318 0.000000 0.000000 0.000000
# 4 0.000000 0.000000 0.000000 0.046830 0.000000 0.000000
# 5 0.000000 0.000000 0.000000 0.000000 -0.029235 0.000000
# 6 0.000000 0.000000 0.000000 0.000000 0.000000 0.040893
#
#
# Mechanical properties :
#
#
# Convention : Reuss Voigt Hill
#
# Bulk Modulus (GPa) = 61.49429 64.07598 62.78513
# Shear Modulus (GPa) = 44.60878 18.50480 31.55679
#
# Velocity S-wave (km/s) = 4.55634 2.93460 3.83224
# Velocity P-wave (km/s) = 7.50325 6.42670 6.98574
#
# Compressibility (1/GPa) = 0.01626167
#
# Stress axis : x y z
#
# Youngs Moduli (GPa) = 95.13027 80.71299 107.32009
#
# Poissons Ratio (x) = 0.41908 0.26888
# Poissons Ratio (y) = 0.49394 0.03018
# Poissons Ratio (z) = 0.23834 0.02270
#
# Static dielectric constant tensor:
#      x y z
#    x 3.734520 0.000000 0.000000 
#    y 0.000000 4.177350 0.000000 
#    z 0.000000 0.000000 4.053750 
# 
# 
# High freq. dielectric constant tensor:
#      x y z
#    x 1.825920 0.000000 0.000000 
#    y 0.000000 1.863830 0.000000 
#    z 0.000000 0.000000 1.860750 
# 
# From -- ./inp_files/20865.got.cif
#   From: 2010.03.12/outbox.cif.g09.slc.cpg/sg57_11_cif.got.tgz:20865.got - 2010.04.16 15:48:40.
