data_PCOD8234450
_publ_section_title
;
Structure prediction by ZEFSAII (Michael W. Deem and Ramdas Pophale) SiO2 
 PCOD8234450
Probable space group: P B C M
;
_chemical_formula_sum "Si O2"
_cell_formula_units_Z 40
_cell_length_a 11.077148
_cell_length_b 18.823661
_cell_length_c 10.033504
_cell_angle_alpha 90.000000
_cell_angle_beta 90.000000
_cell_angle_gamma 90.000000
_cell_volume 2092.110790
_symmetry_space_group_name_H-M "P B C M"
_symmetry_group_IT_number 57
_symmetry_cell_setting 'orthorhombic'
loop_
_space_group_symop_operation_xyz
x,y,z
-x,-y,1/2+z
x,1/2-y,-z
-x,1/2+y,1/2-z
-x,-y,-z
x,y,1/2-z
-x,1/2+y,z
x,1/2-y,1/2+z
loop_
_atom_site_type_symbol
_atom_site_label
_atom_site_fract_x
_atom_site_fract_y
_atom_site_fract_z
Si Si1 0.523960 0.066729 0.093206
Si Si2 0.836738 0.845535 0.250000
Si Si3 0.279130 0.388345 0.520419
Si Si4 0.867992 0.681750 0.250000
Si Si5 0.913526 0.428787 0.250000
Si Si6 0.049709 0.934176 0.750000
Si Si7 0.222265 0.948378 0.995892
O O1 0.518609 0.046422 0.250000
O O2 0.658544 0.093777 0.055247
O O3 0.420986 0.124574 0.056525
O O4 0.500000 0.000000 0.000000
O O5 0.749941 0.862590 0.127101
O O6 0.884361 0.765673 0.250000
O O7 0.955573 0.893319 0.250000
O O8 0.201091 0.340856 0.617992
O O9 0.251713 0.471420 0.539551
O O10 0.000985 0.646462 0.250000
O O11 0.835611 0.406687 0.379200
O O12 0.934176 0.513731 0.250000
O O13 0.125481 0.950440 0.880084
#
# Coordination Sequence:
#
# PCOD8234450 Si02
#       7
#     8   4   8   4   4   4   8
#     4  10  22  36  59  92 121 150 193 247 307 363
#     4  12  26  39  59  91 125 161 208 251 301 372
#     4  11  21  39  61  87 126 155 198 256 307 363
#     4  12  24  39  61  87 123 167 204 249 311 362
#     4  12  22  37  59  88 127 157 203 249 300 364
#     4  12  20  37  61  86 125 165 197 253 300 360
#     4  11  21  36  62  91 121 157 197 257 307 352
#
# _framework density 19.119447000000001
#
# number of rings (size 3 to 8) (size 9 to 14) (size 15 to 20)
#    0.000    0.800    6.000    2.400    8.400    0.000 
#    0.000    0.000    0.000    7.200    0.000    0.000 
#    0.000    0.000    0.000    0.000    0.000    0.000 
#
# Total GULP energy -495953.988511 kJ/mol
# GULP energy per Si atom -12398.849713 kJ/mol
# Density = 1.907593 g / cm^3
# Si number density = 19.119447 Si / 1000 Ang^3
#
#
#
# Elastic Constant Matrix: (Units=GPa)
#
#
# Indices 1 2 3 4 5 6 
#
# 1 123.7480 19.4964 61.4365 0.0000 0.0000 0.0000
# 2 19.4964 53.2359 9.7236 0.0000 0.0000 0.0000
# 3 61.4365 9.7236 172.1817 0.0000 0.0000 0.0000
# 4 0.0000 0.0000 0.0000 3.3291 0.0000 0.0000
# 5 0.0000 0.0000 0.0000 0.0000 -176.4904 0.0000
# 6 0.0000 0.0000 0.0000 0.0000 0.0000 14.4685
#
#
#
# Elastic Compliance Matrix: (Units=1/GPa)
#
#
# Indices 1 2 3 4 5 6 
#
# 1 0.010314 -0.003138 -0.003503 0.000000 0.000000 0.000000
# 2 -0.003138 0.019935 -0.000006 0.000000 0.000000 0.000000
# 3 -0.003503 -0.000006 0.007058 0.000000 0.000000 0.000000
# 4 0.000000 0.000000 0.000000 0.300380 0.000000 0.000000
# 5 0.000000 0.000000 0.000000 0.000000 -0.005666 0.000000
# 6 0.000000 0.000000 0.000000 0.000000 0.000000 0.069116
#
#
# Mechanical properties :
#
#
# Convention : Reuss Voigt Hill
#
# Bulk Modulus (GPa) = 41.64375 58.94206 50.29290
# Shear Modulus (GPa) = 11.83614 -14.50461 -1.33424
#
# Velocity S-wave (km/s) = 2.49080 -2.75731 -0.83628
# Velocity P-wave (km/s) = 5.48637 4.55612 5.04274
#
# Compressibility (1/GPa) = 0.02401321
#
# Stress axis : x y z
#
# Youngs Moduli (GPa) = 96.95144 50.16427 141.68058
#
# Poissons Ratio (x) = 0.15739 0.49633
# Poissons Ratio (y) = 0.30419 0.00088
# Poissons Ratio (z) = 0.33963 0.00031
#
# Static dielectric constant tensor:
#      x y z
#    x 4.226400 0.000000 0.000000 
#    y 0.000000 3.133310 0.000000 
#    z 0.000000 0.000000 3.914870 
# 
# 
# High freq. dielectric constant tensor:
#      x y z
#    x 1.762970 0.000000 0.000000 
#    y 0.000000 1.685300 0.000000 
#    z 0.000000 0.000000 1.770260 
# 
# From -- ./inp_files/2766.got.cif
#   From: 2010.03.12/outbox.cif.g09.slc.cpg/sg57_2_cif.got.tgz:2766.got - 2010.04.16 15:48:40.
