data_PCOD8234411
_publ_section_title
;
Structure prediction by ZEFSAII (Michael W. Deem and Ramdas Pophale) SiO2 
 PCOD8234411
Probable space group: P B C M
;
_chemical_formula_sum "Si O2"
_cell_formula_units_Z 32
_cell_length_a 8.345938
_cell_length_b 16.360690
_cell_length_c 10.645997
_cell_angle_alpha 90.000000
_cell_angle_beta 90.000000
_cell_angle_gamma 90.000000
_cell_volume 1453.660901
_symmetry_space_group_name_H-M "P B C M"
_symmetry_group_IT_number 57
_symmetry_cell_setting 'orthorhombic'
loop_
_space_group_symop_operation_xyz
x,y,z
-x,-y,1/2+z
x,1/2-y,-z
-x,1/2+y,1/2-z
-x,-y,-z
x,y,1/2-z
-x,1/2+y,z
x,1/2-y,1/2+z
loop_
_atom_site_type_symbol
_atom_site_label
_atom_site_fract_x
_atom_site_fract_y
_atom_site_fract_z
Si Si1 0.140438 0.153899 0.495131
Si Si2 0.045511 0.894253 0.750000
Si Si3 0.491987 0.653818 0.750000
Si Si4 0.501331 0.404458 0.505981
Si Si5 0.150222 0.420787 0.250000
Si Si6 0.632129 0.169859 0.250000
O O1 0.107492 0.250000 0.500000
O O2 0.328773 0.137188 0.485457
O O3 0.067806 0.113849 0.622794
O O4 0.061955 0.112495 0.373853
O O5 0.174878 0.819565 0.750000
O O6 0.138819 0.981132 0.750000
O O7 0.406917 0.625182 0.878776
O O8 0.669081 0.614679 0.750000
O O9 0.481841 0.751650 0.750000
O O10 0.500000 0.500000 0.500000
O O11 0.602453 0.381801 0.625968
#
# Coordination Sequence:
#
# PCOD8234411 Si02
#       6
#     8   4   4   8   4   4
#     4  11  23  43  67  96 133 175 213 264 331 393
#     4  12  26  42  64  98 135 174 215 266 329 400
#     4  10  22  40  63  92 125 166 215 274 325 374
#     4  11  22  41  68  97 126 167 219 270 322 383
#     4  10  21  42  66  92 127 171 217 264 320 388
#     4  12  23  40  63  94 129 167 217 270 318 384
#
# _framework density 22.013386000000001
#
# number of rings (size 3 to 8) (size 9 to 14) (size 15 to 20)
#    0.000    1.000    0.000    9.750    0.000    2.000 
#    0.000    3.750    0.000    0.000    0.000    0.000 
#    0.000    0.000    0.000    0.000    0.000    0.000 
#
# Total GULP energy -396619.891157 kJ/mol
# GULP energy per Si atom -12394.371599 kJ/mol
# Density = 2.196328 g / cm^3
# Si number density = 22.013386 Si / 1000 Ang^3
#
#
#
# Elastic Constant Matrix: (Units=GPa)
#
#
# Indices 1 2 3 4 5 6 
#
# 1 41.7329 -1.1662 30.1524 0.0000 0.0000 0.0000
# 2 -1.1662 126.5195 39.3385 0.0000 0.0000 0.0000
# 3 30.1524 39.3385 240.5469 0.0000 0.0000 0.0000
# 4 0.0000 0.0000 0.0000 42.2496 0.0000 0.0000
# 5 0.0000 0.0000 0.0000 0.0000 -43.6540 0.0000
# 6 0.0000 0.0000 0.0000 0.0000 0.0000 24.3052
#
#
#
# Elastic Compliance Matrix: (Units=1/GPa)
#
#
# Indices 1 2 3 4 5 6 
#
# 1 0.026565 0.001349 -0.003550 0.000000 0.000000 0.000000
# 2 0.001349 0.008396 -0.001542 0.000000 0.000000 0.000000
# 3 -0.003550 -0.001542 0.004854 0.000000 0.000000 0.000000
# 4 0.000000 0.000000 0.000000 0.023669 0.000000 0.000000
# 5 0.000000 0.000000 0.000000 0.000000 -0.022907 0.000000
# 6 0.000000 0.000000 0.000000 0.000000 0.000000 0.041143
#
#
# Mechanical properties :
#
#
# Convention : Reuss Voigt Hill
#
# Bulk Modulus (GPa) = 30.93336 60.60541 45.76939
# Shear Modulus (GPa) = 50.00833 27.27846 38.64340
#
# Velocity S-wave (km/s) = 4.77143 3.52401 4.19435
# Velocity P-wave (km/s) = 6.66618 6.64448 6.65534
#
# Compressibility (1/GPa) = 0.03232756
#
# Stress axis : x y z
#
# Youngs Moduli (GPa) = 37.64377 119.10660 205.99721
#
# Poissons Ratio (x) = -0.16065 0.73139
# Poissons Ratio (y) = -0.05077 0.31767
# Poissons Ratio (z) = 0.13365 0.18368
#
# Static dielectric constant tensor:
#      x y z
#    x 3.390150 0.000000 0.000000 
#    y 0.000000 3.948680 0.000000 
#    z 0.000000 0.000000 5.114030 
# 
# 
# High freq. dielectric constant tensor:
#      x y z
#    x 1.831540 0.000000 0.000000 
#    y 0.000000 1.875420 0.000000 
#    z 0.000000 0.000000 1.908320 
# 
# From -- ./inp_files/11358.got.cif
#   From: 2010.03.12/outbox.cif.g09.slc.cpg/sg57_6_cif.got.tgz:11358.got - 2010.04.16 15:48:40.
