data_PCOD8234365
_publ_section_title
;
Structure prediction by ZEFSAII (Michael W. Deem and Ramdas Pophale) SiO2 
 PCOD8234365
Probable space group: P B C M
;
_chemical_formula_sum "Si O2"
_cell_formula_units_Z 56
_cell_length_a 15.962151
_cell_length_b 5.286151
_cell_length_c 29.954124
_cell_angle_alpha 90.000000
_cell_angle_beta 90.000000
_cell_angle_gamma 90.000000
_cell_volume 2527.479273
_symmetry_space_group_name_H-M "P B C M"
_symmetry_group_IT_number 57
_symmetry_cell_setting 'orthorhombic'
loop_
_space_group_symop_operation_xyz
x,y,z
-x,-y,1/2+z
x,1/2-y,-z
-x,1/2+y,1/2-z
-x,-y,-z
x,y,1/2-z
-x,1/2+y,z
x,1/2-y,1/2+z
loop_
_atom_site_type_symbol
_atom_site_label
_atom_site_fract_x
_atom_site_fract_y
_atom_site_fract_z
Si Si1 0.947830 0.835914 0.634373
Si Si2 0.310854 0.875375 0.802161
Si Si3 0.210705 0.374958 0.697016
Si Si4 0.323392 0.398673 0.435558
Si Si5 0.553286 0.750000 0.500000
Si Si6 0.159498 0.138656 0.049983
Si Si7 0.756809 0.250000 0.500000
Si Si8 0.446108 0.882554 0.869035
O O1 0.919551 0.850156 0.582419
O O2 0.986324 0.560059 0.642798
O O3 0.875402 0.877762 0.670212
O O4 0.320792 0.873454 0.750000
O O5 0.262116 0.126942 0.817767
O O6 0.406589 0.880679 0.819729
O O7 0.262541 0.622749 0.817915
O O8 0.191347 0.375805 0.750000
O O9 0.396218 0.213873 0.453125
O O10 0.236297 0.265645 0.421748
O O11 0.303486 0.534891 0.482390
O O12 0.361238 0.588363 0.398806
O O13 0.500000 0.500000 0.500000
O O14 0.185079 0.847564 0.041010
O O15 0.141385 0.250000 0.000000
O O16 0.508474 0.116377 0.877459
#
# Coordination Sequence:
#
# PCOD8234365 Si02
#       8
#     8   8   8   8   4   8   4   8
#     4  12  28  44  68 104 138 172 209 270 343 400
#     4  10  22  43  71  97 127 175 226 267 315 389
#     4  10  22  44  73 102 131 171 220 267 323 403
#     4  11  23  40  61  89 122 172 223 267 320 390
#     4  12  23  36  56  85 122 154 202 268 325 368
#     4  10  24  43  68  92 124 178 232 275 322 393
#     4  10  21  40  68  87 112 168 228 270 315 364
#     4  12  27  40  60  96 136 174 214 274 337 382
#
# _framework density 22.156464
#
# number of rings (size 3 to 8) (size 9 to 14) (size 15 to 20)
#    0.000    1.143    2.143    3.857    8.000    1.714 
#    0.000    0.000    0.000    0.000    0.000    0.000 
#    0.000    0.000    0.000    0.000    0.000    0.000 
#
# Total GULP energy -694052.973951 kJ/mol
# GULP energy per Si atom -12393.803106 kJ/mol
# Density = 2.210603 g / cm^3
# Si number density = 22.156464 Si / 1000 Ang^3
#
#
#
# Elastic Constant Matrix: (Units=GPa)
#
#
# Indices 1 2 3 4 5 6 
#
# 1 64.4234 22.9989 28.7723 0.0000 0.0000 0.0000
# 2 22.9989 127.2457 16.5281 0.0000 0.0000 0.0000
# 3 28.7723 16.5281 53.5510 0.0000 0.0000 0.0000
# 4 0.0000 0.0000 0.0000 21.5785 0.0000 0.0000
# 5 0.0000 0.0000 0.0000 0.0000 51.6536 0.0000
# 6 0.0000 0.0000 0.0000 0.0000 0.0000 28.8234
#
#
#
# Elastic Compliance Matrix: (Units=1/GPa)
#
#
# Indices 1 2 3 4 5 6 
#
# 1 0.021127 -0.002442 -0.010598 0.000000 0.000000 0.000000
# 2 -0.002442 0.008469 -0.001302 0.000000 0.000000 0.000000
# 3 -0.010598 -0.001302 0.024770 0.000000 0.000000 0.000000
# 4 0.000000 0.000000 0.000000 0.046342 0.000000 0.000000
# 5 0.000000 0.000000 0.000000 0.000000 0.019360 0.000000
# 6 0.000000 0.000000 0.000000 0.000000 0.000000 0.034694
#
#
# Mechanical properties :
#
#
# Convention : Reuss Voigt Hill
#
# Bulk Modulus (GPa) = 38.93650 42.42432 40.68041
# Shear Modulus (GPa) = 26.04079 32.20581 29.12330
#
# Velocity S-wave (km/s) = 3.43200 3.81670 3.62945
# Velocity P-wave (km/s) = 5.77204 6.21386 5.99702
#
# Compressibility (1/GPa) = 0.02568284
#
# Stress axis : x y z
#
# Youngs Moduli (GPa) = 47.33241 118.07342 40.37205
#
# Poissons Ratio (x) = 0.28834 0.42785
# Poissons Ratio (y) = 0.11559 0.05256
# Poissons Ratio (z) = 0.50161 0.15372
#
# Static dielectric constant tensor:
#      x y z
#    x 3.951440 0.000000 0.000000 
#    y 0.000000 4.696810 0.000000 
#    z 0.000000 0.000000 4.290860 
# 
# 
# High freq. dielectric constant tensor:
#      x y z
#    x 1.868160 0.000000 0.000000 
#    y 0.000000 1.884970 0.000000 
#    z 0.000000 0.000000 1.875080 
# 
# From -- ./inp_files/29876.got.cif
#   From: 2010.03.12/outbox.cif.g09.slc.cpg/sg57_15_cif.got.tgz:29876.got - 2010.04.16 15:48:40.
