data_PCOD8234668
_publ_section_title
;
Structure prediction by ZEFSAII (Michael W. Deem and Ramdas Pophale) SiO2 
 PCOD8234668
Probable space group: P B C M
;
_chemical_formula_sum "Si O2"
_cell_formula_units_Z 36
_cell_length_a 11.590003
_cell_length_b 14.147329
_cell_length_c 10.681681
_cell_angle_alpha 90.000000
_cell_angle_beta 90.000000
_cell_angle_gamma 90.000000
_cell_volume 1751.449443
_symmetry_space_group_name_H-M "P B C M"
_symmetry_group_IT_number 57
_symmetry_cell_setting 'orthorhombic'
loop_
_space_group_symop_operation_xyz
x,y,z
-x,-y,1/2+z
x,1/2-y,-z
-x,1/2+y,1/2-z
-x,-y,-z
x,y,1/2-z
-x,1/2+y,z
x,1/2-y,1/2+z
loop_
_atom_site_type_symbol
_atom_site_label
_atom_site_fract_x
_atom_site_fract_y
_atom_site_fract_z
Si Si1 0.238439 0.616611 0.750000
Si Si2 0.364013 0.030032 0.611954
Si Si3 0.107087 0.063595 0.250000
Si Si4 0.832810 0.646047 0.505661
Si Si5 0.580781 0.144653 0.958371
Si Si6 0.018282 0.383316 0.250000
O O1 0.222789 0.502186 0.750000
O O2 0.306243 0.650272 0.627479
O O3 0.110330 0.663764 0.750000
O O4 0.309460 0.029649 0.750000
O O5 0.268774 0.069955 0.517336
O O6 0.475325 0.097619 0.615967
O O7 0.395291 0.922436 0.577538
O O8 0.101611 0.127021 0.374952
O O9 0.993535 0.997498 0.250000
O O10 0.776778 0.750000 0.500000
O O11 0.918931 0.646229 0.622880
O O12 0.546827 0.250000 0.000000
#
# Coordination Sequence:
#
# PCOD8234668 Si02
#       6
#     4   8   4   8   8   4
#     4  10  22  43  64  90 131 166 213 266 325 371
#     4  11  23  41  66  96 130 169 213 268 322 385
#     4  10  23  41  63  91 136 173 200 280 318 369
#     4  12  23  42  66 101 130 171 220 267 325 384
#     4  11  24  43  65  95 128 170 215 262 325 388
#     4  10  23  42  67  91 129 173 223 266 323 378
#
# _framework density 20.554404000000002
#
# number of rings (size 3 to 8) (size 9 to 14) (size 15 to 20)
#    0.667    0.444    4.444    2.000    1.556    0.889 
#    0.000    2.222    0.000    0.000    0.000    0.000 
#    0.000    0.000    0.000    0.000    0.000    0.000 
#
# Total GULP energy -446321.826181 kJ/mol
# GULP energy per Si atom -12397.828505 kJ/mol
# Density = 2.050762 g / cm^3
# Si number density = 20.554404 Si / 1000 Ang^3
#
#
#
# Elastic Constant Matrix: (Units=GPa)
#
#
# Indices 1 2 3 4 5 6 
#
# 1 88.9378 15.8830 30.3722 0.0000 0.0000 0.0000
# 2 15.8830 141.4623 38.7370 0.0000 0.0000 0.0000
# 3 30.3722 38.7370 148.7880 0.0000 0.0000 0.0000
# 4 0.0000 0.0000 0.0000 7.6139 0.0000 0.0000
# 5 0.0000 0.0000 0.0000 0.0000 13.5711 0.0000
# 6 0.0000 0.0000 0.0000 0.0000 0.0000 15.9054
#
#
#
# Elastic Compliance Matrix: (Units=1/GPa)
#
#
# Indices 1 2 3 4 5 6 
#
# 1 0.012158 -0.000738 -0.002290 0.000000 0.000000 0.000000
# 2 -0.000738 0.007656 -0.001843 0.000000 0.000000 0.000000
# 3 -0.002290 -0.001843 0.007668 0.000000 0.000000 0.000000
# 4 0.000000 0.000000 0.000000 0.131339 0.000000 0.000000
# 5 0.000000 0.000000 0.000000 0.000000 0.073686 0.000000
# 6 0.000000 0.000000 0.000000 0.000000 0.000000 0.062872
#
#
# Mechanical properties :
#
#
# Convention : Reuss Voigt Hill
#
# Bulk Modulus (GPa) = 56.36527 61.01918 58.69222
# Shear Modulus (GPa) = 16.07548 27.03115 21.55331
#
# Velocity S-wave (km/s) = 2.79963 3.63037 3.24172
# Velocity P-wave (km/s) = 6.15894 6.87924 6.52903
#
# Compressibility (1/GPa) = 0.01774142
#
# Stress axis : x y z
#
# Youngs Moduli (GPa) = 82.25370 130.60830 130.41052
#
# Poissons Ratio (x) = 0.09640 0.29858
# Poissons Ratio (y) = 0.06071 0.24031
# Poissons Ratio (z) = 0.18833 0.24067
#
# Static dielectric constant tensor:
#      x y z
#    x 3.533700 0.000000 0.000000 
#    y 0.000000 3.630380 0.000000 
#    z 0.000000 0.000000 3.574880 
# 
# 
# High freq. dielectric constant tensor:
#      x y z
#    x 1.794690 0.000000 0.000000 
#    y 0.000000 1.798130 0.000000 
#    z 0.000000 0.000000 1.812960 
# 
# From -- ./inp_files/12572.got.cif
#   From: 2010.03.12/outbox.cif.g09.slc.cpg/sg57_7_cif.got.tgz:12572.got - 2010.04.16 15:48:40.
