data_PCOD8234061
_publ_section_title
;
Structure prediction by ZEFSAII (Michael W. Deem and Ramdas Pophale) SiO2 
 PCOD8234061
Probable space group: P B C M
;
_chemical_formula_sum "Si O2"
_cell_formula_units_Z 36
_cell_length_a 21.022004
_cell_length_b 5.097316
_cell_length_c 14.446533
_cell_angle_alpha 90.000000
_cell_angle_beta 90.000000
_cell_angle_gamma 90.000000
_cell_volume 1548.029762
_symmetry_space_group_name_H-M "P B C M"
_symmetry_group_IT_number 57
_symmetry_cell_setting 'orthorhombic'
loop_
_space_group_symop_operation_xyz
x,y,z
-x,-y,1/2+z
x,1/2-y,-z
-x,1/2+y,1/2-z
-x,-y,-z
x,y,1/2-z
-x,1/2+y,z
x,1/2-y,1/2+z
loop_
_atom_site_type_symbol
_atom_site_label
_atom_site_fract_x
_atom_site_fract_y
_atom_site_fract_z
Si Si1 0.174624 0.153411 0.397624
Si Si2 0.748314 0.358190 0.852982
Si Si3 0.541248 0.473973 0.750000
Si Si4 0.968544 0.602165 0.355464
Si Si5 0.617114 0.009443 0.439365
O O1 0.163673 0.250000 0.500000
O O2 0.204581 0.395134 0.341541
O O3 0.218821 0.897359 0.396329
O O4 0.107206 0.074302 0.355669
O O5 0.723709 0.284942 0.750000
O O6 0.690937 0.438412 0.919585
O O7 0.482581 0.675274 0.750000
O O8 0.581707 0.525060 0.657808
O O9 0.992579 0.611177 0.250000
O O10 0.995711 0.860877 0.406109
O O11 0.608830 0.750000 0.500000
O O12 0.588774 0.250000 0.500000
#
# Coordination Sequence:
#
# PCOD8234061 Si02
#       5
#     8   8   4   8   8
#     4  12  25  40  64  98 133 172 226 287 352 420
#     4  12  24  44  69  99 137 180 230 287 354 417
#     4  12  28  50  76 112 154 196 246 288 344 418
#     4  10  21  38  59  85 122 170 222 276 342 418
#     4  12  26  47  76 109 149 192 241 297 355 412
#
# _framework density 23.255367
#
# number of rings (size 3 to 8) (size 9 to 14) (size 15 to 20)
#    0.000    0.444    1.111    8.667    0.000    5.333 
#    0.000    0.000    0.000    0.000    0.000    0.000 
#    0.000    0.000    0.000    0.000    0.000    0.000 
#
# Total GULP energy -446507.261362 kJ/mol
# GULP energy per Si atom -12402.979482 kJ/mol
# Density = 2.320244 g / cm^3
# Si number density = 23.255367 Si / 1000 Ang^3
#
#
#
# Elastic Constant Matrix: (Units=GPa)
#
#
# Indices 1 2 3 4 5 6 
#
# 1 89.9116 50.3322 36.8849 0.0000 0.0000 0.0000
# 2 50.3322 191.7952 49.4324 0.0000 0.0000 0.0000
# 3 36.8849 49.4324 116.3108 0.0000 0.0000 0.0000
# 4 0.0000 0.0000 0.0000 -18.5772 0.0000 0.0000
# 5 0.0000 0.0000 0.0000 0.0000 27.6261 0.0000
# 6 0.0000 0.0000 0.0000 0.0000 0.0000 37.8689
#
#
#
# Elastic Compliance Matrix: (Units=1/GPa)
#
#
# Indices 1 2 3 4 5 6 
#
# 1 0.014048 -0.002851 -0.003244 0.000000 0.000000 0.000000
# 2 -0.002851 0.006434 -0.001830 0.000000 0.000000 0.000000
# 3 -0.003244 -0.001830 0.010404 0.000000 0.000000 0.000000
# 4 0.000000 0.000000 0.000000 -0.053829 0.000000 0.000000
# 5 0.000000 0.000000 0.000000 0.000000 0.036198 0.000000
# 6 0.000000 0.000000 0.000000 0.000000 0.000000 0.026407
#
#
# Mechanical properties :
#
#
# Convention : Reuss Voigt Hill
#
# Bulk Modulus (GPa) = 66.50179 74.59075 70.54627
# Shear Modulus (GPa) = 82.61303 26.80809 54.71056
#
# Velocity S-wave (km/s) = 5.96669 3.39893 4.85562
# Velocity P-wave (km/s) = 8.72508 6.89550 7.86368
#
# Compressibility (1/GPa) = 0.01503719
#
# Stress axis : x y z
#
# Youngs Moduli (GPa) = 71.18218 155.43056 96.11554
#
# Poissons Ratio (x) = 0.44309 0.31175
# Poissons Ratio (y) = 0.20292 0.17592
# Poissons Ratio (z) = 0.23088 0.28449
#
# Static dielectric constant tensor:
#      x y z
#    x 4.011550 0.000000 0.000000 
#    y 0.000000 4.619630 0.000000 
#    z 0.000000 0.000000 4.196000 
# 
# 
# High freq. dielectric constant tensor:
#      x y z
#    x 1.911910 0.000000 0.000000 
#    y 0.000000 1.939730 0.000000 
#    z 0.000000 0.000000 1.936910 
# 
# From -- ./inp_files/19209.got.cif
#   From: 2010.03.12/outbox.cif.g09.slc.cpg/sg57_10_cif.got.tgz:19209.got - 2010.04.16 15:48:40.
