data_PCOD8234633
_publ_section_title
;
Structure prediction by ZEFSAII (Michael W. Deem and Ramdas Pophale) SiO2 
 PCOD8234633
Probable space group: P B C M
;
_chemical_formula_sum "Si O2"
_cell_formula_units_Z 64
_cell_length_a 9.646762
_cell_length_b 13.342428
_cell_length_c 23.650798
_cell_angle_alpha 90.000000
_cell_angle_beta 90.000000
_cell_angle_gamma 90.000000
_cell_volume 3044.123240
_symmetry_space_group_name_H-M "P B C M"
_symmetry_group_IT_number 57
_symmetry_cell_setting 'orthorhombic'
loop_
_space_group_symop_operation_xyz
x,y,z
-x,-y,1/2+z
x,1/2-y,-z
-x,1/2+y,1/2-z
-x,-y,-z
x,y,1/2-z
-x,1/2+y,z
x,1/2-y,1/2+z
loop_
_atom_site_type_symbol
_atom_site_label
_atom_site_fract_x
_atom_site_fract_y
_atom_site_fract_z
Si Si1 0.776629 0.939143 0.999379
Si Si2 0.829590 0.507569 0.812972
Si Si3 0.356645 0.482278 0.615394
Si Si4 0.540808 0.796464 0.817228
Si Si5 0.620697 0.610928 0.610448
Si Si6 0.781198 0.215555 0.313216
Si Si7 0.067875 0.865321 0.493835
Si Si8 0.091277 0.601145 0.633753
O O1 0.696660 0.880959 0.049584
O O2 0.915865 0.880282 0.978906
O O3 0.674533 0.934688 0.945787
O O4 0.817113 0.055178 0.017519
O O5 0.781199 0.535233 0.750000
O O6 0.703562 0.530291 0.853704
O O7 0.858844 0.389985 0.818488
O O8 0.967618 0.568591 0.826024
O O9 0.410455 0.404354 0.661497
O O10 0.465002 0.571478 0.603867
O O11 0.220322 0.528371 0.643791
O O12 0.572202 0.784117 0.750000
O O13 0.622495 0.715104 0.855085
O O14 0.378844 0.789399 0.830622
O O15 0.792036 0.258842 0.250000
O O16 0.865592 0.285453 0.354855
O O17 0.120083 0.750000 0.500000
O O18 0.039616 0.900063 0.430017
#
# Coordination Sequence:
#
# PCOD8234633 Si02
#       8
#     8   8   8   8   8   8   8   8
#     4  10  24  43  64 100 134 175 224 275 336 392
#     4  11  24  41  66  97 131 175 220 275 337 397
#     4  11  25  43  69  97 136 173 228 275 335 396
#     4  11  25  42  68 102 134 176 223 274 341 405
#     4  12  23  44  66  97 135 177 221 281 330 401
#     4  10  22  41  66  95 131 174 219 267 335 406
#     4  10  23  40  66  97 132 176 217 272 338 398
#     4  11  23  43  66  98 132 173 220 279 334 395
#
# _framework density 21.024117
#
# number of rings (size 3 to 8) (size 9 to 14) (size 15 to 20)
#    0.000    1.250    3.750    1.125    3.500    2.500 
#    0.000    1.250    0.000    0.000    0.000    0.000 
#    0.000    0.000    0.000    0.000    0.000    0.000 
#
# Total GULP energy -793622.987693 kJ/mol
# GULP energy per Si atom -12400.359183 kJ/mol
# Density = 2.097626 g / cm^3
# Si number density = 21.024117 Si / 1000 Ang^3
#
#
#
# Elastic Constant Matrix: (Units=GPa)
#
#
# Indices 1 2 3 4 5 6 
#
# 1 71.7009 11.7608 21.6363 0.0000 0.0000 0.0000
# 2 11.7608 83.1312 15.9215 0.0000 0.0000 0.0000
# 3 21.6363 15.9215 73.0619 0.0000 0.0000 0.0000
# 4 0.0000 0.0000 0.0000 34.8877 0.0000 0.0000
# 5 0.0000 0.0000 0.0000 0.0000 28.7338 0.0000
# 6 0.0000 0.0000 0.0000 0.0000 0.0000 35.3392
#
#
#
# Elastic Compliance Matrix: (Units=1/GPa)
#
#
# Indices 1 2 3 4 5 6 
#
# 1 0.015463 -0.001368 -0.004281 0.000000 0.000000 0.000000
# 2 -0.001368 0.012674 -0.002357 0.000000 0.000000 0.000000
# 3 -0.004281 -0.002357 0.015468 0.000000 0.000000 0.000000
# 4 0.000000 0.000000 0.000000 0.028663 0.000000 0.000000
# 5 0.000000 0.000000 0.000000 0.000000 0.034802 0.000000
# 6 0.000000 0.000000 0.000000 0.000000 0.000000 0.028297
#
#
# Mechanical properties :
#
#
# Convention : Reuss Voigt Hill
#
# Bulk Modulus (GPa) = 36.23955 36.28123 36.26039
# Shear Modulus (GPa) = 31.13756 31.69716 31.41736
#
# Velocity S-wave (km/s) = 3.85260 3.88707 3.86987
# Velocity P-wave (km/s) = 6.08807 6.11884 6.10347
#
# Compressibility (1/GPa) = 0.02759416
#
# Stress axis : x y z
#
# Youngs Moduli (GPa) = 64.67039 78.90131 64.64779
#
# Poissons Ratio (x) = 0.10791 0.27677
# Poissons Ratio (y) = 0.08845 0.15237
# Poissons Ratio (z) = 0.27686 0.18596
#
# Static dielectric constant tensor:
#      x y z
#    x 3.777240 0.000000 0.000000 
#    y 0.000000 3.738600 0.000000 
#    z 0.000000 0.000000 3.814860 
# 
# 
# High freq. dielectric constant tensor:
#      x y z
#    x 1.825250 0.000000 0.000000 
#    y 0.000000 1.824310 0.000000 
#    z 0.000000 0.000000 1.827030 
# 
# From -- ./inp_files/26900.got.cif
#   From: 2010.03.12/outbox.cif.g09.slc.cpg/sg57_14_cif.got.tgz:26900.got - 2010.04.16 15:48:40.
