data_PCOD8234417
_publ_section_title
;
Structure prediction by ZEFSAII (Michael W. Deem and Ramdas Pophale) SiO2 
 PCOD8234417
Probable space group: P B C M
;
_chemical_formula_sum "Si O2"
_cell_formula_units_Z 44
_cell_length_a 9.151976
_cell_length_b 14.249817
_cell_length_c 16.370390
_cell_angle_alpha 90.000000
_cell_angle_beta 90.000000
_cell_angle_gamma 90.000000
_cell_volume 2134.927766
_symmetry_space_group_name_H-M "P B C M"
_symmetry_group_IT_number 57
_symmetry_cell_setting 'orthorhombic'
loop_
_space_group_symop_operation_xyz
x,y,z
-x,-y,1/2+z
x,1/2-y,-z
-x,1/2+y,1/2-z
-x,-y,-z
x,y,1/2-z
-x,1/2+y,z
x,1/2-y,1/2+z
loop_
_atom_site_type_symbol
_atom_site_label
_atom_site_fract_x
_atom_site_fract_y
_atom_site_fract_z
Si Si1 0.382070 0.410987 0.250000
Si Si2 0.414595 0.820839 0.923562
Si Si3 0.668086 0.983865 0.750000
Si Si4 0.266743 0.350657 0.538176
Si Si5 0.222428 0.998134 0.902422
Si Si6 0.925235 0.926562 0.660798
Si Si7 0.494603 0.215649 0.250000
O O1 0.555363 0.431410 0.250000
O O2 0.311173 0.455966 0.170899
O O3 0.370966 0.297937 0.250000
O O4 0.288674 0.898523 0.928604
O O5 0.407342 0.772675 0.832983
O O6 0.391396 0.750000 0.000000
O O7 0.572151 0.872244 0.926569
O O8 0.778109 0.991338 0.671619
O O9 0.584465 0.884309 0.750000
O O10 0.276866 0.250000 0.500000
O O11 0.223457 0.432409 0.477353
O O12 0.134452 0.342919 0.603708
O O13 0.054253 0.985917 0.878246
O O14 0.974156 0.886587 0.750000
#
# Coordination Sequence:
#
# PCOD8234417 Si02
#       7
#     4   8   4   8   8   8   4
#     4  12  21  39  71  98 125 176 222 280 335 390
#     4  11  23  42  66 102 136 171 226 278 328 389
#     4  10  21  42  67  91 135 167 223 267 328 395
#     4  11  23  41  65  99 130 176 220 272 331 396
#     4  12  23  40  69  95 134 172 224 276 334 395
#     4  10  22  42  64  88 131 177 218 263 334 398
#     4  12  22  41  70  99 130 173 221 273 331 399
#
# _framework density 20.609596
#
# number of rings (size 3 to 8) (size 9 to 14) (size 15 to 20)
#    0.545    0.364    4.545    3.273    0.000    2.182 
#    0.000    1.818    4.000    0.000    0.000    0.000 
#    0.000    0.000    0.000    0.000    0.000    0.000 
#
# Total GULP energy -545192.696403 kJ/mol
# GULP energy per Si atom -12390.743100 kJ/mol
# Density = 2.056269 g / cm^3
# Si number density = 20.609596 Si / 1000 Ang^3
#
#
#
# Elastic Constant Matrix: (Units=GPa)
#
#
# Indices 1 2 3 4 5 6 
#
# 1 81.4104 21.8287 28.2364 0.0000 0.0000 0.0000
# 2 21.8287 71.4942 37.9846 0.0000 0.0000 0.0000
# 3 28.2364 37.9846 136.7178 0.0000 0.0000 0.0000
# 4 0.0000 0.0000 0.0000 39.4234 0.0000 0.0000
# 5 0.0000 0.0000 0.0000 0.0000 28.8757 0.0000
# 6 0.0000 0.0000 0.0000 0.0000 0.0000 69.9351
#
#
#
# Elastic Compliance Matrix: (Units=1/GPa)
#
#
# Indices 1 2 3 4 5 6 
#
# 1 0.013818 -0.003171 -0.001973 0.000000 0.000000 0.000000
# 2 -0.003171 0.017137 -0.004106 0.000000 0.000000 0.000000
# 3 -0.001973 -0.004106 0.008863 0.000000 0.000000 0.000000
# 4 0.000000 0.000000 0.000000 0.025366 0.000000 0.000000
# 5 0.000000 0.000000 0.000000 0.000000 0.034631 0.000000
# 6 0.000000 0.000000 0.000000 0.000000 0.000000 0.014299
#
#
# Mechanical properties :
#
#
# Convention : Reuss Voigt Hill
#
# Bulk Modulus (GPa) = 46.90956 51.74684 49.32820
# Shear Modulus (GPa) = 35.78610 41.08501 38.43555
#
# Velocity S-wave (km/s) = 4.17151 4.46969 4.32317
# Velocity P-wave (km/s) = 6.78325 7.19724 6.99331
#
# Compressibility (1/GPa) = 0.02131762
#
# Stress axis : x y z
#
# Youngs Moduli (GPa) = 72.36995 58.35357 112.83279
#
# Poissons Ratio (x) = 0.18502 0.22261
# Poissons Ratio (y) = 0.22946 0.46333
# Poissons Ratio (z) = 0.14278 0.23962
#
# Static dielectric constant tensor:
#      x y z
#    x 3.866880 0.000000 0.000000 
#    y 0.000000 3.197280 0.000000 
#    z 0.000000 0.000000 4.169670 
# 
# 
# High freq. dielectric constant tensor:
#      x y z
#    x 1.801680 0.000000 0.000000 
#    y 0.000000 1.778540 0.000000 
#    z 0.000000 0.000000 1.833380 
# 
# From -- ./inp_files/20847.got.cif
#   From: 2010.03.12/outbox.cif.g09.slc.cpg/sg57_11_cif.got.tgz:20847.got - 2010.04.16 15:48:40.
