data_PCOD8234009
_publ_section_title
;
Structure prediction by ZEFSAII (Michael W. Deem and Ramdas Pophale) SiO2 
 PCOD8234009
Probable space group: P B C M
;
_chemical_formula_sum "Si O2"
_cell_formula_units_Z 64
_cell_length_a 23.734016
_cell_length_b 15.445080
_cell_length_c 8.767379
_cell_angle_alpha 90.000000
_cell_angle_beta 90.000000
_cell_angle_gamma 90.000000
_cell_volume 3213.891224
_symmetry_space_group_name_H-M "P B C M"
_symmetry_group_IT_number 57
_symmetry_cell_setting 'orthorhombic'
loop_
_space_group_symop_operation_xyz
x,y,z
-x,-y,1/2+z
x,1/2-y,-z
-x,1/2+y,1/2-z
-x,-y,-z
x,y,1/2-z
-x,1/2+y,z
x,1/2-y,1/2+z
loop_
_atom_site_type_symbol
_atom_site_label
_atom_site_fract_x
_atom_site_fract_y
_atom_site_fract_z
Si Si1 0.130034 0.840786 0.428939
Si Si2 0.938664 0.496986 0.569799
Si Si3 0.561262 0.499583 0.930208
Si Si4 0.254000 0.902283 0.072873
Si Si5 0.365013 0.161771 0.569001
Si Si6 0.865447 0.838541 0.069607
Si Si7 0.634410 0.338958 0.929669
Si Si8 0.750101 0.898411 0.930578
O O1 0.111016 0.750000 0.500000
O O2 0.117777 0.841116 0.250000
O O3 0.093754 0.914937 0.505624
O O4 0.195433 0.856281 0.465241
O O5 0.942675 0.488976 0.750000
O O6 0.906203 0.583711 0.519547
O O7 0.000000 0.500000 0.500000
O O8 0.556172 0.496432 0.750000
O O9 0.594108 0.584887 0.984596
O O10 0.595570 0.416693 0.992148
O O11 0.500000 0.500000 0.000000
O O12 0.269808 0.894994 0.250000
O O13 0.250363 0.001511 0.020279
O O14 0.301086 0.853699 0.975970
O O15 0.390685 0.250000 0.500000
O O16 0.360572 0.167161 0.750000
O O17 0.303698 0.148580 0.499216
O O18 0.860796 0.830765 0.250000
O O19 0.890746 0.750000 0.000000
O O20 0.804076 0.852801 0.000538
O O21 0.630927 0.332312 0.750000
O O22 0.611200 0.250000 0.000000
O O23 0.751062 0.887075 0.750000
#
# Coordination Sequence:
#
# PCOD8234009 Si02
#       8
#     8   8   8   8   8   8   8   8
#     4  11  23  41  64  94 128 163 206 253 306 369
#     4  11  25  44  66  91 122 164 210 260 311 363
#     4  10  24  43  63  86 118 158 204 253 304 357
#     4  10  21  37  62  94 125 162 201 245 304 364
#     4  11  23  41  62  91 124 160 202 249 302 362
#     4  11  24  41  64  93 125 163 204 250 307 365
#     4  11  23  40  62  91 124 160 201 248 302 362
#     4  11  21  37  63  94 126 162 200 246 303 364
#
# _framework density 19.913556
#
# number of rings (size 3 to 8) (size 9 to 14) (size 15 to 20)
#    0.000    1.250    2.500    3.000    0.000    7.000 
#    0.000    3.750    0.000    0.000    0.000    0.000 
#    0.000    0.000    0.000    0.000    0.000    0.000 
#
# Total GULP energy -794011.996553 kJ/mol
# GULP energy per Si atom -12406.437446 kJ/mol
# Density = 1.986823 g / cm^3
# Si number density = 19.913556 Si / 1000 Ang^3
#
#
#
# Elastic Constant Matrix: (Units=GPa)
#
#
# Indices 1 2 3 4 5 6 
#
# 1 135.4364 76.1885 47.5710 0.0000 0.0000 0.0000
# 2 76.1885 194.6254 60.2201 0.0000 0.0000 0.0000
# 3 47.5710 60.2201 63.3493 0.0000 0.0000 0.0000
# 4 0.0000 0.0000 0.0000 36.7756 0.0000 0.0000
# 5 0.0000 0.0000 0.0000 0.0000 36.5881 0.0000
# 6 0.0000 0.0000 0.0000 0.0000 0.0000 4.2991
#
#
#
# Elastic Compliance Matrix: (Units=1/GPa)
#
#
# Indices 1 2 3 4 5 6 
#
# 1 0.010784 -0.002431 -0.005787 0.000000 0.000000 0.000000
# 2 -0.002431 0.007827 -0.005615 0.000000 0.000000 0.000000
# 3 -0.005787 -0.005615 0.025469 0.000000 0.000000 0.000000
# 4 0.000000 0.000000 0.000000 0.027192 0.000000 0.000000
# 5 0.000000 0.000000 0.000000 0.000000 0.027331 0.000000
# 6 0.000000 0.000000 0.000000 0.000000 0.000000 0.232609
#
#
# Mechanical properties :
#
#
# Convention : Reuss Voigt Hill
#
# Bulk Modulus (GPa) = 60.92458 84.59670 72.76064
# Shear Modulus (GPa) = 13.72313 29.49465 21.60889
#
# Velocity S-wave (km/s) = 2.62799 3.85273 3.29771
# Velocity P-wave (km/s) = 6.31422 7.89718 7.14965
#
# Compressibility (1/GPa) = 0.01641374
#
# Stress axis : x y z
#
# Youngs Moduli (GPa) = 92.73336 127.76275 39.26366
#
# Poissons Ratio (x) = 0.31056 0.22722
# Poissons Ratio (y) = 0.22541 0.22047
# Poissons Ratio (z) = 0.53665 0.71739
#
# Static dielectric constant tensor:
#      x y z
#    x 3.166600 0.000000 0.000000 
#    y 0.000000 4.045220 0.000000 
#    z 0.000000 0.000000 3.616670 
# 
# 
# High freq. dielectric constant tensor:
#      x y z
#    x 1.773510 0.000000 0.000000 
#    y 0.000000 1.799530 0.000000 
#    z 0.000000 0.000000 1.783780 
# 
# From -- ./inp_files/9465.got.cif
#   From: 2010.03.12/outbox.cif.g09.slc.cpg/sg57_5_cif.got.tgz:9465.got - 2010.04.16 15:48:40.
