data_PCOD8234233
_publ_section_title
;
Structure prediction by ZEFSAII (Michael W. Deem and Ramdas Pophale) SiO2 
 PCOD8234233
Probable space group: P B C M
;
_chemical_formula_sum "Si O2"
_cell_formula_units_Z 48
_cell_length_a 30.965244
_cell_length_b 7.624640
_cell_length_c 9.595446
_cell_angle_alpha 90.000000
_cell_angle_beta 90.000000
_cell_angle_gamma 90.000000
_cell_volume 2265.473651
_symmetry_space_group_name_H-M "P B C M"
_symmetry_group_IT_number 57
_symmetry_cell_setting 'orthorhombic'
loop_
_space_group_symop_operation_xyz
x,y,z
-x,-y,1/2+z
x,1/2-y,-z
-x,1/2+y,1/2-z
-x,-y,-z
x,y,1/2-z
-x,1/2+y,z
x,1/2-y,1/2+z
loop_
_atom_site_type_symbol
_atom_site_label
_atom_site_fract_x
_atom_site_fract_y
_atom_site_fract_z
Si Si1 0.632889 0.926184 0.908904
Si Si2 0.537815 0.583968 0.089150
Si Si3 0.195446 0.060220 0.250000
Si Si4 0.824374 0.555424 0.750000
Si Si5 0.308888 0.750000 0.500000
Si Si6 0.750989 0.268402 0.750000
Si Si7 0.869294 0.042406 0.516792
Si Si8 0.039073 0.920542 0.413563
O O1 0.643835 0.872915 0.750000
O O2 0.584260 0.011632 0.912509
O O3 0.639517 0.750000 0.000000
O O4 0.662974 0.083107 0.958126
O O5 0.522388 0.618219 0.250000
O O6 0.549945 0.750000 0.000000
O O7 0.500000 0.500000 0.000000
O O8 0.238567 0.940953 0.250000
O O9 0.168858 0.012083 0.384303
O O10 0.205459 0.269178 0.250000
O O11 0.794481 0.383508 0.750000
O O12 0.858462 0.556246 0.624925
O O13 0.277804 0.680703 0.380383
O O14 0.868117 0.250000 0.500000
O O15 0.915833 0.972574 0.575610
O O16 0.050650 0.750000 0.500000
O O17 0.026502 0.890852 0.250000
O O18 0.000000 0.000000 0.500000
#
# Coordination Sequence:
#
# PCOD8234233 Si02
#       8
#     8   8   4   4   4   4   8   8
#     4  10  24  45  70 101 139 184 239 287 350 423
#     4  10  21  39  62  98 137 178 227 289 345 409
#     4  12  24  46  69 103 135 173 227 284 347 416
#     4  12  26  42  75 103 131 183 223 290 349 412
#     4  12  26  46  72  98 138 190 230 286 358 430
#     4  12  26  46  70 104 140 174 236 296 352 418
#     4  11  22  44  71  97 140 181 225 279 351 405
#     4  11  25  43  68  99 140 186 228 280 337 407
#
# _framework density 21.187622000000001
#
# number of rings (size 3 to 8) (size 9 to 14) (size 15 to 20)
#    0.000    1.000    3.333    2.500    7.000    3.333 
#    0.000    0.000    0.000    0.000    0.000    0.000 
#    0.000    0.000    0.000    0.000    0.000    0.000 
#
# Total GULP energy -594652.787964 kJ/mol
# GULP energy per Si atom -12388.599749 kJ/mol
# Density = 2.113940 g / cm^3
# Si number density = 21.187622 Si / 1000 Ang^3
#
#
#
# Elastic Constant Matrix: (Units=GPa)
#
#
# Indices 1 2 3 4 5 6 
#
# 1 108.9657 31.4812 58.3222 0.0000 0.0000 0.0000
# 2 31.4812 87.9802 29.3726 0.0000 0.0000 0.0000
# 3 58.3222 29.3726 193.8265 0.0000 0.0000 0.0000
# 4 0.0000 0.0000 0.0000 36.2703 0.0000 0.0000
# 5 0.0000 0.0000 0.0000 0.0000 44.7776 0.0000
# 6 0.0000 0.0000 0.0000 0.0000 0.0000 -44.3518
#
#
#
# Elastic Compliance Matrix: (Units=1/GPa)
#
#
# Indices 1 2 3 4 5 6 
#
# 1 0.011726 -0.003179 -0.003047 0.000000 0.000000 0.000000
# 2 -0.003179 0.012834 -0.000988 0.000000 0.000000 0.000000
# 3 -0.003047 -0.000988 0.006226 0.000000 0.000000 0.000000
# 4 0.000000 0.000000 0.000000 0.027571 0.000000 0.000000
# 5 0.000000 0.000000 0.000000 0.000000 0.022333 0.000000
# 6 0.000000 0.000000 0.000000 0.000000 0.000000 -0.022547
#
#
# Mechanical properties :
#
#
# Convention : Reuss Voigt Hill
#
# Bulk Modulus (GPa) = 61.13198 69.90270 65.51734
# Shear Modulus (GPa) = 64.08426 25.44564 44.76495
#
# Velocity S-wave (km/s) = 5.50561 3.46926 4.60149
# Velocity P-wave (km/s) = 8.32652 7.00796 7.69553
#
# Compressibility (1/GPa) = 0.01635805
#
# Stress axis : x y z
#
# Youngs Moduli (GPa) = 85.27854 77.92057 160.62249
#
# Poissons Ratio (x) = 0.24769 0.48937
# Poissons Ratio (y) = 0.27108 0.15875
# Poissons Ratio (z) = 0.25982 0.07701
#
# Static dielectric constant tensor:
#      x y z
#    x 2.152020 0.000000 0.000000 
#    y 0.000000 3.690630 0.000000 
#    z 0.000000 0.000000 3.302530 
# 
# 
# High freq. dielectric constant tensor:
#      x y z
#    x 1.844790 0.000000 0.000000 
#    y 0.000000 1.813020 0.000000 
#    z 0.000000 0.000000 1.854250 
# 
# From -- ./inp_files/10225.got.cif
#   From: 2010.03.12/outbox.cif.g09.slc.cpg/sg57_6_cif.got.tgz:10225.got - 2010.04.16 15:48:40.
