data_PCOD8234405
_publ_section_title
;
Structure prediction by ZEFSAII (Michael W. Deem and Ramdas Pophale) SiO2 
 PCOD8234405
Probable space group: P B C M
;
_chemical_formula_sum "Si O2"
_cell_formula_units_Z 64
_cell_length_a 11.883314
_cell_length_b 15.018221
_cell_length_c 17.468786
_cell_angle_alpha 90.000000
_cell_angle_beta 90.000000
_cell_angle_gamma 90.000000
_cell_volume 3117.588483
_symmetry_space_group_name_H-M "P B C M"
_symmetry_group_IT_number 57
_symmetry_cell_setting 'orthorhombic'
loop_
_space_group_symop_operation_xyz
x,y,z
-x,-y,1/2+z
x,1/2-y,-z
-x,1/2+y,1/2-z
-x,-y,-z
x,y,1/2-z
-x,1/2+y,z
x,1/2-y,1/2+z
loop_
_atom_site_type_symbol
_atom_site_label
_atom_site_fract_x
_atom_site_fract_y
_atom_site_fract_z
Si Si1 0.231563 0.300586 0.664824
Si Si2 0.004448 0.552917 0.659475
Si Si3 0.555463 0.729632 0.912699
Si Si4 0.476200 0.967380 0.414761
Si Si5 0.401647 0.874229 0.839260
Si Si6 0.256220 0.504749 0.835594
Si Si7 0.988262 0.755263 0.410887
Si Si8 0.856005 0.386720 0.659734
O O1 0.193692 0.270508 0.750000
O O2 0.334137 0.240565 0.638015
O O3 0.276600 0.400073 0.665992
O O4 0.127147 0.294753 0.607917
O O5 0.990698 0.566421 0.750000
O O6 0.130952 0.526825 0.636815
O O7 0.974894 0.643501 0.616475
O O8 0.921439 0.474636 0.629280
O O9 0.528211 0.627692 0.900797
O O10 0.452565 0.791854 0.886314
O O11 0.585124 0.750000 0.000000
O O12 0.500000 0.000000 0.500000
O O13 0.529457 0.035977 0.354663
O O14 0.343341 0.956189 0.397376
O O15 0.408318 0.850844 0.750000
O O16 0.273552 0.889835 0.866626
O O17 0.277169 0.543992 0.750000
O O18 0.011363 0.750000 0.500000
O O19 0.091290 0.704964 0.370637
O O20 0.867739 0.384281 0.750000
#
# Coordination Sequence:
#
# PCOD8234405 Si02
#       8
#     8   8   8   8   8   8   8   8
#     4  11  22  43  69  93 129 171 219 275 321 380
#     4  10  22  43  69  95 123 169 224 272 319 381
#     4  12  25  44  67  98 133 176 220 268 339 392
#     4  12  25  43  67  96 135 177 212 273 331 397
#     4  11  25  44  66  98 135 173 222 275 328 397
#     4  10  21  41  69  94 124 168 224 273 318 383
#     4  12  26  41  63  99 134 171 213 265 327 395
#     4  10  23  45  67  91 130 172 217 273 325 376
#
# _framework density 20.528687000000001
#
# number of rings (size 3 to 8) (size 9 to 14) (size 15 to 20)
#    0.000    1.000    3.750    2.250    3.500    4.000 
#    0.000    0.000    0.000    0.000    0.000    0.000 
#    0.000    0.000    0.000    0.000    0.000    0.000 
#
# Total GULP energy -793886.493445 kJ/mol
# GULP energy per Si atom -12404.476460 kJ/mol
# Density = 2.048196 g / cm^3
# Si number density = 20.528687 Si / 1000 Ang^3
#
#
#
# Elastic Constant Matrix: (Units=GPa)
#
#
# Indices 1 2 3 4 5 6 
#
# 1 94.8675 0.6751 16.7199 0.0000 0.0000 0.0000
# 2 0.6751 89.5343 12.3183 0.0000 0.0000 0.0000
# 3 16.7199 12.3183 40.7644 0.0000 0.0000 0.0000
# 4 0.0000 0.0000 0.0000 25.2172 0.0000 0.0000
# 5 0.0000 0.0000 0.0000 0.0000 -0.7431 0.0000
# 6 0.0000 0.0000 0.0000 0.0000 0.0000 16.2592
#
#
#
# Elastic Compliance Matrix: (Units=1/GPa)
#
#
# Indices 1 2 3 4 5 6 
#
# 1 0.011391 0.000581 -0.004848 0.000000 0.000000 0.000000
# 2 0.000581 0.011683 -0.003769 0.000000 0.000000 0.000000
# 3 -0.004848 -0.003769 0.027658 0.000000 0.000000 0.000000
# 4 0.000000 0.000000 0.000000 0.039655 0.000000 0.000000
# 5 0.000000 0.000000 0.000000 0.000000 -1.345759 0.000000
# 6 0.000000 0.000000 0.000000 0.000000 0.000000 0.061504
#
#
# Mechanical properties :
#
#
# Convention : Reuss Voigt Hill
#
# Bulk Modulus (GPa) = 28.85024 31.62143 30.23584
# Shear Modulus (GPa) = -4.28728 21.17686 8.44479
#
# Velocity S-wave (km/s) = -1.44671 3.21530 2.03041
# Velocity P-wave (km/s) = 3.36058 5.40566 4.50081
#
# Compressibility (1/GPa) = 0.03466175
#
# Stress axis : x y z
#
# Youngs Moduli (GPa) = 87.78637 85.59420 36.15526
#
# Poissons Ratio (x) = -0.04974 0.17528
# Poissons Ratio (y) = -0.05101 0.13626
# Poissons Ratio (z) = 0.42558 0.32258
#
# Static dielectric constant tensor:
#      x y z
#    x 3.902220 0.000000 0.000000 
#    y 0.000000 3.795000 0.000000 
#    z 0.000000 0.000000 3.857770 
# 
# 
# High freq. dielectric constant tensor:
#      x y z
#    x 1.815830 0.000000 0.000000 
#    y 0.000000 1.808780 0.000000 
#    z 0.000000 0.000000 1.799100 
# 
# From -- ./inp_files/22089.got.cif
#   From: 2010.03.12/outbox.cif.g09.slc.cpg/sg57_12_cif.got.tgz:22089.got - 2010.04.16 15:48:40.
