data_PCOD8234906
_publ_section_title
;
Structure prediction by ZEFSAII (Michael W. Deem and Ramdas Pophale) SiO2 
 PCOD8234906
Probable space group: P B C M
;
_chemical_formula_sum "Si O2"
_cell_formula_units_Z 48
_cell_length_a 25.206770
_cell_length_b 5.155179
_cell_length_c 20.133477
_cell_angle_alpha 90.000000
_cell_angle_beta 90.000000
_cell_angle_gamma 90.000000
_cell_volume 2616.252951
_symmetry_space_group_name_H-M "P B C M"
_symmetry_group_IT_number 57
_symmetry_cell_setting 'orthorhombic'
loop_
_space_group_symop_operation_xyz
x,y,z
-x,-y,1/2+z
x,1/2-y,-z
-x,1/2+y,1/2-z
-x,-y,-z
x,y,1/2-z
-x,1/2+y,z
x,1/2-y,1/2+z
loop_
_atom_site_type_symbol
_atom_site_label
_atom_site_fract_x
_atom_site_fract_y
_atom_site_fract_z
Si Si1 0.150676 0.306133 0.329329
Si Si2 0.606858 0.738069 0.630825
Si Si3 0.030846 0.199232 0.670805
Si Si4 0.211535 0.806469 0.328855
Si Si5 0.667935 0.247857 0.170859
Si Si6 0.537413 0.750000 0.000000
Si Si7 0.531864 0.727230 0.750000
O O1 0.150440 0.305005 0.250000
O O2 0.090736 0.301993 0.356811
O O3 0.180606 0.558077 0.357289
O O4 0.182327 0.059227 0.357529
O O5 0.651033 0.512456 0.631946
O O6 0.576719 0.752774 0.561817
O O7 0.564348 0.655252 0.685184
O O8 0.631986 0.014055 0.648052
O O9 0.031608 0.198897 0.750000
O O10 0.000285 0.450033 0.643413
O O11 0.208896 0.806542 0.250000
O O12 0.272276 0.805627 0.352163
O O13 0.663723 0.205887 0.250000
O O14 0.500000 0.500000 0.000000
O O15 0.482104 0.531900 0.750000
#
# Coordination Sequence:
#
# PCOD8234906 Si02
#       7
#     8   8   8   8   8   4   4
#     4   9  15  24  34  53  79 114 155 201 258 303
#     4  12  23  39  60  82 109 139 172 214 256 313
#     4   9  15  21  30  44  68 106 155 207 248 287
#     4   9  17  26  42  61  88 117 149 201 258 307
#     4  11  20  36  55  82 106 132 170 217 268 311
#     4  12  26  46  62  82 112 144 176 208 256 312
#     4  12  22  36  56  82 104 130 166 204 248 294
#
# _framework density 18.34685
#
# number of rings (size 3 to 8) (size 9 to 14) (size 15 to 20)
#    0.000    1.667    1.667    5.000    0.000    6.667 
#    0.000    0.000    0.000    0.000    0.000    0.000 
#    0.000    0.000    0.000    0.000    0.000    0.000 
#
# Total GULP energy -595237.293455 kJ/mol
# GULP energy per Si atom -12400.776947 kJ/mol
# Density = 1.830509 g / cm^3
# Si number density = 18.346850 Si / 1000 Ang^3
#
#
#
# Elastic Constant Matrix: (Units=GPa)
#
#
# Indices 1 2 3 4 5 6 
#
# 1 132.3301 49.3638 28.9455 0.0000 0.0000 0.0000
# 2 49.3638 136.0230 8.3846 0.0000 0.0000 0.0000
# 3 28.9455 8.3846 43.8204 0.0000 0.0000 0.0000
# 4 0.0000 0.0000 0.0000 16.8327 0.0000 0.0000
# 5 0.0000 0.0000 0.0000 0.0000 9.5234 0.0000
# 6 0.0000 0.0000 0.0000 0.0000 0.0000 46.1454
#
#
#
# Elastic Compliance Matrix: (Units=1/GPa)
#
#
# Indices 1 2 3 4 5 6 
#
# 1 0.010109 -0.003296 -0.006047 0.000000 0.000000 0.000000
# 2 -0.003296 0.008514 0.000548 0.000000 0.000000 0.000000
# 3 -0.006047 0.000548 0.026710 0.000000 0.000000 0.000000
# 4 0.000000 0.000000 0.000000 0.059408 0.000000 0.000000
# 5 0.000000 0.000000 0.000000 0.000000 0.105004 0.000000
# 6 0.000000 0.000000 0.000000 0.000000 0.000000 0.021671
#
#
# Mechanical properties :
#
#
# Convention : Reuss Voigt Hill
#
# Bulk Modulus (GPa) = 36.04462 53.95126 44.99794
# Shear Modulus (GPa) = 19.36086 29.53228 24.44657
#
# Velocity S-wave (km/s) = 3.25201 4.01642 3.65426
# Velocity P-wave (km/s) = 5.81289 7.13995 6.51032
#
# Compressibility (1/GPa) = 0.02774339
#
# Stress axis : x y z
#
# Youngs Moduli (GPa) = 98.92160 117.45324 37.43941
#
# Poissons Ratio (x) = 0.38711 0.22639
# Poissons Ratio (y) = 0.32604 -0.02052
# Poissons Ratio (z) = 0.59816 -0.06437
#
# Static dielectric constant tensor:
#      x y z
#    x 3.621470 0.000000 0.000000 
#    y 0.000000 3.626370 0.000000 
#    z 0.000000 0.000000 2.762370 
# 
# 
# High freq. dielectric constant tensor:
#      x y z
#    x 1.732120 0.000000 0.000000 
#    y 0.000000 1.736040 0.000000 
#    z 0.000000 0.000000 1.630990 
# 
# From -- ./inp_files/25712.got.cif
#   From: 2010.03.12/outbox.cif.g09.slc.cpg/sg57_13_cif.got.tgz:25712.got - 2010.04.16 15:48:40.
