data_PCOD8234557
_publ_section_title
;
Structure prediction by ZEFSAII (Michael W. Deem and Ramdas Pophale) SiO2 
 PCOD8234557
Probable space group: P B C M
;
_chemical_formula_sum "Si O2"
_cell_formula_units_Z 36
_cell_length_a 6.818762
_cell_length_b 18.919275
_cell_length_c 13.237303
_cell_angle_alpha 90.000000
_cell_angle_beta 90.000000
_cell_angle_gamma 90.000000
_cell_volume 1707.691953
_symmetry_space_group_name_H-M "P B C M"
_symmetry_group_IT_number 57
_symmetry_cell_setting 'orthorhombic'
loop_
_space_group_symop_operation_xyz
x,y,z
-x,-y,1/2+z
x,1/2-y,-z
-x,1/2+y,1/2-z
-x,-y,-z
x,y,1/2-z
-x,1/2+y,z
x,1/2-y,1/2+z
loop_
_atom_site_type_symbol
_atom_site_label
_atom_site_fract_x
_atom_site_fract_y
_atom_site_fract_z
Si Si1 0.097526 0.750000 0.500000
Si Si2 0.519099 0.933827 0.363659
Si Si3 0.216537 0.169785 0.370204
Si Si4 0.785631 0.981745 0.535059
Si Si5 0.552662 0.277054 0.364241
O O1 0.244069 0.711493 0.577224
O O2 0.968001 0.804243 0.564371
O O3 0.549887 0.959837 0.250000
O O4 0.670593 0.976918 0.430340
O O5 0.564374 0.850561 0.373029
O O6 0.298469 0.953193 0.399355
O O7 0.178862 0.179866 0.250000
O O8 0.242591 0.088019 0.396799
O O9 0.411332 0.213799 0.404223
O O10 0.000000 0.000000 0.500000
O O11 0.611535 0.260174 0.250000
#
# Coordination Sequence:
#
# PCOD8234557 Si02
#       5
#     4   8   8   8   8
#     4  12  20  36  62  90 120 156 202 250 302 360
#     4  10  22  40  61  86 118 159 204 251 306 365
#     4  11  24  40  61  92 127 162 205 258 313 372
#     4  11  23  40  61  88 123 162 203 253 311 374
#     4  10  22  40  61  86 118 156 199 249 301 357
#
# _framework density 21.081085000000002
#
# number of rings (size 3 to 8) (size 9 to 14) (size 15 to 20)
#    0.000    1.333    0.000    6.000    0.000    3.556 
#    0.000    5.556    0.000    0.000    0.000    0.000 
#    0.000    0.000    0.000    0.000    0.000    0.000 
#
# Total GULP energy -446346.667119 kJ/mol
# GULP energy per Si atom -12398.518531 kJ/mol
# Density = 2.103310 g / cm^3
# Si number density = 21.081085 Si / 1000 Ang^3
#
#
#
# Elastic Constant Matrix: (Units=GPa)
#
#
# Indices 1 2 3 4 5 6 
#
# 1 120.3135 40.0982 48.7472 0.0000 0.0000 0.0000
# 2 40.0982 106.2023 38.4395 0.0000 0.0000 0.0000
# 3 48.7472 38.4395 123.9656 0.0000 0.0000 0.0000
# 4 0.0000 0.0000 0.0000 37.2060 0.0000 0.0000
# 5 0.0000 0.0000 0.0000 0.0000 35.6250 0.0000
# 6 0.0000 0.0000 0.0000 0.0000 0.0000 32.2766
#
#
#
# Elastic Compliance Matrix: (Units=1/GPa)
#
#
# Indices 1 2 3 4 5 6 
#
# 1 0.010579 -0.002803 -0.003291 0.000000 0.000000 0.000000
# 2 -0.002803 0.011349 -0.002417 0.000000 0.000000 0.000000
# 3 -0.003291 -0.002417 0.010110 0.000000 0.000000 0.000000
# 4 0.000000 0.000000 0.000000 0.026877 0.000000 0.000000
# 5 0.000000 0.000000 0.000000 0.000000 0.028070 0.000000
# 6 0.000000 0.000000 0.000000 0.000000 0.000000 0.030982
#
#
# Mechanical properties :
#
#
# Convention : Reuss Voigt Hill
#
# Bulk Modulus (GPa) = 66.59225 67.22791 66.91008
# Shear Modulus (GPa) = 35.71532 35.90126 35.80829
#
# Velocity S-wave (km/s) = 4.12052 4.13123 4.12588
# Velocity P-wave (km/s) = 7.36854 7.39699 7.38278
#
# Compressibility (1/GPa) = 0.01501676
#
# Stress axis : x y z
#
# Youngs Moduli (GPa) = 94.52478 88.11226 98.90959
#
# Poissons Ratio (x) = 0.24700 0.32550
# Poissons Ratio (y) = 0.26497 0.23905
# Poissons Ratio (z) = 0.31107 0.21295
#
# Static dielectric constant tensor:
#      x y z
#    x 3.768540 0.000000 0.000000 
#    y 0.000000 3.873440 0.000000 
#    z 0.000000 0.000000 4.085610 
# 
# 
# High freq. dielectric constant tensor:
#      x y z
#    x 1.820280 0.000000 0.000000 
#    y 0.000000 1.824040 0.000000 
#    z 0.000000 0.000000 1.851820 
# 
# From -- ./inp_files/14879.got.cif
#   From: 2010.03.12/outbox.cif.g09.slc.cpg/sg57_8_cif.got.tgz:14879.got - 2010.04.16 15:48:40.
