data_PCOD8234831
_publ_section_title
;
Structure prediction by ZEFSAII (Michael W. Deem and Ramdas Pophale) SiO2 
 PCOD8234831
Probable space group: P B C M
;
_chemical_formula_sum "Si O2"
_cell_formula_units_Z 36
_cell_length_a 7.617432
_cell_length_b 21.464053
_cell_length_c 10.180357
_cell_angle_alpha 90.000000
_cell_angle_beta 90.000000
_cell_angle_gamma 90.000000
_cell_volume 1664.498185
_symmetry_space_group_name_H-M "P B C M"
_symmetry_group_IT_number 57
_symmetry_cell_setting 'orthorhombic'
loop_
_space_group_symop_operation_xyz
x,y,z
-x,-y,1/2+z
x,1/2-y,-z
-x,1/2+y,1/2-z
-x,-y,-z
x,y,1/2-z
-x,1/2+y,z
x,1/2-y,1/2+z
loop_
_atom_site_type_symbol
_atom_site_label
_atom_site_fract_x
_atom_site_fract_y
_atom_site_fract_z
Si Si1 0.700488 0.064419 0.250000
Si Si2 0.684033 0.394330 0.459482
Si Si3 0.978875 0.821937 0.009992
Si Si4 0.358741 0.504636 0.750000
Si Si5 0.922489 0.899268 0.750000
Si Si6 0.390409 0.301324 0.107450
O O1 0.659902 0.102164 0.383434
O O2 0.911543 0.051802 0.250000
O O3 0.570730 0.005124 0.250000
O O4 0.861347 0.357939 0.421900
O O5 0.694007 0.460390 0.384609
O O6 0.517428 0.359625 0.402232
O O7 0.930141 0.852630 0.871585
O O8 0.036261 0.750000 0.000000
O O9 0.806545 0.827289 0.098703
O O10 0.256983 0.438671 0.750000
O O11 0.414207 0.269777 0.250000
O O12 0.436682 0.250000 0.000000
#
# Coordination Sequence:
#
# PCOD8234831 Si02
#       6
#     4   8   8   4   4   8
#     4  10  24  42  66  93 132 175 214 272 334 390
#     4  11  24  44  67 101 133 180 226 276 335 403
#     4  10  24  42  71  97 137 173 222 277 340 401
#     4  12  24  41  70  96 140 177 231 275 327 397
#     4  10  24  45  66 101 134 178 219 277 341 395
#     4  11  25  41  65  99 133 174 224 282 344 403
#
# _framework density 21.628140999999999
#
# number of rings (size 3 to 8) (size 9 to 14) (size 15 to 20)
#    0.000    1.333    1.111    2.667    9.333    5.333 
#    4.000    0.000    0.000    0.000    0.000    0.000 
#    0.000    0.000    0.000    0.000    0.000    0.000 
#
# Total GULP energy -446314.981139 kJ/mol
# GULP energy per Si atom -12397.638365 kJ/mol
# Density = 2.157891 g / cm^3
# Si number density = 21.628141 Si / 1000 Ang^3
#
#
#
# Elastic Constant Matrix: (Units=GPa)
#
#
# Indices 1 2 3 4 5 6 
#
# 1 74.3106 39.9061 23.4210 0.0000 0.0000 0.0000
# 2 39.9061 111.0238 45.1438 0.0000 0.0000 0.0000
# 3 23.4210 45.1438 152.8466 0.0000 0.0000 0.0000
# 4 0.0000 0.0000 0.0000 38.5611 0.0000 0.0000
# 5 0.0000 0.0000 0.0000 0.0000 15.1433 0.0000
# 6 0.0000 0.0000 0.0000 0.0000 0.0000 42.9386
#
#
#
# Elastic Compliance Matrix: (Units=1/GPa)
#
#
# Indices 1 2 3 4 5 6 
#
# 1 0.016784 -0.005668 -0.000898 0.000000 0.000000 0.000000
# 2 -0.005668 0.012150 -0.002720 0.000000 0.000000 0.000000
# 3 -0.000898 -0.002720 0.007483 0.000000 0.000000 0.000000
# 4 0.000000 0.000000 0.000000 0.025933 0.000000 0.000000
# 5 0.000000 0.000000 0.000000 0.000000 0.066036 0.000000
# 6 0.000000 0.000000 0.000000 0.000000 0.000000 0.023289
#
#
# Mechanical properties :
#
#
# Convention : Reuss Voigt Hill
#
# Bulk Modulus (GPa) = 56.03439 61.68031 58.85735
# Shear Modulus (GPa) = 28.37764 34.64262 31.51013
#
# Velocity S-wave (km/s) = 3.62618 4.00651 3.82108
# Velocity P-wave (km/s) = 6.59519 7.06989 6.83666
#
# Compressibility (1/GPa) = 0.01784618
#
# Stress axis : x y z
#
# Youngs Moduli (GPa) = 59.58195 82.30270 133.62736
#
# Poissons Ratio (x) = 0.46646 0.11998
# Poissons Ratio (y) = 0.33769 0.36349
# Poissons Ratio (z) = 0.05350 0.22388
#
# Static dielectric constant tensor:
#      x y z
#    x 4.179310 0.000000 0.000000 
#    y 0.000000 3.688640 0.000000 
#    z 0.000000 0.000000 3.732780 
# 
# 
# High freq. dielectric constant tensor:
#      x y z
#    x 1.867390 0.000000 0.000000 
#    y 0.000000 1.833060 0.000000 
#    z 0.000000 0.000000 1.864060 
# 
# From -- ./inp_files/1368.got.cif
#   From: 2010.03.12/outbox.cif.g09.slc.cpg/sg57_1_cif.got.tgz:1368.got - 2010.04.16 15:48:40.
