data_PCOD8234928
_publ_section_title
;
Structure prediction by ZEFSAII (Michael W. Deem and Ramdas Pophale) SiO2 
 PCOD8234928
Probable space group: P B C M
;
_chemical_formula_sum "Si O2"
_cell_formula_units_Z 48
_cell_length_a 11.580836
_cell_length_b 11.708088
_cell_length_c 18.779938
_cell_angle_alpha 90.000000
_cell_angle_beta 90.000000
_cell_angle_gamma 90.000000
_cell_volume 2546.361408
_symmetry_space_group_name_H-M "P B C M"
_symmetry_group_IT_number 57
_symmetry_cell_setting 'orthorhombic'
loop_
_space_group_symop_operation_xyz
x,y,z
-x,-y,1/2+z
x,1/2-y,-z
-x,1/2+y,1/2-z
-x,-y,-z
x,y,1/2-z
-x,1/2+y,z
x,1/2-y,1/2+z
loop_
_atom_site_type_symbol
_atom_site_label
_atom_site_fract_x
_atom_site_fract_y
_atom_site_fract_z
Si Si1 0.269578 0.089715 0.604537
Si Si2 0.086733 0.256541 0.581370
Si Si3 0.766203 0.953779 0.557279
Si Si4 0.440634 0.286223 0.922424
Si Si5 0.340382 0.858797 0.667888
Si Si6 0.818261 0.291089 0.077995
O O1 0.158499 0.165308 0.628916
O O2 0.233805 0.036027 0.528368
O O3 0.380126 0.172292 0.606434
O O4 0.299591 0.989189 0.658634
O O5 0.132884 0.250000 0.500000
O O6 0.125858 0.387395 0.595897
O O7 0.953816 0.228810 0.588927
O O8 0.646892 0.892655 0.577838
O O9 0.777479 0.079652 0.589093
O O10 0.545172 0.327480 0.874683
O O11 0.487945 0.250000 0.000000
O O12 0.364357 0.834737 0.750000
O O13 0.237934 0.779386 0.641075
O O14 0.779598 0.250000 0.000000
#
# Coordination Sequence:
#
# PCOD8234928 Si02
#       6
#     8   8   8   8   8   8
#     4   9  19  38  59  85 115 144 182 236 296 341
#     4   8  18  33  60  92 114 141 179 233 290 342
#     4   9  18  36  60  92 115 139 188 239 286 341
#     4   9  21  39  62  84 113 149 193 242 287 335
#     4  12  26  38  53  82 118 154 197 237 282 343
#     4  11  21  34  62  89 117 149 187 238 289 333
#
# _framework density 18.850428999999998
#
# number of rings (size 3 to 8) (size 9 to 14) (size 15 to 20)
#    0.000    2.333    1.667    2.500    4.667    4.000 
#    0.000    0.833    0.000    2.000    0.000    0.000 
#    0.000    0.000    0.000    0.000    0.000    0.000 
#
# Total GULP energy -594810.079596 kJ/mol
# GULP energy per Si atom -12391.876658 kJ/mol
# Density = 1.880752 g / cm^3
# Si number density = 18.850429 Si / 1000 Ang^3
#
#
#
# Elastic Constant Matrix: (Units=GPa)
#
#
# Indices 1 2 3 4 5 6 
#
# 1 88.7595 49.8294 46.7621 0.0000 0.0000 0.0000
# 2 49.8294 149.1557 46.3117 0.0000 0.0000 0.0000
# 3 46.7621 46.3117 79.6219 0.0000 0.0000 0.0000
# 4 0.0000 0.0000 0.0000 15.7771 0.0000 0.0000
# 5 0.0000 0.0000 0.0000 0.0000 -1.7272 0.0000
# 6 0.0000 0.0000 0.0000 0.0000 0.0000 12.6893
#
#
#
# Elastic Compliance Matrix: (Units=1/GPa)
#
#
# Indices 1 2 3 4 5 6 
#
# 1 0.017511 -0.003242 -0.008399 0.000000 0.000000 0.000000
# 2 -0.003242 0.008782 -0.003204 0.000000 0.000000 0.000000
# 3 -0.008399 -0.003204 0.019355 0.000000 0.000000 0.000000
# 4 0.000000 0.000000 0.000000 0.063383 0.000000 0.000000
# 5 0.000000 0.000000 0.000000 0.000000 -0.578978 0.000000
# 6 0.000000 0.000000 0.000000 0.000000 0.000000 0.078807
#
#
# Mechanical properties :
#
#
# Convention : Reuss Voigt Hill
#
# Bulk Modulus (GPa) = 62.65919 67.03815 64.84867
# Shear Modulus (GPa) = -14.03982 16.99010 1.47514
#
# Velocity S-wave (km/s) = -2.73207 3.00544 0.88558
# Velocity P-wave (km/s) = 4.83323 6.90536 5.96004
#
# Compressibility (1/GPa) = 0.01595935
#
# Stress axis : x y z
#
# Youngs Moduli (GPa) = 57.10563 113.86366 51.66516
#
# Poissons Ratio (x) = 0.36920 0.43391
# Poissons Ratio (y) = 0.18516 0.16553
# Poissons Ratio (z) = 0.47960 0.36481
#
# Static dielectric constant tensor:
#      x y z
#    x 3.411720 0.000000 0.000000 
#    y 0.000000 3.658330 0.000000 
#    z 0.000000 0.000000 3.026300 
# 
# 
# High freq. dielectric constant tensor:
#      x y z
#    x 1.741710 0.000000 0.000000 
#    y 0.000000 1.752410 0.000000 
#    z 0.000000 0.000000 1.675190 
# 
# From -- ./inp_files/21793.got.cif
#   From: 2010.03.12/outbox.cif.g09.slc.cpg/sg57_11_cif.got.tgz:21793.got - 2010.04.16 15:48:40.
