data_PCOD8234543
_publ_section_title
;
Structure prediction by ZEFSAII (Michael W. Deem and Ramdas Pophale) SiO2 
 PCOD8234543
Probable space group: P B C M
;
_chemical_formula_sum "Si O2"
_cell_formula_units_Z 64
_cell_length_a 11.054100
_cell_length_b 10.824487
_cell_length_c 25.040172
_cell_angle_alpha 90.000000
_cell_angle_beta 90.000000
_cell_angle_gamma 90.000000
_cell_volume 2996.180823
_symmetry_space_group_name_H-M "P B C M"
_symmetry_group_IT_number 57
_symmetry_cell_setting 'orthorhombic'
loop_
_space_group_symop_operation_xyz
x,y,z
-x,-y,1/2+z
x,1/2-y,-z
-x,1/2+y,1/2-z
-x,-y,-z
x,y,1/2-z
-x,1/2+y,z
x,1/2-y,1/2+z
loop_
_atom_site_type_symbol
_atom_site_label
_atom_site_fract_x
_atom_site_fract_y
_atom_site_fract_z
Si Si1 0.316176 0.167985 0.620707
Si Si2 0.283706 0.547985 0.888787
Si Si3 0.491103 0.873218 0.466007
Si Si4 0.140823 0.720223 0.691219
Si Si5 0.040369 0.486152 0.939890
Si Si6 0.424692 0.136829 0.311932
Si Si7 0.307136 0.948911 0.692055
Si Si8 0.946060 0.733594 0.888215
O O1 0.382493 0.149083 0.564370
O O2 0.403089 0.224956 0.666406
O O3 0.198102 0.252839 0.612977
O O4 0.273283 0.037627 0.643698
O O5 0.383862 0.617442 0.923501
O O6 0.217431 0.641575 0.849963
O O7 0.185174 0.492269 0.929987
O O8 0.347208 0.448463 0.851135
O O9 0.465036 0.750000 0.500000
O O10 0.500000 0.000000 0.500000
O O11 0.138227 0.657854 0.750000
O O12 0.199489 0.853187 0.694788
O O13 0.002984 0.736556 0.671136
O O14 0.996782 0.350049 0.920401
O O15 0.974249 0.599544 0.911652
O O16 0.000000 0.500000 0.000000
O O17 0.384962 0.121999 0.250000
O O18 0.565697 0.115623 0.320136
O O19 0.315187 0.016228 0.750000
#
# Coordination Sequence:
#
# PCOD8234543 Si02
#       8
#     8   8   8   8   8   8   8   8
#     4  12  24  43  69  96 147 174 236 286 347 425
#     4  11  23  45  68  98 139 178 236 287 354 423
#     4  12  29  45  72 106 142 190 235 298 360 417
#     4  10  23  43  68 100 140 183 227 281 349 422
#     4  11  25  45  71  97 132 183 240 292 346 407
#     4  11  22  40  69 104 139 183 224 281 358 431
#     4  10  22  39  67 101 136 181 222 278 349 418
#     4  11  25  44  70 101 135 184 232 289 343 410
#
# _framework density 21.360526
#
# number of rings (size 3 to 8) (size 9 to 14) (size 15 to 20)
#    0.000    1.000    2.500    3.375    3.500    3.000 
#    0.000    1.875    0.000    0.000    0.000    0.000 
#    0.000    0.000    0.000    0.000    0.000    0.000 
#
# Total GULP energy -793385.724592 kJ/mol
# GULP energy per Si atom -12396.651947 kJ/mol
# Density = 2.131191 g / cm^3
# Si number density = 21.360526 Si / 1000 Ang^3
#
#
#
# Elastic Constant Matrix: (Units=GPa)
#
#
# Indices 1 2 3 4 5 6 
#
# 1 105.1239 34.9275 71.6108 0.0000 0.0000 0.0000
# 2 34.9275 109.8724 56.2977 0.0000 0.0000 0.0000
# 3 71.6108 56.2977 160.7653 0.0000 0.0000 0.0000
# 4 0.0000 0.0000 0.0000 41.6649 0.0000 0.0000
# 5 0.0000 0.0000 0.0000 0.0000 57.2609 0.0000
# 6 0.0000 0.0000 0.0000 0.0000 0.0000 29.9740
#
#
#
# Elastic Compliance Matrix: (Units=1/GPa)
#
#
# Indices 1 2 3 4 5 6 
#
# 1 0.013860 -0.001514 -0.005643 0.000000 0.000000 0.000000
# 2 -0.001514 0.011257 -0.003268 0.000000 0.000000 0.000000
# 3 -0.005643 -0.003268 0.009878 0.000000 0.000000 0.000000
# 4 0.000000 0.000000 0.000000 0.024001 0.000000 0.000000
# 5 0.000000 0.000000 0.000000 0.000000 0.017464 0.000000
# 6 0.000000 0.000000 0.000000 0.000000 0.000000 0.033362
#
#
# Mechanical properties :
#
#
# Convention : Reuss Voigt Hill
#
# Bulk Modulus (GPa) = 70.69743 77.93707 74.31725
# Shear Modulus (GPa) = 36.93079 39.97500 38.45290
#
# Velocity S-wave (km/s) = 4.16255 4.33071 4.24746
# Velocity P-wave (km/s) = 7.50143 7.84681 7.67606
#
# Compressibility (1/GPa) = 0.01414479
#
# Stress axis : x y z
#
# Youngs Moduli (GPa) = 72.14963 88.83264 101.23180
#
# Poissons Ratio (x) = 0.13452 0.57130
# Poissons Ratio (y) = 0.10926 0.33078
# Poissons Ratio (z) = 0.40718 0.29026
#
# Static dielectric constant tensor:
#      x y z
#    x 4.021910 0.000000 0.000000 
#    y 0.000000 4.267850 0.000000 
#    z 0.000000 0.000000 3.974150 
# 
# 
# High freq. dielectric constant tensor:
#      x y z
#    x 1.843470 0.000000 0.000000 
#    y 0.000000 1.847720 0.000000 
#    z 0.000000 0.000000 1.845460 
# 
# From -- ./inp_files/27264.got.cif
#   From: 2010.03.12/outbox.cif.g09.slc.cpg/sg57_14_cif.got.tgz:27264.got - 2010.04.16 15:48:40.
