data_PCOD8234535
_publ_section_title
;
Structure prediction by ZEFSAII (Michael W. Deem and Ramdas Pophale) SiO2 
 PCOD8234535
Probable space group: P B C M
;
_chemical_formula_sum "Si O2"
_cell_formula_units_Z 44
_cell_length_a 8.870447
_cell_length_b 18.595863
_cell_length_c 13.545553
_cell_angle_alpha 90.000000
_cell_angle_beta 90.000000
_cell_angle_gamma 90.000000
_cell_volume 2234.387964
_symmetry_space_group_name_H-M "P B C M"
_symmetry_group_IT_number 57
_symmetry_cell_setting 'orthorhombic'
loop_
_space_group_symop_operation_xyz
x,y,z
-x,-y,1/2+z
x,1/2-y,-z
-x,1/2+y,1/2-z
-x,-y,-z
x,y,1/2-z
-x,1/2+y,z
x,1/2-y,1/2+z
loop_
_atom_site_type_symbol
_atom_site_label
_atom_site_fract_x
_atom_site_fract_y
_atom_site_fract_z
Si Si1 0.439447 0.234066 0.605038
Si Si2 0.483647 0.855878 0.750000
Si Si3 0.386774 0.855713 0.250000
Si Si4 0.068218 0.791000 0.250000
Si Si5 0.873910 0.373254 0.750000
Si Si6 0.715436 0.982381 0.750000
Si Si7 0.058670 0.057670 0.078894
Si Si8 0.106071 0.313424 0.438720
O O1 0.512850 0.250000 0.500000
O O2 0.464812 0.309592 0.657486
O O3 0.518594 0.165192 0.653340
O O4 0.263707 0.216338 0.601136
O O5 0.305766 0.870588 0.750000
O O6 0.572221 0.930525 0.750000
O O7 0.244012 0.804226 0.250000
O O8 0.351375 0.938541 0.250000
O O9 0.997273 0.830997 0.155296
O O10 0.044539 0.704896 0.250000
O O11 0.924583 0.414173 0.850075
O O12 0.811781 0.973133 0.650235
O O13 0.129728 0.119616 0.010924
O O14 0.000000 0.000000 0.000000
O O15 0.024343 0.250000 0.500000
#
# Coordination Sequence:
#
# PCOD8234535 Si02
#       8
#     8   4   4   4   4   4   8   8
#     4  10  22  39  62  92 125 160 217 269 306 384
#     4  11  23  43  64  95 130 176 210 261 333 387
#     4  11  24  40  59  95 127 168 207 262 319 380
#     4  12  21  38  64  96 126 158 216 271 321 362
#     4  11  24  43  66  92 130 171 212 277 323 382
#     4  11  24  44  67  88 137 177 205 259 334 389
#     4  11  25  44  65  96 129 167 221 269 321 384
#     4  11  22  38  67  93 119 168 215 262 321 377
#
# _framework density 19.692191999999999
#
# number of rings (size 3 to 8) (size 9 to 14) (size 15 to 20)
#    0.000    1.091    3.636    4.364    2.545    5.818 
#    0.000    2.727    0.000    0.000    0.000    0.000 
#    0.000    0.000    0.000    0.000    0.000    0.000 
#
# Total GULP energy -545515.873421 kJ/mol
# GULP energy per Si atom -12398.088032 kJ/mol
# Density = 1.964737 g / cm^3
# Si number density = 19.692192 Si / 1000 Ang^3
#
#
#
# Elastic Constant Matrix: (Units=GPa)
#
#
# Indices 1 2 3 4 5 6 
#
# 1 100.4294 27.4066 45.0823 0.0000 0.0000 0.0000
# 2 27.4066 122.1653 49.7521 0.0000 0.0000 0.0000
# 3 45.0823 49.7521 156.7811 0.0000 0.0000 0.0000
# 4 0.0000 0.0000 0.0000 20.7642 0.0000 0.0000
# 5 0.0000 0.0000 0.0000 0.0000 347.3712 0.0000
# 6 0.0000 0.0000 0.0000 0.0000 0.0000 31.6100
#
#
#
# Elastic Compliance Matrix: (Units=1/GPa)
#
#
# Indices 1 2 3 4 5 6 
#
# 1 0.011648 -0.001434 -0.002894 0.000000 0.000000 0.000000
# 2 -0.001434 0.009577 -0.002627 0.000000 0.000000 0.000000
# 3 -0.002894 -0.002627 0.008044 0.000000 0.000000 0.000000
# 4 0.000000 0.000000 0.000000 0.048160 0.000000 0.000000
# 5 0.000000 0.000000 0.000000 0.000000 0.002879 0.000000
# 6 0.000000 0.000000 0.000000 0.000000 0.000000 0.031636
#
#
# Mechanical properties :
#
#
# Convention : Reuss Voigt Hill
#
# Bulk Modulus (GPa) = 65.11035 69.31756 67.21395
# Shear Modulus (GPa) = 38.17574 97.09139 67.63356
#
# Velocity S-wave (km/s) = 4.40776 7.02933 5.86685
# Velocity P-wave (km/s) = 7.68376 10.05778 8.94984
#
# Compressibility (1/GPa) = 0.01535854
#
# Stress axis : x y z
#
# Youngs Moduli (GPa) = 85.85264 104.41507 124.31520
#
# Poissons Ratio (x) = 0.14978 0.35979
# Poissons Ratio (y) = 0.12315 0.32654
# Poissons Ratio (z) = 0.24847 0.27427
#
# Static dielectric constant tensor:
#      x y z
#    x 3.486800 0.000000 0.000000 
#    y 0.000000 3.623030 0.000000 
#    z 0.000000 0.000000 3.986780 
# 
# 
# High freq. dielectric constant tensor:
#      x y z
#    x 1.766500 0.000000 0.000000 
#    y 0.000000 1.769720 0.000000 
#    z 0.000000 0.000000 1.789860 
# 
# From -- ./inp_files/16278.got.cif
#   From: 2010.03.12/outbox.cif.g09.slc.cpg/sg57_9_cif.got.tgz:16278.got - 2010.04.16 15:48:40.
