data_PCOD8234304
_publ_section_title
;
Structure prediction by ZEFSAII (Michael W. Deem and Ramdas Pophale) SiO2 
 PCOD8234304
Probable space group: P B C M
;
_chemical_formula_sum "Si O2"
_cell_formula_units_Z 64
_cell_length_a 9.322898
_cell_length_b 26.931629
_cell_length_c 14.217248
_cell_angle_alpha 90.000000
_cell_angle_beta 90.000000
_cell_angle_gamma 90.000000
_cell_volume 3569.678430
_symmetry_space_group_name_H-M "P B C M"
_symmetry_group_IT_number 57
_symmetry_cell_setting 'orthorhombic'
loop_
_space_group_symop_operation_xyz
x,y,z
-x,-y,1/2+z
x,1/2-y,-z
-x,1/2+y,1/2-z
-x,-y,-z
x,y,1/2-z
-x,1/2+y,z
x,1/2-y,1/2+z
loop_
_atom_site_type_symbol
_atom_site_label
_atom_site_fract_x
_atom_site_fract_y
_atom_site_fract_z
Si Si1 0.440071 0.191926 0.641896
Si Si2 0.261715 0.131948 0.501694
Si Si3 0.143190 0.966691 0.356592
Si Si4 0.564166 0.692155 0.141764
Si Si5 0.926393 0.115085 0.000561
Si Si6 0.317108 0.693055 0.498362
Si Si7 0.339884 0.481274 0.500050
Si Si8 0.861049 0.031787 0.356621
O O1 0.455086 0.176241 0.750000
O O2 0.312639 0.160515 0.595219
O O3 0.400748 0.249730 0.630068
O O4 0.590135 0.179542 0.590785
O O5 0.309864 0.161266 0.408149
O O6 0.333605 0.077949 0.501133
O O7 0.091179 0.130230 0.504156
O O8 0.190347 0.956275 0.250000
O O9 0.119454 0.914583 0.407717
O O10 0.265815 0.998919 0.405585
O O11 0.997355 0.996771 0.363044
O O12 0.555675 0.675907 0.250000
O O13 0.411927 0.679987 0.093396
O O14 0.830771 0.163922 0.004805
O O15 0.897897 0.083444 0.093961
O O16 0.271615 0.750000 0.500000
O O17 0.500000 0.500000 0.500000
O O18 0.267733 0.503382 0.406968
O O19 0.815591 0.042980 0.250000
#
# Coordination Sequence:
#
# PCOD8234304 Si02
#       8
#     8   8   8   8   8   8   8   8
#     4   9  20  39  59  81 111 146 185 227 275 333
#     4  11  21  35  57  86 114 148 185 228 283 327
#     4  10  21  40  60  77 110 156 188 221 276 329
#     4   9  20  39  59  81 111 146 185 227 275 333
#     4  11  21  37  57  84 115 141 187 235 271 332
#     4   9  20  37  58  82 109 143 179 226 282 330
#     4  11  23  38  55  85 120 142 185 236 275 332
#     4  10  21  40  60  77 110 156 188 221 276 329
#
# _framework density 17.928785000000001
#
# number of rings (size 3 to 8) (size 9 to 14) (size 15 to 20)
#    0.000    2.000    2.500    1.875    7.000    4.500 
#    0.000    0.000    0.000    3.000    0.000    0.000 
#    0.000    0.000    0.000    0.000    0.000    0.000 
#
# Total GULP energy -793764.074856 kJ/mol
# GULP energy per Si atom -12402.563670 kJ/mol
# Density = 1.788798 g / cm^3
# Si number density = 17.928785 Si / 1000 Ang^3
#
#
#
# Elastic Constant Matrix: (Units=GPa)
#
#
# Indices 1 2 3 4 5 6 
#
# 1 91.1798 42.0700 31.6323 0.0000 0.0000 0.0000
# 2 42.0700 80.6010 27.9773 0.0000 0.0000 0.0000
# 3 31.6323 27.9773 136.1622 0.0000 0.0000 0.0000
# 4 0.0000 0.0000 0.0000 12.1356 0.0000 0.0000
# 5 0.0000 0.0000 0.0000 0.0000 15.0036 0.0000
# 6 0.0000 0.0000 0.0000 0.0000 0.0000 38.9241
#
#
#
# Elastic Compliance Matrix: (Units=1/GPa)
#
#
# Indices 1 2 3 4 5 6 
#
# 1 0.014941 -0.007100 -0.002012 0.000000 0.000000 0.000000
# 2 -0.007100 0.016734 -0.001789 0.000000 0.000000 0.000000
# 3 -0.002012 -0.001789 0.008179 0.000000 0.000000 0.000000
# 4 0.000000 0.000000 0.000000 0.082402 0.000000 0.000000
# 5 0.000000 0.000000 0.000000 0.000000 0.066651 0.000000
# 6 0.000000 0.000000 0.000000 0.000000 0.000000 0.025691
#
#
# Mechanical properties :
#
#
# Convention : Reuss Voigt Hill
#
# Bulk Modulus (GPa) = 55.39613 56.81133 56.10373
# Shear Modulus (GPa) = 20.62549 26.96354 23.79451
#
# Velocity S-wave (km/s) = 3.39545 3.88225 3.64698
# Velocity P-wave (km/s) = 6.80713 7.20082 7.00674
#
# Compressibility (1/GPa) = 0.01805180
#
# Stress axis : x y z
#
# Youngs Moduli (GPa) = 66.92780 59.75953 122.26151
#
# Poissons Ratio (x) = 0.42431 0.24601
# Poissons Ratio (y) = 0.47521 0.21870
# Poissons Ratio (z) = 0.13467 0.10690
#
# Static dielectric constant tensor:
#      x y z
#    x 3.191020 0.000000 0.000000 
#    y 0.000000 3.344920 0.000000 
#    z 0.000000 0.000000 3.678440 
# 
# 
# High freq. dielectric constant tensor:
#      x y z
#    x 1.690040 0.000000 0.000000 
#    y 0.000000 1.700200 0.000000 
#    z 0.000000 0.000000 1.701630 
# 
# From -- ./inp_files/16990.got.cif
#   From: 2010.03.12/outbox.cif.g09.slc.cpg/sg57_9_cif.got.tgz:16990.got - 2010.04.16 15:48:40.
