data_PCOD8234640
_publ_section_title
;
Structure prediction by ZEFSAII (Michael W. Deem and Ramdas Pophale) SiO2 
 PCOD8234640
Probable space group: P B C M
;
_chemical_formula_sum "Si O2"
_cell_formula_units_Z 48
_cell_length_a 10.087898
_cell_length_b 8.802151
_cell_length_c 25.525901
_cell_angle_alpha 90.000000
_cell_angle_beta 90.000000
_cell_angle_gamma 90.000000
_cell_volume 2266.577522
_symmetry_space_group_name_H-M "P B C M"
_symmetry_group_IT_number 57
_symmetry_cell_setting 'orthorhombic'
loop_
_space_group_symop_operation_xyz
x,y,z
-x,-y,1/2+z
x,1/2-y,-z
-x,1/2+y,1/2-z
-x,-y,-z
x,y,1/2-z
-x,1/2+y,z
x,1/2-y,1/2+z
loop_
_atom_site_type_symbol
_atom_site_label
_atom_site_fract_x
_atom_site_fract_y
_atom_site_fract_z
Si Si1 0.489996 0.181508 0.638628
Si Si2 0.677144 0.416134 0.912390
Si Si3 0.670851 0.561098 0.189531
Si Si4 0.158619 0.056269 0.403388
Si Si5 0.359579 0.073563 0.489429
Si Si6 0.073648 0.754764 0.937993
O O1 0.562546 0.283933 0.592690
O O2 0.422169 0.294252 0.679700
O O3 0.376071 0.067247 0.617204
O O4 0.600346 0.093868 0.671558
O O5 0.723633 0.474242 0.969709
O O6 0.820154 0.342368 0.899401
O O7 0.708252 0.550627 0.250000
O O8 0.809163 0.578515 0.157821
O O9 0.304061 0.043649 0.431216
O O10 0.076709 0.194186 0.428000
O O11 0.068689 0.913176 0.415219
O O12 0.359413 0.250000 0.500000
O O13 0.500000 0.000000 0.500000
O O14 0.106478 0.750000 0.000000
#
# Coordination Sequence:
#
# PCOD8234640 Si02
#       6
#     8   8   8   8   8   8
#     4  10  22  41  70 100 135 171 213 282 345 399
#     4  11  22  40  65  97 134 175 218 264 334 409
#     4  11  23  44  70  98 129 169 225 284 344 394
#     4  12  27  43  65  92 132 182 223 271 327 395
#     4  12  25  38  63  99 136 171 215 270 330 398
#     4  12  26  44  65  95 136 182 220 263 329 410
#
# _framework density 21.177303999999999
#
# number of rings (size 3 to 8) (size 9 to 14) (size 15 to 20)
#    0.000    0.667    3.333    5.500    7.000    0.000 
#    0.000    0.833    0.000    0.000    0.000    0.000 
#    0.000    0.000    0.000    0.000    0.000    0.000 
#
# Total GULP energy -594634.971544 kJ/mol
# GULP energy per Si atom -12388.228574 kJ/mol
# Density = 2.112910 g / cm^3
# Si number density = 21.177304 Si / 1000 Ang^3
#
#
#
# Elastic Constant Matrix: (Units=GPa)
#
#
# Indices 1 2 3 4 5 6 
#
# 1 98.9624 40.2603 43.1869 0.0000 0.0000 0.0000
# 2 40.2603 122.4145 50.0124 0.0000 0.0000 0.0000
# 3 43.1869 50.0124 134.7730 0.0000 0.0000 0.0000
# 4 0.0000 0.0000 0.0000 21.6075 0.0000 0.0000
# 5 0.0000 0.0000 0.0000 0.0000 26.1687 0.0000
# 6 0.0000 0.0000 0.0000 0.0000 0.0000 19.9230
#
#
#
# Elastic Compliance Matrix: (Units=1/GPa)
#
#
# Indices 1 2 3 4 5 6 
#
# 1 0.012584 -0.002936 -0.002943 0.000000 0.000000 0.000000
# 2 -0.002936 0.010314 -0.002886 0.000000 0.000000 0.000000
# 3 -0.002943 -0.002886 0.009434 0.000000 0.000000 0.000000
# 4 0.000000 0.000000 0.000000 0.046280 0.000000 0.000000
# 5 0.000000 0.000000 0.000000 0.000000 0.038214 0.000000
# 6 0.000000 0.000000 0.000000 0.000000 0.000000 0.050193
#
#
# Mechanical properties :
#
#
# Convention : Reuss Voigt Hill
#
# Bulk Modulus (GPa) = 67.56482 69.22989 68.39736
# Shear Modulus (GPa) = 26.38758 28.38585 27.38671
#
# Velocity S-wave (km/s) = 3.53375 3.66511 3.60003
# Velocity P-wave (km/s) = 6.97305 7.11844 7.04612
#
# Compressibility (1/GPa) = 0.01480060
#
# Stress axis : x y z
#
# Youngs Moduli (GPa) = 79.46857 96.95625 106.00008
#
# Poissons Ratio (x) = 0.28470 0.31192
# Poissons Ratio (y) = 0.23335 0.30596
# Poissons Ratio (z) = 0.23385 0.27986
#
# Static dielectric constant tensor:
#      x y z
#    x -0.758450 0.000000 0.000000 
#    y 0.000000 4.318430 0.000000 
#    z 0.000000 0.000000 3.756550 
# 
# 
# High freq. dielectric constant tensor:
#      x y z
#    x 1.826330 0.000000 0.000000 
#    y 0.000000 1.862310 0.000000 
#    z 0.000000 0.000000 1.791690 
# 
# From -- ./inp_files/27088.got.cif
#   From: 2010.03.12/outbox.cif.g09.slc.cpg/sg57_14_cif.got.tgz:27088.got - 2010.04.16 15:48:40.
