data_PCOD8234097
_publ_section_title
;
Structure prediction by ZEFSAII (Michael W. Deem and Ramdas Pophale) SiO2 
 PCOD8234097
Probable space group: P B C M
;
_chemical_formula_sum "Si O2"
_cell_formula_units_Z 56
_cell_length_a 11.800737
_cell_length_b 14.953119
_cell_length_c 13.868523
_cell_angle_alpha 90.000000
_cell_angle_beta 90.000000
_cell_angle_gamma 90.000000
_cell_volume 2447.209400
_symmetry_space_group_name_H-M "P B C M"
_symmetry_group_IT_number 57
_symmetry_cell_setting 'orthorhombic'
loop_
_space_group_symop_operation_xyz
x,y,z
-x,-y,1/2+z
x,1/2-y,-z
-x,1/2+y,1/2-z
-x,-y,-z
x,y,1/2-z
-x,1/2+y,z
x,1/2-y,1/2+z
loop_
_atom_site_type_symbol
_atom_site_label
_atom_site_fract_x
_atom_site_fract_y
_atom_site_fract_z
Si Si1 0.277266 0.160437 0.363822
Si Si2 0.022470 0.303835 0.635191
Si Si3 0.082841 0.514628 0.364308
Si Si4 0.330337 0.659482 0.551325
Si Si5 0.094249 0.630268 0.862174
Si Si6 0.431967 0.325907 0.361565
Si Si7 0.690983 0.975282 0.474451
O O1 0.286632 0.140473 0.250000
O O2 0.152781 0.191371 0.396619
O O3 0.364099 0.238195 0.397929
O O4 0.304513 0.068545 0.419167
O O5 0.018664 0.305924 0.750000
O O6 0.943908 0.385551 0.598335
O O7 0.969601 0.214373 0.588729
O O8 0.109007 0.509384 0.250000
O O9 0.187756 0.475434 0.422505
O O10 0.969877 0.459877 0.392130
O O11 0.290799 0.750000 0.500000
O O12 0.225370 0.622083 0.612219
O O13 0.435389 0.687214 0.618116
O O14 0.359725 0.576470 0.479942
O O15 0.084025 0.646436 0.750000
O O16 0.408461 0.337731 0.250000
O O17 0.393273 0.417047 0.410753
#
# Coordination Sequence:
#
# PCOD8234097 Si02
#       7
#     8   8   8   8   8   8   8
#     4  10  22  41  68  98 128 164 208 265 326 383
#     4   9  18  35  59  89 125 164 208 256 310 374
#     4  10  21  38  62  95 132 168 211 262 316 378
#     4  12  26  42  61  91 131 171 216 266 316 377
#     4  10  21  38  60  87 125 171 213 256 314 377
#     4  11  25  47  70  92 122 163 215 270 324 380
#     4  12  24  41  68  97 128 165 213 264 320 385
#
# _framework density 22.883206999999999
#
# number of rings (size 3 to 8) (size 9 to 14) (size 15 to 20)
#    0.000    1.429    0.000    5.143    0.000    8.000 
#    0.000    3.571    0.000    0.000    0.000    0.000 
#    0.000    0.000    0.000    0.000    0.000    0.000 
#
# Total GULP energy -694581.324515 kJ/mol
# GULP energy per Si atom -12403.237938 kJ/mol
# Density = 2.283112 g / cm^3
# Si number density = 22.883207 Si / 1000 Ang^3
#
#
#
# Elastic Constant Matrix: (Units=GPa)
#
#
# Indices 1 2 3 4 5 6 
#
# 1 109.4529 25.2641 24.9291 0.0000 0.0000 0.0000
# 2 25.2641 153.9429 42.4993 0.0000 0.0000 0.0000
# 3 24.9291 42.4993 49.9750 0.0000 0.0000 0.0000
# 4 0.0000 0.0000 0.0000 31.2380 0.0000 0.0000
# 5 0.0000 0.0000 0.0000 0.0000 28.2930 0.0000
# 6 0.0000 0.0000 0.0000 0.0000 0.0000 37.0088
#
#
#
# Elastic Compliance Matrix: (Units=1/GPa)
#
#
# Indices 1 2 3 4 5 6 
#
# 1 0.010322 -0.000356 -0.004846 0.000000 0.000000 0.000000
# 2 -0.000356 0.008501 -0.007052 0.000000 0.000000 0.000000
# 3 -0.004846 -0.007052 0.028424 0.000000 0.000000 0.000000
# 4 0.000000 0.000000 0.000000 0.032012 0.000000 0.000000
# 5 0.000000 0.000000 0.000000 0.000000 0.035344 0.000000
# 6 0.000000 0.000000 0.000000 0.000000 0.000000 0.027021
#
#
# Mechanical properties :
#
#
# Convention : Reuss Voigt Hill
#
# Bulk Modulus (GPa) = 43.97634 55.41732 49.69683
# Shear Modulus (GPa) = 28.78301 34.01985 31.40143
#
# Velocity S-wave (km/s) = 3.55043 3.85992 3.70840
# Velocity P-wave (km/s) = 6.00557 6.64345 6.33254
#
# Compressibility (1/GPa) = 0.02273950
#
# Stress axis : x y z
#
# Youngs Moduli (GPa) = 96.87720 117.63076 35.18095
#
# Poissons Ratio (x) = 0.04189 0.17050
# Poissons Ratio (y) = 0.03450 0.24809
# Poissons Ratio (z) = 0.46949 0.82952
#
# Static dielectric constant tensor:
#      x y z
#    x 4.056140 0.000000 0.000000 
#    y 0.000000 4.452160 0.000000 
#    z 0.000000 0.000000 4.038350 
# 
# 
# High freq. dielectric constant tensor:
#      x y z
#    x 1.904380 0.000000 0.000000 
#    y 0.000000 1.917600 0.000000 
#    z 0.000000 0.000000 1.906070 
# 
# From -- ./inp_files/17725.got.cif
#   From: 2010.03.12/outbox.cif.g09.slc.cpg/sg57_9_cif.got.tgz:17725.got - 2010.04.16 15:48:40.
