data_PCOD8234661
_publ_section_title
;
Structure prediction by ZEFSAII (Michael W. Deem and Ramdas Pophale) SiO2 
 PCOD8234661
Probable space group: P B C M
;
_chemical_formula_sum "Si O2"
_cell_formula_units_Z 56
_cell_length_a 14.682053
_cell_length_b 8.208247
_cell_length_c 20.774060
_cell_angle_alpha 90.000000
_cell_angle_beta 90.000000
_cell_angle_gamma 90.000000
_cell_volume 2503.563353
_symmetry_space_group_name_H-M "P B C M"
_symmetry_group_IT_number 57
_symmetry_cell_setting 'orthorhombic'
loop_
_space_group_symop_operation_xyz
x,y,z
-x,-y,1/2+z
x,1/2-y,-z
-x,1/2+y,1/2-z
-x,-y,-z
x,y,1/2-z
-x,1/2+y,z
x,1/2-y,1/2+z
loop_
_atom_site_type_symbol
_atom_site_label
_atom_site_fract_x
_atom_site_fract_y
_atom_site_fract_z
Si Si1 0.367869 0.360201 0.678599
Si Si2 0.791326 0.087183 0.118694
Si Si3 0.193568 0.967202 0.129498
Si Si4 0.922054 0.072549 0.750000
Si Si5 0.898242 0.557235 0.502121
Si Si6 0.606088 0.139140 0.437612
Si Si7 0.875491 0.047762 0.250000
Si Si8 0.502753 0.603622 0.870741
O O1 0.327960 0.350146 0.750000
O O2 0.285473 0.424582 0.633945
O O3 0.404403 0.182623 0.657298
O O4 0.455151 0.480406 0.678790
O O5 0.785815 0.277647 0.133242
O O6 0.694952 0.043384 0.086794
O O7 0.815354 0.000694 0.186923
O O8 0.864491 0.025075 0.067705
O O9 0.122002 0.011620 0.186352
O O10 0.154453 0.992315 0.059191
O O11 0.902167 0.263588 0.750000
O O12 0.030772 0.053374 0.750000
O O13 0.889125 0.750000 0.500000
O O14 0.000000 0.500000 0.500000
O O15 0.621211 0.250000 0.500000
O O16 0.573966 0.263813 0.383379
O O17 0.529609 0.994755 0.437424
#
# Coordination Sequence:
#
# PCOD8234661 Si02
#       8
#     8   8   8   4   8   8   4   8
#     4  11  22  43  65 102 144 189 234 284 348 410
#     4  11  24  44  70 100 136 180 224 286 346 416
#     4  11  22  42  70  99 139 181 228 284 343 418
#     4  10  22  42  68  97 131 172 220 279 345 408
#     4  12  27  46  69  99 134 179 230 288 355 424
#     4  11  22  43  66  98 136 178 231 286 350 411
#     4  10  24  44  68 101 131 174 226 277 351 420
#     4  10  24  40  65  99 135 187 234 287 340 413
#
# _framework density 22.368117000000002
#
# number of rings (size 3 to 8) (size 9 to 14) (size 15 to 20)
#    0.000    1.143    2.143    3.857    2.000    3.429 
#    6.429    0.000    0.000    0.000    0.000    0.000 
#    0.000    0.000    0.000    0.000    0.000    0.000 
#
# Total GULP energy -693891.846103 kJ/mol
# GULP energy per Si atom -12390.925823 kJ/mol
# Density = 2.231721 g / cm^3
# Si number density = 22.368117 Si / 1000 Ang^3
#
#
#
# Elastic Constant Matrix: (Units=GPa)
#
#
# Indices 1 2 3 4 5 6 
#
# 1 97.8908 1.6891 32.6796 0.0000 0.0000 0.0000
# 2 1.6891 29.9010 -6.2299 0.0000 0.0000 0.0000
# 3 32.6796 -6.2299 136.3094 0.0000 0.0000 0.0000
# 4 0.0000 0.0000 0.0000 24.0779 0.0000 0.0000
# 5 0.0000 0.0000 0.0000 0.0000 41.1889 0.0000
# 6 0.0000 0.0000 0.0000 0.0000 0.0000 42.9581
#
#
#
# Elastic Compliance Matrix: (Units=1/GPa)
#
#
# Indices 1 2 3 4 5 6 
#
# 1 0.011147 -0.001198 -0.002727 0.000000 0.000000 0.000000
# 2 -0.001198 0.033894 0.001836 0.000000 0.000000 0.000000
# 3 -0.002727 0.001836 0.008074 0.000000 0.000000 0.000000
# 4 0.000000 0.000000 0.000000 0.041532 0.000000 0.000000
# 5 0.000000 0.000000 0.000000 0.000000 0.024278 0.000000
# 6 0.000000 0.000000 0.000000 0.000000 0.000000 0.023278
#
#
# Mechanical properties :
#
#
# Convention : Reuss Voigt Hill
#
# Bulk Modulus (GPa) = 20.43442 35.59767 28.01604
# Shear Modulus (GPa) = 30.73275 37.37581 34.05428
#
# Velocity S-wave (km/s) = 3.71071 4.09215 3.90609
# Velocity P-wave (km/s) = 5.24543 6.18681 5.73546
#
# Compressibility (1/GPa) = 0.04893704
#
# Stress axis : x y z
#
# Youngs Moduli (GPa) = 89.71398 29.50384 123.85468
#
# Poissons Ratio (x) = 0.03534 0.33776
# Poissons Ratio (y) = 0.10747 -0.22743
# Poissons Ratio (z) = 0.24466 -0.05418
#
# Static dielectric constant tensor:
#      x y z
#    x 4.111450 0.000000 0.000000 
#    y 0.000000 4.124500 0.000000 
#    z 0.000000 0.000000 4.092630 
# 
# 
# High freq. dielectric constant tensor:
#      x y z
#    x 1.890990 0.000000 0.000000 
#    y 0.000000 1.885670 0.000000 
#    z 0.000000 0.000000 1.879380 
# 
# From -- ./inp_files/25472.got.cif
#   From: 2010.03.12/outbox.cif.g09.slc.cpg/sg57_13_cif.got.tgz:25472.got - 2010.04.16 15:48:40.
