data_PCOD8234947
_publ_section_title
;
Structure prediction by ZEFSAII (Michael W. Deem and Ramdas Pophale) SiO2 
 PCOD8234947
Probable space group: P B C M
;
_chemical_formula_sum "Si O2"
_cell_formula_units_Z 40
_cell_length_a 26.074220
_cell_length_b 9.200866
_cell_length_c 8.556913
_cell_angle_alpha 90.000000
_cell_angle_beta 90.000000
_cell_angle_gamma 90.000000
_cell_volume 2052.849673
_symmetry_space_group_name_H-M "P B C M"
_symmetry_group_IT_number 57
_symmetry_cell_setting 'orthorhombic'
loop_
_space_group_symop_operation_xyz
x,y,z
-x,-y,1/2+z
x,1/2-y,-z
-x,1/2+y,1/2-z
-x,-y,-z
x,y,1/2-z
-x,1/2+y,z
x,1/2-y,1/2+z
loop_
_atom_site_type_symbol
_atom_site_label
_atom_site_fract_x
_atom_site_fract_y
_atom_site_fract_z
Si Si1 0.744835 0.909637 0.566551
Si Si2 0.856941 0.590400 0.067225
Si Si3 0.452627 0.588961 0.934691
Si Si4 0.047159 0.589706 0.935403
Si Si5 0.358740 0.086998 0.565818
O O1 0.749514 0.750000 0.500000
O O2 0.732465 0.906833 0.750000
O O3 0.800617 0.980370 0.529926
O O4 0.696856 0.984031 0.477412
O O5 0.863384 0.609501 0.250000
O O6 0.900221 0.482616 0.001168
O O7 0.864807 0.750000 0.000000
O O8 0.456131 0.594049 0.750000
O O9 0.454881 0.750000 0.000000
O O10 0.500000 0.500000 0.000000
O O11 0.400365 0.513804 0.985925
O O12 0.045102 0.592410 0.750000
O O13 0.043818 0.750000 0.000000
O O14 0.000000 0.500000 0.000000
O O15 0.363068 0.250000 0.500000
O O16 0.367323 0.088830 0.750000
#
# Coordination Sequence:
#
# PCOD8234947 Si02
#       5
#     8   8   8   8   8
#     4   9  16  30  52  80 111 146 185 230 276 328
#     4   9  19  34  55  81 111 144 184 229 278 330
#     4  12  25  43  63  87 116 150 189 234 283 336
#     4  11  23  39  57  81 110 145 185 231 281 336
#     4  11  21  36  58  87 118 153 192 234 279 330
#
# _framework density 19.485106999999999
#
# number of rings (size 3 to 8) (size 9 to 14) (size 15 to 20)
#    0.000    1.600    0.000    7.200    0.000    4.000 
#    0.000    1.000    0.000    2.400    0.000    0.000 
#    0.000    0.000    0.000    0.000    0.000    0.000 
#
# Total GULP energy -495846.917522 kJ/mol
# GULP energy per Si atom -12396.172938 kJ/mol
# Density = 1.944076 g / cm^3
# Si number density = 19.485107 Si / 1000 Ang^3
#
#
#
# Elastic Constant Matrix: (Units=GPa)
#
#
# Indices 1 2 3 4 5 6 
#
# 1 197.7198 87.0275 58.6786 0.0000 0.0000 0.0000
# 2 87.0275 123.0260 45.0226 0.0000 0.0000 0.0000
# 3 58.6786 45.0226 124.1540 0.0000 0.0000 0.0000
# 4 0.0000 0.0000 0.0000 31.1729 0.0000 0.0000
# 5 0.0000 0.0000 0.0000 0.0000 34.6057 0.0000
# 6 0.0000 0.0000 0.0000 0.0000 0.0000 34.6859
#
#
#
# Elastic Compliance Matrix: (Units=1/GPa)
#
#
# Indices 1 2 3 4 5 6 
#
# 1 0.007724 -0.004759 -0.001925 0.000000 0.000000 0.000000
# 2 -0.004759 0.012305 -0.002213 0.000000 0.000000 0.000000
# 3 -0.001925 -0.002213 0.009767 0.000000 0.000000 0.000000
# 4 0.000000 0.000000 0.000000 0.032079 0.000000 0.000000
# 5 0.000000 0.000000 0.000000 0.000000 0.028897 0.000000
# 6 0.000000 0.000000 0.000000 0.000000 0.000000 0.028830
#
#
# Mechanical properties :
#
#
# Convention : Reuss Voigt Hill
#
# Bulk Modulus (GPa) = 83.32099 91.81748 87.56923
# Shear Modulus (GPa) = 35.36187 37.03765 36.19976
#
# Velocity S-wave (km/s) = 4.26469 4.36457 4.31492
# Velocity P-wave (km/s) = 8.19172 8.52194 8.35846
#
# Compressibility (1/GPa) = 0.01200178
#
# Stress axis : x y z
#
# Youngs Moduli (GPa) = 129.47201 81.26855 102.39060
#
# Poissons Ratio (x) = 0.38679 0.19705
# Poissons Ratio (y) = 0.61620 0.22657
# Poissons Ratio (z) = 0.24917 0.17983
#
# Static dielectric constant tensor:
#      x y z
#    x 4.373350 0.000000 0.000000 
#    y 0.000000 3.385310 0.000000 
#    z 0.000000 0.000000 3.724470 
# 
# 
# High freq. dielectric constant tensor:
#      x y z
#    x 1.790760 0.000000 0.000000 
#    y 0.000000 1.729770 0.000000 
#    z 0.000000 0.000000 1.773640 
# 
# From -- ./inp_files/8926.got.cif
#   From: 2010.03.12/outbox.cif.g09.slc.cpg/sg57_5_cif.got.tgz:8926.got - 2010.04.16 15:48:40.
