data_PCOD8234278
_publ_section_title
;
Structure prediction by ZEFSAII (Michael W. Deem and Ramdas Pophale) SiO2 
 PCOD8234278
Probable space group: P B C M
;
_chemical_formula_sum "Si O2"
_cell_formula_units_Z 40
_cell_length_a 24.279302
_cell_length_b 5.223919
_cell_length_c 14.826938
_cell_angle_alpha 90.000000
_cell_angle_beta 90.000000
_cell_angle_gamma 90.000000
_cell_volume 1880.546614
_symmetry_space_group_name_H-M "P B C M"
_symmetry_group_IT_number 57
_symmetry_cell_setting 'orthorhombic'
loop_
_space_group_symop_operation_xyz
x,y,z
-x,-y,1/2+z
x,1/2-y,-z
-x,1/2+y,1/2-z
-x,-y,-z
x,y,1/2-z
-x,1/2+y,z
x,1/2-y,1/2+z
loop_
_atom_site_type_symbol
_atom_site_label
_atom_site_fract_x
_atom_site_fract_y
_atom_site_fract_z
Si Si1 0.194888 0.148555 0.250000
Si Si2 0.697590 0.250000 0.500000
Si Si3 0.536205 0.970126 0.750000
Si Si4 0.034153 0.751853 0.895291
Si Si5 0.875856 0.154523 0.250000
Si Si6 0.380992 0.367028 0.592211
Si Si7 0.279116 0.076155 0.846914
O O1 0.146791 0.364978 0.250000
O O2 0.234312 0.192396 0.161452
O O3 0.173400 0.860609 0.250000
O O4 0.658684 0.399808 0.431267
O O5 0.737438 0.417277 0.564106
O O6 0.491675 0.746303 0.750000
O O7 0.571350 0.954771 0.841173
O O8 0.089385 0.795373 0.839744
O O9 0.007939 0.478840 0.869618
O O10 0.050246 0.750000 0.000000
O O11 0.407013 0.250000 0.500000
O O12 0.342361 0.160666 0.641113
O O13 0.276592 0.924043 0.750000
#
# Coordination Sequence:
#
# PCOD8234278 Si02
#       7
#     4   4   4   8   4   8   8
#     4  10  25  38  64  92 140 163 210 250 332 384
#     4  10  22  38  72  92 120 166 230 262 318 362
#     4  12  29  43  68  96 135 173 200 262 344 386
#     4  10  21  39  65  90 119 165 223 266 312 375
#     4  12  22  41  60  96 131 172 200 272 326 384
#     4  10  23  43  67  95 122 165 227 265 309 388
#     4   9  21  40  66  93 124 175 212 270 306 394
#
# _framework density 21.270412
#
# number of rings (size 3 to 8) (size 9 to 14) (size 15 to 20)
#    0.600    1.200    1.000    1.800    9.800    0.800 
#    1.800    0.000    0.000    0.000    0.000    0.000 
#    0.000    0.000    0.000    0.000    0.000    0.000 
#
# Total GULP energy -495665.922722 kJ/mol
# GULP energy per Si atom -12391.648068 kJ/mol
# Density = 2.122200 g / cm^3
# Si number density = 21.270412 Si / 1000 Ang^3
#
#
#
# Elastic Constant Matrix: (Units=GPa)
#
#
# Indices 1 2 3 4 5 6 
#
# 1 63.0248 -7.0365 36.2206 0.0000 0.0000 0.0000
# 2 -7.0365 51.5578 5.7929 0.0000 0.0000 0.0000
# 3 36.2206 5.7929 110.8395 0.0000 0.0000 0.0000
# 4 0.0000 0.0000 0.0000 23.2503 0.0000 0.0000
# 5 0.0000 0.0000 0.0000 0.0000 28.7144 0.0000
# 6 0.0000 0.0000 0.0000 0.0000 0.0000 33.6423
#
#
#
# Elastic Compliance Matrix: (Units=1/GPa)
#
#
# Indices 1 2 3 4 5 6 
#
# 1 0.020148 0.003510 -0.006768 0.000000 0.000000 0.000000
# 2 0.003510 0.020122 -0.002199 0.000000 0.000000 0.000000
# 3 -0.006768 -0.002199 0.011348 0.000000 0.000000 0.000000
# 4 0.000000 0.000000 0.000000 0.043010 0.000000 0.000000
# 5 0.000000 0.000000 0.000000 0.000000 0.034826 0.000000
# 6 0.000000 0.000000 0.000000 0.000000 0.000000 0.029725
#
#
# Mechanical properties :
#
#
# Convention : Reuss Voigt Hill
#
# Bulk Modulus (GPa) = 24.56632 32.81957 28.69295
# Shear Modulus (GPa) = 27.22429 29.81774 28.52102
#
# Velocity S-wave (km/s) = 3.58147 3.74818 3.66577
# Velocity P-wave (km/s) = 5.35511 5.84765 5.60679
#
# Compressibility (1/GPa) = 0.04070614
#
# Stress axis : x y z
#
# Youngs Moduli (GPa) = 49.63276 49.69731 88.11748
#
# Poissons Ratio (x) = -0.17444 0.59634
# Poissons Ratio (y) = -0.17422 0.19374
# Poissons Ratio (z) = 0.33589 0.10927
#
# Static dielectric constant tensor:
#      x y z
#    x 3.623460 0.000000 0.000000 
#    y 0.000000 3.945080 0.000000 
#    z 0.000000 0.000000 4.052930 
# 
# 
# High freq. dielectric constant tensor:
#      x y z
#    x 1.815080 0.000000 0.000000 
#    y 0.000000 1.836050 0.000000 
#    z 0.000000 0.000000 1.848400 
# 
# From -- ./inp_files/19451.got.cif
#   From: 2010.03.12/outbox.cif.g09.slc.cpg/sg57_10_cif.got.tgz:19451.got - 2010.04.16 15:48:40.
