data_PCOD8234410
_publ_section_title
;
Structure prediction by ZEFSAII (Michael W. Deem and Ramdas Pophale) SiO2 
 PCOD8234410
Probable space group: P B C M
;
_chemical_formula_sum "Si O2"
_cell_formula_units_Z 48
_cell_length_a 8.003396
_cell_length_b 15.382302
_cell_length_c 18.689386
_cell_angle_alpha 90.000000
_cell_angle_beta 90.000000
_cell_angle_gamma 90.000000
_cell_volume 2300.862539
_symmetry_space_group_name_H-M "P B C M"
_symmetry_group_IT_number 57
_symmetry_cell_setting 'orthorhombic'
loop_
_space_group_symop_operation_xyz
x,y,z
-x,-y,1/2+z
x,1/2-y,-z
-x,1/2+y,1/2-z
-x,-y,-z
x,y,1/2-z
-x,1/2+y,z
x,1/2-y,1/2+z
loop_
_atom_site_type_symbol
_atom_site_label
_atom_site_fract_x
_atom_site_fract_y
_atom_site_fract_z
Si Si1 0.166661 0.629484 0.113183
Si Si2 0.220570 0.128962 0.097274
Si Si3 0.319642 0.817092 0.110185
Si Si4 0.443911 0.592199 0.750000
Si Si5 0.294710 0.546730 0.250000
Si Si6 0.175508 0.540327 0.524143
Si Si7 0.566004 0.750000 0.000000
Si Si8 0.346370 0.092926 0.250000
O O1 0.248900 0.722272 0.127703
O O2 0.180346 0.566436 0.181411
O O3 0.976276 0.644528 0.090519
O O4 0.260219 0.579754 0.047786
O O5 0.266599 0.135773 0.180407
O O6 0.278591 0.037536 0.061564
O O7 0.316256 0.203385 0.056406
O O8 0.413807 0.850290 0.180340
O O9 0.170596 0.881938 0.083619
O O10 0.451778 0.815831 0.045314
O O11 0.634797 0.552918 0.750000
O O12 0.313913 0.511275 0.750000
O O13 0.454348 0.611697 0.250000
O O14 0.000000 0.500000 0.500000
#
# Coordination Sequence:
#
# PCOD8234410 Si02
#       8
#     8   8   8   4   4   8   4   4
#     4  11  23  41  70  95 138 179 231 276 343 413
#     4  11  25  43  67  98 139 177 226 287 350 408
#     4  12  23  44  66 104 135 186 229 284 349 419
#     4  10  25  40  70  95 135 171 230 282 333 420
#     4  10  22  42  67  95 127 184 221 275 338 417
#     4  10  22  39  68  97 131 177 225 279 332 408
#     4  12  28  38  70 104 138 174 226 298 354 404
#     4  10  21  42  65  92 128 173 221 271 339 405
#
# _framework density 20.861743000000001
#
# number of rings (size 3 to 8) (size 9 to 14) (size 15 to 20)
#    0.500    0.667    3.333    2.000    7.000    1.333 
#    0.000    0.000    0.000    0.000    0.000    0.000 
#    0.000    0.000    0.000    0.000    0.000    0.000 
#
# Total GULP energy -594914.831500 kJ/mol
# GULP energy per Si atom -12394.058990 kJ/mol
# Density = 2.081426 g / cm^3
# Si number density = 20.861743 Si / 1000 Ang^3
#
#
#
# Elastic Constant Matrix: (Units=GPa)
#
#
# Indices 1 2 3 4 5 6 
#
# 1 76.7210 33.6355 33.5894 0.0000 0.0000 0.0000
# 2 33.6355 116.4225 63.0598 0.0000 0.0000 0.0000
# 3 33.5894 63.0598 162.1476 0.0000 0.0000 0.0000
# 4 0.0000 0.0000 0.0000 46.4475 0.0000 0.0000
# 5 0.0000 0.0000 0.0000 0.0000 25.1865 0.0000
# 6 0.0000 0.0000 0.0000 0.0000 0.0000 29.0940
#
#
#
# Elastic Compliance Matrix: (Units=1/GPa)
#
#
# Indices 1 2 3 4 5 6 
#
# 1 0.015347 -0.003436 -0.001843 0.000000 0.000000 0.000000
# 2 -0.003436 0.011651 -0.003819 0.000000 0.000000 0.000000
# 3 -0.001843 -0.003819 0.008034 0.000000 0.000000 0.000000
# 4 0.000000 0.000000 0.000000 0.021530 0.000000 0.000000
# 5 0.000000 0.000000 0.000000 0.000000 0.039704 0.000000
# 6 0.000000 0.000000 0.000000 0.000000 0.000000 0.034371
#
#
# Mechanical properties :
#
#
# Convention : Reuss Voigt Hill
#
# Bulk Modulus (GPa) = 59.39546 68.42895 63.91221
# Shear Modulus (GPa) = 32.37384 35.14603 33.75994
#
# Velocity S-wave (km/s) = 3.94360 4.10898 4.02714
# Velocity P-wave (km/s) = 7.01917 7.44204 7.23370
#
# Compressibility (1/GPa) = 0.01683630
#
# Stress axis : x y z
#
# Youngs Moduli (GPa) = 65.15750 85.83160 124.46531
#
# Poissons Ratio (x) = 0.29489 0.22940
# Poissons Ratio (y) = 0.22386 0.47537
# Poissons Ratio (z) = 0.12009 0.32782
#
# Static dielectric constant tensor:
#      x y z
#    x 3.539770 0.000000 0.000000 
#    y 0.000000 3.934300 0.000000 
#    z 0.000000 0.000000 4.066670 
# 
# 
# High freq. dielectric constant tensor:
#      x y z
#    x 1.793930 0.000000 0.000000 
#    y 0.000000 1.817890 0.000000 
#    z 0.000000 0.000000 1.838010 
# 
# From -- ./inp_files/21048.got.cif
#   From: 2010.03.12/outbox.cif.g09.slc.cpg/sg57_11_cif.got.tgz:21048.got - 2010.04.16 15:48:40.
