data_PCOD8234900
_publ_section_title
;
Structure prediction by ZEFSAII (Michael W. Deem and Ramdas Pophale) SiO2 
 PCOD8234900
Probable space group: P B C M
;
_chemical_formula_sum "Si O2"
_cell_formula_units_Z 48
_cell_length_a 16.673442
_cell_length_b 18.147529
_cell_length_c 8.829764
_cell_angle_alpha 90.000000
_cell_angle_beta 90.000000
_cell_angle_gamma 90.000000
_cell_volume 2671.725639
_symmetry_space_group_name_H-M "P B C M"
_symmetry_group_IT_number 57
_symmetry_cell_setting 'orthorhombic'
loop_
_space_group_symop_operation_xyz
x,y,z
-x,-y,1/2+z
x,1/2-y,-z
-x,1/2+y,1/2-z
-x,-y,-z
x,y,1/2-z
-x,1/2+y,z
x,1/2-y,1/2+z
loop_
_atom_site_type_symbol
_atom_site_label
_atom_site_fract_x
_atom_site_fract_y
_atom_site_fract_z
Si Si1 0.335794 0.174435 0.071498
Si Si2 0.417423 0.024029 0.428570
Si Si3 0.820885 0.599249 0.071523
Si Si4 0.257509 0.953612 0.070646
Si Si5 0.858010 0.170655 0.570074
Si Si6 0.002032 0.080862 0.070084
O O1 0.338220 0.183457 0.250000
O O2 0.392853 0.106732 0.020593
O O3 0.244380 0.158839 0.012622
O O4 0.368033 0.250000 0.000000
O O5 0.426515 0.020796 0.250000
O O6 0.500000 0.000000 0.500000
O O7 0.348901 0.966260 0.484888
O O8 0.810509 0.594292 0.250000
O O9 0.798736 0.518711 0.004144
O O10 0.912175 0.618526 0.028276
O O11 0.255836 0.958083 0.250000
O O12 0.220382 0.875849 0.018206
O O13 0.846150 0.250000 0.500000
O O14 0.866493 0.175639 0.750000
O O15 0.937128 0.133174 0.504788
O O16 0.989457 0.075583 0.250000
O O17 0.000000 0.000000 0.000000
#
# Coordination Sequence:
#
# PCOD8234900 Si02
#       6
#     8   8   8   8   8   8
#     4   9  18  33  53  76 105 138 170 208 259 312
#     4   9  18  34  57  81 104 135 173 213 260 316
#     4   8  15  30  52  74  97 133 175 211 252 307
#     4   8  15  32  55  73  96 135 173 207 259 318
#     4  11  22  37  54  75 105 142 183 227 273 319
#     4  11  20  33  54  79 107 143 184 225 267 315
#
# _framework density 17.965916
#
# number of rings (size 3 to 8) (size 9 to 14) (size 15 to 20)
#    0.000    2.667    1.667    3.000    0.000    1.333 
#    0.000    5.833    0.000    4.000    0.000    0.000 
#    0.000    0.000    0.000    0.000    0.000    0.000 
#
# Total GULP energy -594805.068116 kJ/mol
# GULP energy per Si atom -12391.772252 kJ/mol
# Density = 1.792502 g / cm^3
# Si number density = 17.965916 Si / 1000 Ang^3
#
#
#
# Elastic Constant Matrix: (Units=GPa)
#
#
# Indices 1 2 3 4 5 6 
#
# 1 158.0263 86.6561 41.3214 0.0000 0.0000 0.0000
# 2 86.6561 146.6219 39.9983 0.0000 0.0000 0.0000
# 3 41.3214 39.9983 48.3132 0.0000 0.0000 0.0000
# 4 0.0000 0.0000 0.0000 30.1038 0.0000 0.0000
# 5 0.0000 0.0000 0.0000 0.0000 25.6466 0.0000
# 6 0.0000 0.0000 0.0000 0.0000 0.0000 24.1238
#
#
#
# Elastic Compliance Matrix: (Units=1/GPa)
#
#
# Indices 1 2 3 4 5 6 
#
# 1 0.010157 -0.004693 -0.004802 0.000000 0.000000 0.000000
# 2 -0.004693 0.010978 -0.005075 0.000000 0.000000 0.000000
# 3 -0.004802 -0.005075 0.029007 0.000000 0.000000 0.000000
# 4 0.000000 0.000000 0.000000 0.033218 0.000000 0.000000
# 5 0.000000 0.000000 0.000000 0.000000 0.038991 0.000000
# 6 0.000000 0.000000 0.000000 0.000000 0.000000 0.041453
#
#
# Mechanical properties :
#
#
# Convention : Reuss Voigt Hill
#
# Bulk Modulus (GPa) = 47.61358 76.54588 62.07973
# Shear Modulus (GPa) = 25.00672 28.30720 26.65696
#
# Velocity S-wave (km/s) = 3.73486 3.97370 3.85613
# Velocity P-wave (km/s) = 6.72002 7.98451 7.37940
#
# Compressibility (1/GPa) = 0.02100241
#
# Stress axis : x y z
#
# Youngs Moduli (GPa) = 98.45188 91.08730 34.47463
#
# Poissons Ratio (x) = 0.42749 0.16554
# Poissons Ratio (y) = 0.46205 0.17496
# Poissons Ratio (z) = 0.47275 0.46227
#
# Static dielectric constant tensor:
#      x y z
#    x 3.749770 0.000000 0.000000 
#    y 0.000000 3.519260 0.000000 
#    z 0.000000 0.000000 3.065580 
# 
# 
# High freq. dielectric constant tensor:
#      x y z
#    x 1.697740 0.000000 0.000000 
#    y 0.000000 1.690980 0.000000 
#    z 0.000000 0.000000 1.669400 
# 
# From -- ./inp_files/6684.got.cif
#   From: 2010.03.12/outbox.cif.g09.slc.cpg/sg57_4_cif.got.tgz:6684.got - 2010.04.16 15:48:40.
