data_PCOD8234394
_publ_section_title
;
Structure prediction by ZEFSAII (Michael W. Deem and Ramdas Pophale) SiO2 
 PCOD8234394
Probable space group: P B C M
;
_chemical_formula_sum "Si O2"
_cell_formula_units_Z 48
_cell_length_a 12.874802
_cell_length_b 10.341441
_cell_length_c 17.080504
_cell_angle_alpha 90.000000
_cell_angle_beta 90.000000
_cell_angle_gamma 90.000000
_cell_volume 2274.166715
_symmetry_space_group_name_H-M "P B C M"
_symmetry_group_IT_number 57
_symmetry_cell_setting 'orthorhombic'
loop_
_space_group_symop_operation_xyz
x,y,z
-x,-y,1/2+z
x,1/2-y,-z
-x,1/2+y,1/2-z
-x,-y,-z
x,y,1/2-z
-x,1/2+y,z
x,1/2-y,1/2+z
loop_
_atom_site_type_symbol
_atom_site_label
_atom_site_fract_x
_atom_site_fract_y
_atom_site_fract_z
Si Si1 0.570110 0.271156 0.158796
Si Si2 0.076426 0.982782 0.073011
Si Si3 0.112389 0.004924 0.662665
Si Si4 0.805979 0.274183 0.160153
Si Si5 0.767232 0.887550 0.471110
Si Si6 0.555474 0.502428 0.918810
O O1 0.559124 0.247225 0.250000
O O2 0.687981 0.311173 0.137174
O O3 0.537943 0.136618 0.119517
O O4 0.491643 0.384390 0.134578
O O5 0.008471 0.034398 0.146537
O O6 0.114733 0.839438 0.098391
O O7 0.181321 0.058247 0.051226
O O8 0.000000 0.000000 0.000000
O O9 0.123736 0.061381 0.750000
O O10 0.183404 0.879317 0.651619
O O11 0.148268 0.114911 0.600098
O O12 0.830462 0.316595 0.250000
O O13 0.725305 0.750000 0.500000
O O14 0.675807 0.973584 0.436340
O O15 0.500000 0.500000 0.000000
#
# Coordination Sequence:
#
# PCOD8234394 Si02
#       6
#     8   8   8   8   8   8
#     4  11  24  43  71 100 135 179 231 288 347 411
#     4  10  23  37  62  94 130 170 221 269 330 392
#     4  10  22  41  66  92 125 172 225 276 332 396
#     4  10  21  41  66  95 126 171 225 277 334 398
#     4  11  24  41  61  94 134 172 217 270 339 400
#     4  12  24  43  67 100 136 179 227 281 346 414
#
# _framework density 21.106632000000001
#
# number of rings (size 3 to 8) (size 9 to 14) (size 15 to 20)
#    0.000    1.333    1.667    3.500    4.667    2.667 
#    0.000    0.833    0.000    0.000    0.000    0.000 
#    0.000    0.000    0.000    0.000    0.000    0.000 
#
# Total GULP energy -594796.494392 kJ/mol
# GULP energy per Si atom -12391.593633 kJ/mol
# Density = 2.105859 g / cm^3
# Si number density = 21.106632 Si / 1000 Ang^3
#
#
#
# Elastic Constant Matrix: (Units=GPa)
#
#
# Indices 1 2 3 4 5 6 
#
# 1 98.3497 19.7438 37.3340 0.0000 0.0000 0.0000
# 2 19.7438 78.5145 35.1493 0.0000 0.0000 0.0000
# 3 37.3340 35.1493 110.5615 0.0000 0.0000 0.0000
# 4 0.0000 0.0000 0.0000 39.9140 0.0000 0.0000
# 5 0.0000 0.0000 0.0000 0.0000 33.9351 0.0000
# 6 0.0000 0.0000 0.0000 0.0000 0.0000 34.6870
#
#
#
# Elastic Compliance Matrix: (Units=1/GPa)
#
#
# Indices 1 2 3 4 5 6 
#
# 1 0.011789 -0.001379 -0.003543 0.000000 0.000000 0.000000
# 2 -0.001379 0.015011 -0.004307 0.000000 0.000000 0.000000
# 3 -0.003543 -0.004307 0.011610 0.000000 0.000000 0.000000
# 4 0.000000 0.000000 0.000000 0.025054 0.000000 0.000000
# 5 0.000000 0.000000 0.000000 0.000000 0.029468 0.000000
# 6 0.000000 0.000000 0.000000 0.000000 0.000000 0.028829
#
#
# Mechanical properties :
#
#
# Convention : Reuss Voigt Hill
#
# Bulk Modulus (GPa) = 50.11376 52.43108 51.27242
# Shear Modulus (GPa) = 34.04375 34.72044 34.38210
#
# Velocity S-wave (km/s) = 4.02050 4.06026 4.04043
# Velocity P-wave (km/s) = 6.73404 6.84660 6.79055
#
# Compressibility (1/GPa) = 0.01995460
#
# Stress axis : x y z
#
# Youngs Moduli (GPa) = 84.82202 66.61668 86.13096
#
# Poissons Ratio (x) = 0.09184 0.30514
# Poissons Ratio (y) = 0.11694 0.37095
# Poissons Ratio (z) = 0.30050 0.28690
#
# Static dielectric constant tensor:
#      x y z
#    x 3.859200 0.000000 0.000000 
#    y 0.000000 3.500650 0.000000 
#    z 0.000000 0.000000 4.057200 
# 
# 
# High freq. dielectric constant tensor:
#      x y z
#    x 1.841060 0.000000 0.000000 
#    y 0.000000 1.807510 0.000000 
#    z 0.000000 0.000000 1.837730 
# 
# From -- ./inp_files/22388.got.cif
#   From: 2010.03.12/outbox.cif.g09.slc.cpg/sg57_12_cif.got.tgz:22388.got - 2010.04.16 15:48:40.
