data_PCOD8234360
_publ_section_title
;
Structure prediction by ZEFSAII (Michael W. Deem and Ramdas Pophale) SiO2 
 PCOD8234360
Probable space group: P B C M
;
_chemical_formula_sum "Si O2"
_cell_formula_units_Z 56
_cell_length_a 5.147752
_cell_length_b 21.135063
_cell_length_c 24.046303
_cell_angle_alpha 90.000000
_cell_angle_beta 90.000000
_cell_angle_gamma 90.000000
_cell_volume 2616.191185
_symmetry_space_group_name_H-M "P B C M"
_symmetry_group_IT_number 57
_symmetry_cell_setting 'orthorhombic'
loop_
_space_group_symop_operation_xyz
x,y,z
-x,-y,1/2+z
x,1/2-y,-z
-x,1/2+y,1/2-z
-x,-y,-z
x,y,1/2-z
-x,1/2+y,z
x,1/2-y,1/2+z
loop_
_atom_site_type_symbol
_atom_site_label
_atom_site_fract_x
_atom_site_fract_y
_atom_site_fract_z
Si Si1 0.786437 0.525258 0.960271
Si Si2 0.366385 0.699438 0.381521
Si Si3 0.424859 0.894508 0.518600
Si Si4 0.730323 0.948262 0.750000
Si Si5 0.255530 0.838862 0.409623
Si Si6 0.852242 0.829673 0.812036
Si Si7 0.771992 0.603080 0.637509
Si Si8 0.775415 0.533382 0.750000
O O1 0.596490 0.465415 0.956510
O O2 0.870254 0.541514 0.897600
O O3 0.688075 0.594045 0.983470
O O4 0.000000 0.500000 0.000000
O O5 0.450684 0.651503 0.429773
O O6 0.316904 0.764823 0.413055
O O7 0.610643 0.706775 0.340106
O O8 0.112082 0.675423 0.348798
O O9 0.218456 0.867919 0.472447
O O10 0.770110 0.903775 0.804797
O O11 0.443746 0.978697 0.750000
O O12 0.941690 0.002885 0.750000
O O13 0.484285 0.874866 0.378002
O O14 0.991126 0.843757 0.373523
O O15 0.902503 0.800406 0.750000
O O16 0.751772 0.581884 0.700096
#
# Coordination Sequence:
#
# PCOD8234360 Si02
#       8
#     8   8   8   4   8   8   8   4
#     4  10  21  40  66  96 137 171 213 285 342 398
#     4  12  24  43  72  95 131 189 219 279 338 391
#     4  10  24  39  66 103 132 174 227 274 347 399
#     4  10  24  42  65  92 141 152 222 282 322 398
#     4  11  24  47  62  99 137 175 228 277 315 413
#     4  10  25  44  63 101 131 168 227 278 338 396
#     4  11  25  43  67  96 137 172 230 270 341 401
#     4  12  24  44  67 102 125 186 210 278 342 402
#
# _framework density 21.405163000000002
#
# number of rings (size 3 to 8) (size 9 to 14) (size 15 to 20)
#    0.429    0.857    1.429    3.429    6.000    0.000 
#    7.714    2.857    0.000    0.000    0.000    0.000 
#    0.000    0.000    0.000    0.000    0.000    0.000 
#
# Total GULP energy -693822.252989 kJ/mol
# GULP energy per Si atom -12389.683089 kJ/mol
# Density = 2.135644 g / cm^3
# Si number density = 21.405163 Si / 1000 Ang^3
#
#
#
# Elastic Constant Matrix: (Units=GPa)
#
#
# Indices 1 2 3 4 5 6 
#
# 1 87.1980 5.9029 24.8836 0.0000 0.0000 0.0000
# 2 5.9029 101.1878 47.2966 0.0000 0.0000 0.0000
# 3 24.8836 47.2966 131.7171 0.0000 0.0000 0.0000
# 4 0.0000 0.0000 0.0000 26.1821 0.0000 0.0000
# 5 0.0000 0.0000 0.0000 0.0000 25.8219 0.0000
# 6 0.0000 0.0000 0.0000 0.0000 0.0000 34.0139
#
#
#
# Elastic Compliance Matrix: (Units=1/GPa)
#
#
# Indices 1 2 3 4 5 6 
#
# 1 0.012138 0.000437 -0.002450 0.000000 0.000000 0.000000
# 2 0.000437 0.011892 -0.004353 0.000000 0.000000 0.000000
# 3 -0.002450 -0.004353 0.009618 0.000000 0.000000 0.000000
# 4 0.000000 0.000000 0.000000 0.038194 0.000000 0.000000
# 5 0.000000 0.000000 0.000000 0.000000 0.038727 0.000000
# 6 0.000000 0.000000 0.000000 0.000000 0.000000 0.029400
#
#
# Mechanical properties :
#
#
# Convention : Reuss Voigt Hill
#
# Bulk Modulus (GPa) = 47.80992 52.91877 50.36435
# Shear Modulus (GPa) = 31.31447 33.33823 32.32635
#
# Velocity S-wave (km/s) = 3.82899 3.95078 3.89036
# Velocity P-wave (km/s) = 6.47552 6.75186 6.61514
#
# Compressibility (1/GPa) = 0.02091616
#
# Stress axis : x y z
#
# Youngs Moduli (GPa) = 82.38794 84.09318 103.97415
#
# Poissons Ratio (x) = -0.03676 0.25473
# Poissons Ratio (y) = -0.03601 0.45255
# Poissons Ratio (z) = 0.20185 0.36602
#
# Static dielectric constant tensor:
#      x y z
#    x 3.764250 0.000000 0.000000 
#    y 0.000000 3.217690 0.000000 
#    z 0.000000 0.000000 3.672850 
# 
# 
# High freq. dielectric constant tensor:
#      x y z
#    x 1.844160 0.000000 0.000000 
#    y 0.000000 1.836960 0.000000 
#    z 0.000000 0.000000 1.842740 
# 
# From -- ./inp_files/26329.got.cif
#   From: 2010.03.12/outbox.cif.g09.slc.cpg/sg57_14_cif.got.tgz:26329.got - 2010.04.16 15:48:40.
