data_PCOD8234458
_publ_section_title
;
Structure prediction by ZEFSAII (Michael W. Deem and Ramdas Pophale) SiO2 
 PCOD8234458
Probable space group: P B C M
;
_chemical_formula_sum "Si O2"
_cell_formula_units_Z 40
_cell_length_a 7.767497
_cell_length_b 28.648900
_cell_length_c 8.808704
_cell_angle_alpha 90.000000
_cell_angle_beta 90.000000
_cell_angle_gamma 90.000000
_cell_volume 1960.203058
_symmetry_space_group_name_H-M "P B C M"
_symmetry_group_IT_number 57
_symmetry_cell_setting 'orthorhombic'
loop_
_space_group_symop_operation_xyz
x,y,z
-x,-y,1/2+z
x,1/2-y,-z
-x,1/2+y,1/2-z
-x,-y,-z
x,y,1/2-z
-x,1/2+y,z
x,1/2-y,1/2+z
loop_
_atom_site_type_symbol
_atom_site_label
_atom_site_fract_x
_atom_site_fract_y
_atom_site_fract_z
Si Si1 0.573863 0.146307 0.930621
Si Si2 0.075141 0.640141 0.428833
Si Si3 0.743394 0.699937 0.070287
Si Si4 0.554916 0.952330 0.076357
Si Si5 0.953405 0.951506 0.425988
O O1 0.563000 0.150342 0.750000
O O2 0.546131 0.092797 0.986957
O O3 0.759006 0.163528 0.991092
O O4 0.430122 0.179321 0.001308
O O5 0.103839 0.640291 0.250000
O O6 0.905397 0.668216 0.476951
O O7 0.061908 0.587474 0.487890
O O8 0.723392 0.703541 0.250000
O O9 0.779399 0.750000 0.000000
O O10 0.508993 0.959557 0.250000
O O11 0.753747 0.941246 0.050057
O O12 0.500000 0.000000 0.000000
O O13 0.006542 0.951578 0.250000
O O14 0.000000 0.000000 0.500000
#
# Coordination Sequence:
#
# PCOD8234458 Si02
#       5
#     8   8   8   8   8
#     4  11  23  42  67  95 130 172 216 267 326 386
#     4  11  24  42  65  96 131 171 217 268 326 387
#     4  11  25  45  70  97 129 169 216 271 327 387
#     4  10  22  37  57  87 125 168 213 262 316 378
#     4  11  22  38  59  89 128 171 219 267 322 385
#
# _framework density 20.406048999999999
#
# number of rings (size 3 to 8) (size 9 to 14) (size 15 to 20)
#    0.000    1.200    2.000    3.600    0.000    9.600 
#    0.000    2.000    0.000    0.000    0.000    0.000 
#    0.000    0.000    0.000    0.000    0.000    0.000 
#
# Total GULP energy -496186.147071 kJ/mol
# GULP energy per Si atom -12404.653677 kJ/mol
# Density = 2.035960 g / cm^3
# Si number density = 20.406049 Si / 1000 Ang^3
#
#
#
# Elastic Constant Matrix: (Units=GPa)
#
#
# Indices 1 2 3 4 5 6 
#
# 1 112.1534 48.7938 46.3257 0.0000 0.0000 0.0000
# 2 48.7938 114.1907 45.7755 0.0000 0.0000 0.0000
# 3 46.3257 45.7755 84.7335 0.0000 0.0000 0.0000
# 4 0.0000 0.0000 0.0000 37.5823 0.0000 0.0000
# 5 0.0000 0.0000 0.0000 0.0000 38.1638 0.0000
# 6 0.0000 0.0000 0.0000 0.0000 0.0000 34.3445
#
#
#
# Elastic Compliance Matrix: (Units=1/GPa)
#
#
# Indices 1 2 3 4 5 6 
#
# 1 0.012421 -0.003300 -0.005008 0.000000 0.000000 0.000000
# 2 -0.003300 0.012055 -0.004708 0.000000 0.000000 0.000000
# 3 -0.005008 -0.004708 0.017083 0.000000 0.000000 0.000000
# 4 0.000000 0.000000 0.000000 0.026608 0.000000 0.000000
# 5 0.000000 0.000000 0.000000 0.000000 0.026203 0.000000
# 6 0.000000 0.000000 0.000000 0.000000 0.000000 0.029117
#
#
# Mechanical properties :
#
#
# Convention : Reuss Voigt Hill
#
# Bulk Modulus (GPa) = 64.40606 65.87418 65.14012
# Shear Modulus (GPa) = 32.32196 33.36363 32.84279
#
# Velocity S-wave (km/s) = 3.98419 4.04788 4.01616
# Velocity P-wave (km/s) = 7.26607 7.36199 7.31419
#
# Compressibility (1/GPa) = 0.01552649
#
# Stress axis : x y z
#
# Youngs Moduli (GPa) = 80.51177 82.95548 58.53710
#
# Poissons Ratio (x) = 0.27373 0.29315
# Poissons Ratio (y) = 0.26567 0.27561
# Poissons Ratio (z) = 0.40320 0.39057
#
# Static dielectric constant tensor:
#      x y z
#    x 3.940390 0.000000 0.000000 
#    y 0.000000 5.526830 0.000000 
#    z 0.000000 0.000000 4.915680 
# 
# 
# High freq. dielectric constant tensor:
#      x y z
#    x 1.816150 0.000000 0.000000 
#    y 0.000000 1.798680 0.000000 
#    z 0.000000 0.000000 1.804860 
# 
# From -- ./inp_files/1479.got.cif
#   From: 2010.03.12/outbox.cif.g09.slc.cpg/sg57_1_cif.got.tgz:1479.got - 2010.04.16 15:48:40.
