data_PCOD8234119
_publ_section_title
;
Structure prediction by ZEFSAII (Michael W. Deem and Ramdas Pophale) SiO2 
 PCOD8234119
Probable space group: P B C M
;
_chemical_formula_sum "Si O2"
_cell_formula_units_Z 56
_cell_length_a 15.933681
_cell_length_b 9.840415
_cell_length_c 18.426475
_cell_angle_alpha 90.000000
_cell_angle_beta 90.000000
_cell_angle_gamma 90.000000
_cell_volume 2889.161339
_symmetry_space_group_name_H-M "P B C M"
_symmetry_group_IT_number 57
_symmetry_cell_setting 'orthorhombic'
loop_
_space_group_symop_operation_xyz
x,y,z
-x,-y,1/2+z
x,1/2-y,-z
-x,1/2+y,1/2-z
-x,-y,-z
x,y,1/2-z
-x,1/2+y,z
x,1/2-y,1/2+z
loop_
_atom_site_type_symbol
_atom_site_label
_atom_site_fract_x
_atom_site_fract_y
_atom_site_fract_z
Si Si1 0.968397 0.375244 0.547800
Si Si2 0.788205 0.122862 0.088885
Si Si3 0.853962 0.688539 0.420354
Si Si4 0.268043 0.371644 0.165381
Si Si5 0.413557 0.535182 0.665334
Si Si6 0.248790 0.578582 0.925200
Si Si7 0.443298 0.269646 0.333418
O O1 0.933689 0.250000 0.500000
O O2 0.886555 0.421577 0.592215
O O3 0.000000 0.500000 0.500000
O O4 0.046115 0.320858 0.596209
O O5 0.780173 0.280147 0.111521
O O6 0.740206 0.031029 0.147544
O O7 0.743377 0.095655 0.011702
O O8 0.837961 0.750000 0.500000
O O9 0.811247 0.789533 0.364396
O O10 0.819322 0.537103 0.410276
O O11 0.268587 0.347194 0.250000
O O12 0.354786 0.314691 0.130403
O O13 0.387208 0.558389 0.750000
O O14 0.334743 0.534462 0.612235
O O15 0.459113 0.389972 0.656658
O O16 0.477485 0.648608 0.634270
O O17 0.438645 0.313597 0.250000
#
# Coordination Sequence:
#
# PCOD8234119 Si02
#       7
#     8   8   8   8   8   8   8
#     4  11  18  34  60  91 114 153 205 250 292 353
#     4  11  22  38  57  90 126 158 203 249 301 364
#     4  11  20  36  65  90 115 159 204 256 303 355
#     4  11  23  40  61  87 122 163 205 248 306 371
#     4  10  21  38  61  88 116 155 201 251 305 360
#     4  11  21  36  60  88 125 154 200 257 297 363
#     4   9  20  37  59  85 114 151 201 245 294 371
#
# _framework density 19.382788000000001
#
# number of rings (size 3 to 8) (size 9 to 14) (size 15 to 20)
#    0.000    1.429    5.714    0.857    2.000    0.571 
#    0.000    1.429    3.143    1.714    0.000    0.000 
#    0.000    0.000    0.000    0.000    0.000    0.000 
#
# Total GULP energy -694292.340647 kJ/mol
# GULP energy per Si atom -12398.077512 kJ/mol
# Density = 1.933867 g / cm^3
# Si number density = 19.382788 Si / 1000 Ang^3
#
#
#
# Elastic Constant Matrix: (Units=GPa)
#
#
# Indices 1 2 3 4 5 6 
#
# 1 102.2263 18.5918 31.8968 0.0000 0.0000 0.0000
# 2 18.5918 110.8575 16.9224 0.0000 0.0000 0.0000
# 3 31.8968 16.9224 45.8592 0.0000 0.0000 0.0000
# 4 0.0000 0.0000 0.0000 27.9892 0.0000 0.0000
# 5 0.0000 0.0000 0.0000 0.0000 24.6781 0.0000
# 6 0.0000 0.0000 0.0000 0.0000 0.0000 39.9656
#
#
#
# Elastic Compliance Matrix: (Units=1/GPa)
#
#
# Indices 1 2 3 4 5 6 
#
# 1 0.012563 -0.000819 -0.008436 0.000000 0.000000 0.000000
# 2 -0.000819 0.009612 -0.002977 0.000000 0.000000 0.000000
# 3 -0.008436 -0.002977 0.028772 0.000000 0.000000 0.000000
# 4 0.000000 0.000000 0.000000 0.035728 0.000000 0.000000
# 5 0.000000 0.000000 0.000000 0.000000 0.040522 0.000000
# 6 0.000000 0.000000 0.000000 0.000000 0.000000 0.025022
#
#
# Mechanical properties :
#
#
# Convention : Reuss Voigt Hill
#
# Bulk Modulus (GPa) = 37.76018 43.75166 40.75592
# Shear Modulus (GPa) = 26.95242 31.29538 29.12390
#
# Velocity S-wave (km/s) = 3.73303 4.02256 3.88050
# Velocity P-wave (km/s) = 6.17287 6.64802 6.41484
#
# Compressibility (1/GPa) = 0.02648293
#
# Stress axis : x y z
#
# Youngs Moduli (GPa) = 79.59598 104.03166 34.75586
#
# Poissons Ratio (x) = 0.08523 0.29320
# Poissons Ratio (y) = 0.06521 0.10348
# Poissons Ratio (z) = 0.67148 0.30973
#
# Static dielectric constant tensor:
#      x y z
#    x 3.786900 0.000000 0.000000 
#    y 0.000000 3.839680 0.000000 
#    z 0.000000 0.000000 3.128460 
# 
# 
# High freq. dielectric constant tensor:
#      x y z
#    x 1.763700 0.000000 0.000000 
#    y 0.000000 1.781990 0.000000 
#    z 0.000000 0.000000 1.702320 
# 
# From -- ./inp_files/25374.got.cif
#   From: 2010.03.12/outbox.cif.g09.slc.cpg/sg57_13_cif.got.tgz:25374.got - 2010.04.16 15:48:40.
