data_PCOD8234969
_publ_section_title
;
Structure prediction by ZEFSAII (Michael W. Deem and Ramdas Pophale) SiO2 
 PCOD8234969
Probable space group: P B C M
;
_chemical_formula_sum "Si O2"
_cell_formula_units_Z 48
_cell_length_a 11.361690
_cell_length_b 23.552490
_cell_length_c 8.930142
_cell_angle_alpha 90.000000
_cell_angle_beta 90.000000
_cell_angle_gamma 90.000000
_cell_volume 2389.671083
_symmetry_space_group_name_H-M "P B C M"
_symmetry_group_IT_number 57
_symmetry_cell_setting 'orthorhombic'
loop_
_space_group_symop_operation_xyz
x,y,z
-x,-y,1/2+z
x,1/2-y,-z
-x,1/2+y,1/2-z
-x,-y,-z
x,y,1/2-z
-x,1/2+y,z
x,1/2-y,1/2+z
loop_
_atom_site_type_symbol
_atom_site_label
_atom_site_fract_x
_atom_site_fract_y
_atom_site_fract_z
Si Si1 0.234478 0.525774 0.574061
Si Si2 0.467488 0.584428 0.579381
Si Si3 0.291581 0.403887 0.575031
Si Si4 0.860023 0.811928 0.428167
Si Si5 0.097958 0.630825 0.571724
Si Si6 0.323992 0.805297 0.082133
O O1 0.244632 0.536952 0.750000
O O2 0.362422 0.545409 0.512018
O O3 0.210725 0.459558 0.537437
O O4 0.128187 0.566356 0.513768
O O5 0.501929 0.567612 0.750000
O O6 0.577214 0.578202 0.469183
O O7 0.427863 0.649573 0.574103
O O8 0.285856 0.388767 0.750000
O O9 0.250370 0.349867 0.479338
O O10 0.852175 0.750000 0.500000
O O11 0.859573 0.805597 0.250000
O O12 0.975168 0.845020 0.491031
O O13 0.093089 0.631319 0.750000
O O14 0.202675 0.670892 0.510871
O O15 0.295462 0.787414 0.250000
O O16 0.370453 0.750000 0.000000
#
# Coordination Sequence:
#
# PCOD8234969 Si02
#       6
#     8   8   8   8   8   8
#     4   8  16  33  57  83 109 137 172 219 272 321
#     4   9  18  34  54  76 106 144 182 219 265 317
#     4  11  22  35  54  80 110 143 179 218 261 314
#     4  11  23  39  58  78 105 142 181 219 261 314
#     4   8  16  33  56  80 105 135 171 214 268 320
#     4   9  17  30  51  77 103 133 171 218 268 316
#
# _framework density 20.086448000000001
#
# number of rings (size 3 to 8) (size 9 to 14) (size 15 to 20)
#    0.000    2.667    0.000    4.000    0.000    2.000 
#    0.000    3.333    0.000    7.000    0.000    0.000 
#    0.000    0.000    0.000    0.000    0.000    0.000 
#
# Total GULP energy -594904.615225 kJ/mol
# GULP energy per Si atom -12393.846151 kJ/mol
# Density = 2.004073 g / cm^3
# Si number density = 20.086448 Si / 1000 Ang^3
#
#
#
# Elastic Constant Matrix: (Units=GPa)
#
#
# Indices 1 2 3 4 5 6 
#
# 1 61.5432 37.0361 15.2827 0.0000 0.0000 0.0000
# 2 37.0361 130.7541 39.4864 0.0000 0.0000 0.0000
# 3 15.2827 39.4864 54.2124 0.0000 0.0000 0.0000
# 4 0.0000 0.0000 0.0000 21.8163 0.0000 0.0000
# 5 0.0000 0.0000 0.0000 0.0000 21.9892 0.0000
# 6 0.0000 0.0000 0.0000 0.0000 0.0000 17.8794
#
#
#
# Elastic Compliance Matrix: (Units=1/GPa)
#
#
# Indices 1 2 3 4 5 6 
#
# 1 0.019741 -0.005014 -0.001913 0.000000 0.000000 0.000000
# 2 -0.005014 0.011078 -0.006655 0.000000 0.000000 0.000000
# 3 -0.001913 -0.006655 0.023833 0.000000 0.000000 0.000000
# 4 0.000000 0.000000 0.000000 0.045837 0.000000 0.000000
# 5 0.000000 0.000000 0.000000 0.000000 0.045477 0.000000
# 6 0.000000 0.000000 0.000000 0.000000 0.000000 0.055930
#
#
# Mechanical properties :
#
#
# Convention : Reuss Voigt Hill
#
# Bulk Modulus (GPa) = 36.38070 47.79110 42.08590
# Shear Modulus (GPa) = 20.98869 22.65062 21.81965
#
# Velocity S-wave (km/s) = 3.23603 3.36170 3.29946
# Velocity P-wave (km/s) = 5.66691 6.23798 5.95929
#
# Compressibility (1/GPa) = 0.02748710
#
# Stress axis : x y z
#
# Youngs Moduli (GPa) = 50.65555 90.26905 41.95895
#
# Poissons Ratio (x) = 0.45260 0.08027
# Poissons Ratio (y) = 0.25398 0.27925
# Poissons Ratio (z) = 0.09691 0.60077
#
# Static dielectric constant tensor:
#      x y z
#    x 3.601240 0.000000 0.000000 
#    y 0.000000 3.799930 0.000000 
#    z 0.000000 0.000000 3.244440 
# 
# 
# High freq. dielectric constant tensor:
#      x y z
#    x 1.773980 0.000000 0.000000 
#    y 0.000000 1.797480 0.000000 
#    z 0.000000 0.000000 1.747150 
# 
# From -- ./inp_files/3150.got.cif
#   From: 2010.03.12/outbox.cif.g09.slc.cpg/sg57_2_cif.got.tgz:3150.got - 2010.04.16 15:48:40.
