data_PCOD8234874
_publ_section_title
;
Structure prediction by ZEFSAII (Michael W. Deem and Ramdas Pophale) SiO2 
 PCOD8234874
Probable space group: P B C M
;
_chemical_formula_sum "Si O2"
_cell_formula_units_Z 32
_cell_length_a 9.539082
_cell_length_b 15.680640
_cell_length_c 9.434345
_cell_angle_alpha 90.000000
_cell_angle_beta 90.000000
_cell_angle_gamma 90.000000
_cell_volume 1411.179049
_symmetry_space_group_name_H-M "P B C M"
_symmetry_group_IT_number 57
_symmetry_cell_setting 'orthorhombic'
loop_
_space_group_symop_operation_xyz
x,y,z
-x,-y,1/2+z
x,1/2-y,-z
-x,1/2+y,1/2-z
-x,-y,-z
x,y,1/2-z
-x,1/2+y,z
x,1/2-y,1/2+z
loop_
_atom_site_type_symbol
_atom_site_label
_atom_site_fract_x
_atom_site_fract_y
_atom_site_fract_z
Si Si1 0.070771 0.420603 0.250000
Si Si2 0.837317 0.846426 0.969513
Si Si3 0.350733 0.750000 0.500000
Si Si4 0.771099 0.359237 0.250000
Si Si5 0.397167 0.858846 0.750000
Si Si6 0.060961 0.616179 0.250000
Si Si7 0.336894 0.050516 0.250000
O O1 0.936752 0.360914 0.250000
O O2 0.160793 0.400086 0.387155
O O3 0.020080 0.517473 0.250000
O O4 0.722183 0.898734 0.883747
O O5 0.988671 0.843333 0.889521
O O6 0.787861 0.750000 0.000000
O O7 0.261797 0.690009 0.604979
O O8 0.442016 0.808064 0.606982
O O9 0.698632 0.451306 0.250000
O O10 0.228779 0.872916 0.750000
O O11 0.492199 0.943782 0.750000
#
# Coordination Sequence:
#
# PCOD8234874 Si02
#       7
#     4   8   4   4   4   4   4
#     4  12  23  40  70 102 137 175 240 294 342 417
#     4  11  25  44  68 102 143 187 231 292 351 408
#     4  10  26  44  72 102 142 180 230 290 348 420
#     4  11  24  47  73 107 138 181 232 292 353 413
#     4  11  26  46  69 102 139 188 229 283 346 413
#     4  11  24  42  68 102 136 178 238 289 353 411
#     4  11  27  49  68 101 146 190 235 282 346 420
#
# _framework density 22.676075000000001
#
# number of rings (size 3 to 8) (size 9 to 14) (size 15 to 20)
#    0.000    1.000    2.500    3.750   15.750    1.000 
#    0.000    0.000    0.000    0.000    0.000    0.000 
#    0.000    0.000    0.000    0.000    0.000    0.000 
#
# Total GULP energy -396626.930861 kJ/mol
# GULP energy per Si atom -12394.591589 kJ/mol
# Density = 2.262446 g / cm^3
# Si number density = 22.676075 Si / 1000 Ang^3
#
#
#
# Elastic Constant Matrix: (Units=GPa)
#
#
# Indices 1 2 3 4 5 6 
#
# 1 100.6075 21.8633 29.9408 0.0000 0.0000 0.0000
# 2 21.8633 146.7225 51.8090 0.0000 0.0000 0.0000
# 3 29.9408 51.8090 186.8933 0.0000 0.0000 0.0000
# 4 0.0000 0.0000 0.0000 48.6083 0.0000 0.0000
# 5 0.0000 0.0000 0.0000 0.0000 -3.1525 0.0000
# 6 0.0000 0.0000 0.0000 0.0000 0.0000 24.9169
#
#
#
# Elastic Compliance Matrix: (Units=1/GPa)
#
#
# Indices 1 2 3 4 5 6 
#
# 1 0.010591 -0.001085 -0.001396 0.000000 0.000000 0.000000
# 2 -0.001085 0.007666 -0.001951 0.000000 0.000000 0.000000
# 3 -0.001396 -0.001951 0.006115 0.000000 0.000000 0.000000
# 4 0.000000 0.000000 0.000000 0.020573 0.000000 0.000000
# 5 0.000000 0.000000 0.000000 0.000000 -0.317207 0.000000
# 6 0.000000 0.000000 0.000000 0.000000 0.000000 0.040133
#
#
# Mechanical properties :
#
#
# Convention : Reuss Voigt Hill
#
# Bulk Modulus (GPa) = 64.48489 71.27217 67.87853
# Shear Modulus (GPa) = -22.92580 36.11521 6.59471
#
# Velocity S-wave (km/s) = -3.18309 3.99514 1.70720
# Velocity P-wave (km/s) = 3.87166 7.26501 5.82108
#
# Compressibility (1/GPa) = 0.01550751
#
# Stress axis : x y z
#
# Youngs Moduli (GPa) = 94.42098 130.44032 163.52704
#
# Poissons Ratio (x) = 0.14156 0.22826
# Poissons Ratio (y) = 0.10247 0.31910
# Poissons Ratio (z) = 0.13180 0.25453
#
# Static dielectric constant tensor:
#      x y z
#    x 3.738620 0.000000 0.000000 
#    y 0.000000 4.247440 0.000000 
#    z 0.000000 0.000000 4.490780 
# 
# 
# High freq. dielectric constant tensor:
#      x y z
#    x 1.872610 0.000000 0.000000 
#    y 0.000000 1.905980 0.000000 
#    z 0.000000 0.000000 1.917900 
# 
# From -- ./inp_files/2472.got.cif
#   From: 2010.03.12/outbox.cif.g09.slc.cpg/sg57_2_cif.got.tgz:2472.got - 2010.04.16 15:48:40.
