data_PCOD8234795
_publ_section_title
;
Structure prediction by ZEFSAII (Michael W. Deem and Ramdas Pophale) SiO2 
 PCOD8234795
Probable space group: P B C M
;
_chemical_formula_sum "Si O2"
_cell_formula_units_Z 48
_cell_length_a 13.854996
_cell_length_b 17.151759
_cell_length_c 10.039501
_cell_angle_alpha 90.000000
_cell_angle_beta 90.000000
_cell_angle_gamma 90.000000
_cell_volume 2385.762444
_symmetry_space_group_name_H-M "P B C M"
_symmetry_group_IT_number 57
_symmetry_cell_setting 'orthorhombic'
loop_
_space_group_symop_operation_xyz
x,y,z
-x,-y,1/2+z
x,1/2-y,-z
-x,1/2+y,1/2-z
-x,-y,-z
x,y,1/2-z
-x,1/2+y,z
x,1/2-y,1/2+z
loop_
_atom_site_type_symbol
_atom_site_label
_atom_site_fract_x
_atom_site_fract_y
_atom_site_fract_z
Si Si1 0.104078 0.090090 0.982488
Si Si2 0.292891 0.673203 0.090358
Si Si3 0.799214 0.823391 0.250000
Si Si4 0.901495 0.417250 0.597836
Si Si5 0.585342 0.843566 0.750000
Si Si6 0.580914 0.839916 0.250000
Si Si7 0.798167 0.861649 0.750000
Si Si8 0.477761 0.909317 0.996937
O O1 0.142732 0.154166 0.881549
O O2 0.131667 0.005825 0.924867
O O3 0.153159 0.100160 0.123541
O O4 0.989021 0.102293 0.997886
O O5 0.311729 0.688284 0.250000
O O6 0.185712 0.641059 0.066825
O O7 0.364842 0.608172 0.028848
O O8 0.306535 0.750000 0.000000
O O9 0.693812 0.865805 0.250000
O O10 0.799324 0.731028 0.250000
O O11 0.936090 0.407120 0.750000
O O12 0.588745 0.751667 0.750000
O O13 0.687391 0.886852 0.750000
O O14 0.531584 0.868847 0.879127
O O15 0.519916 0.870391 0.372530
O O16 0.500000 0.000000 0.000000
#
# Coordination Sequence:
#
# PCOD8234795 Si02
#       8
#     8   8   4   8   4   4   4   8
#     4  11  22  43  67  97 133 173 220 276 330 394
#     4  11  26  48  70  99 137 179 225 279 337 400
#     4  11  24  40  69  97 129 175 215 270 339 391
#     4  10  23  44  69  95 131 181 217 271 338 390
#     4  11  23  45  63  95 134 171 216 272 335 392
#     4  11  25  43  69  93 138 177 212 268 343 396
#     4  11  24  38  65  99 131 167 217 274 327 397
#     4  12  26  42  68 100 128 179 224 275 327 393
#
# _framework density 20.119354000000001
#
# number of rings (size 3 to 8) (size 9 to 14) (size 15 to 20)
#    0.000    1.000    2.500    3.500    5.833    4.000 
#    3.000    0.000    0.000    0.000    0.000    0.000 
#    0.000    0.000    0.000    0.000    0.000    0.000 
#
# Total GULP energy -595189.819027 kJ/mol
# GULP energy per Si atom -12399.787896 kJ/mol
# Density = 2.007356 g / cm^3
# Si number density = 20.119354 Si / 1000 Ang^3
#
#
#
# Elastic Constant Matrix: (Units=GPa)
#
#
# Indices 1 2 3 4 5 6 
#
# 1 107.5632 29.9479 47.6892 0.0000 0.0000 0.0000
# 2 29.9479 63.1975 18.4941 0.0000 0.0000 0.0000
# 3 47.6892 18.4941 129.1084 0.0000 0.0000 0.0000
# 4 0.0000 0.0000 0.0000 40.9275 0.0000 0.0000
# 5 0.0000 0.0000 0.0000 0.0000 57.2073 0.0000
# 6 0.0000 0.0000 0.0000 0.0000 0.0000 31.4810
#
#
#
# Elastic Compliance Matrix: (Units=1/GPa)
#
#
# Indices 1 2 3 4 5 6 
#
# 1 0.012327 -0.004706 -0.003879 0.000000 0.000000 0.000000
# 2 -0.004706 0.018313 -0.000885 0.000000 0.000000 0.000000
# 3 -0.003879 -0.000885 0.009305 0.000000 0.000000 0.000000
# 4 0.000000 0.000000 0.000000 0.024433 0.000000 0.000000
# 5 0.000000 0.000000 0.000000 0.000000 0.017480 0.000000
# 6 0.000000 0.000000 0.000000 0.000000 0.000000 0.031765
#
#
# Mechanical properties :
#
#
# Convention : Reuss Voigt Hill
#
# Bulk Modulus (GPa) = 47.60962 54.68126 51.14544
# Shear Modulus (GPa) = 35.82551 39.50571 37.66561
#
# Velocity S-wave (km/s) = 4.22435 4.43602 4.33148
# Velocity P-wave (km/s) = 6.89264 7.31267 7.10576
#
# Compressibility (1/GPa) = 0.02100416
#
# Stress axis : x y z
#
# Youngs Moduli (GPa) = 81.12241 54.60730 107.46891
#
# Poissons Ratio (x) = 0.25700 0.41689
# Poissons Ratio (y) = 0.38179 0.09509
# Poissons Ratio (z) = 0.31468 0.04832
#
# Static dielectric constant tensor:
#      x y z
#    x 4.054910 0.000000 0.000000 
#    y 0.000000 3.788760 0.000000 
#    z 0.000000 0.000000 3.198840 
# 
# 
# High freq. dielectric constant tensor:
#      x y z
#    x 1.803930 0.000000 0.000000 
#    y 0.000000 1.786740 0.000000 
#    z 0.000000 0.000000 1.802280 
# 
# From -- ./inp_files/4782.got.cif
#   From: 2010.03.12/outbox.cif.g09.slc.cpg/sg57_3_cif.got.tgz:4782.got - 2010.04.16 15:48:40.
