data_PCOD8234808
_publ_section_title
;
Structure prediction by ZEFSAII (Michael W. Deem and Ramdas Pophale) SiO2 
 PCOD8234808
Probable space group: P B C M
;
_chemical_formula_sum "Si O2"
_cell_formula_units_Z 32
_cell_length_a 9.954149
_cell_length_b 14.163754
_cell_length_c 9.921647
_cell_angle_alpha 90.000000
_cell_angle_beta 90.000000
_cell_angle_gamma 90.000000
_cell_volume 1398.834335
_symmetry_space_group_name_H-M "P B C M"
_symmetry_group_IT_number 57
_symmetry_cell_setting 'orthorhombic'
loop_
_space_group_symop_operation_xyz
x,y,z
-x,-y,1/2+z
x,1/2-y,-z
-x,1/2+y,1/2-z
-x,-y,-z
x,y,1/2-z
-x,1/2+y,z
x,1/2-y,1/2+z
loop_
_atom_site_type_symbol
_atom_site_label
_atom_site_fract_x
_atom_site_fract_y
_atom_site_fract_z
Si Si1 0.766797 0.855409 0.476084
Si Si2 0.090651 0.038947 0.750000
Si Si3 0.129568 0.831627 0.750000
Si Si4 0.517774 0.410280 0.096036
Si Si5 0.853277 0.916696 0.750000
Si Si6 0.719037 0.250000 0.500000
O O1 0.815412 0.750000 0.500000
O O2 0.879312 0.903552 0.384510
O O3 0.623663 0.855278 0.402609
O O4 0.759179 0.910370 0.618780
O O5 0.177939 0.941606 0.750000
O O6 0.930841 0.017241 0.750000
O O7 0.184450 0.777993 0.879072
O O8 0.965962 0.832411 0.750000
O O9 0.552786 0.440060 0.250000
O O10 0.629405 0.339899 0.039221
O O11 0.500000 0.500000 0.000000
#
# Coordination Sequence:
#
# PCOD8234808 Si02
#       6
#     8   4   4   8   4   4
#     4  12  24  46  72 105 146 188 244 304 362 436
#     4  10  23  48  67 101 146 188 240 296 357 436
#     4  10  26  46  74 103 147 190 245 300 359 446
#     4  12  28  47  74 107 145 192 244 309 373 443
#     4  10  27  42  73 104 141 196 239 294 366 428
#     4  12  24  50  72 106 146 188 244 298 378 440
#
# _framework density 22.876190999999999
#
# number of rings (size 3 to 8) (size 9 to 14) (size 15 to 20)
#    0.750    0.000    3.750    3.000    5.250    0.000 
#    0.000    0.000    0.000    0.000    0.000    0.000 
#    0.000    0.000    0.000    0.000    0.000    0.000 
#
# Total GULP energy -396849.686776 kJ/mol
# GULP energy per Si atom -12401.552712 kJ/mol
# Density = 2.282412 g / cm^3
# Si number density = 22.876191 Si / 1000 Ang^3
#
#
#
# Elastic Constant Matrix: (Units=GPa)
#
#
# Indices 1 2 3 4 5 6 
#
# 1 44.3266 -5.6127 1.0009 0.0000 0.0000 0.0000
# 2 -5.6127 111.1880 36.4466 0.0000 0.0000 0.0000
# 3 1.0009 36.4466 169.7654 0.0000 0.0000 0.0000
# 4 0.0000 0.0000 0.0000 45.3510 0.0000 0.0000
# 5 0.0000 0.0000 0.0000 0.0000 39.0023 0.0000
# 6 0.0000 0.0000 0.0000 0.0000 0.0000 -13.0311
#
#
#
# Elastic Compliance Matrix: (Units=1/GPa)
#
#
# Indices 1 2 3 4 5 6 
#
# 1 0.022731 0.001282 -0.000409 0.000000 0.000000 0.000000
# 2 0.001282 0.009747 -0.002100 0.000000 0.000000 0.000000
# 3 -0.000409 -0.002100 0.006344 0.000000 0.000000 0.000000
# 4 0.000000 0.000000 0.000000 0.022050 0.000000 0.000000
# 5 0.000000 0.000000 0.000000 0.000000 0.025639 0.000000
# 6 0.000000 0.000000 0.000000 0.000000 0.000000 -0.076740
#
#
# Mechanical properties :
#
#
# Convention : Reuss Voigt Hill
#
# Bulk Modulus (GPa) = 27.49775 43.21662 35.35719
# Shear Modulus (GPa) = 205.34325 33.82746 119.58535
#
# Velocity S-wave (km/s) = 9.48461 3.84958 7.23799
# Velocity P-wave (km/s) = 11.48869 6.22026 9.23801
#
# Compressibility (1/GPa) = 0.03636661
#
# Stress axis : x y z
#
# Youngs Moduli (GPa) = 43.99214 102.59707 157.63524
#
# Poissons Ratio (x) = -0.13149 0.06450
# Poissons Ratio (y) = -0.05638 0.33105
# Poissons Ratio (z) = 0.01800 0.21546
#
# Static dielectric constant tensor:
#      x y z
#    x 3.979140 0.000000 0.000000 
#    y 0.000000 4.108030 0.000000 
#    z 0.000000 0.000000 4.630800 
# 
# 
# High freq. dielectric constant tensor:
#      x y z
#    x 1.898590 0.000000 0.000000 
#    y 0.000000 1.906280 0.000000 
#    z 0.000000 0.000000 1.920140 
# 
# From -- ./inp_files/2449.got.cif
#   From: 2010.03.12/outbox.cif.g09.slc.cpg/sg57_2_cif.got.tgz:2449.got - 2010.04.16 15:48:40.
