data_PCOD8234287
_publ_section_title
;
Structure prediction by ZEFSAII (Michael W. Deem and Ramdas Pophale) SiO2 
 PCOD8234287
Probable space group: P B C M
;
_chemical_formula_sum "Si O2"
_cell_formula_units_Z 64
_cell_length_a 11.956526
_cell_length_b 31.074539
_cell_length_c 8.609528
_cell_angle_alpha 90.000000
_cell_angle_beta 90.000000
_cell_angle_gamma 90.000000
_cell_volume 3198.814455
_symmetry_space_group_name_H-M "P B C M"
_symmetry_group_IT_number 57
_symmetry_cell_setting 'orthorhombic'
loop_
_space_group_symop_operation_xyz
x,y,z
-x,-y,1/2+z
x,1/2-y,-z
-x,1/2+y,1/2-z
-x,-y,-z
x,y,1/2-z
-x,1/2+y,z
x,1/2-y,1/2+z
loop_
_atom_site_type_symbol
_atom_site_label
_atom_site_fract_x
_atom_site_fract_y
_atom_site_fract_z
Si Si1 0.016038 0.204104 0.566734
Si Si2 0.003135 0.047629 0.430209
Si Si3 0.135614 0.875246 0.433838
Si Si4 0.369577 0.887362 0.928141
Si Si5 0.398657 0.133470 0.929449
Si Si6 0.744255 0.794350 0.931009
Si Si7 0.617653 0.012156 0.071892
Si Si8 0.256684 0.059989 0.071807
O O1 0.974783 0.250000 0.500000
O O2 0.015169 0.207777 0.750000
O O3 0.140153 0.192428 0.511490
O O4 0.937882 0.165232 0.509093
O O5 0.971263 0.044206 0.250000
O O6 0.916030 0.079433 0.511597
O O7 0.125738 0.068330 0.453718
O O8 0.000000 0.000000 0.500000
O O9 0.146800 0.876754 0.250000
O O10 0.255952 0.866652 0.509202
O O11 0.389451 0.873933 0.750000
O O12 0.358821 0.938063 0.946526
O O13 0.471216 0.870515 0.031815
O O14 0.384308 0.145797 0.750000
O O15 0.348506 0.170113 0.038400
O O16 0.332312 0.089673 0.962813
O O17 0.767086 0.789216 0.750000
O O18 0.697765 0.750000 0.000000
O O19 0.619802 0.997323 0.250000
O O20 0.500000 0.000000 0.000000
O O21 0.716269 0.988872 0.976699
O O22 0.291272 0.068108 0.250000
#
# Coordination Sequence:
#
# PCOD8234287 Si02
#       8
#     8   8   8   8   8   8   8   8
#     4  10  21  39  65  96 126 158 200 249 303 364
#     4  11  24  40  60  86 120 161 204 252 305 363
#     4  11  24  41  62  89 123 162 206 254 308 369
#     4  11  24  41  61  86 119 159 205 251 300 359
#     4  12  24  39  61  88 119 154 196 243 296 352
#     4  11  22  39  64  93 125 156 192 239 296 357
#     4  11  22  36  57  83 115 155 200 250 301 358
#     4  11  23  38  58  86 118 153 199 248 299 354
#
# _framework density 20.007413
#
# number of rings (size 3 to 8) (size 9 to 14) (size 15 to 20)
#    0.000    1.000    1.250    6.750    0.000    9.500 
#    0.000    0.625    0.000    1.500    0.000    0.000 
#    0.000    0.000    0.000    0.000    0.000    0.000 
#
# Total GULP energy -793962.065915 kJ/mol
# GULP energy per Si atom -12405.657280 kJ/mol
# Density = 1.996187 g / cm^3
# Si number density = 20.007413 Si / 1000 Ang^3
#
#
#
# Elastic Constant Matrix: (Units=GPa)
#
#
# Indices 1 2 3 4 5 6 
#
# 1 94.7644 41.3773 25.1542 0.0000 0.0000 0.0000
# 2 41.3773 100.7540 28.3139 0.0000 0.0000 0.0000
# 3 25.1542 28.3139 79.5492 0.0000 0.0000 0.0000
# 4 0.0000 0.0000 0.0000 33.2806 0.0000 0.0000
# 5 0.0000 0.0000 0.0000 0.0000 32.1266 0.0000
# 6 0.0000 0.0000 0.0000 0.0000 0.0000 35.2040
#
#
#
# Elastic Compliance Matrix: (Units=1/GPa)
#
#
# Indices 1 2 3 4 5 6 
#
# 1 0.013295 -0.004754 -0.002512 0.000000 0.000000 0.000000
# 2 -0.004754 0.012728 -0.003027 0.000000 0.000000 0.000000
# 3 -0.002512 -0.003027 0.014443 0.000000 0.000000 0.000000
# 4 0.000000 0.000000 0.000000 0.030048 0.000000 0.000000
# 5 0.000000 0.000000 0.000000 0.000000 0.031127 0.000000
# 6 0.000000 0.000000 0.000000 0.000000 0.000000 0.028406
#
#
# Mechanical properties :
#
#
# Convention : Reuss Voigt Hill
#
# Bulk Modulus (GPa) = 50.30252 51.63984 50.97118
# Shear Modulus (GPa) = 31.79476 32.13706 31.96591
#
# Velocity S-wave (km/s) = 3.99074 4.01216 4.00146
# Velocity P-wave (km/s) = 6.81404 6.87965 6.84693
#
# Compressibility (1/GPa) = 0.01987972
#
# Stress axis : x y z
#
# Youngs Moduli (GPa) = 75.21614 78.56556 69.23990
#
# Poissons Ratio (x) = 0.37351 0.17392
# Poissons Ratio (y) = 0.35758 0.20959
# Poissons Ratio (z) = 0.18893 0.23782
#
# Static dielectric constant tensor:
#      x y z
#    x 3.668860 0.000000 0.000000 
#    y 0.000000 3.661510 0.000000 
#    z 0.000000 0.000000 3.781700 
# 
# 
# High freq. dielectric constant tensor:
#      x y z
#    x 1.785030 0.000000 0.000000 
#    y 0.000000 1.778300 0.000000 
#    z 0.000000 0.000000 1.797610 
# 
# From -- ./inp_files/3891.got.cif
#   From: 2010.03.12/outbox.cif.g09.slc.cpg/sg57_2_cif.got.tgz:3891.got - 2010.04.16 15:48:40.
