data_PCOD8234948
_publ_section_title
;
Structure prediction by ZEFSAII (Michael W. Deem and Ramdas Pophale) SiO2 
 PCOD8234948
Probable space group: P B C M
;
_chemical_formula_sum "Si O2"
_cell_formula_units_Z 64
_cell_length_a 11.385364
_cell_length_b 16.539141
_cell_length_c 16.923373
_cell_angle_alpha 90.000000
_cell_angle_beta 90.000000
_cell_angle_gamma 90.000000
_cell_volume 3186.741208
_symmetry_space_group_name_H-M "P B C M"
_symmetry_group_IT_number 57
_symmetry_cell_setting 'orthorhombic'
loop_
_space_group_symop_operation_xyz
x,y,z
-x,-y,1/2+z
x,1/2-y,-z
-x,1/2+y,1/2-z
-x,-y,-z
x,y,1/2-z
-x,1/2+y,z
x,1/2-y,1/2+z
loop_
_atom_site_type_symbol
_atom_site_label
_atom_site_fract_x
_atom_site_fract_y
_atom_site_fract_z
Si Si1 0.304406 0.254471 0.842033
Si Si2 0.926607 0.165586 0.336883
Si Si3 0.143520 0.114027 0.405692
Si Si4 0.059249 0.946235 0.342703
Si Si5 0.193690 0.404701 0.085850
Si Si6 0.707534 0.442966 0.841823
Si Si7 0.433192 0.790069 0.844506
Si Si8 0.768035 0.181875 0.662366
O O1 0.301143 0.232825 0.750000
O O2 0.245576 0.340851 0.858060
O O3 0.239821 0.183399 0.889134
O O4 0.437513 0.266403 0.872517
O O5 0.981714 0.147558 0.250000
O O6 0.867025 0.251137 0.333418
O O7 0.027494 0.170722 0.404004
O O8 0.834314 0.095699 0.357380
O O9 0.187236 0.092372 0.491916
O O10 0.097457 0.036993 0.357824
O O11 0.046749 0.928234 0.250000
O O12 0.167195 0.893271 0.380360
O O13 0.934922 0.922954 0.380526
O O14 0.290561 0.471459 0.112317
O O15 0.686566 0.462185 0.750000
O O16 0.607072 0.380197 0.873305
O O17 0.418014 0.790548 0.750000
O O18 0.346736 0.720171 0.880580
O O19 0.729486 0.153998 0.750000
#
# Coordination Sequence:
#
# PCOD8234948 Si02
#       8
#     8   8   8   8   8   8   8   8
#     4  11  23  41  63  85 113 156 207 250 295 352
#     4   9  16  31  58  85 115 154 196 239 296 353
#     4  12  24  37  55  84 129 158 189 243 305 353
#     4  11  21  36  60  90 122 155 198 242 294 358
#     4  12  24  38  59  87 126 158 198 241 300 367
#     4   9  17  34  62  89 112 148 198 248 294 349
#     4   8  17  37  63  87 109 143 202 260 296 335
#     4   8  16  32  58  88 111 141 193 254 295 337
#
# _framework density 20.083212
#
# number of rings (size 3 to 8) (size 9 to 14) (size 15 to 20)
#    0.000    2.000    1.250    5.250    0.000    1.000 
#    2.250    0.625    2.750    0.000    0.000    0.000 
#    0.000    0.000    0.000    0.000    0.000    0.000 
#
# Total GULP energy -793066.223627 kJ/mol
# GULP energy per Si atom -12391.659744 kJ/mol
# Density = 2.003750 g / cm^3
# Si number density = 20.083212 Si / 1000 Ang^3
#
#
#
# Elastic Constant Matrix: (Units=GPa)
#
#
# Indices 1 2 3 4 5 6 
#
# 1 119.1735 69.1839 9.6696 0.0000 0.0000 0.0000
# 2 69.1839 88.1815 15.6835 0.0000 0.0000 0.0000
# 3 9.6696 15.6835 34.5268 0.0000 0.0000 0.0000
# 4 0.0000 0.0000 0.0000 13.8010 0.0000 0.0000
# 5 0.0000 0.0000 0.0000 0.0000 5.1192 0.0000
# 6 0.0000 0.0000 0.0000 0.0000 0.0000 24.5458
#
#
#
# Elastic Compliance Matrix: (Units=1/GPa)
#
#
# Indices 1 2 3 4 5 6 
#
# 1 0.015462 -0.012359 0.001284 0.000000 0.000000 0.000000
# 2 -0.012359 0.022216 -0.006630 0.000000 0.000000 0.000000
# 3 0.001284 -0.006630 0.031615 0.000000 0.000000 0.000000
# 4 0.000000 0.000000 0.000000 0.072458 0.000000 0.000000
# 5 0.000000 0.000000 0.000000 0.000000 0.195344 0.000000
# 6 0.000000 0.000000 0.000000 0.000000 0.000000 0.040740
#
#
# Mechanical properties :
#
#
# Convention : Reuss Voigt Hill
#
# Bulk Modulus (GPa) = 29.51417 47.88398 38.69907
# Shear Modulus (GPa) = 11.77745 18.51619 15.14682
#
# Velocity S-wave (km/s) = 2.42426 3.03970 2.74926
# Velocity P-wave (km/s) = 4.75015 6.01783 5.42117
#
# Compressibility (1/GPa) = 0.03388203
#
# Stress axis : x y z
#
# Youngs Moduli (GPa) = 64.67568 45.01286 31.63042
#
# Poissons Ratio (x) = 0.55632 -0.04061
# Poissons Ratio (y) = 0.79933 0.20971
# Poissons Ratio (z) = -0.08303 0.29844
#
# Static dielectric constant tensor:
#      x y z
#    x 3.776630 0.000000 0.000000 
#    y 0.000000 3.920050 0.000000 
#    z 0.000000 0.000000 3.342840 
# 
# 
# High freq. dielectric constant tensor:
#      x y z
#    x 1.778950 0.000000 0.000000 
#    y 0.000000 1.795780 0.000000 
#    z 0.000000 0.000000 1.747460 
# 
# From -- ./inp_files/22057.got.cif
#   From: 2010.03.12/outbox.cif.g09.slc.cpg/sg57_12_cif.got.tgz:22057.got - 2010.04.16 15:48:40.
