data_PCOD8234909
_publ_section_title
;
Structure prediction by ZEFSAII (Michael W. Deem and Ramdas Pophale) SiO2 
 PCOD8234909
Probable space group: P B C M
;
_chemical_formula_sum "Si O2"
_cell_formula_units_Z 36
_cell_length_a 13.997256
_cell_length_b 7.308053
_cell_length_c 18.384739
_cell_angle_alpha 90.000000
_cell_angle_beta 90.000000
_cell_angle_gamma 90.000000
_cell_volume 1880.624383
_symmetry_space_group_name_H-M "P B C M"
_symmetry_group_IT_number 57
_symmetry_cell_setting 'orthorhombic'
loop_
_space_group_symop_operation_xyz
x,y,z
-x,-y,1/2+z
x,1/2-y,-z
-x,1/2+y,1/2-z
-x,-y,-z
x,y,1/2-z
-x,1/2+y,z
x,1/2-y,1/2+z
loop_
_atom_site_type_symbol
_atom_site_label
_atom_site_fract_x
_atom_site_fract_y
_atom_site_fract_z
Si Si1 0.557955 0.250000 0.500000
Si Si2 0.871962 0.276573 0.918517
Si Si3 0.090306 0.308922 0.081168
Si Si4 0.217983 0.037053 0.164353
Si Si5 0.624367 0.613699 0.057966
O O1 0.487054 0.321958 0.565474
O O2 0.627259 0.408549 0.473284
O O3 0.871106 0.490208 0.898925
O O4 0.802149 0.168771 0.863696
O O5 0.976480 0.186910 0.912146
O O6 0.833414 0.250000 0.000000
O O7 0.132508 0.168532 0.139428
O O8 0.121022 0.250000 0.000000
O O9 0.226355 0.035329 0.250000
O O10 0.318305 0.115477 0.133267
O O11 0.676566 0.750000 0.000000
#
# Coordination Sequence:
#
# PCOD8234909 Si02
#       5
#     4   8   8   8   8
#     4   8  18  38  70  92 100 148 202 236 296 360
#     4  11  21  38  63  84 112 161 216 250 286 343
#     4  11  20  40  62  84 111 162 214 253 287 341
#     4  12  26  37  55  93 128 157 196 249 302 349
#     4   9  19  38  64  90 112 143 198 241 290 356
#
# _framework density 19.142579000000001
#
# number of rings (size 3 to 8) (size 9 to 14) (size 15 to 20)
#    0.667    0.889    4.444    2.000    1.556    1.778 
#    0.000    1.111    0.000    0.000    0.000    0.000 
#    0.000    0.000    0.000    0.000    0.000    0.000 
#
# Total GULP energy -446267.576083 kJ/mol
# GULP energy per Si atom -12396.321558 kJ/mol
# Density = 1.909901 g / cm^3
# Si number density = 19.142579 Si / 1000 Ang^3
#
#
#
# Elastic Constant Matrix: (Units=GPa)
#
#
# Indices 1 2 3 4 5 6 
#
# 1 54.0417 14.7896 48.3522 0.0000 0.0000 0.0000
# 2 14.7896 138.9775 49.4408 0.0000 0.0000 0.0000
# 3 48.3522 49.4408 152.3553 0.0000 0.0000 0.0000
# 4 0.0000 0.0000 0.0000 22.9033 0.0000 0.0000
# 5 0.0000 0.0000 0.0000 0.0000 7.9473 0.0000
# 6 0.0000 0.0000 0.0000 0.0000 0.0000 1.0567
#
#
#
# Elastic Compliance Matrix: (Units=1/GPa)
#
#
# Indices 1 2 3 4 5 6 
#
# 1 0.025847 0.000189 -0.008264 0.000000 0.000000 0.000000
# 2 0.000189 0.008136 -0.002700 0.000000 0.000000 0.000000
# 3 -0.008264 -0.002700 0.010063 0.000000 0.000000 0.000000
# 4 0.000000 0.000000 0.000000 0.043662 0.000000 0.000000
# 5 0.000000 0.000000 0.000000 0.000000 0.125829 0.000000
# 6 0.000000 0.000000 0.000000 0.000000 0.000000 0.946319
#
#
# Mechanical properties :
#
#
# Convention : Reuss Voigt Hill
#
# Bulk Modulus (GPa) = 44.45450 63.39332 53.92391
# Shear Modulus (GPa) = 4.20556 21.90092 13.05324
#
# Velocity S-wave (km/s) = 1.48382 3.38612 2.61415
# Velocity P-wave (km/s) = 5.11946 6.96247 6.11085
#
# Compressibility (1/GPa) = 0.02249491
#
# Stress axis : x y z
#
# Youngs Moduli (GPa) = 38.68975 122.91247 99.37705
#
# Poissons Ratio (x) = -0.02329 0.82128
# Poissons Ratio (y) = -0.00733 0.26835
# Poissons Ratio (z) = 0.31974 0.33190
#
# Static dielectric constant tensor:
#      x y z
#    x 3.323410 0.000000 0.000000 
#    y 0.000000 3.781690 0.000000 
#    z 0.000000 0.000000 3.070500 
# 
# 
# High freq. dielectric constant tensor:
#      x y z
#    x 1.740640 0.000000 0.000000 
#    y 0.000000 1.768100 0.000000 
#    z 0.000000 0.000000 1.691530 
# 
# From -- ./inp_files/18147.got.cif
#   From: 2010.03.12/outbox.cif.g09.slc.cpg/sg57_10_cif.got.tgz:18147.got - 2010.04.16 15:48:40.
