data_PCOD8234660
_publ_section_title
;
Structure prediction by ZEFSAII (Michael W. Deem and Ramdas Pophale) SiO2 
 PCOD8234660
Probable space group: P B C M
;
_chemical_formula_sum "Si O2"
_cell_formula_units_Z 48
_cell_length_a 5.181615
_cell_length_b 14.335502
_cell_length_c 28.857852
_cell_angle_alpha 90.000000
_cell_angle_beta 90.000000
_cell_angle_gamma 90.000000
_cell_volume 2143.591611
_symmetry_space_group_name_H-M "P B C M"
_symmetry_group_IT_number 57
_symmetry_cell_setting 'orthorhombic'
loop_
_space_group_symop_operation_xyz
x,y,z
-x,-y,1/2+z
x,1/2-y,-z
-x,1/2+y,1/2-z
-x,-y,-z
x,y,1/2-z
-x,1/2+y,z
x,1/2-y,1/2+z
loop_
_atom_site_type_symbol
_atom_site_label
_atom_site_fract_x
_atom_site_fract_y
_atom_site_fract_z
Si Si1 0.482471 0.342850 0.023020
Si Si2 0.191802 0.974842 0.961299
Si Si3 0.938676 0.631686 0.119559
Si Si4 0.559762 0.253983 0.613939
Si Si5 0.461999 0.376157 0.197106
Si Si6 0.965554 0.493653 0.301881
O O1 0.326656 0.426167 0.047294
O O2 0.633827 0.307320 0.068633
O O3 0.342765 0.250000 0.000000
O O4 0.642676 0.387214 0.980331
O O5 0.037114 0.946196 0.916119
O O6 0.000000 0.000000 0.000000
O O7 0.166997 0.704284 0.128592
O O8 0.884571 0.581386 0.167681
O O9 0.668878 0.673228 0.100513
O O10 0.438328 0.203724 0.658756
O O11 0.415704 0.339137 0.250000
O O12 0.245728 0.453038 0.184681
O O13 0.748990 0.415362 0.192170
O O14 0.971225 0.532432 0.250000
#
# Coordination Sequence:
#
# PCOD8234660 Si02
#       6
#     8   8   8   8   8   8
#     4  11  24  45  65  97 133 176 231 283 341 401
#     4  11  26  41  70  94 131 185 223 284 341 412
#     4  12  26  43  66 102 135 176 232 277 349 405
#     4  12  26  42  68  98 138 176 222 292 332 409
#     4  10  22  42  68  98 133 180 227 276 342 403
#     4  10  22  42  68  96 135 178 225 281 337 408
#
# _framework density 22.392325
#
# number of rings (size 3 to 8) (size 9 to 14) (size 15 to 20)
#    0.000    1.000    1.667    4.000    7.000    2.000 
#    0.000    0.000    0.000    0.000    0.000    0.000 
#    0.000    0.000    0.000    0.000    0.000    0.000 
#
# Total GULP energy -594745.042209 kJ/mol
# GULP energy per Si atom -12390.521713 kJ/mol
# Density = 2.234136 g / cm^3
# Si number density = 22.392325 Si / 1000 Ang^3
#
#
#
# Elastic Constant Matrix: (Units=GPa)
#
#
# Indices 1 2 3 4 5 6 
#
# 1 76.2996 9.5840 1.1503 0.0000 0.0000 0.0000
# 2 9.5840 108.1381 43.7311 0.0000 0.0000 0.0000
# 3 1.1503 43.7311 95.7002 0.0000 0.0000 0.0000
# 4 0.0000 0.0000 0.0000 34.9455 0.0000 0.0000
# 5 0.0000 0.0000 0.0000 0.0000 33.0011 0.0000
# 6 0.0000 0.0000 0.0000 0.0000 0.0000 20.1666
#
#
#
# Elastic Compliance Matrix: (Units=1/GPa)
#
#
# Indices 1 2 3 4 5 6 
#
# 1 0.013271 -0.001364 0.000464 0.000000 0.000000 0.000000
# 2 -0.001364 0.011484 -0.005231 0.000000 0.000000 0.000000
# 3 0.000464 -0.005231 0.012834 0.000000 0.000000 0.000000
# 4 0.000000 0.000000 0.000000 0.028616 0.000000 0.000000
# 5 0.000000 0.000000 0.000000 0.000000 0.030302 0.000000
# 6 0.000000 0.000000 0.000000 0.000000 0.000000 0.049587
#
#
# Mechanical properties :
#
#
# Convention : Reuss Voigt Hill
#
# Bulk Modulus (GPa) = 39.48509 43.22987 41.35748
# Shear Modulus (GPa) = 29.97637 32.66746 31.32191
#
# Velocity S-wave (km/s) = 3.66278 3.82366 3.74408
# Velocity P-wave (km/s) = 5.96318 6.23229 6.09922
#
# Compressibility (1/GPa) = 0.02532601
#
# Stress axis : x y z
#
# Youngs Moduli (GPa) = 75.35495 87.07915 77.91684
#
# Poissons Ratio (x) = 0.11874 -0.03612
# Poissons Ratio (y) = 0.10276 0.40760
# Poissons Ratio (z) = -0.03493 0.45553
#
# Static dielectric constant tensor:
#      x y z
#    x 4.008220 0.000000 0.000000 
#    y 0.000000 3.827440 0.000000 
#    z 0.000000 0.000000 4.141640 
# 
# 
# High freq. dielectric constant tensor:
#      x y z
#    x 1.877950 0.000000 0.000000 
#    y 0.000000 1.881510 0.000000 
#    z 0.000000 0.000000 1.903680 
# 
# From -- ./inp_files/27943.got.cif
#   From: 2010.03.12/outbox.cif.g09.slc.cpg/sg57_14_cif.got.tgz:27943.got - 2010.04.16 15:48:40.
