data_PCOD8234893
_publ_section_title
;
Structure prediction by ZEFSAII (Michael W. Deem and Ramdas Pophale) SiO2 
 PCOD8234893
Probable space group: P B C M
;
_chemical_formula_sum "Si O2"
_cell_formula_units_Z 48
_cell_length_a 11.989306
_cell_length_b 26.207596
_cell_length_c 8.857492
_cell_angle_alpha 90.000000
_cell_angle_beta 90.000000
_cell_angle_gamma 90.000000
_cell_volume 2783.120426
_symmetry_space_group_name_H-M "P B C M"
_symmetry_group_IT_number 57
_symmetry_cell_setting 'orthorhombic'
loop_
_space_group_symop_operation_xyz
x,y,z
-x,-y,1/2+z
x,1/2-y,-z
-x,1/2+y,1/2-z
-x,-y,-z
x,y,1/2-z
-x,1/2+y,z
x,1/2-y,1/2+z
loop_
_atom_site_type_symbol
_atom_site_label
_atom_site_fract_x
_atom_site_fract_y
_atom_site_fract_z
Si Si1 0.148717 0.035508 0.928544
Si Si2 0.777596 0.426981 0.928378
Si Si3 0.670671 0.611148 0.928248
Si Si4 0.166081 0.195111 0.927827
Si Si5 0.458021 0.553073 0.570811
Si Si6 0.023926 0.616708 0.572459
O O1 0.154844 0.037611 0.750000
O O2 0.255543 0.065115 0.996145
O O3 0.036872 0.064284 0.981614
O O4 0.156900 0.977600 0.983980
O O5 0.760383 0.423629 0.750000
O O6 0.657655 0.426627 0.005785
O O7 0.856538 0.380677 0.986568
O O8 0.685381 0.611415 0.750000
O O9 0.722664 0.664922 0.986846
O O10 0.543271 0.599197 0.972936
O O11 0.170336 0.201776 0.750000
O O12 0.054119 0.164274 0.974222
O O13 0.162712 0.250000 0.000000
O O14 0.500000 0.500000 0.500000
O O15 0.450863 0.545338 0.750000
O O16 0.046861 0.616968 0.750000
#
# Coordination Sequence:
#
# PCOD8234893 Si02
#       6
#     8   8   8   8   8   8
#     4   8  14  27  46  67  96 131 165 199 236 286
#     4  11  20  30  46  70 103 137 170 205 242 286
#     4   8  15  30  50  71  98 133 165 199 247 298
#     4   9  18  34  57  78  98 124 159 207 260 307
#     4  11  20  32  50  71 101 139 177 207 244 299
#     4   9  18  32  49  70  97 131 167 201 247 303
#
# _framework density 17.246829000000002
#
# number of rings (size 3 to 8) (size 9 to 14) (size 15 to 20)
#    0.000    2.667    1.667    3.500    0.000    0.667 
#    0.000    2.500    0.000    1.000    0.000    2.333 
#    0.000    0.000    0.000    0.000    0.000    0.000 
#
# Total GULP energy -594652.756152 kJ/mol
# GULP energy per Si atom -12388.599087 kJ/mol
# Density = 1.720757 g / cm^3
# Si number density = 17.246829 Si / 1000 Ang^3
#
#
#
# Elastic Constant Matrix: (Units=GPa)
#
#
# Indices 1 2 3 4 5 6 
#
# 1 150.8090 71.1504 50.4411 0.0000 0.0000 0.0000
# 2 71.1504 101.3877 35.1857 0.0000 0.0000 0.0000
# 3 50.4411 35.1857 51.6581 0.0000 0.0000 0.0000
# 4 0.0000 0.0000 0.0000 24.0579 0.0000 0.0000
# 5 0.0000 0.0000 0.0000 0.0000 26.1455 0.0000
# 6 0.0000 0.0000 0.0000 0.0000 0.0000 14.5563
#
#
#
# Elastic Compliance Matrix: (Units=1/GPa)
#
#
# Indices 1 2 3 4 5 6 
#
# 1 0.011895 -0.005653 -0.007764 0.000000 0.000000 0.000000
# 2 -0.005653 0.015603 -0.005108 0.000000 0.000000 0.000000
# 3 -0.007764 -0.005108 0.030418 0.000000 0.000000 0.000000
# 4 0.000000 0.000000 0.000000 0.041566 0.000000 0.000000
# 5 0.000000 0.000000 0.000000 0.000000 0.038248 0.000000
# 6 0.000000 0.000000 0.000000 0.000000 0.000000 0.068699
#
#
# Mechanical properties :
#
#
# Convention : Reuss Voigt Hill
#
# Bulk Modulus (GPa) = 47.92440 68.60101 58.26270
# Shear Modulus (GPa) = 19.96539 22.75713 21.36126
#
# Velocity S-wave (km/s) = 3.40608 3.63643 3.52314
# Velocity P-wave (km/s) = 6.58151 7.58247 7.09965
#
# Compressibility (1/GPa) = 0.02086620
#
# Stress axis : x y z
#
# Youngs Moduli (GPa) = 84.07062 64.09156 32.87488
#
# Poissons Ratio (x) = 0.36230 0.25525
# Poissons Ratio (y) = 0.47524 0.16792
# Poissons Ratio (z) = 0.65275 0.32736
#
# Static dielectric constant tensor:
#      x y z
#    x 3.393470 0.000000 0.000000 
#    y 0.000000 3.337860 0.000000 
#    z 0.000000 0.000000 2.939800 
# 
# 
# High freq. dielectric constant tensor:
#      x y z
#    x 1.675190 0.000000 0.000000 
#    y 0.000000 1.635890 0.000000 
#    z 0.000000 0.000000 1.643410 
# 
# From -- ./inp_files/3285.got.cif
#   From: 2010.03.12/outbox.cif.g09.slc.cpg/sg57_2_cif.got.tgz:3285.got - 2010.04.16 15:48:40.
