data_PCOD8234321
_publ_section_title
;
Structure prediction by ZEFSAII (Michael W. Deem and Ramdas Pophale) SiO2 
 PCOD8234321
Probable space group: P B C M
;
_chemical_formula_sum "Si O2"
_cell_formula_units_Z 64
_cell_length_a 19.999119
_cell_length_b 8.934176
_cell_length_c 17.206807
_cell_angle_alpha 90.000000
_cell_angle_beta 90.000000
_cell_angle_gamma 90.000000
_cell_volume 3074.437408
_symmetry_space_group_name_H-M "P B C M"
_symmetry_group_IT_number 57
_symmetry_cell_setting 'orthorhombic'
loop_
_space_group_symop_operation_xyz
x,y,z
-x,-y,1/2+z
x,1/2-y,-z
-x,1/2+y,1/2-z
-x,-y,-z
x,y,1/2-z
-x,1/2+y,z
x,1/2-y,1/2+z
loop_
_atom_site_type_symbol
_atom_site_label
_atom_site_fract_x
_atom_site_fract_y
_atom_site_fract_z
Si Si1 0.172023 0.205721 0.083246
Si Si2 0.805450 0.014284 0.159960
Si Si3 0.571867 0.555500 0.162003
Si Si4 0.067830 0.786319 0.660992
Si Si5 0.305324 0.698440 0.411451
Si Si6 0.283743 0.490018 0.841194
Si Si7 0.038155 0.479119 0.919465
Si Si8 0.557495 0.292534 0.839183
O O1 0.166810 0.350819 0.137884
O O2 0.220941 0.084323 0.119154
O O3 0.099955 0.132333 0.070504
O O4 0.201564 0.250000 0.000000
O O5 0.784390 0.011881 0.250000
O O6 0.861765 0.136866 0.143060
O O7 0.742049 0.056587 0.106354
O O8 0.576556 0.612662 0.250000
O O9 0.645993 0.577982 0.124839
O O10 0.552345 0.383752 0.157721
O O11 0.511500 0.646692 0.121922
O O12 0.062149 0.735936 0.750000
O O13 0.062766 0.641156 0.607409
O O14 0.010336 0.906802 0.644064
O O15 0.299517 0.750000 0.500000
O O16 0.380827 0.648399 0.390999
O O17 0.282024 0.832668 0.355453
O O18 0.279174 0.462419 0.750000
O O19 0.000000 0.500000 0.000000
O O20 0.566529 0.349328 0.750000
#
# Coordination Sequence:
#
# PCOD8234321 Si02
#       8
#     8   8   8   8   8   8   8   8
#     4  12  25  41  62  91 124 156 194 244 300 358
#     4  11  24  41  62  91 122 157 203 255 305 361
#     4   8  16  31  54  82 112 151 202 251 299 357
#     4  11  24  41  64  91 119 152 198 250 294 343
#     4  11  22  38  59  87 122 162 207 256 311 366
#     4  10  21  40  63  87 119 163 208 251 302 366
#     4  12  25  43  66  90 122 163 198 235 296 367
#     4   9  17  33  56  81 113 156 203 252 302 364
#
# _framework density 20.816817
#
# number of rings (size 3 to 8) (size 9 to 14) (size 15 to 20)
#    0.000    1.500    0.000    6.750    0.000    6.000 
#    0.000    5.625    0.000    0.000    0.000    0.000 
#    0.000    0.000    0.000    0.000    0.000    0.000 
#
# Total GULP energy -793664.331424 kJ/mol
# GULP energy per Si atom -12401.005179 kJ/mol
# Density = 2.076944 g / cm^3
# Si number density = 20.816817 Si / 1000 Ang^3
#
#
#
# Elastic Constant Matrix: (Units=GPa)
#
#
# Indices 1 2 3 4 5 6 
#
# 1 127.9664 30.2545 50.8438 0.0000 0.0000 0.0000
# 2 30.2545 50.3014 15.9735 0.0000 0.0000 0.0000
# 3 50.8438 15.9735 50.8593 0.0000 0.0000 0.0000
# 4 0.0000 0.0000 0.0000 30.9027 0.0000 0.0000
# 5 0.0000 0.0000 0.0000 0.0000 30.3164 0.0000
# 6 0.0000 0.0000 0.0000 0.0000 0.0000 38.5407
#
#
#
# Elastic Compliance Matrix: (Units=1/GPa)
#
#
# Indices 1 2 3 4 5 6 
#
# 1 0.013768 -0.004343 -0.012400 0.000000 0.000000 0.000000
# 2 -0.004343 0.023453 -0.003024 0.000000 0.000000 0.000000
# 3 -0.012400 -0.003024 0.033008 0.000000 0.000000 0.000000
# 4 0.000000 0.000000 0.000000 0.032360 0.000000 0.000000
# 5 0.000000 0.000000 0.000000 0.000000 0.032985 0.000000
# 6 0.000000 0.000000 0.000000 0.000000 0.000000 0.025947
#
#
# Mechanical properties :
#
#
# Convention : Reuss Voigt Hill
#
# Bulk Modulus (GPa) = 32.57884 47.03006 39.80445
# Shear Modulus (GPa) = 23.66460 28.75565 26.21012
#
# Velocity S-wave (km/s) = 3.37531 3.72071 3.55221
# Velocity P-wave (km/s) = 5.55648 6.41090 5.99892
#
# Compressibility (1/GPa) = 0.03069477
#
# Stress axis : x y z
#
# Youngs Moduli (GPa) = 72.63133 42.63883 30.29583
#
# Poissons Ratio (x) = 0.18520 0.37566
# Poissons Ratio (y) = 0.31547 0.09161
# Poissons Ratio (z) = 0.90062 0.12893
#
# Static dielectric constant tensor:
#      x y z
#    x 4.059760 0.000000 0.000000 
#    y 0.000000 3.766870 0.000000 
#    z 0.000000 0.000000 3.678180 
# 
# 
# High freq. dielectric constant tensor:
#      x y z
#    x 1.831830 0.000000 0.000000 
#    y 0.000000 1.813190 0.000000 
#    z 0.000000 0.000000 1.802910 
# 
# From -- ./inp_files/23077.got.cif
#   From: 2010.03.12/outbox.cif.g09.slc.cpg/sg57_12_cif.got.tgz:23077.got - 2010.04.16 15:48:40.
