data_PCOD8234364
_publ_section_title
;
Structure prediction by ZEFSAII (Michael W. Deem and Ramdas Pophale) SiO2 
 PCOD8234364
Probable space group: P B C M
;
_chemical_formula_sum "Si O2"
_cell_formula_units_Z 32
_cell_length_a 17.130056
_cell_length_b 5.184975
_cell_length_c 15.932834
_cell_angle_alpha 90.000000
_cell_angle_beta 90.000000
_cell_angle_gamma 90.000000
_cell_volume 1415.136983
_symmetry_space_group_name_H-M "P B C M"
_symmetry_group_IT_number 57
_symmetry_cell_setting 'orthorhombic'
loop_
_space_group_symop_operation_xyz
x,y,z
-x,-y,1/2+z
x,1/2-y,-z
-x,1/2+y,1/2-z
-x,-y,-z
x,y,1/2-z
-x,1/2+y,z
x,1/2-y,1/2+z
loop_
_atom_site_type_symbol
_atom_site_label
_atom_site_fract_x
_atom_site_fract_y
_atom_site_fract_z
Si Si1 0.548533 0.649304 0.151842
Si Si2 0.198165 0.833545 0.845717
Si Si3 0.719312 0.815564 0.905649
Si Si4 0.033566 0.967184 0.593816
O O1 0.568762 0.639823 0.250000
O O2 0.493389 0.413185 0.125895
O O3 0.628032 0.622824 0.100549
O O4 0.170520 0.801245 0.750000
O O5 0.233148 0.565299 0.876943
O O6 0.125499 0.911365 0.904580
O O7 0.261283 0.064134 0.849841
O O8 0.742932 0.750000 0.000000
O O9 0.986865 0.735331 0.640452
O O10 0.000000 0.000000 0.500000
#
# Coordination Sequence:
#
# PCOD8234364 Si02
#       4
#     8   8   8   8
#     4  10  21  40  67  97 135 180 226 281 344 406
#     4  12  26  45  70 100 140 183 236 287 342 415
#     4  12  27  43  70 103 141 185 230 287 346 414
#     4  10  23  40  67  96 131 175 216 287 337 415
#
# _framework density 22.612653999999999
#
# number of rings (size 3 to 8) (size 9 to 14) (size 15 to 20)
#    0.000    1.000    0.000    6.000   10.500    4.000 
#    0.000    0.000    0.000    0.000    0.000    0.000 
#    0.000    0.000    0.000    0.000    0.000    0.000 
#
# Total GULP energy -396849.603583 kJ/mol
# GULP energy per Si atom -12401.550112 kJ/mol
# Density = 2.256119 g / cm^3
# Si number density = 22.612654 Si / 1000 Ang^3
#
#
#
# Elastic Constant Matrix: (Units=GPa)
#
#
# Indices 1 2 3 4 5 6 
#
# 1 119.1956 45.4981 49.3268 0.0000 0.0000 0.0000
# 2 45.4981 200.6987 38.2920 0.0000 0.0000 0.0000
# 3 49.3268 38.2920 88.5025 0.0000 0.0000 0.0000
# 4 0.0000 0.0000 0.0000 16.3939 0.0000 0.0000
# 5 0.0000 0.0000 0.0000 0.0000 31.6787 0.0000
# 6 0.0000 0.0000 0.0000 0.0000 0.0000 44.7946
#
#
#
# Elastic Compliance Matrix: (Units=1/GPa)
#
#
# Indices 1 2 3 4 5 6 
#
# 1 0.011295 -0.001482 -0.005654 0.000000 0.000000 0.000000
# 2 -0.001482 0.005625 -0.001608 0.000000 0.000000 0.000000
# 3 -0.005654 -0.001608 0.015146 0.000000 0.000000 0.000000
# 4 0.000000 0.000000 0.000000 0.060998 0.000000 0.000000
# 5 0.000000 0.000000 0.000000 0.000000 0.031567 0.000000
# 6 0.000000 0.000000 0.000000 0.000000 0.000000 0.022324
#
#
# Mechanical properties :
#
#
# Convention : Reuss Voigt Hill
#
# Bulk Modulus (GPa) = 68.59359 74.95896 71.77627
# Shear Modulus (GPa) = 29.53280 36.92544 33.22912
#
# Velocity S-wave (km/s) = 3.61782 4.04537 3.83755
# Velocity P-wave (km/s) = 6.91748 7.41897 7.17261
#
# Compressibility (1/GPa) = 0.01457862
#
# Stress axis : x y z
#
# Youngs Moduli (GPa) = 88.53432 177.76801 66.02323
#
# Poissons Ratio (x) = 0.26341 0.37331
# Poissons Ratio (y) = 0.13119 0.10617
# Poissons Ratio (z) = 0.50059 0.28585
#
# Static dielectric constant tensor:
#      x y z
#    x 3.985900 0.000000 0.000000 
#    y 0.000000 2.276090 0.000000 
#    z 0.000000 0.000000 3.919060 
# 
# 
# High freq. dielectric constant tensor:
#      x y z
#    x 1.897400 0.000000 0.000000 
#    y 0.000000 1.925890 0.000000 
#    z 0.000000 0.000000 1.871530 
# 
# From -- ./inp_files/18766.got.cif
#   From: 2010.03.12/outbox.cif.g09.slc.cpg/sg57_10_cif.got.tgz:18766.got - 2010.04.16 15:48:40.
