data_PCOD8234747
_publ_section_title
;
Structure prediction by ZEFSAII (Michael W. Deem and Ramdas Pophale) SiO2 
 PCOD8234747
Probable space group: P B C M
;
_chemical_formula_sum "Si O2"
_cell_formula_units_Z 24
_cell_length_a 4.838486
_cell_length_b 12.596061
_cell_length_c 16.667868
_cell_angle_alpha 90.000000
_cell_angle_beta 90.000000
_cell_angle_gamma 90.000000
_cell_volume 1015.837630
_symmetry_space_group_name_H-M "P B C M"
_symmetry_group_IT_number 57
_symmetry_cell_setting 'orthorhombic'
loop_
_space_group_symop_operation_xyz
x,y,z
-x,-y,1/2+z
x,1/2-y,-z
-x,1/2+y,1/2-z
-x,-y,-z
x,y,1/2-z
-x,1/2+y,z
x,1/2-y,1/2+z
loop_
_atom_site_type_symbol
_atom_site_label
_atom_site_fract_x
_atom_site_fract_y
_atom_site_fract_z
Si Si1 0.309066 0.663937 0.658443
Si Si2 0.209465 0.073898 0.568652
Si Si3 0.370329 0.843982 0.552574
O O1 0.213773 0.653404 0.750000
O O2 0.570791 0.588812 0.640950
O O3 0.395790 0.787588 0.640175
O O4 0.074979 0.623869 0.597301
O O5 0.331579 0.126917 0.486838
O O6 0.169789 0.946907 0.554022
O O7 0.231423 0.750000 0.500000
#
# Coordination Sequence:
#
# PCOD8234747 Si02
#       3
#     8   8   8
#     4  11  24  41  64  97 133 170 213 265 328 387
#     4  10  23  42  64  93 129 169 216 267 319 380
#     4   9  22  41  67  93 124 167 216 263 314 378
#
# _framework density 23.625824000000001
#
# number of rings (size 3 to 8) (size 9 to 14) (size 15 to 20)
#    0.000    2.000    0.000    1.000    0.000   32.000 
#    0.000    0.000    0.000    0.000    0.000    0.000 
#    0.000    0.000    0.000    0.000    0.000    0.000 
#
# Total GULP energy -297316.151409 kJ/mol
# GULP energy per Si atom -12388.172975 kJ/mol
# Density = 2.357205 g / cm^3
# Si number density = 23.625824 Si / 1000 Ang^3
#
#
#
# Elastic Constant Matrix: (Units=GPa)
#
#
# Indices 1 2 3 4 5 6 
#
# 1 71.4294 54.6165 19.0887 0.0000 0.0000 0.0000
# 2 54.6165 192.3993 67.1585 0.0000 0.0000 0.0000
# 3 19.0887 67.1585 111.5632 0.0000 0.0000 0.0000
# 4 0.0000 0.0000 0.0000 23.4620 0.0000 0.0000
# 5 0.0000 0.0000 0.0000 0.0000 18.9897 0.0000
# 6 0.0000 0.0000 0.0000 0.0000 0.0000 36.1426
#
#
#
# Elastic Compliance Matrix: (Units=1/GPa)
#
#
# Indices 1 2 3 4 5 6 
#
# 1 0.017881 -0.005074 -0.000005 0.000000 0.000000 0.000000
# 2 -0.005074 0.008020 -0.003960 0.000000 0.000000 0.000000
# 3 -0.000005 -0.003960 0.011348 0.000000 0.000000 0.000000
# 4 0.000000 0.000000 0.000000 0.042622 0.000000 0.000000
# 5 0.000000 0.000000 0.000000 0.000000 0.052660 0.000000
# 6 0.000000 0.000000 0.000000 0.000000 0.000000 0.027668
#
#
# Mechanical properties :
#
#
# Convention : Reuss Voigt Hill
#
# Bulk Modulus (GPa) = 52.16088 73.01328 62.58708
# Shear Modulus (GPa) = 27.07566 31.35407 29.21486
#
# Velocity S-wave (km/s) = 3.38896 3.64690 3.52030
# Velocity P-wave (km/s) = 6.11876 6.97885 6.56291
#
# Compressibility (1/GPa) = 0.01917146
#
# Stress axis : x y z
#
# Youngs Moduli (GPa) = 55.92539 124.68679 88.12104
#
# Poissons Ratio (x) = 0.63268 0.00044
# Poissons Ratio (y) = 0.28377 0.34893
# Poissons Ratio (z) = 0.00028 0.49372
#
# Static dielectric constant tensor:
#      x y z
#    x 3.999670 0.000000 0.000000 
#    y 0.000000 4.906270 0.000000 
#    z 0.000000 0.000000 4.300470 
# 
# 
# High freq. dielectric constant tensor:
#      x y z
#    x 1.935510 0.000000 0.000000 
#    y 0.000000 1.951780 0.000000 
#    z 0.000000 0.000000 1.914720 
# 
# From -- ./inp_files/14581.got.cif
#   From: 2010.03.12/outbox.cif.g09.slc.cpg/sg57_8_cif.got.tgz:14581.got - 2010.04.16 15:48:40.
