data_PCOD8234621
_publ_section_title
;
Structure prediction by ZEFSAII (Michael W. Deem and Ramdas Pophale) SiO2 
 PCOD8234621
Probable space group: P B C M
;
_chemical_formula_sum "Si O2"
_cell_formula_units_Z 52
_cell_length_a 10.605245
_cell_length_b 8.796886
_cell_length_c 26.616746
_cell_angle_alpha 90.000000
_cell_angle_beta 90.000000
_cell_angle_gamma 90.000000
_cell_volume 2483.159578
_symmetry_space_group_name_H-M "P B C M"
_symmetry_group_IT_number 57
_symmetry_cell_setting 'orthorhombic'
loop_
_space_group_symop_operation_xyz
x,y,z
-x,-y,1/2+z
x,1/2-y,-z
-x,1/2+y,1/2-z
-x,-y,-z
x,y,1/2-z
-x,1/2+y,z
x,1/2-y,1/2+z
loop_
_atom_site_type_symbol
_atom_site_label
_atom_site_fract_x
_atom_site_fract_y
_atom_site_fract_z
Si Si1 0.162262 0.433425 0.569330
Si Si2 0.316757 0.022760 0.750000
Si Si3 0.032447 0.709596 0.894301
Si Si4 0.564798 0.644499 0.250000
Si Si5 0.411469 0.405350 0.402276
Si Si6 0.828836 0.483394 0.852809
Si Si7 0.624003 0.601579 0.142602
Si Si8 0.332465 0.250000 0.500000
O O1 0.116348 0.607391 0.567543
O O2 0.234572 0.413321 0.622460
O O3 0.249166 0.387606 0.522559
O O4 0.044415 0.320007 0.569171
O O5 0.396095 0.179194 0.750000
O O6 0.227320 0.011125 0.701955
O O7 0.413432 0.879980 0.750000
O O8 0.942444 0.602333 0.860914
O O9 0.120337 0.810752 0.857632
O O10 0.619095 0.555991 0.201044
O O11 0.279793 0.495115 0.395129
O O12 0.419242 0.276629 0.359571
O O13 0.532581 0.508906 0.394484
O O14 0.418044 0.327709 0.457281
#
# Coordination Sequence:
#
# PCOD8234621 Si02
#       8
#     8   4   8   4   8   8   8   4
#     4  10  22  41  64  94 126 175 214 275 323 387
#     4  12  24  38  68  96 134 170 224 263 337 395
#     4  10  22  42  65  87 134 170 220 269 329 379
#     4  12  20  38  64  98 126 172 208 267 331 403
#     4  11  23  41  64  95 131 164 216 279 330 390
#     4  11  22  43  61  96 129 173 215 282 321 394
#     4  11  22  39  65  93 131 166 211 271 333 395
#     4  10  22  44  68  96 132 172 226 272 344 394
#
# _framework density 20.941061000000001
#
# number of rings (size 3 to 8) (size 9 to 14) (size 15 to 20)
#    0.000    1.231    6.154    0.000    2.154    4.923 
#    0.000    3.077    0.000    0.000    0.000    0.000 
#    0.000    0.000    0.000    0.000    0.000    0.000 
#
# Total GULP energy -644715.676731 kJ/mol
# GULP energy per Si atom -12398.378399 kJ/mol
# Density = 2.089340 g / cm^3
# Si number density = 20.941061 Si / 1000 Ang^3
#
#
#
# Elastic Constant Matrix: (Units=GPa)
#
#
# Indices 1 2 3 4 5 6 
#
# 1 62.8822 42.0089 26.8782 0.0000 0.0000 0.0000
# 2 42.0089 121.3771 26.2610 0.0000 0.0000 0.0000
# 3 26.8782 26.2610 124.2814 0.0000 0.0000 0.0000
# 4 0.0000 0.0000 0.0000 20.4330 0.0000 0.0000
# 5 0.0000 0.0000 0.0000 0.0000 26.5223 0.0000
# 6 0.0000 0.0000 0.0000 0.0000 0.0000 44.7118
#
#
#
# Elastic Compliance Matrix: (Units=1/GPa)
#
#
# Indices 1 2 3 4 5 6 
#
# 1 0.021894 -0.006867 -0.003284 0.000000 0.000000 0.000000
# 2 -0.006867 0.010787 -0.000794 0.000000 0.000000 0.000000
# 3 -0.003284 -0.000794 0.008924 0.000000 0.000000 0.000000
# 4 0.000000 0.000000 0.000000 0.048941 0.000000 0.000000
# 5 0.000000 0.000000 0.000000 0.000000 0.037704 0.000000
# 6 0.000000 0.000000 0.000000 0.000000 0.000000 0.022365
#
#
# Mechanical properties :
#
#
# Convention : Reuss Voigt Hill
#
# Bulk Modulus (GPa) = 50.72256 55.42631 53.07443
# Shear Modulus (GPa) = 27.92079 32.55959 30.24019
#
# Velocity S-wave (km/s) = 3.65540 3.94740 3.80420
# Velocity P-wave (km/s) = 6.48769 6.87758 6.68548
#
# Compressibility (1/GPa) = 0.01971509
#
# Stress axis : x y z
#
# Youngs Moduli (GPa) = 45.67457 92.70126 112.05358
#
# Poissons Ratio (x) = 0.63658 0.36798
# Poissons Ratio (y) = 0.31365 0.08900
# Poissons Ratio (z) = 0.14999 0.07363
#
# Static dielectric constant tensor:
#      x y z
#    x 3.821740 0.000000 0.000000 
#    y 0.000000 3.942510 0.000000 
#    z 0.000000 0.000000 3.657170 
# 
# 
# High freq. dielectric constant tensor:
#      x y z
#    x 1.820210 0.000000 0.000000 
#    y 0.000000 1.825770 0.000000 
#    z 0.000000 0.000000 1.811360 
# 
# From -- ./inp_files/28590.got.cif
#   From: 2010.03.12/outbox.cif.g09.slc.cpg/sg57_15_cif.got.tgz:28590.got - 2010.04.16 15:48:40.
