data_PCOD8234045
_publ_section_title
;
Structure prediction by ZEFSAII (Michael W. Deem and Ramdas Pophale) SiO2 
 PCOD8234045
Probable space group: P B C M
;
_chemical_formula_sum "Si O2"
_cell_formula_units_Z 32
_cell_length_a 9.868877
_cell_length_b 8.760054
_cell_length_c 14.661024
_cell_angle_alpha 90.000000
_cell_angle_beta 90.000000
_cell_angle_gamma 90.000000
_cell_volume 1267.473314
_symmetry_space_group_name_H-M "P B C M"
_symmetry_group_IT_number 57
_symmetry_cell_setting 'orthorhombic'
loop_
_space_group_symop_operation_xyz
x,y,z
-x,-y,1/2+z
x,1/2-y,-z
-x,1/2+y,1/2-z
-x,-y,-z
x,y,1/2-z
-x,1/2+y,z
x,1/2-y,1/2+z
loop_
_atom_site_type_symbol
_atom_site_label
_atom_site_fract_x
_atom_site_fract_y
_atom_site_fract_z
Si Si1 0.577174 0.043027 0.146927
Si Si2 0.934657 0.951491 0.904596
Si Si3 0.679354 0.778536 0.640129
Si Si4 0.826242 0.261900 0.608781
O O1 0.548157 0.998216 0.250000
O O2 0.434678 0.100552 0.105599
O O3 0.679767 0.186172 0.142294
O O4 0.636996 0.889389 0.101013
O O5 0.819063 0.820921 0.910569
O O6 0.062227 0.879681 0.850784
O O7 0.866127 0.094654 0.852368
O O8 0.000000 0.000000 0.000000
O O9 0.696870 0.778813 0.750000
O O10 0.828017 0.250000 0.500000
#
# Coordination Sequence:
#
# PCOD8234045 Si02
#       4
#     8   8   8   8
#     4  10  21  39  64  94 127 162 206 261 318 378
#     4  10  21  38  59  86 123 164 207 255 305 365
#     4  10  21  39  64  93 125 161 203 256 316 376
#     4  10  21  38  58  87 122 163 208 252 307 369
#
# _framework density 25.247078999999999
#
# number of rings (size 3 to 8) (size 9 to 14) (size 15 to 20)
#    0.000    2.000    0.000    3.000    0.000    6.000 
#    0.000   15.000    0.000    0.000    0.000    0.000 
#    0.000    0.000    0.000    0.000    0.000    0.000 
#
# Total GULP energy -396536.831054 kJ/mol
# GULP energy per Si atom -12391.775970 kJ/mol
# Density = 2.518962 g / cm^3
# Si number density = 25.247079 Si / 1000 Ang^3
#
#
#
# Elastic Constant Matrix: (Units=GPa)
#
#
# Indices 1 2 3 4 5 6 
#
# 1 147.4601 11.6667 21.8541 0.0000 0.0000 0.0000
# 2 11.6667 101.6172 18.4143 0.0000 0.0000 0.0000
# 3 21.8541 18.4143 41.9919 0.0000 0.0000 0.0000
# 4 0.0000 0.0000 0.0000 21.9506 0.0000 0.0000
# 5 0.0000 0.0000 0.0000 0.0000 42.1646 0.0000
# 6 0.0000 0.0000 0.0000 0.0000 0.0000 52.2544
#
#
#
# Elastic Compliance Matrix: (Units=1/GPa)
#
#
# Indices 1 2 3 4 5 6 
#
# 1 0.007351 -0.000164 -0.003754 0.000000 0.000000 0.000000
# 2 -0.000164 0.010694 -0.004604 0.000000 0.000000 0.000000
# 3 -0.003754 -0.004604 0.027787 0.000000 0.000000 0.000000
# 4 0.000000 0.000000 0.000000 0.045557 0.000000 0.000000
# 5 0.000000 0.000000 0.000000 0.000000 0.023717 0.000000
# 6 0.000000 0.000000 0.000000 0.000000 0.000000 0.019137
#
#
# Mechanical properties :
#
#
# Convention : Reuss Voigt Hill
#
# Bulk Modulus (GPa) = 34.73681 43.88214 39.30947
# Shear Modulus (GPa) = 31.07870 39.21620 35.14745
#
# Velocity S-wave (km/s) = 3.51234 3.94546 3.73519
# Velocity P-wave (km/s) = 5.49885 6.17854 5.84858
#
# Compressibility (1/GPa) = 0.02878791
#
# Stress axis : x y z
#
# Youngs Moduli (GPa) = 136.04002 93.51024 35.98825
#
# Poissons Ratio (x) = 0.01531 0.13509
# Poissons Ratio (y) = 0.02227 0.16570
# Poissons Ratio (z) = 0.51067 0.43055
#
# Static dielectric constant tensor:
#      x y z
#    x 4.744260 0.000000 0.000000 
#    y 0.000000 5.408180 0.000000 
#    z 0.000000 0.000000 3.864790 
# 
# 
# High freq. dielectric constant tensor:
#      x y z
#    x 2.021060 0.000000 0.000000 
#    y 0.000000 2.025210 0.000000 
#    z 0.000000 0.000000 1.961670 
# 
# From -- ./inp_files/23938.got.cif
#   From: 2010.03.12/outbox.cif.g09.slc.cpg/sg57_12_cif.got.tgz:23938.got - 2010.04.16 15:48:40.
