data_PCOD8234445
_publ_section_title
;
Structure prediction by ZEFSAII (Michael W. Deem and Ramdas Pophale) SiO2 
 PCOD8234445
Probable space group: P B C M
;
_chemical_formula_sum "Si O2"
_cell_formula_units_Z 64
_cell_length_a 19.928783
_cell_length_b 18.535109
_cell_length_c 8.958876
_cell_angle_alpha 90.000000
_cell_angle_beta 90.000000
_cell_angle_gamma 90.000000
_cell_volume 3309.249014
_symmetry_space_group_name_H-M "P B C M"
_symmetry_group_IT_number 57
_symmetry_cell_setting 'orthorhombic'
loop_
_space_group_symop_operation_xyz
x,y,z
-x,-y,1/2+z
x,1/2-y,-z
-x,1/2+y,1/2-z
-x,-y,-z
x,y,1/2-z
-x,1/2+y,z
x,1/2-y,1/2+z
loop_
_atom_site_type_symbol
_atom_site_label
_atom_site_fract_x
_atom_site_fract_y
_atom_site_fract_z
Si Si1 0.913271 0.432186 0.425834
Si Si2 0.326452 0.927967 0.425667
Si Si3 0.585778 0.826918 0.578384
Si Si4 0.203271 0.672767 0.575316
Si Si5 0.696929 0.576845 0.573811
Si Si6 0.466084 0.568366 0.078411
Si Si7 0.935898 0.920777 0.424585
Si Si8 0.181375 0.323540 0.422685
O O1 0.905507 0.440173 0.250000
O O2 0.857365 0.377059 0.488256
O O3 0.903139 0.510820 0.494701
O O4 0.987580 0.404433 0.472100
O O5 0.335580 0.940490 0.250000
O O6 0.274804 0.863491 0.460507
O O7 0.397740 0.908898 0.497397
O O8 0.296599 0.999444 0.498624
O O9 0.585727 0.750000 0.500000
O O10 0.608807 0.818001 0.750000
O O11 0.634575 0.880630 0.493068
O O12 0.512137 0.861089 0.568582
O O13 0.199814 0.750000 0.500000
O O14 0.193260 0.683948 0.750000
O O15 0.686594 0.568633 0.750000
O O16 0.764978 0.616863 0.530466
O O17 0.451719 0.547135 0.250000
O O18 0.500000 0.500000 0.000000
O O19 0.930179 0.937030 0.250000
O O20 0.892404 0.851025 0.470257
O O21 0.200587 0.250000 0.500000
O O22 0.185156 0.307133 0.250000
#
# Coordination Sequence:
#
# PCOD8234445 Si02
#       8
#     8   8   8   8   8   8   8   8
#     4   9  18  35  58  83 111 147 190 239 291 342
#     4  11  23  39  61  87 116 150 191 240 289 342
#     4  11  24  40  60  87 118 151 188 233 286 341
#     4  10  23  40  58  84 118 155 197 245 296 350
#     4  11  22  37  59  84 113 150 192 236 284 343
#     4  11  23  40  63  89 117 151 192 236 285 344
#     4   9  18  34  56  82 113 146 189 239 287 344
#     4  10  22  36  51  78 113 149 186 229 280 334
#
# _framework density 19.339735000000001
#
# number of rings (size 3 to 8) (size 9 to 14) (size 15 to 20)
#    0.000    1.750    1.250    2.625    0.000    6.500 
#    0.000    2.500    0.000    0.000    0.000    0.000 
#    0.000    0.000    0.000    0.000    0.000    0.000 
#
# Total GULP energy -793745.994303 kJ/mol
# GULP energy per Si atom -12402.281161 kJ/mol
# Density = 1.929572 g / cm^3
# Si number density = 19.339735 Si / 1000 Ang^3
#
#
#
# Elastic Constant Matrix: (Units=GPa)
#
#
# Indices 1 2 3 4 5 6 
#
# 1 116.7567 40.4842 44.9094 0.0000 0.0000 0.0000
# 2 40.4842 96.8239 43.2326 0.0000 0.0000 0.0000
# 3 44.9094 43.2326 71.8456 0.0000 0.0000 0.0000
# 4 0.0000 0.0000 0.0000 36.9250 0.0000 0.0000
# 5 0.0000 0.0000 0.0000 0.0000 25.0216 0.0000
# 6 0.0000 0.0000 0.0000 0.0000 0.0000 37.5338
#
#
#
# Elastic Compliance Matrix: (Units=1/GPa)
#
#
# Indices 1 2 3 4 5 6 
#
# 1 0.011611 -0.002207 -0.005930 0.000000 0.000000 0.000000
# 2 -0.002207 0.014542 -0.007371 0.000000 0.000000 0.000000
# 3 -0.005930 -0.007371 0.022061 0.000000 0.000000 0.000000
# 4 0.000000 0.000000 0.000000 0.027082 0.000000 0.000000
# 5 0.000000 0.000000 0.000000 0.000000 0.039965 0.000000
# 6 0.000000 0.000000 0.000000 0.000000 0.000000 0.026643
#
#
# Mechanical properties :
#
#
# Convention : Reuss Voigt Hill
#
# Bulk Modulus (GPa) = 58.14566 60.29762 59.22164
# Shear Modulus (GPa) = 27.98740 30.34941 29.16840
#
# Velocity S-wave (km/s) = 3.80826 3.96571 3.88778
# Velocity P-wave (km/s) = 7.03334 7.22599 7.13031
#
# Compressibility (1/GPa) = 0.01719819
#
# Stress axis : x y z
#
# Youngs Moduli (GPa) = 86.12594 68.76601 45.32960
#
# Poissons Ratio (x) = 0.15178 0.26879
# Poissons Ratio (y) = 0.19009 0.33412
# Poissons Ratio (z) = 0.51069 0.50687
#
# Static dielectric constant tensor:
#      x y z
#    x 3.842360 0.000000 0.000000 
#    y 0.000000 3.424430 0.000000 
#    z 0.000000 0.000000 3.606080 
# 
# 
# High freq. dielectric constant tensor:
#      x y z
#    x 1.768740 0.000000 0.000000 
#    y 0.000000 1.750880 0.000000 
#    z 0.000000 0.000000 1.756500 
# 
# From -- ./inp_files/8482.got.cif
#   From: 2010.03.12/outbox.cif.g09.slc.cpg/sg57_5_cif.got.tgz:8482.got - 2010.04.16 15:48:40.
