data_PCOD8234804
_publ_section_title
;
Structure prediction by ZEFSAII (Michael W. Deem and Ramdas Pophale) SiO2 
 PCOD8234804
Probable space group: P B C M
;
_chemical_formula_sum "Si O2"
_cell_formula_units_Z 24
_cell_length_a 4.774558
_cell_length_b 13.748073
_cell_length_c 11.397222
_cell_angle_alpha 90.000000
_cell_angle_beta 90.000000
_cell_angle_gamma 90.000000
_cell_volume 748.124729
_symmetry_space_group_name_H-M "P B C M"
_symmetry_group_IT_number 57
_symmetry_cell_setting 'orthorhombic'
loop_
_space_group_symop_operation_xyz
x,y,z
-x,-y,1/2+z
x,1/2-y,-z
-x,1/2+y,1/2-z
-x,-y,-z
x,y,1/2-z
-x,1/2+y,z
x,1/2-y,1/2+z
loop_
_atom_site_type_symbol
_atom_site_label
_atom_site_fract_x
_atom_site_fract_y
_atom_site_fract_z
Si Si1 0.114408 0.863076 0.984635
Si Si2 0.164567 0.320005 0.750000
Si Si3 0.359508 0.040588 0.882299
Si Si4 0.677630 0.188195 0.750000
O O1 0.920749 0.878255 0.867585
O O2 0.383074 0.940030 0.963043
O O3 0.205435 0.750000 0.000000
O O4 0.921360 0.901476 0.089415
O O5 0.998047 0.217529 0.750000
O O6 0.491023 0.287450 0.750000
O O7 0.336116 0.999000 0.750000
O O8 0.612449 0.124077 0.868962
#
# Coordination Sequence:
#
# PCOD8234804 Si02
#       4
#     8   4   8   4
#     4  11  20  40  74 106 148 194 248 311 372 444
#     4  12  23  46  71 107 141 194 243 304 371 441
#     4   9  20  42  69 107 148 194 251 305 376 441
#     4  10  23  46  71 101 147 190 249 294 369 445
#
# _framework density 32.080212000000003
#
# number of rings (size 3 to 8) (size 9 to 14) (size 15 to 20)
#    1.000    0.667    5.000    0.000    0.000    0.000 
#    6.000    8.333    0.000    0.000    0.000    0.000 
#    0.000    0.000    0.000    0.000    0.000    0.000 
#
# Total GULP energy -297618.492500 kJ/mol
# GULP energy per Si atom -12400.770521 kJ/mol
# Density = 3.200720 g / cm^3
# Si number density = 32.080212 Si / 1000 Ang^3
#
#
#
# Elastic Constant Matrix: (Units=GPa)
#
#
# Indices 1 2 3 4 5 6 
#
# 1 87.7408 33.7706 16.1878 0.0000 0.0000 0.0000
# 2 33.7706 202.5078 46.8988 0.0000 0.0000 0.0000
# 3 16.1878 46.8988 104.6411 0.0000 0.0000 0.0000
# 4 0.0000 0.0000 0.0000 86.8978 0.0000 0.0000
# 5 0.0000 0.0000 0.0000 0.0000 41.9269 0.0000
# 6 0.0000 0.0000 0.0000 0.0000 0.0000 57.4477
#
#
#
# Elastic Compliance Matrix: (Units=1/GPa)
#
#
# Indices 1 2 3 4 5 6 
#
# 1 0.012291 -0.001796 -0.001097 0.000000 0.000000 0.000000
# 2 -0.001796 0.005772 -0.002309 0.000000 0.000000 0.000000
# 3 -0.001097 -0.002309 0.010761 0.000000 0.000000 0.000000
# 4 0.000000 0.000000 0.000000 0.011508 0.000000 0.000000
# 5 0.000000 0.000000 0.000000 0.000000 0.023851 0.000000
# 6 0.000000 0.000000 0.000000 0.000000 0.000000 0.017407
#
#
# Mechanical properties :
#
#
# Convention : Reuss Voigt Hill
#
# Bulk Modulus (GPa) = 54.28570 65.40047 59.84308
# Shear Modulus (GPa) = 50.95102 57.12329 54.03716
#
# Velocity S-wave (km/s) = 3.98959 4.22434 4.10864
# Velocity P-wave (km/s) = 6.17908 6.65013 6.41893
#
# Compressibility (1/GPa) = 0.01842106
#
# Stress axis : x y z
#
# Youngs Moduli (GPa) = 81.36269 173.23988 92.92726
#
# Poissons Ratio (x) = 0.31108 0.10190
# Poissons Ratio (y) = 0.14610 0.21460
# Poissons Ratio (z) = 0.08922 0.40006
#
# Static dielectric constant tensor:
#      x y z
#    x 5.557710 0.000000 0.000000 
#    y 0.000000 5.984190 0.000000 
#    z 0.000000 0.000000 7.811420 
# 
# 
# High freq. dielectric constant tensor:
#      x y z
#    x 2.330210 0.000000 0.000000 
#    y 0.000000 2.345960 0.000000 
#    z 0.000000 0.000000 2.425720 
# 
# From -- ./inp_files/14619.got.cif
#   From: 2010.03.12/outbox.cif.g09.slc.cpg/sg57_8_cif.got.tgz:14619.got - 2010.04.16 15:48:40.
