data_PCOD8234105
_publ_section_title
;
Structure prediction by ZEFSAII (Michael W. Deem and Ramdas Pophale) SiO2 
 PCOD8234105
Probable space group: P B C M
;
_chemical_formula_sum "Si O2"
_cell_formula_units_Z 56
_cell_length_a 9.553475
_cell_length_b 15.678628
_cell_length_c 19.402111
_cell_angle_alpha 90.000000
_cell_angle_beta 90.000000
_cell_angle_gamma 90.000000
_cell_volume 2906.152581
_symmetry_space_group_name_H-M "P B C M"
_symmetry_group_IT_number 57
_symmetry_cell_setting 'orthorhombic'
loop_
_space_group_symop_operation_xyz
x,y,z
-x,-y,1/2+z
x,1/2-y,-z
-x,1/2+y,1/2-z
-x,-y,-z
x,y,1/2-z
-x,1/2+y,z
x,1/2-y,1/2+z
loop_
_atom_site_type_symbol
_atom_site_label
_atom_site_fract_x
_atom_site_fract_y
_atom_site_fract_z
Si Si1 0.229722 0.846992 0.601132
Si Si2 0.270917 0.316809 0.331541
Si Si3 0.515723 0.224228 0.925286
Si Si4 0.415809 0.529510 0.933822
Si Si5 0.124724 0.942564 0.470827
Si Si6 0.637475 0.004821 0.172139
Si Si7 0.992105 0.777979 0.421176
O O1 0.362670 0.787840 0.594442
O O2 0.210879 0.897119 0.530643
O O3 0.093899 0.789893 0.615710
O O4 0.255328 0.916891 0.660570
O O5 0.261328 0.297721 0.250000
O O6 0.402480 0.268121 0.364579
O O7 0.282188 0.417621 0.347487
O O8 0.139862 0.278967 0.371791
O O9 0.580329 0.130766 0.926992
O O10 0.451302 0.250000 0.000000
O O11 0.249738 0.502503 0.934107
O O12 0.493747 0.484004 0.870310
O O13 0.500000 0.500000 0.000000
O O14 0.060553 0.871894 0.420084
O O15 0.000000 0.000000 0.500000
O O16 0.587827 0.002486 0.250000
O O17 0.956358 0.750000 0.500000
#
# Coordination Sequence:
#
# PCOD8234105 Si02
#       7
#     8   8   8   8   8   8   8
#     4  11  20  39  60  88 119 156 196 252 302 350
#     4  10  23  40  58  85 119 159 200 243 300 368
#     4  11  19  36  63  87 117 149 199 252 297 345
#     4  11  20  36  62  91 118 155 203 247 295 357
#     4  11  21  35  60  93 122 152 198 246 301 357
#     4  10  22  39  61  86 119 160 205 250 297 356
#     4  10  21  38  60  91 124 156 199 251 301 362
#
# _framework density 19.269462000000001
#
# number of rings (size 3 to 8) (size 9 to 14) (size 15 to 20)
#    0.000    1.429    4.286    1.714    2.000    1.143 
#    5.143    0.714    0.000    0.857    0.000    0.000 
#    0.000    0.000    0.000    0.000    0.000    0.000 
#
# Total GULP energy -694238.757178 kJ/mol
# GULP energy per Si atom -12397.120664 kJ/mol
# Density = 1.922560 g / cm^3
# Si number density = 19.269462 Si / 1000 Ang^3
#
#
#
# Elastic Constant Matrix: (Units=GPa)
#
#
# Indices 1 2 3 4 5 6 
#
# 1 171.3379 60.5851 72.6060 0.0000 0.0000 0.0000
# 2 60.5851 83.3004 34.9827 0.0000 0.0000 0.0000
# 3 72.6060 34.9827 101.4078 0.0000 0.0000 0.0000
# 4 0.0000 0.0000 0.0000 25.7421 0.0000 0.0000
# 5 0.0000 0.0000 0.0000 0.0000 23.8557 0.0000
# 6 0.0000 0.0000 0.0000 0.0000 0.0000 21.3980
#
#
#
# Elastic Compliance Matrix: (Units=1/GPa)
#
#
# Indices 1 2 3 4 5 6 
#
# 1 0.009840 -0.004909 -0.005352 0.000000 0.000000 0.000000
# 2 -0.004909 0.016488 -0.002173 0.000000 0.000000 0.000000
# 3 -0.005352 -0.002173 0.014443 0.000000 0.000000 0.000000
# 4 0.000000 0.000000 0.000000 0.038847 0.000000 0.000000
# 5 0.000000 0.000000 0.000000 0.000000 0.041919 0.000000
# 6 0.000000 0.000000 0.000000 0.000000 0.000000 0.046733
#
#
# Mechanical properties :
#
#
# Convention : Reuss Voigt Hill
#
# Bulk Modulus (GPa) = 62.88274 76.93264 69.90769
# Shear Modulus (GPa) = 25.19671 26.72397 25.96034
#
# Velocity S-wave (km/s) = 3.62000 3.72809 3.67444
# Velocity P-wave (km/s) = 7.08355 7.65133 7.37291
#
# Compressibility (1/GPa) = 0.01590262
#
# Stress axis : x y z
#
# Youngs Moduli (GPa) = 101.62317 60.65072 69.23976
#
# Poissons Ratio (x) = 0.29776 0.37056
# Poissons Ratio (y) = 0.49890 0.15045
# Poissons Ratio (z) = 0.54387 0.13178
#
# Static dielectric constant tensor:
#      x y z
#    x 4.121810 0.000000 0.000000 
#    y 0.000000 3.562470 0.000000 
#    z 0.000000 0.000000 3.438410 
# 
# 
# High freq. dielectric constant tensor:
#      x y z
#    x 1.756410 0.000000 0.000000 
#    y 0.000000 1.755720 0.000000 
#    z 0.000000 0.000000 1.728340 
# 
# From -- ./inp_files/24407.got.cif
#   From: 2010.03.12/outbox.cif.g09.slc.cpg/sg57_13_cif.got.tgz:24407.got - 2010.04.16 15:48:40.
