data_PCOD8234536
_publ_section_title
;
Structure prediction by ZEFSAII (Michael W. Deem and Ramdas Pophale) SiO2 
 PCOD8234536
Probable space group: P B C M
;
_chemical_formula_sum "Si O2"
_cell_formula_units_Z 48
_cell_length_a 11.602537
_cell_length_b 9.077876
_cell_length_c 21.670147
_cell_angle_alpha 90.000000
_cell_angle_beta 90.000000
_cell_angle_gamma 90.000000
_cell_volume 2282.438401
_symmetry_space_group_name_H-M "P B C M"
_symmetry_group_IT_number 57
_symmetry_cell_setting 'orthorhombic'
loop_
_space_group_symop_operation_xyz
x,y,z
-x,-y,1/2+z
x,1/2-y,-z
-x,1/2+y,1/2-z
-x,-y,-z
x,y,1/2-z
-x,1/2+y,z
x,1/2-y,1/2+z
loop_
_atom_site_type_symbol
_atom_site_label
_atom_site_fract_x
_atom_site_fract_y
_atom_site_fract_z
Si Si1 0.004381 0.160859 0.117801
Si Si2 0.905448 0.573486 0.541752
Si Si3 0.859625 0.407393 0.178932
Si Si4 0.345308 0.414239 0.000783
Si Si5 0.512541 0.457167 0.605604
Si Si6 0.398348 0.815325 0.178590
O O1 0.060902 0.260304 0.062891
O O2 0.948508 0.274361 0.165929
O O3 0.107362 0.060489 0.145246
O O4 0.902521 0.046176 0.097740
O O5 0.791818 0.575979 0.500250
O O6 0.000000 0.500000 0.500000
O O7 0.865297 0.446328 0.250000
O O8 0.732096 0.356059 0.159843
O O9 0.380655 0.487886 0.065199
O O10 0.393062 0.250000 0.000000
O O11 0.399953 0.479429 0.938457
O O12 0.549421 0.299053 0.629892
O O13 0.482890 0.546249 0.667872
O O14 0.405865 0.764673 0.250000
#
# Coordination Sequence:
#
# PCOD8234536 Si02
#       6
#     8   8   8   8   8   8
#     4  10  22  39  62  92 129 171 210 268 322 394
#     4  11  23  39  60  95 128 169 211 257 323 394
#     4  10  22  40  64  93 127 171 221 273 326 387
#     4  11  23  40  64  92 130 168 213 267 327 392
#     4  11  24  43  64  94 129 171 216 271 327 391
#     4  11  24  43  67  95 130 173 224 278 328 389
#
# _framework density 21.030141
#
# number of rings (size 3 to 8) (size 9 to 14) (size 15 to 20)
#    0.000    1.333    1.667    3.500    7.000    0.000 
#    3.000    0.000    0.000    8.000    0.000    0.000 
#    0.000    0.000    0.000    0.000    0.000    0.000 
#
# Total GULP energy -594790.970039 kJ/mol
# GULP energy per Si atom -12391.478542 kJ/mol
# Density = 2.098228 g / cm^3
# Si number density = 21.030141 Si / 1000 Ang^3
#
#
#
# Elastic Constant Matrix: (Units=GPa)
#
#
# Indices 1 2 3 4 5 6 
#
# 1 115.0223 48.0002 49.0394 0.0000 0.0000 0.0000
# 2 48.0002 127.9633 33.1736 0.0000 0.0000 0.0000
# 3 49.0394 33.1736 82.9029 0.0000 0.0000 0.0000
# 4 0.0000 0.0000 0.0000 33.6556 0.0000 0.0000
# 5 0.0000 0.0000 0.0000 0.0000 94.0927 0.0000
# 6 0.0000 0.0000 0.0000 0.0000 0.0000 9.4481
#
#
#
# Elastic Compliance Matrix: (Units=1/GPa)
#
#
# Indices 1 2 3 4 5 6 
#
# 1 0.012659 -0.003132 -0.006235 0.000000 0.000000 0.000000
# 2 -0.003132 0.009494 -0.001946 0.000000 0.000000 0.000000
# 3 -0.006235 -0.001946 0.016529 0.000000 0.000000 0.000000
# 4 0.000000 0.000000 0.000000 0.029713 0.000000 0.000000
# 5 0.000000 0.000000 0.000000 0.000000 0.010628 0.000000
# 6 0.000000 0.000000 0.000000 0.000000 0.000000 0.105841
#
#
# Mechanical properties :
#
#
# Convention : Reuss Voigt Hill
#
# Bulk Modulus (GPa) = 62.28284 65.14609 63.71446
# Shear Modulus (GPa) = 23.49145 40.48432 31.98788
#
# Velocity S-wave (km/s) = 3.34584 4.39231 3.90429
# Velocity P-wave (km/s) = 6.67881 7.53445 7.11949
#
# Compressibility (1/GPa) = 0.01605579
#
# Stress axis : x y z
#
# Youngs Moduli (GPa) = 78.99289 105.32699 60.49865
#
# Poissons Ratio (x) = 0.32991 0.37721
# Poissons Ratio (y) = 0.24743 0.11775
# Poissons Ratio (z) = 0.49252 0.20500
#
# Static dielectric constant tensor:
#      x y z
#    x 4.171650 0.000000 0.000000 
#    y 0.000000 4.974920 0.000000 
#    z 0.000000 0.000000 4.907440 
# 
# 
# High freq. dielectric constant tensor:
#      x y z
#    x 1.819400 0.000000 0.000000 
#    y 0.000000 1.839930 0.000000 
#    z 0.000000 0.000000 1.829330 
# 
# From -- ./inp_files/27117.got.cif
#   From: 2010.03.12/outbox.cif.g09.slc.cpg/sg57_14_cif.got.tgz:27117.got - 2010.04.16 15:48:40.
