data_PCOD8234875
_publ_section_title
;
Structure prediction by ZEFSAII (Michael W. Deem and Ramdas Pophale) SiO2 
 PCOD8234875
Probable space group: P B C M
;
_chemical_formula_sum "Si O2"
_cell_formula_units_Z 36
_cell_length_a 5.039196
_cell_length_b 19.493759
_cell_length_c 15.927834
_cell_angle_alpha 90.000000
_cell_angle_beta 90.000000
_cell_angle_gamma 90.000000
_cell_volume 1564.636885
_symmetry_space_group_name_H-M "P B C M"
_symmetry_group_IT_number 57
_symmetry_cell_setting 'orthorhombic'
loop_
_space_group_symop_operation_xyz
x,y,z
-x,-y,1/2+z
x,1/2-y,-z
-x,1/2+y,1/2-z
-x,-y,-z
x,y,1/2-z
-x,1/2+y,z
x,1/2-y,1/2+z
loop_
_atom_site_type_symbol
_atom_site_label
_atom_site_fract_x
_atom_site_fract_y
_atom_site_fract_z
Si Si1 0.491542 0.250000 0.500000
Si Si2 0.773249 0.885072 0.060765
Si Si3 0.359699 0.669191 0.156777
Si Si4 0.139214 0.418685 0.879030
Si Si5 0.264264 0.570636 0.656880
O O1 0.301019 0.192002 0.536760
O O2 0.669632 0.277125 0.578815
O O3 0.537150 0.923996 0.107040
O O4 0.037994 0.881798 0.116232
O O5 0.836629 0.929355 0.978541
O O6 0.323974 0.703479 0.250000
O O7 0.649524 0.635676 0.155258
O O8 0.150012 0.608662 0.144742
O O9 0.171385 0.492249 0.836988
O O10 0.313492 0.598971 0.750000
#
# Coordination Sequence:
#
# PCOD8234875 Si02
#       5
#     4   8   8   8   8
#     4  10  26  46  64  92 132 176 222 266 312 380
#     4  11  24  43  65  91 128 175 214 258 319 383
#     4  11  23  41  68  96 128 173 220 268 319 380
#     4  11  23  43  67  95 128 167 215 264 324 388
#     4  12  24  40  66 100 132 161 206 269 330 387
#
# _framework density 23.008533
#
# number of rings (size 3 to 8) (size 9 to 14) (size 15 to 20)
#    0.000    0.889    0.000    8.000    0.000    9.778 
#    0.000    0.000    0.000    0.000    0.000    0.000 
#    0.000    0.000    0.000    0.000    0.000    0.000 
#
# Total GULP energy -446529.671512 kJ/mol
# GULP energy per Si atom -12403.601986 kJ/mol
# Density = 2.295616 g / cm^3
# Si number density = 23.008533 Si / 1000 Ang^3
#
#
#
# Elastic Constant Matrix: (Units=GPa)
#
#
# Indices 1 2 3 4 5 6 
#
# 1 202.5597 468.7833 -200.7564 0.0000 0.0000 0.0000
# 2 468.7833 1929.2745 -894.6692 0.0000 0.0000 0.0000
# 3 -200.7564 -894.6692 667.6433 0.0000 0.0000 0.0000
# 4 0.0000 0.0000 0.0000 22.9825 0.0000 0.0000
# 5 0.0000 0.0000 0.0000 0.0000 40.4951 0.0000
# 6 0.0000 0.0000 0.0000 0.0000 0.0000 37.4828
#
#
#
# Elastic Compliance Matrix: (Units=1/GPa)
#
#
# Indices 1 2 3 4 5 6 
#
# 1 0.011421 -0.003124 -0.000752 0.000000 0.000000 0.000000
# 2 -0.003124 0.002223 0.002040 0.000000 0.000000 0.000000
# 3 -0.000752 0.002040 0.004006 0.000000 0.000000 0.000000
# 4 0.000000 0.000000 0.000000 0.043511 0.000000 0.000000
# 5 0.000000 0.000000 0.000000 0.000000 0.024694 0.000000
# 6 0.000000 0.000000 0.000000 0.000000 0.000000 0.026679
#
#
# Mechanical properties :
#
#
# Convention : Reuss Voigt Hill
#
# Bulk Modulus (GPa) = 71.52924 171.79922 121.66423
# Shear Modulus (GPa) = 41.36844 248.60007 144.98425
#
# Velocity S-wave (km/s) = 4.24484 10.40584 7.94670
# Velocity P-wave (km/s) = 7.42836 14.80557 11.71293
#
# Compressibility (1/GPa) = 0.01398030
#
# Stress axis : x y z
#
# Youngs Moduli (GPa) = 87.55806 449.74468 249.63407
#
# Poissons Ratio (x) = 1.40486 0.18763
# Poissons Ratio (y) = 0.27350 -0.50933
# Poissons Ratio (z) = 0.06581 -0.91761
#
# Static dielectric constant tensor:
#      x y z
#    x 4.201710 0.000000 0.000000 
#    y 0.000000 3.886520 0.000000 
#    z 0.000000 0.000000 4.763920 
# 
# 
# High freq. dielectric constant tensor:
#      x y z
#    x 1.916170 0.000000 0.000000 
#    y 0.000000 1.892410 0.000000 
#    z 0.000000 0.000000 1.933700 
# 
# From -- ./inp_files/14872.got.cif
#   From: 2010.03.12/outbox.cif.g09.slc.cpg/sg57_8_cif.got.tgz:14872.got - 2010.04.16 15:48:40.
