data_PCOD8234862
_publ_section_title
;
Structure prediction by ZEFSAII (Michael W. Deem and Ramdas Pophale) SiO2 
 PCOD8234862
Probable space group: P B C M
;
_chemical_formula_sum "Si O2"
_cell_formula_units_Z 28
_cell_length_a 13.595171
_cell_length_b 4.848026
_cell_length_c 15.901446
_cell_angle_alpha 90.000000
_cell_angle_beta 90.000000
_cell_angle_gamma 90.000000
_cell_volume 1048.060211
_symmetry_space_group_name_H-M "P B C M"
_symmetry_group_IT_number 57
_symmetry_cell_setting 'orthorhombic'
loop_
_space_group_symop_operation_xyz
x,y,z
-x,-y,1/2+z
x,1/2-y,-z
-x,1/2+y,1/2-z
-x,-y,-z
x,y,1/2-z
-x,1/2+y,z
x,1/2-y,1/2+z
loop_
_atom_site_type_symbol
_atom_site_label
_atom_site_fract_x
_atom_site_fract_y
_atom_site_fract_z
Si Si1 0.435293 0.227163 0.096560
Si Si2 0.758954 0.528765 0.657847
Si Si3 0.168274 0.750000 0.000000
Si Si4 0.064183 0.132400 0.398284
O O1 0.530156 0.417828 0.116573
O O2 0.343365 0.308683 0.153074
O O3 0.401341 0.250000 0.000000
O O4 0.765297 0.387731 0.750000
O O5 0.766394 0.294150 0.584237
O O6 0.843073 0.763610 0.653455
O O7 0.100941 0.034408 0.005146
O O8 0.968008 0.314239 0.376345
#
# Coordination Sequence:
#
# PCOD8234862 Si02
#       4
#     8   8   4   8
#     4  10  24  47  80 111 145 197 256 320 392 466
#     4  12  30  49  76 118 163 209 266 331 396 469
#     4  12  26  50  82 112 160 212 266 328 388 474
#     4  12  26  49  79 110 150 205 260 321 392 465
#
# _framework density 26.716024999999998
#
# number of rings (size 3 to 8) (size 9 to 14) (size 15 to 20)
#    0.000    0.571    2.857    3.429   10.000    3.429 
#    0.000    0.000    0.000    0.000    0.000    0.000 
#    0.000    0.000    0.000    0.000    0.000    0.000 
#
# Total GULP energy -346879.938701 kJ/mol
# GULP energy per Si atom -12388.569239 kJ/mol
# Density = 2.665522 g / cm^3
# Si number density = 26.716025 Si / 1000 Ang^3
#
#
#
# Elastic Constant Matrix: (Units=GPa)
#
#
# Indices 1 2 3 4 5 6 
#
# 1 107.0894 8.8144 46.5878 0.0000 0.0000 0.0000
# 2 8.8144 116.2995 40.2078 0.0000 0.0000 0.0000
# 3 46.5878 40.2078 174.0592 0.0000 0.0000 0.0000
# 4 0.0000 0.0000 0.0000 35.6140 0.0000 0.0000
# 5 0.0000 0.0000 0.0000 0.0000 5.8525 0.0000
# 6 0.0000 0.0000 0.0000 0.0000 0.0000 18.4579
#
#
#
# Elastic Compliance Matrix: (Units=1/GPa)
#
#
# Indices 1 2 3 4 5 6 
#
# 1 0.010573 0.000192 -0.002874 0.000000 0.000000 0.000000
# 2 0.000192 0.009348 -0.002211 0.000000 0.000000 0.000000
# 3 -0.002874 -0.002211 0.007025 0.000000 0.000000 0.000000
# 4 0.000000 0.000000 0.000000 0.028079 0.000000 0.000000
# 5 0.000000 0.000000 0.000000 0.000000 0.170866 0.000000
# 6 0.000000 0.000000 0.000000 0.000000 0.000000 0.054177
#
#
# Mechanical properties :
#
#
# Convention : Reuss Voigt Hill
#
# Bulk Modulus (GPa) = 58.27350 65.40758 61.84054
# Shear Modulus (GPa) = 16.91626 32.10744 24.51185
#
# Velocity S-wave (km/s) = 2.51905 3.47047 3.03231
# Velocity P-wave (km/s) = 5.50639 6.37138 5.95462
#
# Compressibility (1/GPa) = 0.01716046
#
# Stress axis : x y z
#
# Youngs Moduli (GPa) = 94.58450 106.97141 142.34452
#
# Poissons Ratio (x) = -0.02058 0.40913
# Poissons Ratio (y) = -0.01820 0.31472
# Poissons Ratio (z) = 0.27186 0.23651
#
# Static dielectric constant tensor:
#      x y z
#    x 4.728100 0.000000 0.000000 
#    y 0.000000 4.997560 0.000000 
#    z 0.000000 0.000000 4.407790 
# 
# 
# High freq. dielectric constant tensor:
#      x y z
#    x 2.081910 0.000000 0.000000 
#    y 0.000000 2.100610 0.000000 
#    z 0.000000 0.000000 2.035040 
# 
# From -- ./inp_files/22215.got.cif
#   From: 2010.03.12/outbox.cif.g09.slc.cpg/sg57_12_cif.got.tgz:22215.got - 2010.04.16 15:48:40.
