data_PCOD8234201
_publ_section_title
;
Structure prediction by ZEFSAII (Michael W. Deem and Ramdas Pophale) SiO2 
 PCOD8234201
Probable space group: P B C M
;
_chemical_formula_sum "Si O2"
_cell_formula_units_Z 40
_cell_length_a 6.352903
_cell_length_b 10.056263
_cell_length_c 29.012999
_cell_angle_alpha 90.000000
_cell_angle_beta 90.000000
_cell_angle_gamma 90.000000
_cell_volume 1853.537898
_symmetry_space_group_name_H-M "P B C M"
_symmetry_group_IT_number 57
_symmetry_cell_setting 'orthorhombic'
loop_
_space_group_symop_operation_xyz
x,y,z
-x,-y,1/2+z
x,1/2-y,-z
-x,1/2+y,1/2-z
-x,-y,-z
x,y,1/2-z
-x,1/2+y,z
x,1/2-y,1/2+z
loop_
_atom_site_type_symbol
_atom_site_label
_atom_site_fract_x
_atom_site_fract_y
_atom_site_fract_z
Si Si1 0.129306 0.582056 0.424623
Si Si2 0.190307 0.198905 0.952905
Si Si3 0.891330 0.571069 0.333366
Si Si4 0.198948 0.795598 0.199131
Si Si5 0.489186 0.297194 0.624103
O O1 0.131872 0.456403 0.459347
O O2 0.366066 0.616981 0.409861
O O3 0.019340 0.711097 0.446984
O O4 0.999272 0.530643 0.381019
O O5 0.340889 0.207527 0.908376
O O6 0.302378 0.250000 0.000000
O O7 0.900102 0.442722 0.300774
O O8 0.649760 0.609224 0.343170
O O9 0.012771 0.691251 0.309113
O O10 0.296431 0.769365 0.250000
O O11 0.372272 0.791693 0.158756
#
# Coordination Sequence:
#
# PCOD8234201 Si02
#       5
#     8   8   8   8   8
#     4  10  21  39  61  86 120 157 195 242 295 352
#     4  11  23  39  62  90 120 157 199 245 296 350
#     4  10  21  40  61  85 120 157 195 242 295 351
#     4  11  23  39  62  90 120 157 199 245 296 350
#     4  10  22  39  62  88 120 156 198 244 294 351
#
# _framework density 21.580349999999999
#
# number of rings (size 3 to 8) (size 9 to 14) (size 15 to 20)
#    0.000    1.600    0.000    6.000    0.000    6.400 
#    0.000    0.000    0.000    0.000    0.000    0.000 
#    0.000    0.000    0.000    0.000    0.000    0.000 
#
# Total GULP energy -496012.093145 kJ/mol
# GULP energy per Si atom -12400.302329 kJ/mol
# Density = 2.153123 g / cm^3
# Si number density = 21.580350 Si / 1000 Ang^3
#
#
#
# Elastic Constant Matrix: (Units=GPa)
#
#
# Indices 1 2 3 4 5 6 
#
# 1 96.7670 46.0347 20.1223 0.0000 0.0000 0.0000
# 2 46.0347 139.6296 28.0221 0.0000 0.0000 0.0000
# 3 20.1223 28.0221 96.1914 0.0000 0.0000 0.0000
# 4 0.0000 0.0000 0.0000 11.2787 0.0000 0.0000
# 5 0.0000 0.0000 0.0000 0.0000 22.8651 0.0000
# 6 0.0000 0.0000 0.0000 0.0000 0.0000 15.7024
#
#
#
# Elastic Compliance Matrix: (Units=1/GPa)
#
#
# Indices 1 2 3 4 5 6 
#
# 1 0.012456 -0.003806 -0.001497 0.000000 0.000000 0.000000
# 2 -0.003806 0.008770 -0.001758 0.000000 0.000000 0.000000
# 3 -0.001497 -0.001758 0.011221 0.000000 0.000000 0.000000
# 4 0.000000 0.000000 0.000000 0.088663 0.000000 0.000000
# 5 0.000000 0.000000 0.000000 0.000000 0.043735 0.000000
# 6 0.000000 0.000000 0.000000 0.000000 0.000000 0.063685
#
#
# Mechanical properties :
#
#
# Convention : Reuss Voigt Hill
#
# Bulk Modulus (GPa) = 54.57383 57.88292 56.22838
# Shear Modulus (GPa) = 20.09969 25.86319 22.98144
#
# Velocity S-wave (km/s) = 3.05518 3.46563 3.26686
# Velocity P-wave (km/s) = 6.14728 6.54938 6.35151
#
# Compressibility (1/GPa) = 0.01832380
#
# Stress axis : x y z
#
# Youngs Moduli (GPa) = 80.28191 114.03026 89.11590
#
# Poissons Ratio (x) = 0.43403 0.13340
# Poissons Ratio (y) = 0.30557 0.15671
# Poissons Ratio (z) = 0.12017 0.20052
#
# Static dielectric constant tensor:
#      x y z
#    x 3.875930 0.000000 0.000000 
#    y 0.000000 3.758340 0.000000 
#    z 0.000000 0.000000 4.019950 
# 
# 
# High freq. dielectric constant tensor:
#      x y z
#    x 1.837700 0.000000 0.000000 
#    y 0.000000 1.854250 0.000000 
#    z 0.000000 0.000000 1.847900 
# 
# From -- ./inp_files/27784.got.cif
#   From: 2010.03.12/outbox.cif.g09.slc.cpg/sg57_14_cif.got.tgz:27784.got - 2010.04.16 15:48:40.
