data_PCOD8234477
_publ_section_title
;
Structure prediction by ZEFSAII (Michael W. Deem and Ramdas Pophale) SiO2 
 PCOD8234477
Probable space group: P B C M
;
_chemical_formula_sum "Si O2"
_cell_formula_units_Z 24
_cell_length_a 15.758662
_cell_length_b 5.183647
_cell_length_c 14.166576
_cell_angle_alpha 90.000000
_cell_angle_beta 90.000000
_cell_angle_gamma 90.000000
_cell_volume 1157.229925
_symmetry_space_group_name_H-M "P B C M"
_symmetry_group_IT_number 57
_symmetry_cell_setting 'orthorhombic'
loop_
_space_group_symop_operation_xyz
x,y,z
-x,-y,1/2+z
x,1/2-y,-z
-x,1/2+y,1/2-z
-x,-y,-z
x,y,1/2-z
-x,1/2+y,z
x,1/2-y,1/2+z
loop_
_atom_site_type_symbol
_atom_site_label
_atom_site_fract_x
_atom_site_fract_y
_atom_site_fract_z
Si Si1 0.945919 0.892858 0.859656
Si Si2 0.444906 0.470019 0.250000
Si Si3 0.805128 0.750000 0.000000
Si Si4 0.357998 0.494901 0.053186
O O1 0.920581 0.890667 0.750000
O O2 0.860336 0.888486 0.919780
O O3 0.002673 0.647668 0.887062
O O4 0.519207 0.680735 0.250000
O O5 0.385055 0.510696 0.160793
O O6 0.744673 0.534353 0.951176
O O7 0.388890 0.750000 0.000000
O O8 0.401478 0.250000 0.000000
#
# Coordination Sequence:
#
# PCOD8234477 Si02
#       4
#     8   4   4   8
#     4  10  22  38  59  89 123 171 216 255 310 369
#     4  12  26  46  72  96 130 170 212 266 324 402
#     4  10  24  38  66  86 134 162 212 268 316 376
#     4  10  25  43  65 100 127 168 214 265 328 382
#
# _framework density 20.739180999999999
#
# number of rings (size 3 to 8) (size 9 to 14) (size 15 to 20)
#    1.000    0.667    0.000    3.000    7.000    4.000 
#    3.000    0.000    0.000    0.000    0.000    0.000 
#    0.000    0.000    0.000    0.000    0.000    0.000 
#
# Total GULP energy -297627.220908 kJ/mol
# GULP energy per Si atom -12401.134204 kJ/mol
# Density = 2.069198 g / cm^3
# Si number density = 20.739181 Si / 1000 Ang^3
#
#
#
# Elastic Constant Matrix: (Units=GPa)
#
#
# Indices 1 2 3 4 5 6 
#
# 1 93.3027 26.6123 71.1085 0.0000 0.0000 0.0000
# 2 26.6123 129.9399 48.3499 0.0000 0.0000 0.0000
# 3 71.1085 48.3499 159.3140 0.0000 0.0000 0.0000
# 4 0.0000 0.0000 0.0000 28.5181 0.0000 0.0000
# 5 0.0000 0.0000 0.0000 0.0000 164.4087 0.0000
# 6 0.0000 0.0000 0.0000 0.0000 0.0000 5.6772
#
#
#
# Elastic Compliance Matrix: (Units=1/GPa)
#
#
# Indices 1 2 3 4 5 6 
#
# 1 0.016301 -0.000712 -0.007060 0.000000 0.000000 0.000000
# 2 -0.000712 0.008707 -0.002325 0.000000 0.000000 0.000000
# 3 -0.007060 -0.002325 0.010134 0.000000 0.000000 0.000000
# 4 0.000000 0.000000 0.000000 0.035065 0.000000 0.000000
# 5 0.000000 0.000000 0.000000 0.000000 0.006082 0.000000
# 6 0.000000 0.000000 0.000000 0.000000 0.000000 0.176143
#
#
# Mechanical properties :
#
#
# Convention : Reuss Voigt Hill
#
# Bulk Modulus (GPa) = 66.89450 74.96644 70.93047
# Shear Modulus (GPa) = 18.01098 55.48653 36.74875
#
# Velocity S-wave (km/s) = 2.95015 5.17808 4.21402
# Velocity P-wave (km/s) = 6.62794 8.48385 7.61267
#
# Compressibility (1/GPa) = 0.01494891
#
# Stress axis : x y z
#
# Youngs Moduli (GPa) = 61.34429 114.85503 98.68119
#
# Poissons Ratio (x) = 0.08173 0.69669
# Poissons Ratio (y) = 0.04365 0.22941
# Poissons Ratio (z) = 0.43309 0.26701
#
# Static dielectric constant tensor:
#      x y z
#    x 3.535400 0.000000 0.000000 
#    y 0.000000 3.881600 0.000000 
#    z 0.000000 0.000000 12.549850 
# 
# 
# High freq. dielectric constant tensor:
#      x y z
#    x 1.802800 0.000000 0.000000 
#    y 0.000000 1.820560 0.000000 
#    z 0.000000 0.000000 1.824270 
# 
# From -- ./inp_files/18081.got.cif
#   From: 2010.03.12/outbox.cif.g09.slc.cpg/sg57_10_cif.got.tgz:18081.got - 2010.04.16 15:48:40.
