data_PCOD8234500
_publ_section_title
;
Structure prediction by ZEFSAII (Michael W. Deem and Ramdas Pophale) SiO2 
 PCOD8234500
Probable space group: P B C M
;
_chemical_formula_sum "Si O2"
_cell_formula_units_Z 64
_cell_length_a 14.748718
_cell_length_b 23.602281
_cell_length_c 8.835550
_cell_angle_alpha 90.000000
_cell_angle_beta 90.000000
_cell_angle_gamma 90.000000
_cell_volume 3075.684878
_symmetry_space_group_name_H-M "P B C M"
_symmetry_group_IT_number 57
_symmetry_cell_setting 'orthorhombic'
loop_
_space_group_symop_operation_xyz
x,y,z
-x,-y,1/2+z
x,1/2-y,-z
-x,1/2+y,1/2-z
-x,-y,-z
x,y,1/2-z
-x,1/2+y,z
x,1/2-y,1/2+z
loop_
_atom_site_type_symbol
_atom_site_label
_atom_site_fract_x
_atom_site_fract_y
_atom_site_fract_z
Si Si1 0.145682 0.891411 0.071119
Si Si2 0.543710 0.353955 0.921181
Si Si3 0.730940 0.306292 0.579333
Si Si4 0.018020 0.311737 0.071141
Si Si5 0.647656 0.808657 0.927355
Si Si6 0.775895 0.003994 0.425261
Si Si7 0.585151 0.468610 0.428569
Si Si8 0.198840 0.124908 0.575803
O O1 0.146281 0.898680 0.250000
O O2 0.059873 0.854858 0.014509
O O3 0.236192 0.860106 0.015724
O O4 0.149472 0.953688 0.996998
O O5 0.529130 0.377692 0.750000
O O6 0.621927 0.306496 0.920607
O O7 0.452456 0.325417 0.983953
O O8 0.574550 0.402880 0.033817
O O9 0.768390 0.250000 0.500000
O O10 0.769475 0.308479 0.750000
O O11 0.013179 0.304851 0.250000
O O12 0.112311 0.339554 0.018697
O O13 0.004804 0.250000 0.000000
O O14 0.650179 0.800668 0.750000
O O15 0.679397 0.750000 0.000000
O O16 0.715419 0.858102 0.975764
O O17 0.761331 0.019513 0.250000
O O18 0.678640 0.006967 0.505908
O O19 0.818589 0.941762 0.445967
O O20 0.500000 0.500000 0.500000
O O21 0.585965 0.478001 0.250000
O O22 0.219974 0.139042 0.750000
#
# Coordination Sequence:
#
# PCOD8234500 Si02
#       8
#     8   8   8   8   8   8   8   8
#     4  11  23  40  63  92 126 163 206 256 309 371
#     4  10  22  39  58  85 121 161 206 255 308 370
#     4  11  22  37  59  86 122 162 203 250 303 367
#     4  10  23  43  66  94 126 161 207 258 315 377
#     4  11  23  39  61  90 124 163 208 259 313 373
#     4  11  23  41  64  92 127 165 209 258 314 376
#     4  12  24  38  60  87 122 166 212 260 309 366
#     4  10  23  43  65  90 123 164 208 261 317 373
#
# _framework density 20.808373
#
# number of rings (size 3 to 8) (size 9 to 14) (size 15 to 20)
#    0.000    1.250    1.250    4.500    0.000    8.500 
#    0.000    0.000    0.000    0.000    0.000    0.000 
#    0.000    0.000    0.000    0.000    0.000    0.000 
#
# Total GULP energy -793875.756545 kJ/mol
# GULP energy per Si atom -12404.308696 kJ/mol
# Density = 2.076101 g / cm^3
# Si number density = 20.808373 Si / 1000 Ang^3
#
#
#
# Elastic Constant Matrix: (Units=GPa)
#
#
# Indices 1 2 3 4 5 6 
#
# 1 104.6920 33.8492 35.9473 0.0000 0.0000 0.0000
# 2 33.8492 108.6770 39.5973 0.0000 0.0000 0.0000
# 3 35.9473 39.5973 97.2839 0.0000 0.0000 0.0000
# 4 0.0000 0.0000 0.0000 34.5340 0.0000 0.0000
# 5 0.0000 0.0000 0.0000 0.0000 26.8094 0.0000
# 6 0.0000 0.0000 0.0000 0.0000 0.0000 39.1439
#
#
#
# Elastic Compliance Matrix: (Units=1/GPa)
#
#
# Indices 1 2 3 4 5 6 
#
# 1 0.011439 -0.002375 -0.003260 0.000000 0.000000 0.000000
# 2 -0.002375 0.011297 -0.003721 0.000000 0.000000 0.000000
# 3 -0.003260 -0.003721 0.012998 0.000000 0.000000 0.000000
# 4 0.000000 0.000000 0.000000 0.028957 0.000000 0.000000
# 5 0.000000 0.000000 0.000000 0.000000 0.037300 0.000000
# 6 0.000000 0.000000 0.000000 0.000000 0.000000 0.025547
#
#
# Mechanical properties :
#
#
# Convention : Reuss Voigt Hill
#
# Bulk Modulus (GPa) = 58.74488 58.82674 58.78581
# Shear Modulus (GPa) = 32.91113 33.51471 33.21292
#
# Velocity S-wave (km/s) = 3.98128 4.01763 3.99950
# Velocity P-wave (km/s) = 7.03042 7.06073 7.04559
#
# Compressibility (1/GPa) = 0.01702276
#
# Stress axis : x y z
#
# Youngs Moduli (GPa) = 87.41912 88.51946 76.93347
#
# Poissons Ratio (x) = 0.21024 0.25082
# Poissons Ratio (y) = 0.20762 0.28624
# Poissons Ratio (z) = 0.28500 0.32934
#
# Static dielectric constant tensor:
#      x y z
#    x 3.844390 0.000000 0.000000 
#    y 0.000000 3.855750 0.000000 
#    z 0.000000 0.000000 3.781690 
# 
# 
# High freq. dielectric constant tensor:
#      x y z
#    x 1.816630 0.000000 0.000000 
#    y 0.000000 1.822770 0.000000 
#    z 0.000000 0.000000 1.816200 
# 
# From -- ./inp_files/5728.got.cif
#   From: 2010.03.12/outbox.cif.g09.slc.cpg/sg57_3_cif.got.tgz:5728.got - 2010.04.16 15:48:40.
