data_PCOD8234525
_publ_section_title
;
Structure prediction by ZEFSAII (Michael W. Deem and Ramdas Pophale) SiO2 
 PCOD8234525
Probable space group: P B C M
;
_chemical_formula_sum "Si O2"
_cell_formula_units_Z 48
_cell_length_a 16.760432
_cell_length_b 15.720458
_cell_length_c 8.844343
_cell_angle_alpha 90.000000
_cell_angle_beta 90.000000
_cell_angle_gamma 90.000000
_cell_volume 2330.322240
_symmetry_space_group_name_H-M "P B C M"
_symmetry_group_IT_number 57
_symmetry_cell_setting 'orthorhombic'
loop_
_space_group_symop_operation_xyz
x,y,z
-x,-y,1/2+z
x,1/2-y,-z
-x,1/2+y,1/2-z
-x,-y,-z
x,y,1/2-z
-x,1/2+y,z
x,1/2-y,1/2+z
loop_
_atom_site_type_symbol
_atom_site_label
_atom_site_fract_x
_atom_site_fract_y
_atom_site_fract_z
Si Si1 0.841966 0.587535 0.924107
Si Si2 0.678900 0.164904 0.572544
Si Si3 0.832737 0.108288 0.422656
Si Si4 0.991249 0.840412 0.570762
Si Si5 0.690182 0.662399 0.070567
Si Si6 0.586395 0.998663 0.929087
O O1 0.848028 0.616004 0.750000
O O2 0.813971 0.490901 0.939581
O O3 0.779049 0.647303 0.008903
O O4 0.927934 0.593716 0.002791
O O5 0.640864 0.250000 0.500000
O O6 0.671149 0.172426 0.750000
O O7 0.771624 0.159389 0.527068
O O8 0.632659 0.082083 0.511019
O O9 0.821416 0.138224 0.250000
O O10 0.921334 0.129353 0.480207
O O11 0.971068 0.750000 0.500000
O O12 0.982844 0.837746 0.750000
O O13 0.693293 0.669801 0.250000
O O14 0.632685 0.585904 0.017093
O O15 0.656576 0.750000 0.000000
O O16 0.579335 0.000372 0.750000
O O17 0.500000 0.000000 0.000000
#
# Coordination Sequence:
#
# PCOD8234525 Si02
#       6
#     8   8   8   8   8   8
#     4  11  22  38  61  89 120 161 209 257 311 367
#     4  11  23  41  65  95 128 166 208 254 309 369
#     4  10  22  39  61  89 120 161 210 257 310 366
#     4  11  23  38  55  82 120 161 208 259 308 363
#     4  11  23  42  65  94 127 165 209 255 310 369
#     4  10  24  44  67  94 127 163 203 252 311 372
#
# _framework density 20.598011
#
# number of rings (size 3 to 8) (size 9 to 14) (size 15 to 20)
#    0.000    1.333    1.667    3.500    0.000    6.667 
#    0.000    3.333    0.000    0.000    0.000    0.000 
#    0.000    0.000    0.000    0.000    0.000    0.000 
#
# Total GULP energy -595486.670866 kJ/mol
# GULP energy per Si atom -12405.972310 kJ/mol
# Density = 2.055113 g / cm^3
# Si number density = 20.598011 Si / 1000 Ang^3
#
#
#
# Elastic Constant Matrix: (Units=GPa)
#
#
# Indices 1 2 3 4 5 6 
#
# 1 126.1138 53.9649 40.5308 0.0000 0.0000 0.0000
# 2 53.9649 139.9828 46.8017 0.0000 0.0000 0.0000
# 3 40.5308 46.8017 80.1984 0.0000 0.0000 0.0000
# 4 0.0000 0.0000 0.0000 32.6677 0.0000 0.0000
# 5 0.0000 0.0000 0.0000 0.0000 38.0539 0.0000
# 6 0.0000 0.0000 0.0000 0.0000 0.0000 23.2494
#
#
#
# Elastic Compliance Matrix: (Units=1/GPa)
#
#
# Indices 1 2 3 4 5 6 
#
# 1 0.010259 -0.002760 -0.003574 0.000000 0.000000 0.000000
# 2 -0.002760 0.009618 -0.004218 0.000000 0.000000 0.000000
# 3 -0.003574 -0.004218 0.016737 0.000000 0.000000 0.000000
# 4 0.000000 0.000000 0.000000 0.030611 0.000000 0.000000
# 5 0.000000 0.000000 0.000000 0.000000 0.026278 0.000000
# 6 0.000000 0.000000 0.000000 0.000000 0.000000 0.043012
#
#
# Mechanical properties :
#
#
# Convention : Reuss Voigt Hill
#
# Bulk Modulus (GPa) = 64.47535 69.87663 67.17599
# Shear Modulus (GPa) = 30.71453 32.46071 31.58762
#
# Velocity S-wave (km/s) = 3.86572 3.97409 3.92028
# Velocity P-wave (km/s) = 7.16203 7.41993 7.29212
#
# Compressibility (1/GPa) = 0.01550980
#
# Stress axis : x y z
#
# Youngs Moduli (GPa) = 97.47528 103.97203 59.74852
#
# Poissons Ratio (x) = 0.28696 0.21354
# Poissons Ratio (y) = 0.26903 0.25202
# Poissons Ratio (z) = 0.34838 0.43855
#
# Static dielectric constant tensor:
#      x y z
#    x 3.660460 0.000000 0.000000 
#    y 0.000000 3.981520 0.000000 
#    z 0.000000 0.000000 3.676440 
# 
# 
# High freq. dielectric constant tensor:
#      x y z
#    x 1.801830 0.000000 0.000000 
#    y 0.000000 1.822110 0.000000 
#    z 0.000000 0.000000 1.806540 
# 
# From -- ./inp_files/6520.got.cif
#   From: 2010.03.12/outbox.cif.g09.slc.cpg/sg57_4_cif.got.tgz:6520.got - 2010.04.16 15:48:40.
