data_PCOD8234167
_publ_section_title
;
Structure prediction by ZEFSAII (Michael W. Deem and Ramdas Pophale) SiO2 
 PCOD8234167
Probable space group: P B C M
;
_chemical_formula_sum "Si O2"
_cell_formula_units_Z 64
_cell_length_a 11.866615
_cell_length_b 9.865593
_cell_length_c 26.465663
_cell_angle_alpha 90.000000
_cell_angle_beta 90.000000
_cell_angle_gamma 90.000000
_cell_volume 3098.366764
_symmetry_space_group_name_H-M "P B C M"
_symmetry_group_IT_number 57
_symmetry_cell_setting 'orthorhombic'
loop_
_space_group_symop_operation_xyz
x,y,z
-x,-y,1/2+z
x,1/2-y,-z
-x,1/2+y,1/2-z
-x,-y,-z
x,y,1/2-z
-x,1/2+y,z
x,1/2-y,1/2+z
loop_
_atom_site_type_symbol
_atom_site_label
_atom_site_fract_x
_atom_site_fract_y
_atom_site_fract_z
Si Si1 0.205115 0.283646 0.555234
Si Si2 0.741994 0.906115 0.692852
Si Si3 0.819790 0.869178 0.153469
Si Si4 0.792035 0.355825 0.882486
Si Si5 0.575848 0.254334 0.439409
Si Si6 0.000332 0.445621 0.944547
Si Si7 0.077920 0.899852 0.147313
Si Si8 0.609995 0.950326 0.902152
O O1 0.253479 0.250000 0.500000
O O2 0.215395 0.163193 0.595267
O O3 0.071428 0.307836 0.554635
O O4 0.268710 0.420332 0.572794
O O5 0.708230 0.940875 0.750000
O O6 0.761008 0.743412 0.688417
O O7 0.635758 0.953013 0.658134
O O8 0.858861 0.982321 0.678812
O O9 0.952465 0.870258 0.168412
O O10 0.769415 0.022370 0.158288
O O11 0.683059 0.310117 0.912584
O O12 0.845329 0.233955 0.850321
O O13 0.877170 0.413513 0.924314
O O14 0.586005 0.250000 0.500000
O O15 0.468840 0.173128 0.419121
O O16 0.559442 0.409013 0.421671
O O17 0.064431 0.554974 0.910329
O O18 0.000000 0.500000 0.000000
#
# Coordination Sequence:
#
# PCOD8234167 Si02
#       8
#     8   8   8   8   8   8   8   8
#     4  11  20  35  59  90 134 178 212 255 321 393
#     4  11  24  46  73  92 125 177 224 282 346 387
#     4  10  21  38  63  94 136 171 212 262 325 400
#     4  11  23  36  63  93 135 172 215 269 320 382
#     4  12  27  43  69  98 133 180 218 265 331 402
#     4  11  22  33  59  96 137 181 220 255 324 397
#     4  11  19  42  58  95 135 173 210 276 320 395
#     4  11  26  47  65  93 132 168 227 280 326 386
#
# _framework density 20.656043
#
# number of rings (size 3 to 8) (size 9 to 14) (size 15 to 20)
#    0.000    1.000    5.000    3.000    8.750    0.500 
#    0.000    1.250    0.000    0.000    0.000    0.000 
#    0.000    0.000    0.000    0.000    0.000    0.000 
#
# Total GULP energy -793235.883612 kJ/mol
# GULP energy per Si atom -12394.310681 kJ/mol
# Density = 2.060903 g / cm^3
# Si number density = 20.656043 Si / 1000 Ang^3
#
#
#
# Elastic Constant Matrix: (Units=GPa)
#
#
# Indices 1 2 3 4 5 6 
#
# 1 76.6081 30.8499 16.9324 0.0000 0.0000 0.0000
# 2 30.8499 123.3444 35.5738 0.0000 0.0000 0.0000
# 3 16.9324 35.5738 103.5996 0.0000 0.0000 0.0000
# 4 0.0000 0.0000 0.0000 14.6504 0.0000 0.0000
# 5 0.0000 0.0000 0.0000 0.0000 12.9466 0.0000
# 6 0.0000 0.0000 0.0000 0.0000 0.0000 37.7461
#
#
#
# Elastic Compliance Matrix: (Units=1/GPa)
#
#
# Indices 1 2 3 4 5 6 
#
# 1 0.014663 -0.003303 -0.001262 0.000000 0.000000 0.000000
# 2 -0.003303 0.009743 -0.002806 0.000000 0.000000 0.000000
# 3 -0.001262 -0.002806 0.010822 0.000000 0.000000 0.000000
# 4 0.000000 0.000000 0.000000 0.068258 0.000000 0.000000
# 5 0.000000 0.000000 0.000000 0.000000 0.077240 0.000000
# 6 0.000000 0.000000 0.000000 0.000000 0.000000 0.026493
#
#
# Mechanical properties :
#
#
# Convention : Reuss Voigt Hill
#
# Bulk Modulus (GPa) = 48.81493 52.25158 50.53325
# Shear Modulus (GPa) = 21.85420 27.74834 24.80127
#
# Velocity S-wave (km/s) = 3.25623 3.66915 3.46884
# Velocity P-wave (km/s) = 6.14987 6.58036 6.36876
#
# Compressibility (1/GPa) = 0.02048554
#
# Stress axis : x y z
#
# Youngs Moduli (GPa) = 68.20058 102.64076 92.40258
#
# Poissons Ratio (x) = 0.33905 0.11663
# Poissons Ratio (y) = 0.22528 0.25924
# Poissons Ratio (z) = 0.08608 0.28796
#
# Static dielectric constant tensor:
#      x y z
#    x 3.802970 0.000000 0.000000 
#    y 0.000000 4.001360 0.000000 
#    z 0.000000 0.000000 3.452630 
# 
# 
# High freq. dielectric constant tensor:
#      x y z
#    x 1.798560 0.000000 0.000000 
#    y 0.000000 1.827690 0.000000 
#    z 0.000000 0.000000 1.776520 
# 
# From -- ./inp_files/29788.got.cif
#   From: 2010.03.12/outbox.cif.g09.slc.cpg/sg57_15_cif.got.tgz:29788.got - 2010.04.16 15:48:40.
