data_PCOD8234950
_publ_section_title
;
Structure prediction by ZEFSAII (Michael W. Deem and Ramdas Pophale) SiO2 
 PCOD8234950
Probable space group: P B C M
;
_chemical_formula_sum "Si O2"
_cell_formula_units_Z 64
_cell_length_a 20.420160
_cell_length_b 9.504768
_cell_length_c 17.472239
_cell_angle_alpha 90.000000
_cell_angle_beta 90.000000
_cell_angle_gamma 90.000000
_cell_volume 3391.167357
_symmetry_space_group_name_H-M "P B C M"
_symmetry_group_IT_number 57
_symmetry_cell_setting 'orthorhombic'
loop_
_space_group_symop_operation_xyz
x,y,z
-x,-y,1/2+z
x,1/2-y,-z
-x,1/2+y,1/2-z
-x,-y,-z
x,y,1/2-z
-x,1/2+y,z
x,1/2-y,1/2+z
loop_
_atom_site_type_symbol
_atom_site_label
_atom_site_fract_x
_atom_site_fract_y
_atom_site_fract_z
Si Si1 0.058651 0.087465 0.594327
Si Si2 0.937407 0.908285 0.586523
Si Si3 0.680455 0.626142 0.103903
Si Si4 0.453136 0.182855 0.160748
Si Si5 0.806998 0.556983 0.660670
Si Si6 0.540007 0.979364 0.420346
Si Si7 0.685247 0.941363 0.069473
Si Si8 0.188416 0.385128 0.835160
O O1 0.063776 0.080522 0.503762
O O2 0.051970 0.250312 0.618883
O O3 0.121247 0.007800 0.631866
O O4 0.994034 0.005385 0.622432
O O5 0.865801 0.962325 0.613006
O O6 0.608818 0.584651 0.134687
O O7 0.677054 0.794371 0.113334
O O8 0.738017 0.554793 0.154290
O O9 0.699775 0.580302 0.019208
O O10 0.448417 0.225544 0.250000
O O11 0.463515 0.317278 0.106050
O O12 0.513764 0.079579 0.146561
O O13 0.797340 0.521667 0.750000
O O14 0.747491 0.483628 0.611983
O O15 0.806299 0.722082 0.641948
O O16 0.616472 0.025158 0.427135
O O17 0.500000 0.000000 0.500000
O O18 0.163946 0.407839 0.750000
#
# Coordination Sequence:
#
# PCOD8234950 Si02
#       8
#     8   8   8   8   8   8   8   8
#     4   9  17  30  47  70  96 126 163 205 249 299
#     4   9  17  29  47  69  96 127 162 202 246 302
#     4   9  16  29  48  73 102 132 168 212 261 309
#     4  11  22  35  55  82 111 141 177 224 273 317
#     4   9  17  28  45  71 101 129 167 215 259 301
#     4  11  21  37  56  80 110 143 181 219 267 329
#     4   9  17  29  50  73  99 134 171 212 257 310
#     4   9  16  26  43  69  99 127 159 204 255 301
#
# _framework density 18.872558000000001
#
# number of rings (size 3 to 8) (size 9 to 14) (size 15 to 20)
#    0.000    2.500    1.250    1.875    0.000    7.000 
#    0.000    0.000    0.000    1.500    6.500    0.000 
#    0.000    0.000    0.000    0.000    0.000    0.000 
#
# Total GULP energy -792982.692006 kJ/mol
# GULP energy per Si atom -12390.354563 kJ/mol
# Density = 1.882960 g / cm^3
# Si number density = 18.872558 Si / 1000 Ang^3
#
#
#
# Elastic Constant Matrix: (Units=GPa)
#
#
# Indices 1 2 3 4 5 6 
#
# 1 170.7589 40.3873 52.1988 0.0000 0.0000 0.0000
# 2 40.3873 32.9567 16.2006 0.0000 0.0000 0.0000
# 3 52.1988 16.2006 73.9740 0.0000 0.0000 0.0000
# 4 0.0000 0.0000 0.0000 15.6353 0.0000 0.0000
# 5 0.0000 0.0000 0.0000 0.0000 29.5174 0.0000
# 6 0.0000 0.0000 0.0000 0.0000 0.0000 22.9849
#
#
#
# Elastic Compliance Matrix: (Units=1/GPa)
#
#
# Indices 1 2 3 4 5 6 
#
# 1 0.009486 -0.009340 -0.004648 0.000000 0.000000 0.000000
# 2 -0.009340 0.043200 -0.002870 0.000000 0.000000 0.000000
# 3 -0.004648 -0.002870 0.017427 0.000000 0.000000 0.000000
# 4 0.000000 0.000000 0.000000 0.063958 0.000000 0.000000
# 5 0.000000 0.000000 0.000000 0.000000 0.033878 0.000000
# 6 0.000000 0.000000 0.000000 0.000000 0.000000 0.043507
#
#
# Mechanical properties :
#
#
# Convention : Reuss Voigt Hill
#
# Bulk Modulus (GPa) = 27.47583 55.02921 41.25252
# Shear Modulus (GPa) = 19.43219 24.88770 22.15995
#
# Velocity S-wave (km/s) = 3.21230 3.63536 3.43036
# Velocity P-wave (km/s) = 5.32435 6.84418 6.13154
#
# Compressibility (1/GPa) = 0.03639563
#
# Stress axis : x y z
#
# Youngs Moduli (GPa) = 105.41604 23.14833 57.38258
#
# Poissons Ratio (x) = 0.21621 0.26673
# Poissons Ratio (y) = 0.98459 0.16470
# Poissons Ratio (z) = 0.49001 0.06644
#
# Static dielectric constant tensor:
#      x y z
#    x 4.009810 0.000000 0.000000 
#    y 0.000000 2.985600 0.000000 
#    z 0.000000 0.000000 3.301680 
# 
# 
# High freq. dielectric constant tensor:
#      x y z
#    x 1.759550 0.000000 0.000000 
#    y 0.000000 1.658850 0.000000 
#    z 0.000000 0.000000 1.734000 
# 
# From -- ./inp_files/22956.got.cif
#   From: 2010.03.12/outbox.cif.g09.slc.cpg/sg57_12_cif.got.tgz:22956.got - 2010.04.16 15:48:40.
