data_PCOD8234715
_publ_section_title
;
Structure prediction by ZEFSAII (Michael W. Deem and Ramdas Pophale) SiO2 
 PCOD8234715
Probable space group: P B C M
;
_chemical_formula_sum "Si O2"
_cell_formula_units_Z 40
_cell_length_a 25.806819
_cell_length_b 8.957482
_cell_length_c 8.490755
_cell_angle_alpha 90.000000
_cell_angle_beta 90.000000
_cell_angle_gamma 90.000000
_cell_volume 1962.757879
_symmetry_space_group_name_H-M "P B C M"
_symmetry_group_IT_number 57
_symmetry_cell_setting 'orthorhombic'
loop_
_space_group_symop_operation_xyz
x,y,z
-x,-y,1/2+z
x,1/2-y,-z
-x,1/2+y,1/2-z
-x,-y,-z
x,y,1/2-z
-x,1/2+y,z
x,1/2-y,1/2+z
loop_
_atom_site_type_symbol
_atom_site_label
_atom_site_fract_x
_atom_site_fract_y
_atom_site_fract_z
Si Si1 0.849307 0.085055 0.064553
Si Si2 0.253942 0.415448 0.437155
Si Si3 0.450363 0.083902 0.935070
Si Si4 0.049589 0.084426 0.563342
Si Si5 0.351937 0.584924 0.935486
O O1 0.852330 0.092238 0.250000
O O2 0.797529 0.001783 0.009733
O O3 0.899123 0.997541 0.997855
O O4 0.848915 0.250000 0.000000
O O5 0.248034 0.250000 0.500000
O O6 0.262871 0.418747 0.250000
O O7 0.301450 0.490470 0.525815
O O8 0.455176 0.094155 0.750000
O O9 0.446138 0.250000 0.000000
O O10 0.500000 0.000000 0.000000
O O11 0.400327 0.990210 0.980510
O O12 0.049601 0.250000 0.500000
O O13 0.048249 0.086271 0.750000
O O14 0.000000 0.000000 0.500000
O O15 0.361772 0.588646 0.750000
O O16 0.343923 0.750000 0.000000
#
# Coordination Sequence:
#
# PCOD8234715 Si02
#       5
#     8   8   8   8   8
#     4  10  23  40  61  88 121 158 202 250 304 362
#     4  11  23  41  63  91 123 161 204 252 305 363
#     4  12  25  44  67  95 128 166 208 255 307 364
#     4  11  23  40  61  89 121 159 202 251 304 363
#     4  12  25  43  65  93 126 164 206 254 306 364
#
# _framework density 20.379487999999998
#
# number of rings (size 3 to 8) (size 9 to 14) (size 15 to 20)
#    0.000    0.800    0.000    7.800    0.000    6.400 
#    0.000    0.000    0.000    0.000    0.000    0.000 
#    0.000    0.000    0.000    0.000    0.000    0.000 
#
# Total GULP energy -496244.798488 kJ/mol
# GULP energy per Si atom -12406.119962 kJ/mol
# Density = 2.033310 g / cm^3
# Si number density = 20.379488 Si / 1000 Ang^3
#
#
#
# Elastic Constant Matrix: (Units=GPa)
#
#
# Indices 1 2 3 4 5 6 
#
# 1 159.9886 56.7515 23.4525 0.0000 0.0000 0.0000
# 2 56.7515 145.7527 17.1033 0.0000 0.0000 0.0000
# 3 23.4525 17.1033 96.7391 0.0000 0.0000 0.0000
# 4 0.0000 0.0000 0.0000 37.6710 0.0000 0.0000
# 5 0.0000 0.0000 0.0000 0.0000 33.5563 0.0000
# 6 0.0000 0.0000 0.0000 0.0000 0.0000 69.0529
#
#
#
# Elastic Compliance Matrix: (Units=1/GPa)
#
#
# Indices 1 2 3 4 5 6 
#
# 1 0.007412 -0.002732 -0.001314 0.000000 0.000000 0.000000
# 2 -0.002732 0.008013 -0.000754 0.000000 0.000000 0.000000
# 3 -0.001314 -0.000754 0.010789 0.000000 0.000000 0.000000
# 4 0.000000 0.000000 0.000000 0.026546 0.000000 0.000000
# 5 0.000000 0.000000 0.000000 0.000000 0.029801 0.000000
# 6 0.000000 0.000000 0.000000 0.000000 0.000000 0.014482
#
#
# Mechanical properties :
#
#
# Convention : Reuss Voigt Hill
#
# Bulk Modulus (GPa) = 60.19078 66.34388 63.26733
# Shear Modulus (GPa) = 44.57101 48.40092 46.48596
#
# Velocity S-wave (km/s) = 4.68167 4.87867 4.78118
# Velocity P-wave (km/s) = 7.66962 8.02247 7.84803
#
# Compressibility (1/GPa) = 0.01661384
#
# Stress axis : x y z
#
# Youngs Moduli (GPa) = 134.91449 124.79470 92.68697
#
# Poissons Ratio (x) = 0.34092 0.12178
# Poissons Ratio (y) = 0.36857 0.06993
# Poissons Ratio (z) = 0.17727 0.09415
#
# Static dielectric constant tensor:
#      x y z
#    x 6.704010 0.000000 0.000000 
#    y 0.000000 3.901450 0.000000 
#    z 0.000000 0.000000 3.891160 
# 
# 
# High freq. dielectric constant tensor:
#      x y z
#    x 1.821300 0.000000 0.000000 
#    y 0.000000 1.820690 0.000000 
#    z 0.000000 0.000000 1.809410 
# 
# From -- ./inp_files/8864.got.cif
#   From: 2010.03.12/outbox.cif.g09.slc.cpg/sg57_5_cif.got.tgz:8864.got - 2010.04.16 15:48:40.
