data_PCOD8234478
_publ_section_title
;
Structure prediction by ZEFSAII (Michael W. Deem and Ramdas Pophale) SiO2 
 PCOD8234478
Probable space group: P B C M
;
_chemical_formula_sum "Si O2"
_cell_formula_units_Z 48
_cell_length_a 12.050489
_cell_length_b 11.797857
_cell_length_c 15.349667
_cell_angle_alpha 90.000000
_cell_angle_beta 90.000000
_cell_angle_gamma 90.000000
_cell_volume 2182.261329
_symmetry_space_group_name_H-M "P B C M"
_symmetry_group_IT_number 57
_symmetry_cell_setting 'orthorhombic'
loop_
_space_group_symop_operation_xyz
x,y,z
-x,-y,1/2+z
x,1/2-y,-z
-x,1/2+y,1/2-z
-x,-y,-z
x,y,1/2-z
-x,1/2+y,z
x,1/2-y,1/2+z
loop_
_atom_site_type_symbol
_atom_site_label
_atom_site_fract_x
_atom_site_fract_y
_atom_site_fract_z
Si Si1 0.076720 0.108746 0.848202
Si Si2 0.211871 0.197064 0.403876
Si Si3 0.297852 0.992045 0.854983
Si Si4 0.569426 0.698987 0.905425
Si Si5 0.329954 0.758478 0.348395
Si Si6 0.164098 0.552417 0.645246
O O1 0.059795 0.071415 0.750000
O O2 0.110557 0.241491 0.853835
O O3 0.176033 0.032453 0.887403
O O4 0.957180 0.087363 0.891836
O O5 0.215333 0.250000 0.500000
O O6 0.331377 0.227402 0.360460
O O7 0.194881 0.063880 0.402358
O O8 0.312181 0.003305 0.750000
O O9 0.390246 0.068061 0.904335
O O10 0.313867 0.864985 0.891627
O O11 0.457816 0.705162 0.849974
O O12 0.542357 0.750000 0.000000
O O13 0.289510 0.745777 0.250000
O O14 0.250761 0.853830 0.390735
O O15 0.170755 0.538314 0.750000
#
# Coordination Sequence:
#
# PCOD8234478 Si02
#       6
#     8   8   8   8   8   8
#     4   9  19  37  62  87 116 156 201 250 301 351
#     4  10  22  40  59  86 121 161 203 248 299 361
#     4   9  19  37  61  88 120 156 197 248 302 351
#     4  10  22  40  59  85 119 161 201 242 297 362
#     4  10  22  38  59  91 123 154 200 252 300 354
#     4  10  22  38  63  92 119 155 203 251 298 360
#
# _framework density 21.995532000000001
#
# number of rings (size 3 to 8) (size 9 to 14) (size 15 to 20)
#    0.000    2.333    0.000    1.000    4.667    3.333 
#    6.000    0.833    0.000    0.000    0.000    0.000 
#    0.000    0.000    0.000    0.000    0.000    0.000 
#
# Total GULP energy -594920.086316 kJ/mol
# GULP energy per Si atom -12394.168465 kJ/mol
# Density = 2.194547 g / cm^3
# Si number density = 21.995532 Si / 1000 Ang^3
#
#
#
# Elastic Constant Matrix: (Units=GPa)
#
#
# Indices 1 2 3 4 5 6 
#
# 1 179.2488 98.6831 10.9188 0.0000 0.0000 0.0000
# 2 98.6831 219.9421 19.6245 0.0000 0.0000 0.0000
# 3 10.9188 19.6245 35.1195 0.0000 0.0000 0.0000
# 4 0.0000 0.0000 0.0000 26.7513 0.0000 0.0000
# 5 0.0000 0.0000 0.0000 0.0000 15.0023 0.0000
# 6 0.0000 0.0000 0.0000 0.0000 0.0000 26.3775
#
#
#
# Elastic Compliance Matrix: (Units=1/GPa)
#
#
# Indices 1 2 3 4 5 6 
#
# 1 0.007416 -0.003286 -0.000470 0.000000 0.000000 0.000000
# 2 -0.003286 0.006241 -0.002466 0.000000 0.000000 0.000000
# 3 -0.000470 -0.002466 0.029998 0.000000 0.000000 0.000000
# 4 0.000000 0.000000 0.000000 0.037381 0.000000 0.000000
# 5 0.000000 0.000000 0.000000 0.000000 0.066657 0.000000
# 6 0.000000 0.000000 0.000000 0.000000 0.000000 0.037911
#
#
# Mechanical properties :
#
#
# Convention : Reuss Voigt Hill
#
# Bulk Modulus (GPa) = 32.03812 76.97370 54.50591
# Shear Modulus (GPa) = 23.98645 33.96515 28.97580
#
# Velocity S-wave (km/s) = 3.30588 3.93387 3.63347
# Velocity P-wave (km/s) = 5.40084 7.46357 6.51437
#
# Compressibility (1/GPa) = 0.03121282
#
# Stress axis : x y z
#
# Youngs Moduli (GPa) = 134.83800 160.23467 33.33543
#
# Poissons Ratio (x) = 0.52647 0.01566
# Poissons Ratio (y) = 0.44303 0.08220
# Poissons Ratio (z) = 0.06335 0.39511
#
# Static dielectric constant tensor:
#      x y z
#    x 4.195310 0.000000 0.000000 
#    y 0.000000 4.046550 0.000000 
#    z 0.000000 0.000000 3.539660 
# 
# 
# High freq. dielectric constant tensor:
#      x y z
#    x 1.874310 0.000000 0.000000 
#    y 0.000000 1.867660 0.000000 
#    z 0.000000 0.000000 1.835050 
# 
# From -- ./inp_files/21825.got.cif
#   From: 2010.03.12/outbox.cif.g09.slc.cpg/sg57_11_cif.got.tgz:21825.got - 2010.04.16 15:48:40.
