data_PCOD8234564
_publ_section_title
;
Structure prediction by ZEFSAII (Michael W. Deem and Ramdas Pophale) SiO2 
 PCOD8234564
Probable space group: P B C M
;
_chemical_formula_sum "Si O2"
_cell_formula_units_Z 48
_cell_length_a 13.583418
_cell_length_b 9.864001
_cell_length_c 17.706660
_cell_angle_alpha 90.000000
_cell_angle_beta 90.000000
_cell_angle_gamma 90.000000
_cell_volume 2372.459575
_symmetry_space_group_name_H-M "P B C M"
_symmetry_group_IT_number 57
_symmetry_cell_setting 'orthorhombic'
loop_
_space_group_symop_operation_xyz
x,y,z
-x,-y,1/2+z
x,1/2-y,-z
-x,1/2+y,1/2-z
-x,-y,-z
x,y,1/2-z
-x,1/2+y,z
x,1/2-y,1/2+z
loop_
_atom_site_type_symbol
_atom_site_label
_atom_site_fract_x
_atom_site_fract_y
_atom_site_fract_z
Si Si1 0.598167 0.383425 0.162845
Si Si2 0.206112 0.540120 0.578553
Si Si3 0.214924 0.976493 0.596170
Si Si4 0.881625 0.759673 0.586411
Si Si5 0.579090 0.426771 0.663000
Si Si6 0.083776 0.749085 0.662663
O O1 0.627918 0.407442 0.250000
O O2 0.693088 0.402794 0.111456
O O3 0.516075 0.489786 0.135940
O O4 0.557292 0.231962 0.150436
O O5 0.200484 0.569199 0.489779
O O6 0.197093 0.380573 0.595750
O O7 0.114090 0.616448 0.615844
O O8 0.330210 0.978280 0.613583
O O9 0.160374 0.870408 0.649943
O O10 0.171316 0.123815 0.613777
O O11 0.917397 0.750000 0.500000
O O12 0.975294 0.793473 0.637700
O O13 0.602522 0.459075 0.750000
O O14 0.084123 0.710346 0.750000
#
# Coordination Sequence:
#
# PCOD8234564 Si02
#       6
#     8   8   8   8   8   8
#     4  10  22  40  62  90 124 161 201 248 302 361
#     4  11  23  41  64  90 124 164 204 252 305 360
#     4  11  23  41  64  90 124 164 204 252 305 360
#     4  10  24  42  61  90 125 162 205 250 302 362
#     4  10  22  40  62  90 124 161 201 248 302 361
#     4  12  24  40  63  92 123 160 207 254 306 364
#
# _framework density 20.232168999999999
#
# number of rings (size 3 to 8) (size 9 to 14) (size 15 to 20)
#    0.000    1.333    1.667    3.500    2.333    7.333 
#    0.000    0.000    0.000    0.000    0.000    0.000 
#    0.000    0.000    0.000    0.000    0.000    0.000 
#
# Total GULP energy -595560.688932 kJ/mol
# GULP energy per Si atom -12407.514353 kJ/mol
# Density = 2.018612 g / cm^3
# Si number density = 20.232169 Si / 1000 Ang^3
#
#
#
# Elastic Constant Matrix: (Units=GPa)
#
#
# Indices 1 2 3 4 5 6 
#
# 1 84.2982 24.6566 22.6743 0.0000 0.0000 0.0000
# 2 24.6566 91.4685 20.3365 0.0000 0.0000 0.0000
# 3 22.6743 20.3365 75.5105 0.0000 0.0000 0.0000
# 4 0.0000 0.0000 0.0000 21.1307 0.0000 0.0000
# 5 0.0000 0.0000 0.0000 0.0000 36.3437 0.0000
# 6 0.0000 0.0000 0.0000 0.0000 0.0000 32.3307
#
#
#
# Elastic Compliance Matrix: (Units=1/GPa)
#
#
# Indices 1 2 3 4 5 6 
#
# 1 0.013608 -0.002935 -0.003296 0.000000 0.000000 0.000000
# 2 -0.002935 0.012262 -0.002421 0.000000 0.000000 0.000000
# 3 -0.003296 -0.002421 0.014885 0.000000 0.000000 0.000000
# 4 0.000000 0.000000 0.000000 0.047324 0.000000 0.000000
# 5 0.000000 0.000000 0.000000 0.000000 0.027515 0.000000
# 6 0.000000 0.000000 0.000000 0.000000 0.000000 0.030930
#
#
# Mechanical properties :
#
#
# Convention : Reuss Voigt Hill
#
# Bulk Modulus (GPa) = 42.64252 42.95688 42.79970
# Shear Modulus (GPa) = 29.12979 30.20168 29.66574
#
# Velocity S-wave (km/s) = 3.79855 3.86781 3.83334
# Velocity P-wave (km/s) = 6.35303 6.42064 6.38693
#
# Compressibility (1/GPa) = 0.02345077
#
# Stress axis : x y z
#
# Youngs Moduli (GPa) = 73.48798 81.55084 67.18263
#
# Poissons Ratio (x) = 0.23939 0.22140
# Poissons Ratio (y) = 0.21572 0.16265
# Poissons Ratio (z) = 0.24218 0.19744
#
# Static dielectric constant tensor:
#      x y z
#    x 3.585310 0.000000 0.000000 
#    y 0.000000 3.880710 0.000000 
#    z 0.000000 0.000000 3.625380 
# 
# 
# High freq. dielectric constant tensor:
#      x y z
#    x 1.790390 0.000000 0.000000 
#    y 0.000000 1.805110 0.000000 
#    z 0.000000 0.000000 1.788430 
# 
# From -- ./inp_files/22483.got.cif
#   From: 2010.03.12/outbox.cif.g09.slc.cpg/sg57_12_cif.got.tgz:22483.got - 2010.04.16 15:48:40.
