data_PCOD8234440
_publ_section_title
;
Structure prediction by ZEFSAII (Michael W. Deem and Ramdas Pophale) SiO2 
 PCOD8234440
Probable space group: P B C M
;
_chemical_formula_sum "Si O2"
_cell_formula_units_Z 64
_cell_length_a 9.010468
_cell_length_b 14.008351
_cell_length_c 23.437636
_cell_angle_alpha 90.000000
_cell_angle_beta 90.000000
_cell_angle_gamma 90.000000
_cell_volume 2958.340567
_symmetry_space_group_name_H-M "P B C M"
_symmetry_group_IT_number 57
_symmetry_cell_setting 'orthorhombic'
loop_
_space_group_symop_operation_xyz
x,y,z
-x,-y,1/2+z
x,1/2-y,-z
-x,1/2+y,1/2-z
-x,-y,-z
x,y,1/2-z
-x,1/2+y,z
x,1/2-y,1/2+z
loop_
_atom_site_type_symbol
_atom_site_label
_atom_site_fract_x
_atom_site_fract_y
_atom_site_fract_z
Si Si1 0.269535 0.544812 0.687547
Si Si2 0.577674 0.285913 0.364082
Si Si3 0.116172 0.755601 0.086915
Si Si4 0.480266 0.083337 0.120734
Si Si5 0.003047 0.111825 0.011153
Si Si6 0.320168 0.355463 0.987493
Si Si7 0.688356 0.584679 0.610110
Si Si8 0.971253 0.644512 0.682747
O O1 0.290886 0.502131 0.750000
O O2 0.360747 0.645601 0.685981
O O3 0.331802 0.465117 0.645217
O O4 0.095691 0.562143 0.674824
O O5 0.709456 0.280167 0.410552
O O6 0.525787 0.179762 0.345425
O O7 0.432633 0.331639 0.391147
O O8 0.110367 0.648558 0.060405
O O9 0.035506 0.762319 0.149195
O O10 0.033670 0.833661 0.047570
O O11 0.443489 0.098123 0.053714
O O12 0.620566 0.015268 0.129917
O O13 0.157010 0.148095 0.040419
O O14 0.000000 0.000000 0.000000
O O15 0.380190 0.250000 0.000000
O O16 0.274958 0.420138 0.042934
O O17 0.820634 0.608409 0.653416
O O18 0.945397 0.668343 0.750000
#
# Coordination Sequence:
#
# PCOD8234440 Si02
#       8
#     8   8   8   8   8   8   8   8
#     4   9  22  46  70  96 132 175 229 285 336 399
#     4  10  23  40  65  95 137 177 217 272 333 402
#     4  10  22  43  62 101 133 177 228 272 333 405
#     4  11  25  40  67  97 137 182 219 275 343 411
#     4  11  24  37  68  96 138 179 220 278 331 400
#     4  12  22  40  62  95 138 176 222 275 330 404
#     4  11  23  41  64  98 135 176 222 276 334 406
#     4  10  21  44  74  97 130 175 225 288 339 394
#
# _framework density 21.633749999999999
#
# number of rings (size 3 to 8) (size 9 to 14) (size 15 to 20)
#    0.000    1.500    3.750    0.375    7.000    4.500 
#    0.000    0.000    0.000    6.750    0.000    0.000 
#    0.000    0.000    0.000    0.000    0.000    0.000 
#
# Total GULP energy -792978.553972 kJ/mol
# GULP energy per Si atom -12390.289906 kJ/mol
# Density = 2.158451 g / cm^3
# Si number density = 21.633750 Si / 1000 Ang^3
#
#
#
# Elastic Constant Matrix: (Units=GPa)
#
#
# Indices 1 2 3 4 5 6 
#
# 1 127.6891 44.0957 49.8873 0.0000 0.0000 0.0000
# 2 44.0957 140.9466 40.3807 0.0000 0.0000 0.0000
# 3 49.8873 40.3807 120.9570 0.0000 0.0000 0.0000
# 4 0.0000 0.0000 0.0000 26.7230 0.0000 0.0000
# 5 0.0000 0.0000 0.0000 0.0000 28.1173 0.0000
# 6 0.0000 0.0000 0.0000 0.0000 0.0000 25.1069
#
#
#
# Elastic Compliance Matrix: (Units=1/GPa)
#
#
# Indices 1 2 3 4 5 6 
#
# 1 0.009881 -0.002127 -0.003365 0.000000 0.000000 0.000000
# 2 -0.002127 0.008303 -0.001895 0.000000 0.000000 0.000000
# 3 -0.003365 -0.001895 0.010288 0.000000 0.000000 0.000000
# 4 0.000000 0.000000 0.000000 0.037421 0.000000 0.000000
# 5 0.000000 0.000000 0.000000 0.000000 0.035565 0.000000
# 6 0.000000 0.000000 0.000000 0.000000 0.000000 0.039830
#
#
# Mechanical properties :
#
#
# Convention : Reuss Voigt Hill
#
# Bulk Modulus (GPa) = 73.00323 73.14668 73.07496
# Shear Modulus (GPa) = 31.12793 33.00472 32.06632
#
# Velocity S-wave (km/s) = 3.79735 3.91015 3.85416
# Velocity P-wave (km/s) = 7.28318 7.36685 7.32513
#
# Compressibility (1/GPa) = 0.01369802
#
# Stress axis : x y z
#
# Youngs Moduli (GPa) = 101.20610 120.43574 97.20245
#
# Poissons Ratio (x) = 0.25619 0.32710
# Poissons Ratio (y) = 0.21528 0.18416
# Poissons Ratio (z) = 0.34057 0.22818
#
# Static dielectric constant tensor:
#      x y z
#    x 4.082710 0.000000 0.000000 
#    y 0.000000 3.813380 0.000000 
#    z 0.000000 0.000000 3.846740 
# 
# 
# High freq. dielectric constant tensor:
#      x y z
#    x 1.867390 0.000000 0.000000 
#    y 0.000000 1.839820 0.000000 
#    z 0.000000 0.000000 1.830540 
# 
# From -- ./inp_files/26870.got.cif
#   From: 2010.03.12/outbox.cif.g09.slc.cpg/sg57_14_cif.got.tgz:26870.got - 2010.04.16 15:48:40.
