data_PCOD8234826
_publ_section_title
;
Structure prediction by ZEFSAII (Michael W. Deem and Ramdas Pophale) SiO2 
 PCOD8234826
Probable space group: P B C M
;
_chemical_formula_sum "Si O2"
_cell_formula_units_Z 40
_cell_length_a 18.806187
_cell_length_b 5.116683
_cell_length_c 19.039601
_cell_angle_alpha 90.000000
_cell_angle_beta 90.000000
_cell_angle_gamma 90.000000
_cell_volume 1832.091267
_symmetry_space_group_name_H-M "P B C M"
_symmetry_group_IT_number 57
_symmetry_cell_setting 'orthorhombic'
loop_
_space_group_symop_operation_xyz
x,y,z
-x,-y,1/2+z
x,1/2-y,-z
-x,1/2+y,1/2-z
-x,-y,-z
x,y,1/2-z
-x,1/2+y,z
x,1/2-y,1/2+z
loop_
_atom_site_type_symbol
_atom_site_label
_atom_site_fract_x
_atom_site_fract_y
_atom_site_fract_z
Si Si1 0.230615 0.250000 0.000000
Si Si2 0.951153 0.733460 0.750000
Si Si3 0.453229 0.143126 0.670284
Si Si4 0.173156 0.281169 0.145087
Si Si5 0.649224 0.102803 0.063181
Si Si6 0.257803 0.795102 0.174694
O O1 0.176667 0.314984 0.936128
O O2 0.282263 0.018265 0.975438
O O3 0.904821 0.736236 0.678598
O O4 0.998524 0.479237 0.750000
O O5 0.421650 0.119393 0.750000
O O6 0.514636 0.929242 0.659093
O O7 0.395520 0.107647 0.607938
O O8 0.199994 0.577257 0.153273
O O9 0.223536 0.078300 0.185161
O O10 0.677876 0.314573 0.119319
O O11 0.605725 0.250000 0.000000
O O12 0.290843 0.717461 0.250000
#
# Coordination Sequence:
#
# PCOD8234826 Si02
#       6
#     4   4   8   8   8   8
#     4  10  24  42  62  96 134 164 204 268 336 378
#     4  12  24  42  66  98 126 168 218 252 292 374
#     4  10  24  44  63  86 126 173 216 263 316 379
#     4  11  22  40  63  91 129 164 199 260 313 368
#     4  11  23  38  62  95 125 164 213 267 317 394
#     4  11  20  37  62  92 122 161 207 264 321 362
#
# _framework density 21.832974
#
# number of rings (size 3 to 8) (size 9 to 14) (size 15 to 20)
#    0.000    1.200    4.000    1.800    2.800    0.800 
#    0.000    5.000    0.000    0.000    0.000    0.000 
#    0.000    0.000    0.000    0.000    0.000    0.000 
#
# Total GULP energy -495645.340015 kJ/mol
# GULP energy per Si atom -12391.133500 kJ/mol
# Density = 2.178328 g / cm^3
# Si number density = 21.832974 Si / 1000 Ang^3
#
#
#
# Elastic Constant Matrix: (Units=GPa)
#
#
# Indices 1 2 3 4 5 6 
#
# 1 66.2461 6.6486 45.4988 0.0000 0.0000 0.0000
# 2 6.6486 62.3806 3.1774 0.0000 0.0000 0.0000
# 3 45.4988 3.1774 187.4483 0.0000 0.0000 0.0000
# 4 0.0000 0.0000 0.0000 18.8700 0.0000 0.0000
# 5 0.0000 0.0000 0.0000 0.0000 25.2123 0.0000
# 6 0.0000 0.0000 0.0000 0.0000 0.0000 27.9819
#
#
#
# Elastic Compliance Matrix: (Units=1/GPa)
#
#
# Indices 1 2 3 4 5 6 
#
# 1 0.018299 -0.001726 -0.004412 0.000000 0.000000 0.000000
# 2 -0.001726 0.016207 0.000144 0.000000 0.000000 0.000000
# 3 -0.004412 0.000144 0.006403 0.000000 0.000000 0.000000
# 4 0.000000 0.000000 0.000000 0.052994 0.000000 0.000000
# 5 0.000000 0.000000 0.000000 0.000000 0.039663 0.000000
# 6 0.000000 0.000000 0.000000 0.000000 0.000000 0.035737
#
#
# Mechanical properties :
#
#
# Convention : Reuss Voigt Hill
#
# Bulk Modulus (GPa) = 34.57603 47.41385 40.99494
# Shear Modulus (GPa) = 26.18726 31.79618 28.99172
#
# Velocity S-wave (km/s) = 3.46704 3.82034 3.64797
# Velocity P-wave (km/s) = 5.64785 6.42057 6.04657
#
# Compressibility (1/GPa) = 0.02892177
#
# Stress axis : x y z
#
# Youngs Moduli (GPa) = 54.64804 61.70102 156.16778
#
# Poissons Ratio (x) = 0.10647 0.68907
# Poissons Ratio (y) = 0.09430 -0.02251
# Poissons Ratio (z) = 0.24113 -0.00889
#
# Static dielectric constant tensor:
#      x y z
#    x 3.606150 0.000000 0.000000 
#    y 0.000000 3.871500 0.000000 
#    z 0.000000 0.000000 4.817960 
# 
# 
# High freq. dielectric constant tensor:
#      x y z
#    x 1.811100 0.000000 0.000000 
#    y 0.000000 1.868410 0.000000 
#    z 0.000000 0.000000 1.887870 
# 
# From -- ./inp_files/22801.got.cif
#   From: 2010.03.12/outbox.cif.g09.slc.cpg/sg57_12_cif.got.tgz:22801.got - 2010.04.16 15:48:40.
