data_PCOD8234114
_publ_section_title
;
Structure prediction by ZEFSAII (Michael W. Deem and Ramdas Pophale) SiO2 
 PCOD8234114
Probable space group: P B C M
;
_chemical_formula_sum "Si O2"
_cell_formula_units_Z 48
_cell_length_a 14.423514
_cell_length_b 20.370518
_cell_length_c 8.654735
_cell_angle_alpha 90.000000
_cell_angle_beta 90.000000
_cell_angle_gamma 90.000000
_cell_volume 2542.886217
_symmetry_space_group_name_H-M "P B C M"
_symmetry_group_IT_number 57
_symmetry_cell_setting 'orthorhombic'
loop_
_space_group_symop_operation_xyz
x,y,z
-x,-y,1/2+z
x,1/2-y,-z
-x,1/2+y,1/2-z
-x,-y,-z
x,y,1/2-z
-x,1/2+y,z
x,1/2-y,1/2+z
loop_
_atom_site_type_symbol
_atom_site_label
_atom_site_fract_x
_atom_site_fract_y
_atom_site_fract_z
Si Si1 0.556649 0.680124 0.567635
Si Si2 0.943920 0.440386 0.430893
Si Si3 0.934122 0.818678 0.066903
Si Si4 0.257973 0.523305 0.930492
Si Si5 0.446186 0.561467 0.068689
Si Si6 0.744820 0.629996 0.069205
O O1 0.527418 0.750000 0.500000
O O2 0.548968 0.681813 0.750000
O O3 0.484391 0.627929 0.502695
O O4 0.660801 0.662686 0.520958
O O5 0.948553 0.450497 0.250000
O O6 0.837139 0.442218 0.484736
O O7 0.000000 0.500000 0.500000
O O8 0.988805 0.371798 0.482393
O O9 0.920573 0.815554 0.250000
O O10 0.970496 0.750000 0.000000
O O11 0.837646 0.835722 0.987226
O O12 0.278879 0.534354 0.750000
O O13 0.251144 0.446633 0.969856
O O14 0.337835 0.556535 0.031054
O O15 0.463564 0.562300 0.250000
O O16 0.500000 0.500000 0.000000
O O17 0.731341 0.643002 0.250000
#
# Coordination Sequence:
#
# PCOD8234114 Si02
#       6
#     8   8   8   8   8   8
#     4  12  25  42  63  89 124 161 201 249 302 363
#     4  10  21  38  61  87 117 155 198 247 298 352
#     4  11  23  38  58  86 122 160 201 244 298 357
#     4  10  21  38  61  90 122 156 198 250 302 354
#     4  12  24  40  63  91 122 160 203 248 300 357
#     4  11  21  36  61  90 124 159 197 246 303 359
#
# _framework density 18.876189
#
# number of rings (size 3 to 8) (size 9 to 14) (size 15 to 20)
#    0.000    1.000    3.333    4.500    0.000    2.000 
#    0.000    0.833    0.000    2.000    0.000    0.000 
#    0.000    0.000    0.000    0.000    0.000    0.000 
#
# Total GULP energy -595475.789543 kJ/mol
# GULP energy per Si atom -12405.745615 kJ/mol
# Density = 1.883323 g / cm^3
# Si number density = 18.876189 Si / 1000 Ang^3
#
#
#
# Elastic Constant Matrix: (Units=GPa)
#
#
# Indices 1 2 3 4 5 6 
#
# 1 134.7242 79.0508 49.2136 0.0000 0.0000 0.0000
# 2 79.0508 159.9935 66.2185 0.0000 0.0000 0.0000
# 3 49.2136 66.2185 116.3547 0.0000 0.0000 0.0000
# 4 0.0000 0.0000 0.0000 31.1631 0.0000 0.0000
# 5 0.0000 0.0000 0.0000 0.0000 70.6830 0.0000
# 6 0.0000 0.0000 0.0000 0.0000 0.0000 33.1032
#
#
#
# Elastic Compliance Matrix: (Units=1/GPa)
#
#
# Indices 1 2 3 4 5 6 
#
# 1 0.010798 -0.004506 -0.002003 0.000000 0.000000 0.000000
# 2 -0.004506 0.010057 -0.003817 0.000000 0.000000 0.000000
# 3 -0.002003 -0.003817 0.011614 0.000000 0.000000 0.000000
# 4 0.000000 0.000000 0.000000 0.032089 0.000000 0.000000
# 5 0.000000 0.000000 0.000000 0.000000 0.014148 0.000000
# 6 0.000000 0.000000 0.000000 0.000000 0.000000 0.030209
#
#
# Mechanical properties :
#
#
# Convention : Reuss Voigt Hill
#
# Bulk Modulus (GPa) = 84.62967 88.89315 86.76141
# Shear Modulus (GPa) = 37.45149 41.42916 39.44032
#
# Velocity S-wave (km/s) = 4.45911 4.68993 4.57598
# Velocity P-wave (km/s) = 8.45239 8.74770 8.60132
#
# Compressibility (1/GPa) = 0.01181619
#
# Stress axis : x y z
#
# Youngs Moduli (GPa) = 92.60686 99.43537 86.10359
#
# Poissons Ratio (x) = 0.44810 0.17243
# Poissons Ratio (y) = 0.41733 0.32869
# Poissons Ratio (z) = 0.18546 0.37958
#
# Static dielectric constant tensor:
#      x y z
#    x 3.431540 0.000000 0.000000 
#    y 0.000000 3.615860 0.000000 
#    z 0.000000 0.000000 3.433620 
# 
# 
# High freq. dielectric constant tensor:
#      x y z
#    x 1.738240 0.000000 0.000000 
#    y 0.000000 1.738580 0.000000 
#    z 0.000000 0.000000 1.743870 
# 
# From -- ./inp_files/4584.got.cif
#   From: 2010.03.12/outbox.cif.g09.slc.cpg/sg57_3_cif.got.tgz:4584.got - 2010.04.16 15:48:40.
