data_PCOD8234798
_publ_section_title
;
Structure prediction by ZEFSAII (Michael W. Deem and Ramdas Pophale) SiO2 
 PCOD8234798
Probable space group: P B C M
;
_chemical_formula_sum "Si O2"
_cell_formula_units_Z 28
_cell_length_a 8.586760
_cell_length_b 10.622408
_cell_length_c 14.095956
_cell_angle_alpha 90.000000
_cell_angle_beta 90.000000
_cell_angle_gamma 90.000000
_cell_volume 1285.721299
_symmetry_space_group_name_H-M "P B C M"
_symmetry_group_IT_number 57
_symmetry_cell_setting 'orthorhombic'
loop_
_space_group_symop_operation_xyz
x,y,z
-x,-y,1/2+z
x,1/2-y,-z
-x,1/2+y,1/2-z
-x,-y,-z
x,y,1/2-z
-x,1/2+y,z
x,1/2-y,1/2+z
loop_
_atom_site_type_symbol
_atom_site_label
_atom_site_fract_x
_atom_site_fract_y
_atom_site_fract_z
Si Si1 0.562793 0.620138 0.944256
Si Si2 0.110589 0.197196 0.903356
Si Si3 0.555913 0.206551 0.750000
Si Si4 0.265472 0.365451 0.750000
Si Si5 0.872027 0.130947 0.750000
O O1 0.749082 0.602009 0.929501
O O2 0.480142 0.623189 0.842656
O O3 0.528298 0.750000 0.000000
O O4 0.500000 0.500000 0.000000
O O5 0.183221 0.311141 0.843305
O O6 0.977095 0.128168 0.843793
O O7 0.034105 0.250000 0.000000
O O8 0.449446 0.332267 0.750000
O O9 0.741916 0.243319 0.750000
O O10 0.243404 0.513065 0.750000
#
# Coordination Sequence:
#
# PCOD8234798 Si02
#       5
#     8   8   4   4   4
#     4  10  23  44  71 101 136 189 235 284 351 420
#     4   9  21  43  66  95 137 170 223 290 343 415
#     4  10  24  40  66  96 136 172 231 287 339 418
#     4   9  21  43  62  94 133 173 219 281 341 409
#     4  11  23  41  70  98 129 185 222 284 364 405
#
# _framework density 21.777660999999998
#
# number of rings (size 3 to 8) (size 9 to 14) (size 15 to 20)
#    0.000    2.286    0.000    0.857   12.000    2.286 
#   10.286    0.000    0.000    0.000    0.000    0.000 
#    0.000    0.000    0.000    0.000    0.000    0.000 
#
# Total GULP energy -347097.767683 kJ/mol
# GULP energy per Si atom -12396.348846 kJ/mol
# Density = 2.172809 g / cm^3
# Si number density = 21.777661 Si / 1000 Ang^3
#
#
#
# Elastic Constant Matrix: (Units=GPa)
#
#
# Indices 1 2 3 4 5 6 
#
# 1 166.9252 73.3294 75.3429 0.0000 0.0000 0.0000
# 2 73.3294 110.3134 57.6286 0.0000 0.0000 0.0000
# 3 75.3429 57.6286 188.3077 0.0000 0.0000 0.0000
# 4 0.0000 0.0000 0.0000 28.1777 0.0000 0.0000
# 5 0.0000 0.0000 0.0000 0.0000 33.3914 0.0000
# 6 0.0000 0.0000 0.0000 0.0000 0.0000 30.8764
#
#
#
# Elastic Compliance Matrix: (Units=1/GPa)
#
#
# Indices 1 2 3 4 5 6 
#
# 1 0.009132 -0.004953 -0.002138 0.000000 0.000000 0.000000
# 2 -0.004953 0.013477 -0.002143 0.000000 0.000000 0.000000
# 3 -0.002138 -0.002143 0.006821 0.000000 0.000000 0.000000
# 4 0.000000 0.000000 0.000000 0.035489 0.000000 0.000000
# 5 0.000000 0.000000 0.000000 0.000000 0.029948 0.000000
# 6 0.000000 0.000000 0.000000 0.000000 0.000000 0.032387
#
#
# Mechanical properties :
#
#
# Convention : Reuss Voigt Hill
#
# Bulk Modulus (GPa) = 91.21721 97.57202 94.39462
# Shear Modulus (GPa) = 33.47266 35.77212 34.62239
#
# Velocity S-wave (km/s) = 3.92474 4.05730 3.99157
# Velocity P-wave (km/s) = 7.90662 8.17618 8.04253
#
# Compressibility (1/GPa) = 0.01096284
#
# Stress axis : x y z
#
# Youngs Moduli (GPa) = 109.51062 74.20032 146.59612
#
# Poissons Ratio (x) = 0.36754 0.31338
# Poissons Ratio (y) = 0.54244 0.31409
# Poissons Ratio (z) = 0.23410 0.15898
#
# Static dielectric constant tensor:
#      x y z
#    x 4.097570 0.000000 0.000000 
#    y 0.000000 3.457050 0.000000 
#    z 0.000000 0.000000 4.466210 
# 
# 
# High freq. dielectric constant tensor:
#      x y z
#    x 1.860120 0.000000 0.000000 
#    y 0.000000 1.819290 0.000000 
#    z 0.000000 0.000000 1.885940 
# 
# From -- ./inp_files/15450.got.cif
#   From: 2010.03.12/outbox.cif.g09.slc.cpg/sg57_8_cif.got.tgz:15450.got - 2010.04.16 15:48:40.
