data_PCOD8234717
_publ_section_title
;
Structure prediction by ZEFSAII (Michael W. Deem and Ramdas Pophale) SiO2 
 PCOD8234717
Probable space group: P B C M
;
_chemical_formula_sum "Si O2"
_cell_formula_units_Z 60
_cell_length_a 11.780885
_cell_length_b 8.161197
_cell_length_c 26.743757
_cell_angle_alpha 90.000000
_cell_angle_beta 90.000000
_cell_angle_gamma 90.000000
_cell_volume 2571.308559
_symmetry_space_group_name_H-M "P B C M"
_symmetry_group_IT_number 57
_symmetry_cell_setting 'orthorhombic'
loop_
_space_group_symop_operation_xyz
x,y,z
-x,-y,1/2+z
x,1/2-y,-z
-x,1/2+y,1/2-z
-x,-y,-z
x,y,1/2-z
-x,1/2+y,z
x,1/2-y,1/2+z
loop_
_atom_site_type_symbol
_atom_site_label
_atom_site_fract_x
_atom_site_fract_y
_atom_site_fract_z
Si Si1 0.435427 0.123916 0.643245
Si Si2 0.496477 0.128599 0.071966
Si Si3 0.030724 0.390649 0.308312
Si Si4 0.251169 0.093413 0.467788
Si Si5 0.845169 0.912404 0.641387
Si Si6 0.681745 0.250000 0.500000
Si Si7 0.660590 0.412026 0.192724
Si Si8 0.748468 0.433015 0.693140
O O1 0.455054 0.310888 0.627299
O O2 0.525959 0.074948 0.685678
O O3 0.452884 0.047036 0.587430
O O4 0.310155 0.081979 0.662682
O O5 0.387089 0.110791 0.037076
O O6 0.599313 0.231482 0.047823
O O7 0.000059 0.350586 0.250000
O O8 0.096268 0.243602 0.334383
O O9 0.115612 0.547852 0.310430
O O10 0.920263 0.430761 0.341232
O O11 0.207971 0.250000 0.500000
O O12 0.173024 0.099511 0.418113
O O13 0.237706 0.912003 0.493033
O O14 0.720384 0.937993 0.664357
O O15 0.693410 0.428839 0.250000
O O16 0.708119 0.239929 0.170336
O O17 0.706596 0.446449 0.750000
#
# Coordination Sequence:
#
# PCOD8234717 Si02
#       8
#     8   8   8   8   8   4   8   8
#     4  12  22  37  60  98 141 181 228 276 348 427
#     4  12  21  39  64  96 137 185 236 285 342 428
#     4  11  24  45  75 103 135 182 237 294 356 437
#     4  12  26  47  73 109 143 187 246 306 369 433
#     4  12  25  48  71 104 135 179 240 302 362 437
#     4  12  24  44  72 102 148 190 234 300 364 430
#     4  11  22  38  61  94 141 185 228 286 352 430
#     4  10  23  40  61  96 140 187 230 279 344 420
#
# _framework density 23.334423000000001
#
# number of rings (size 3 to 8) (size 9 to 14) (size 15 to 20)
#    0.000    0.533    4.667    4.400    0.000    1.067 
#    2.400    0.667    0.000    0.000    0.000    0.000 
#    0.000    0.000    0.000    0.000    0.000    0.000 
#
# Total GULP energy -743715.493310 kJ/mol
# GULP energy per Si atom -12395.258222 kJ/mol
# Density = 2.328131 g / cm^3
# Si number density = 23.334423 Si / 1000 Ang^3
#
#
#
# Elastic Constant Matrix: (Units=GPa)
#
#
# Indices 1 2 3 4 5 6 
#
# 1 79.0496 9.8348 31.3482 0.0000 0.0000 0.0000
# 2 9.8348 87.0982 41.2265 0.0000 0.0000 0.0000
# 3 31.3482 41.2265 112.9029 0.0000 0.0000 0.0000
# 4 0.0000 0.0000 0.0000 42.7335 0.0000 0.0000
# 5 0.0000 0.0000 0.0000 0.0000 39.4462 0.0000
# 6 0.0000 0.0000 0.0000 0.0000 0.0000 30.4025
#
#
#
# Elastic Compliance Matrix: (Units=1/GPa)
#
#
# Indices 1 2 3 4 5 6 
#
# 1 0.014223 0.000318 -0.004065 0.000000 0.000000 0.000000
# 2 0.000318 0.013887 -0.005159 0.000000 0.000000 0.000000
# 3 -0.004065 -0.005159 0.011870 0.000000 0.000000 0.000000
# 4 0.000000 0.000000 0.000000 0.023401 0.000000 0.000000
# 5 0.000000 0.000000 0.000000 0.000000 0.025351 0.000000
# 6 0.000000 0.000000 0.000000 0.000000 0.000000 0.032892
#
#
# Mechanical properties :
#
#
# Convention : Reuss Voigt Hill
#
# Bulk Modulus (GPa) = 45.11137 49.31887 47.21512
# Shear Modulus (GPa) = 34.05393 35.62586 34.83989
#
# Velocity S-wave (km/s) = 3.82434 3.91161 3.86822
# Velocity P-wave (km/s) = 6.23500 6.44844 6.34262
#
# Compressibility (1/GPa) = 0.02216736
#
# Stress axis : x y z
#
# Youngs Moduli (GPa) = 70.30947 72.00738 84.24692
#
# Poissons Ratio (x) = -0.02292 0.34249
# Poissons Ratio (y) = -0.02238 0.43466
# Poissons Ratio (z) = 0.28583 0.37151
#
# Static dielectric constant tensor:
#      x y z
#    x 4.039990 0.000000 0.000000 
#    y 0.000000 4.432710 0.000000 
#    z 0.000000 0.000000 3.962240 
# 
# 
# High freq. dielectric constant tensor:
#      x y z
#    x 1.903140 0.000000 0.000000 
#    y 0.000000 1.946410 0.000000 
#    z 0.000000 0.000000 1.911430 
# 
# From -- ./inp_files/28633.got.cif
#   From: 2010.03.12/outbox.cif.g09.slc.cpg/sg57_15_cif.got.tgz:28633.got - 2010.04.16 15:48:40.
