data_PCOD8234426
_publ_section_title
;
Structure prediction by ZEFSAII (Michael W. Deem and Ramdas Pophale) SiO2 
 PCOD8234426
Probable space group: P B C M
;
_chemical_formula_sum "Si O2"
_cell_formula_units_Z 48
_cell_length_a 9.207700
_cell_length_b 9.137647
_cell_length_c 27.381423
_cell_angle_alpha 90.000000
_cell_angle_beta 90.000000
_cell_angle_gamma 90.000000
_cell_volume 2303.782909
_symmetry_space_group_name_H-M "P B C M"
_symmetry_group_IT_number 57
_symmetry_cell_setting 'orthorhombic'
loop_
_space_group_symop_operation_xyz
x,y,z
-x,-y,1/2+z
x,1/2-y,-z
-x,1/2+y,1/2-z
-x,-y,-z
x,y,1/2-z
-x,1/2+y,z
x,1/2-y,1/2+z
loop_
_atom_site_type_symbol
_atom_site_label
_atom_site_fract_x
_atom_site_fract_y
_atom_site_fract_z
Si Si1 0.627267 0.142087 0.040936
Si Si2 0.132487 0.028598 0.120274
Si Si3 0.695899 0.613740 0.473892
Si Si4 0.656125 0.810682 0.691712
Si Si5 0.633587 0.023823 0.307175
Si Si6 0.838018 0.309459 0.871423
O O1 0.455740 0.164017 0.050871
O O2 0.708350 0.174053 0.090594
O O3 0.687609 0.250000 0.000000
O O4 0.661540 0.982425 0.021204
O O5 0.210038 0.037392 0.067785
O O6 0.208744 0.118611 0.163489
O O7 0.975141 0.096986 0.111577
O O8 0.120296 0.859742 0.136599
O O9 0.777637 0.750000 0.500000
O O10 0.683233 0.820916 0.750000
O O11 0.639758 0.643064 0.673451
O O12 0.514282 0.899831 0.674782
O O13 0.634771 0.020202 0.250000
O O14 0.773804 0.118752 0.322329
#
# Coordination Sequence:
#
# PCOD8234426 Si02
#       6
#     8   8   8   8   8   8
#     4  10  21  43  63  91 122 160 209 258 311 367
#     4  12  26  42  60  93 127 171 211 255 316 372
#     4  10  23  39  67  92 121 161 208 261 312 373
#     4  10  22  42  69  97 126 160 206 257 309 369
#     4  10  22  42  69  98 125 161 205 256 311 369
#     4  12  26  41  63  89 130 169 210 259 311 376
#
# _framework density 20.835297000000001
#
# number of rings (size 3 to 8) (size 9 to 14) (size 15 to 20)
#    0.000    1.333    1.667    3.000    4.667    4.000 
#    0.000    0.000    0.000    0.000    0.000    0.000 
#    0.000    0.000    0.000    0.000    0.000    0.000 
#
# Total GULP energy -595220.138284 kJ/mol
# GULP energy per Si atom -12400.419548 kJ/mol
# Density = 2.078787 g / cm^3
# Si number density = 20.835297 Si / 1000 Ang^3
#
#
#
# Elastic Constant Matrix: (Units=GPa)
#
#
# Indices 1 2 3 4 5 6 
#
# 1 79.3203 28.9725 15.9734 0.0000 0.0000 0.0000
# 2 28.9725 148.6734 19.7103 0.0000 0.0000 0.0000
# 3 15.9734 19.7103 27.0295 0.0000 0.0000 0.0000
# 4 0.0000 0.0000 0.0000 33.3341 0.0000 0.0000
# 5 0.0000 0.0000 0.0000 0.0000 19.8491 0.0000
# 6 0.0000 0.0000 0.0000 0.0000 0.0000 -113.0890
#
#
#
# Elastic Compliance Matrix: (Units=1/GPa)
#
#
# Indices 1 2 3 4 5 6 
#
# 1 0.014783 -0.001907 -0.007345 0.000000 0.000000 0.000000
# 2 -0.001907 0.007692 -0.004482 0.000000 0.000000 0.000000
# 3 -0.007345 -0.004482 0.044606 0.000000 0.000000 0.000000
# 4 0.000000 0.000000 0.000000 0.029999 0.000000 0.000000
# 5 0.000000 0.000000 0.000000 0.000000 0.050380 0.000000
# 6 0.000000 0.000000 0.000000 0.000000 0.000000 -0.008843
#
#
# Mechanical properties :
#
#
# Convention : Reuss Voigt Hill
#
# Bulk Modulus (GPa) = 25.24518 42.70396 33.97457
# Shear Modulus (GPa) = 27.88765 0.70997 14.29881
#
# Velocity S-wave (km/s) = 3.66249 0.58437 2.62253
# Velocity P-wave (km/s) = 5.47978 4.58212 5.05093
#
# Compressibility (1/GPa) = 0.03961153
#
# Stress axis : x y z
#
# Youngs Moduli (GPa) = 67.64586 130.00529 22.41854
#
# Poissons Ratio (x) = 0.24792 0.16468
# Poissons Ratio (y) = 0.12900 0.10048
# Poissons Ratio (z) = 0.49689 0.58271
#
# Static dielectric constant tensor:
#      x y z
#    x 3.753240 0.000000 0.000000 
#    y 0.000000 -1.039110 0.000000 
#    z 0.000000 0.000000 4.402840 
# 
# 
# High freq. dielectric constant tensor:
#      x y z
#    x 1.806740 0.000000 0.000000 
#    y 0.000000 1.837330 0.000000 
#    z 0.000000 0.000000 1.815180 
# 
# From -- ./inp_files/29472.got.cif
#   From: 2010.03.12/outbox.cif.g09.slc.cpg/sg57_15_cif.got.tgz:29472.got - 2010.04.16 15:48:40.
