data_PCOD8234764
_publ_section_title
;
Structure prediction by ZEFSAII (Michael W. Deem and Ramdas Pophale) SiO2 
 PCOD8234764
Probable space group: P B C M
;
_chemical_formula_sum "Si O2"
_cell_formula_units_Z 40
_cell_length_a 18.824256
_cell_length_b 5.066294
_cell_length_c 17.598510
_cell_angle_alpha 90.000000
_cell_angle_beta 90.000000
_cell_angle_gamma 90.000000
_cell_volume 1678.356088
_symmetry_space_group_name_H-M "P B C M"
_symmetry_group_IT_number 57
_symmetry_cell_setting 'orthorhombic'
loop_
_space_group_symop_operation_xyz
x,y,z
-x,-y,1/2+z
x,1/2-y,-z
-x,1/2+y,1/2-z
-x,-y,-z
x,y,1/2-z
-x,1/2+y,z
x,1/2-y,1/2+z
loop_
_atom_site_type_symbol
_atom_site_label
_atom_site_fract_x
_atom_site_fract_y
_atom_site_fract_z
Si Si1 0.811518 0.787520 0.163825
Si Si2 0.539885 0.829274 0.339850
Si Si3 0.276067 0.997772 0.050345
Si Si4 0.324728 0.865917 0.664175
Si Si5 0.044673 0.239211 0.912179
O O1 0.808982 0.677001 0.250000
O O2 0.790952 0.564382 0.103140
O O3 0.891311 0.862804 0.141299
O O4 0.755742 0.028295 0.156212
O O5 0.532363 0.822492 0.250000
O O6 0.514339 0.550692 0.373601
O O7 0.621184 0.902770 0.361945
O O8 0.336350 0.887703 0.109031
O O9 0.301585 0.250000 0.000000
O O10 0.251875 0.750000 0.000000
O O11 0.341904 0.771636 0.750000
O O12 0.018211 0.533516 0.893503
O O13 0.068822 0.250000 0.000000
#
# Coordination Sequence:
#
# PCOD8234764 Si02
#       5
#     8   8   8   8   8
#     4  11  25  44  71 104 138 176 226 288 345 395
#     4   9  19  35  60  93 132 176 219 270 336 404
#     4  12  25  43  66  96 133 178 225 278 337 407
#     4  10  23  42  68 104 139 172 227 292 342 394
#     4  10  24  44  67  96 136 181 223 268 328 405
#
# _framework density 23.832847999999998
#
# number of rings (size 3 to 8) (size 9 to 14) (size 15 to 20)
#    0.000    1.600    2.000    1.200    5.600    1.600 
#    0.000    0.000    0.000    3.600    0.000    0.000 
#    0.000    0.000    0.000    0.000    0.000    0.000 
#
# Total GULP energy -495648.865761 kJ/mol
# GULP energy per Si atom -12391.221644 kJ/mol
# Density = 2.377860 g / cm^3
# Si number density = 23.832848 Si / 1000 Ang^3
#
#
#
# Elastic Constant Matrix: (Units=GPa)
#
#
# Indices 1 2 3 4 5 6 
#
# 1 68.1171 -12.7540 10.6656 0.0000 0.0000 0.0000
# 2 -12.7540 84.4110 20.3711 0.0000 0.0000 0.0000
# 3 10.6656 20.3711 109.3904 0.0000 0.0000 0.0000
# 4 0.0000 0.0000 0.0000 17.3423 0.0000 0.0000
# 5 0.0000 0.0000 0.0000 0.0000 -14.2377 0.0000
# 6 0.0000 0.0000 0.0000 0.0000 0.0000 29.9028
#
#
#
# Elastic Compliance Matrix: (Units=1/GPa)
#
#
# Indices 1 2 3 4 5 6 
#
# 1 0.015532 0.002840 -0.002043 0.000000 0.000000 0.000000
# 2 0.002840 0.012924 -0.002684 0.000000 0.000000 0.000000
# 3 -0.002043 -0.002684 0.009841 0.000000 0.000000 0.000000
# 4 0.000000 0.000000 0.000000 0.057662 0.000000 0.000000
# 5 0.000000 0.000000 0.000000 0.000000 -0.070236 0.000000
# 6 0.000000 0.000000 0.000000 0.000000 0.000000 0.033442
#
#
# Mechanical properties :
#
#
# Convention : Reuss Voigt Hill
#
# Bulk Modulus (GPa) = 28.96658 33.16488 31.06573
# Shear Modulus (GPa) = 67.16306 22.84386 45.00346
#
# Velocity S-wave (km/s) = 5.31433 3.09933 4.35017
# Velocity P-wave (km/s) = 7.05950 5.17239 6.18830
#
# Compressibility (1/GPa) = 0.03452254
#
# Stress axis : x y z
#
# Youngs Moduli (GPa) = 64.38209 77.37824 101.62047
#
# Poissons Ratio (x) = -0.21975 0.20764
# Poissons Ratio (y) = -0.18284 0.27271
# Poissons Ratio (z) = 0.13155 0.20765
#
# Static dielectric constant tensor:
#      x y z
#    x 4.076370 0.000000 0.000000 
#    y 0.000000 4.461020 0.000000 
#    z 0.000000 0.000000 4.493190 
# 
# 
# High freq. dielectric constant tensor:
#      x y z
#    x 1.929720 0.000000 0.000000 
#    y 0.000000 1.950610 0.000000 
#    z 0.000000 0.000000 1.933240 
# 
# From -- ./inp_files/22750.got.cif
#   From: 2010.03.12/outbox.cif.g09.slc.cpg/sg57_12_cif.got.tgz:22750.got - 2010.04.16 15:48:40.
