data_PCOD8234509
_publ_section_title
;
Structure prediction by ZEFSAII (Michael W. Deem and Ramdas Pophale) SiO2 
 PCOD8234509
Probable space group: P B C M
;
_chemical_formula_sum "Si O2"
_cell_formula_units_Z 40
_cell_length_a 25.838290
_cell_length_b 8.967846
_cell_length_c 8.630519
_cell_angle_alpha 90.000000
_cell_angle_beta 90.000000
_cell_angle_gamma 90.000000
_cell_volume 1999.810402
_symmetry_space_group_name_H-M "P B C M"
_symmetry_group_IT_number 57
_symmetry_cell_setting 'orthorhombic'
loop_
_space_group_symop_operation_xyz
x,y,z
-x,-y,1/2+z
x,1/2-y,-z
-x,1/2+y,1/2-z
-x,-y,-z
x,y,1/2-z
-x,1/2+y,z
x,1/2-y,1/2+z
loop_
_atom_site_type_symbol
_atom_site_label
_atom_site_fract_x
_atom_site_fract_y
_atom_site_fract_z
Si Si1 0.548688 0.085685 0.066569
Si Si2 0.248892 0.586951 0.067978
Si Si3 0.951237 0.085683 0.566416
Si Si4 0.651123 0.914146 0.433252
Si Si5 0.145571 0.085642 0.933405
O O1 0.544337 0.093172 0.250000
O O2 0.599868 0.999437 0.011265
O O3 0.550730 0.250000 0.000000
O O4 0.500000 0.000000 0.000000
O O5 0.253628 0.603296 0.250000
O O6 0.299557 0.504315 0.000680
O O7 0.199275 0.491045 0.020039
O O8 0.243618 0.750000 0.000000
O O9 0.950898 0.250000 0.500000
O O10 0.955008 0.091301 0.750000
O O11 0.899349 0.004624 0.515954
O O12 0.000000 0.000000 0.500000
O O13 0.650946 0.750000 0.500000
O O14 0.653797 0.902420 0.250000
O O15 0.136235 0.087939 0.750000
O O16 0.146241 0.250000 0.000000
#
# Coordination Sequence:
#
# PCOD8234509 Si02
#       5
#     8   8   8   8   8
#     4  11  23  39  60  86 118 154 197 244 296 353
#     4  10  22  39  60  87 119 154 196 242 293 350
#     4  12  25  43  65  91 123 159 200 246 296 351
#     4  10  22  39  59  86 117 153 195 242 293 350
#     4  11  23  40  62  90 122 158 199 244 295 352
#
# _framework density 20.001895000000001
#
# number of rings (size 3 to 8) (size 9 to 14) (size 15 to 20)
#    0.000    1.200    0.000    6.000    0.000    7.200 
#    0.000    0.000    0.000    0.000    0.000    0.000 
#    0.000    0.000    0.000    0.000    0.000    0.000 
#
# Total GULP energy -496215.272403 kJ/mol
# GULP energy per Si atom -12405.381810 kJ/mol
# Density = 1.995637 g / cm^3
# Si number density = 20.001895 Si / 1000 Ang^3
#
#
#
# Elastic Constant Matrix: (Units=GPa)
#
#
# Indices 1 2 3 4 5 6 
#
# 1 189.7830 100.6430 75.5722 0.0000 0.0000 0.0000
# 2 100.6430 210.7691 69.0718 0.0000 0.0000 0.0000
# 3 75.5722 69.0718 93.4149 0.0000 0.0000 0.0000
# 4 0.0000 0.0000 0.0000 40.8855 0.0000 0.0000
# 5 0.0000 0.0000 0.0000 0.0000 30.4593 0.0000
# 6 0.0000 0.0000 0.0000 0.0000 0.0000 54.8651
#
#
#
# Elastic Compliance Matrix: (Units=1/GPa)
#
#
# Indices 1 2 3 4 5 6 
#
# 1 0.008613 -0.002414 -0.005183 0.000000 0.000000 0.000000
# 2 -0.002414 0.006939 -0.003177 0.000000 0.000000 0.000000
# 3 -0.005183 -0.003177 0.017247 0.000000 0.000000 0.000000
# 4 0.000000 0.000000 0.000000 0.024459 0.000000 0.000000
# 5 0.000000 0.000000 0.000000 0.000000 0.032831 0.000000
# 6 0.000000 0.000000 0.000000 0.000000 0.000000 0.018227
#
#
# Mechanical properties :
#
#
# Convention : Reuss Voigt Hill
#
# Bulk Modulus (GPa) = 88.88879 109.39342 99.14111
# Shear Modulus (GPa) = 37.42111 41.82063 39.62087
#
# Velocity S-wave (km/s) = 4.33006 4.57752 4.45551
# Velocity P-wave (km/s) = 8.33882 9.09662 8.72595
#
# Compressibility (1/GPa) = 0.01125001
#
# Stress axis : x y z
#
# Youngs Moduli (GPa) = 116.09773 144.12039 57.98034
#
# Poissons Ratio (x) = 0.34797 0.30051
# Poissons Ratio (y) = 0.28031 0.18422
# Poissons Ratio (z) = 0.60173 0.45791
#
# Static dielectric constant tensor:
#      x y z
#    x 4.267260 0.000000 0.000000 
#    y 0.000000 3.776260 0.000000 
#    z 0.000000 0.000000 3.732260 
# 
# 
# High freq. dielectric constant tensor:
#      x y z
#    x 1.805660 0.000000 0.000000 
#    y 0.000000 1.803660 0.000000 
#    z 0.000000 0.000000 1.785600 
# 
# From -- ./inp_files/8867.got.cif
#   From: 2010.03.12/outbox.cif.g09.slc.cpg/sg57_5_cif.got.tgz:8867.got - 2010.04.16 15:48:40.
