data_PCOD8234362
_publ_section_title
;
Structure prediction by ZEFSAII (Michael W. Deem and Ramdas Pophale) SiO2 
 PCOD8234362
Probable space group: P B C M
;
_chemical_formula_sum "Si O2"
_cell_formula_units_Z 48
_cell_length_a 9.925075
_cell_length_b 13.886059
_cell_length_c 16.844754
_cell_angle_alpha 90.000000
_cell_angle_beta 90.000000
_cell_angle_gamma 90.000000
_cell_volume 2321.546978
_symmetry_space_group_name_H-M "P B C M"
_symmetry_group_IT_number 57
_symmetry_cell_setting 'orthorhombic'
loop_
_space_group_symop_operation_xyz
x,y,z
-x,-y,1/2+z
x,1/2-y,-z
-x,1/2+y,1/2-z
-x,-y,-z
x,y,1/2-z
-x,1/2+y,z
x,1/2-y,1/2+z
loop_
_atom_site_type_symbol
_atom_site_label
_atom_site_fract_x
_atom_site_fract_y
_atom_site_fract_z
Si Si1 0.485209 0.973261 0.591316
Si Si2 0.358194 0.790826 0.658994
Si Si3 0.115311 0.666499 0.842468
Si Si4 0.387052 0.162597 0.839295
Si Si5 0.860385 0.762596 0.909395
Si Si6 0.784758 0.537834 0.344178
O O1 0.401311 0.875298 0.599863
O O2 0.628396 0.959944 0.633147
O O3 0.500000 0.000000 0.500000
O O4 0.394591 0.052371 0.634892
O O5 0.346390 0.828742 0.750000
O O6 0.218628 0.747333 0.624896
O O7 0.463932 0.704335 0.654252
O O8 0.143540 0.658277 0.750000
O O9 0.146295 0.560005 0.877131
O O10 0.963895 0.698930 0.858734
O O11 0.330381 0.170274 0.750000
O O12 0.288741 0.221459 0.896552
O O13 0.864870 0.874354 0.884885
O O14 0.902594 0.750000 0.000000
O O15 0.797115 0.550277 0.250000
#
# Coordination Sequence:
#
# PCOD8234362 Si02
#       6
#     8   8   8   8   8   8
#     4  12  24  37  63  99 136 168 210 273 335 383
#     4  10  21  40  67  94 122 167 225 267 310 383
#     4  10  23  43  67  95 125 170 224 268 316 388
#     4  11  22  40  66  93 122 168 225 265 307 385
#     4  12  26  42  64  97 136 171 210 269 336 390
#     4  11  22  43  69  91 126 176 221 264 325 389
#
# _framework density 20.675867
#
# number of rings (size 3 to 8) (size 9 to 14) (size 15 to 20)
#    0.000    1.000    3.333    4.000    0.000    3.333 
#    0.000    1.667    0.000    0.000    0.000    0.000 
#    0.000    0.000    0.000    0.000    0.000    0.000 
#
# Total GULP energy -595445.128731 kJ/mol
# GULP energy per Si atom -12405.106849 kJ/mol
# Density = 2.062881 g / cm^3
# Si number density = 20.675867 Si / 1000 Ang^3
#
#
#
# Elastic Constant Matrix: (Units=GPa)
#
#
# Indices 1 2 3 4 5 6 
#
# 1 73.9642 30.8378 16.2026 0.0000 0.0000 0.0000
# 2 30.8378 147.9969 46.6987 0.0000 0.0000 0.0000
# 3 16.2026 46.6987 71.2203 0.0000 0.0000 0.0000
# 4 0.0000 0.0000 0.0000 27.7737 0.0000 0.0000
# 5 0.0000 0.0000 0.0000 0.0000 19.7384 0.0000
# 6 0.0000 0.0000 0.0000 0.0000 0.0000 35.9560
#
#
#
# Elastic Compliance Matrix: (Units=1/GPa)
#
#
# Indices 1 2 3 4 5 6 
#
# 1 0.014971 -0.002578 -0.001715 0.000000 0.000000 0.000000
# 2 -0.002578 0.008964 -0.005291 0.000000 0.000000 0.000000
# 3 -0.001715 -0.005291 0.017900 0.000000 0.000000 0.000000
# 4 0.000000 0.000000 0.000000 0.036005 0.000000 0.000000
# 5 0.000000 0.000000 0.000000 0.000000 0.050663 0.000000
# 6 0.000000 0.000000 0.000000 0.000000 0.000000 0.027812
#
#
# Mechanical properties :
#
#
# Convention : Reuss Voigt Hill
#
# Bulk Modulus (GPa) = 44.11903 53.40663 48.76283
# Shear Modulus (GPa) = 27.31669 29.98978 28.65323
#
# Velocity S-wave (km/s) = 3.63876 3.81264 3.72671
# Velocity P-wave (km/s) = 6.24810 6.72816 6.49257
#
# Compressibility (1/GPa) = 0.02266595
#
# Stress axis : x y z
#
# Youngs Moduli (GPa) = 66.79700 111.56281 55.86484
#
# Poissons Ratio (x) = 0.28763 0.09583
# Poissons Ratio (y) = 0.17221 0.29557
# Poissons Ratio (z) = 0.11458 0.59026
#
# Static dielectric constant tensor:
#      x y z
#    x 3.561280 0.000000 0.000000 
#    y 0.000000 3.963220 0.000000 
#    z 0.000000 0.000000 3.636340 
# 
# 
# High freq. dielectric constant tensor:
#      x y z
#    x 1.803240 0.000000 0.000000 
#    y 0.000000 1.825190 0.000000 
#    z 0.000000 0.000000 1.801020 
# 
# From -- ./inp_files/20903.got.cif
#   From: 2010.03.12/outbox.cif.g09.slc.cpg/sg57_11_cif.got.tgz:20903.got - 2010.04.16 15:48:40.
