data_PCOD8234609
_publ_section_title
;
Structure prediction by ZEFSAII (Michael W. Deem and Ramdas Pophale) SiO2 
 PCOD8234609
Probable space group: P B C M
;
_chemical_formula_sum "Si O2"
_cell_formula_units_Z 64
_cell_length_a 12.405845
_cell_length_b 8.756883
_cell_length_c 28.073850
_cell_angle_alpha 90.000000
_cell_angle_beta 90.000000
_cell_angle_gamma 90.000000
_cell_volume 3049.845737
_symmetry_space_group_name_H-M "P B C M"
_symmetry_group_IT_number 57
_symmetry_cell_setting 'orthorhombic'
loop_
_space_group_symop_operation_xyz
x,y,z
-x,-y,1/2+z
x,1/2-y,-z
-x,1/2+y,1/2-z
-x,-y,-z
x,y,1/2-z
-x,1/2+y,z
x,1/2-y,1/2+z
loop_
_atom_site_type_symbol
_atom_site_label
_atom_site_fract_x
_atom_site_fract_y
_atom_site_fract_z
Si Si1 0.050984 0.993520 0.391761
Si Si2 0.282139 0.168277 0.803574
Si Si3 0.396663 0.973161 0.623281
Si Si4 0.360982 0.069059 0.134075
Si Si5 0.899482 0.709833 0.551428
Si Si6 0.657749 0.723251 0.551572
Si Si7 0.095001 0.946950 0.804155
Si Si8 0.234710 0.724585 0.863408
O O1 0.142792 0.862537 0.393562
O O2 0.955445 0.937079 0.425581
O O3 0.097082 0.149233 0.412450
O O4 0.007742 0.031815 0.338640
O O5 0.321255 0.192713 0.750000
O O6 0.360831 0.046603 0.827298
O O7 0.290252 0.326450 0.831170
O O8 0.159902 0.106439 0.806150
O O9 0.410349 0.098767 0.581517
O O10 0.511234 0.901275 0.637094
O O11 0.305501 0.849372 0.607403
O O12 0.333242 0.115561 0.079542
O O13 0.325148 0.900492 0.150311
O O14 0.951515 0.750000 0.500000
O O15 0.776986 0.656270 0.543686
O O16 0.602013 0.750000 0.500000
O O17 0.055496 0.914384 0.750000
O O18 0.173247 0.806460 0.819517
#
# Coordination Sequence:
#
# PCOD8234609 Si02
#       8
#     8   8   8   8   8   8   8   8
#     4  12  22  40  62  92 126 166 204 258 308 378
#     4   9  20  39  62  87 118 160 204 248 306 367
#     4  10  22  41  63  87 125 162 202 261 317 361
#     4  11  21  39  64  92 119 159 209 258 311 361
#     4  11  23  40  64  90 123 163 207 254 312 371
#     4  10  22  41  63  85 122 165 204 249 308 367
#     4  10  23  42  63  89 129 170 203 251 315 373
#     4  11  22  38  63  92 126 159 207 256 310 369
#
# _framework density 20.984670000000001
#
# number of rings (size 3 to 8) (size 9 to 14) (size 15 to 20)
#    0.000    1.500    2.500    4.125    0.000    2.000 
#    0.000    3.125    0.000    0.000    0.000    0.000 
#    0.000    0.000    0.000    0.000    0.000    0.000 
#
# Total GULP energy -793245.987372 kJ/mol
# GULP energy per Si atom -12394.468553 kJ/mol
# Density = 2.093691 g / cm^3
# Si number density = 20.984670 Si / 1000 Ang^3
#
#
#
# Elastic Constant Matrix: (Units=GPa)
#
#
# Indices 1 2 3 4 5 6 
#
# 1 70.0823 13.7786 14.2013 0.0000 0.0000 0.0000
# 2 13.7786 91.9382 28.8355 0.0000 0.0000 0.0000
# 3 14.2013 28.8355 129.5672 0.0000 0.0000 0.0000
# 4 0.0000 0.0000 0.0000 16.7162 0.0000 0.0000
# 5 0.0000 0.0000 0.0000 0.0000 16.1490 0.0000
# 6 0.0000 0.0000 0.0000 0.0000 0.0000 34.1395
#
#
#
# Elastic Compliance Matrix: (Units=1/GPa)
#
#
# Indices 1 2 3 4 5 6 
#
# 1 0.014879 -0.001847 -0.001220 0.000000 0.000000 0.000000
# 2 -0.001847 0.011922 -0.002451 0.000000 0.000000 0.000000
# 3 -0.001220 -0.002451 0.008397 0.000000 0.000000 0.000000
# 4 0.000000 0.000000 0.000000 0.059822 0.000000 0.000000
# 5 0.000000 0.000000 0.000000 0.000000 0.061923 0.000000
# 6 0.000000 0.000000 0.000000 0.000000 0.000000 0.029292
#
#
# Mechanical properties :
#
#
# Convention : Reuss Voigt Hill
#
# Bulk Modulus (GPa) = 41.38573 45.02427 43.20500
# Shear Modulus (GPa) = 24.35150 29.05243 26.70197
#
# Velocity S-wave (km/s) = 3.41022 3.72487 3.57101
# Velocity P-wave (km/s) = 5.93893 6.32471 6.13485
#
# Compressibility (1/GPa) = 0.02416292
#
# Stress axis : x y z
#
# Youngs Moduli (GPa) = 67.20749 83.87551 119.08822
#
# Poissons Ratio (x) = 0.15495 0.14525
# Poissons Ratio (y) = 0.12416 0.29187
# Poissons Ratio (z) = 0.08197 0.20557
#
# Static dielectric constant tensor:
#      x y z
#    x 3.759350 0.000000 0.000000 
#    y 0.000000 3.935970 0.000000 
#    z 0.000000 0.000000 3.823610 
# 
# 
# High freq. dielectric constant tensor:
#      x y z
#    x 1.822360 0.000000 0.000000 
#    y 0.000000 1.826340 0.000000 
#    z 0.000000 0.000000 1.806620 
# 
# From -- ./inp_files/29783.got.cif
#   From: 2010.03.12/outbox.cif.g09.slc.cpg/sg57_15_cif.got.tgz:29783.got - 2010.04.16 15:48:40.
