data_PCOD8234148
_publ_section_title
;
Structure prediction by ZEFSAII (Michael W. Deem and Ramdas Pophale) SiO2 
 PCOD8234148
Probable space group: P B C M
;
_chemical_formula_sum "Si O2"
_cell_formula_units_Z 64
_cell_length_a 14.162914
_cell_length_b 9.186754
_cell_length_c 24.869585
_cell_angle_alpha 90.000000
_cell_angle_beta 90.000000
_cell_angle_gamma 90.000000
_cell_volume 3235.811718
_symmetry_space_group_name_H-M "P B C M"
_symmetry_group_IT_number 57
_symmetry_cell_setting 'orthorhombic'
loop_
_space_group_symop_operation_xyz
x,y,z
-x,-y,1/2+z
x,1/2-y,-z
-x,1/2+y,1/2-z
-x,-y,-z
x,y,1/2-z
-x,1/2+y,z
x,1/2-y,1/2+z
loop_
_atom_site_type_symbol
_atom_site_label
_atom_site_fract_x
_atom_site_fract_y
_atom_site_fract_z
Si Si1 0.772668 0.082448 0.001422
Si Si2 0.582508 0.884749 0.644802
Si Si3 0.102079 0.567567 0.899281
Si Si4 0.410410 0.413318 0.980561
Si Si5 0.908620 0.408247 0.899946
Si Si6 0.583675 0.925741 0.187938
Si Si7 0.216489 0.404961 0.812234
Si Si8 0.796376 0.570197 0.688418
O O1 0.825678 0.037847 0.947245
O O2 0.681388 0.982596 0.008163
O O3 0.740533 0.250000 0.000000
O O4 0.839428 0.050966 0.051717
O O5 0.595984 0.927161 0.583258
O O6 0.568560 0.712662 0.649993
O O7 0.489160 0.952391 0.670421
O O8 0.673942 0.942069 0.676815
O O9 0.077130 0.736552 0.893447
O O10 0.148147 0.512311 0.844204
O O11 0.008584 0.478780 0.913053
O O12 0.419658 0.250000 0.000000
O O13 0.500000 0.500000 0.000000
O O14 0.867724 0.472280 0.845020
O O15 0.569428 0.879037 0.250000
O O16 0.689528 0.987371 0.179850
O O17 0.194896 0.430522 0.750000
O O18 0.196511 0.238638 0.829636
O O19 0.827424 0.553961 0.750000
#
# Coordination Sequence:
#
# PCOD8234148 Si02
#       8
#     8   8   8   8   8   8   8   8
#     4  10  24  44  65  92 126 162 209 258 306 370
#     4  11  22  39  62  89 126 163 210 254 307 369
#     4  11  23  43  61  97 119 160 205 260 313 369
#     4  12  26  41  63  95 130 171 207 254 309 368
#     4  11  24  39  69  87 126 159 205 257 311 376
#     4  10  21  38  62  90 123 162 208 256 305 364
#     4  10  21  40  64  89 125 162 206 259 312 371
#     4   9  21  40  61  91 124 161 205 255 308 367
#
# _framework density 19.778654
#
# number of rings (size 3 to 8) (size 9 to 14) (size 15 to 20)
#    0.000    1.500    1.250    4.125    5.250    3.000 
#    0.000    1.250    0.000    0.000    0.000    0.000 
#    0.000    0.000    0.000    0.000    0.000    0.000 
#
# Total GULP energy -793985.280356 kJ/mol
# GULP energy per Si atom -12406.020006 kJ/mol
# Density = 1.973364 g / cm^3
# Si number density = 19.778654 Si / 1000 Ang^3
#
#
#
# Elastic Constant Matrix: (Units=GPa)
#
#
# Indices 1 2 3 4 5 6 
#
# 1 121.4455 72.5931 35.0705 0.0000 0.0000 0.0000
# 2 72.5931 104.5770 39.7085 0.0000 0.0000 0.0000
# 3 35.0705 39.7085 89.5091 0.0000 0.0000 0.0000
# 4 0.0000 0.0000 0.0000 30.6993 0.0000 0.0000
# 5 0.0000 0.0000 0.0000 0.0000-1939.8282 0.0000
# 6 0.0000 0.0000 0.0000 0.0000 0.0000 43.1654
#
#
#
# Elastic Compliance Matrix: (Units=1/GPa)
#
#
# Indices 1 2 3 4 5 6 
#
# 1 0.014225 -0.009330 -0.001435 0.000000 0.000000 0.000000
# 2 -0.009330 0.017619 -0.004160 0.000000 0.000000 0.000000
# 3 -0.001435 -0.004160 0.013580 0.000000 0.000000 0.000000
# 4 0.000000 0.000000 0.000000 0.032574 0.000000 0.000000
# 5 0.000000 0.000000 0.000000 0.000000 -0.000516 0.000000
# 6 0.000000 0.000000 0.000000 0.000000 0.000000 0.023167
#
#
# Mechanical properties :
#
#
# Convention : Reuss Voigt Hill
#
# Bulk Modulus (GPa) = 64.21096 67.80841 66.00968
# Shear Modulus (GPa) = 36.84868 -361.98205 -162.56668
#
# Velocity S-wave (km/s) = 4.32099 -13.54304 -9.07587
# Velocity P-wave (km/s) = 7.57825 14.49806 8.73967
#
# Compressibility (1/GPa) = 0.01557366
#
# Stress axis : x y z
#
# Youngs Moduli (GPa) = 70.29730 56.75845 73.63854
#
# Poissons Ratio (x) = 0.52955 0.10564
# Poissons Ratio (y) = 0.65587 0.30637
# Poissons Ratio (z) = 0.10085 0.23614
#
# Static dielectric constant tensor:
#      x y z
#    x 3.660230 0.000000 0.000000 
#    y 0.000000 3.560630 0.000000 
#    z 0.000000 0.000000 3.681160 
# 
# 
# High freq. dielectric constant tensor:
#      x y z
#    x 1.780610 0.000000 0.000000 
#    y 0.000000 1.769540 0.000000 
#    z 0.000000 0.000000 1.783670 
# 
# From -- ./inp_files/27508.got.cif
#   From: 2010.03.12/outbox.cif.g09.slc.cpg/sg57_14_cif.got.tgz:27508.got - 2010.04.16 15:48:40.
