data_PCOD8234639
_publ_section_title
;
Structure prediction by ZEFSAII (Michael W. Deem and Ramdas Pophale) SiO2 
 PCOD8234639
Probable space group: P B C M
;
_chemical_formula_sum "Si O2"
_cell_formula_units_Z 36
_cell_length_a 7.267636
_cell_length_b 9.005612
_cell_length_c 21.670907
_cell_angle_alpha 90.000000
_cell_angle_beta 90.000000
_cell_angle_gamma 90.000000
_cell_volume 1418.350244
_symmetry_space_group_name_H-M "P B C M"
_symmetry_group_IT_number 57
_symmetry_cell_setting 'orthorhombic'
loop_
_space_group_symop_operation_xyz
x,y,z
-x,-y,1/2+z
x,1/2-y,-z
-x,1/2+y,1/2-z
-x,-y,-z
x,y,1/2-z
-x,1/2+y,z
x,1/2-y,1/2+z
loop_
_atom_site_type_symbol
_atom_site_label
_atom_site_fract_x
_atom_site_fract_y
_atom_site_fract_z
Si Si1 0.675516 0.077018 0.390000
Si Si2 0.959653 0.116064 0.888217
Si Si3 0.757076 0.250000 0.500000
Si Si4 0.172990 0.354166 0.681237
Si Si5 0.539614 0.336947 0.320208
O O1 0.865345 0.990983 0.391344
O O2 0.511045 0.977963 0.363120
O O3 0.630428 0.137629 0.459312
O O4 0.699176 0.232056 0.350133
O O5 0.021058 0.270197 0.858543
O O6 0.885549 0.148930 0.956315
O O7 0.808850 0.024001 0.846026
O O8 0.093871 0.366651 0.750000
O O9 0.365812 0.272290 0.680547
O O10 0.585171 0.390383 0.250000
#
# Coordination Sequence:
#
# PCOD8234639 Si02
#       5
#     8   8   4   8   8
#     4  11  25  45  72 101 138 192 233 290 352 418
#     4  11  23  45  71 102 140 188 233 291 350 411
#     4  12  26  46  70 106 146 194 240 284 342 432
#     4  10  22  41  69 104 137 176 236 295 358 415
#     4  10  24  46  69 102 141 180 232 299 363 416
#
# _framework density 25.381601
#
# number of rings (size 3 to 8) (size 9 to 14) (size 15 to 20)
#    0.000    1.333    2.222    2.000    3.111    3.556 
#    0.000    0.000    0.000    0.000    0.000    0.000 
#    0.000    0.000    0.000    0.000    0.000    0.000 
#
# Total GULP energy -446362.528364 kJ/mol
# GULP energy per Si atom -12398.959121 kJ/mol
# Density = 2.532383 g / cm^3
# Si number density = 25.381601 Si / 1000 Ang^3
#
#
#
# Elastic Constant Matrix: (Units=GPa)
#
#
# Indices 1 2 3 4 5 6 
#
# 1 67.0703 25.6448 45.2937 0.0000 0.0000 0.0000
# 2 25.6448 174.7735 83.2967 0.0000 0.0000 0.0000
# 3 45.2937 83.2967 210.1947 0.0000 0.0000 0.0000
# 4 0.0000 0.0000 0.0000 61.2110 0.0000 0.0000
# 5 0.0000 0.0000 0.0000 0.0000 38.9254 0.0000
# 6 0.0000 0.0000 0.0000 0.0000 0.0000 38.9840
#
#
#
# Elastic Compliance Matrix: (Units=1/GPa)
#
#
# Indices 1 2 3 4 5 6 
#
# 1 0.017577 -0.000954 -0.003409 0.000000 0.000000 0.000000
# 2 -0.000954 0.007106 -0.002610 0.000000 0.000000 0.000000
# 3 -0.003409 -0.002610 0.006527 0.000000 0.000000 0.000000
# 4 0.000000 0.000000 0.000000 0.016337 0.000000 0.000000
# 5 0.000000 0.000000 0.000000 0.000000 0.025690 0.000000
# 6 0.000000 0.000000 0.000000 0.000000 0.000000 0.025652
#
#
# Mechanical properties :
#
#
# Convention : Reuss Voigt Hill
#
# Bulk Modulus (GPa) = 57.93220 84.50101 71.21661
# Shear Modulus (GPa) = 42.16216 47.67762 44.91989
#
# Velocity S-wave (km/s) = 4.08012 4.33879 4.21144
# Velocity P-wave (km/s) = 6.71346 7.64622 7.19497
#
# Compressibility (1/GPa) = 0.01726156
#
# Stress axis : x y z
#
# Youngs Moduli (GPa) = 56.89244 140.73100 153.21930
#
# Poissons Ratio (x) = 0.13428 0.52239
# Poissons Ratio (y) = 0.05428 0.39995
# Poissons Ratio (z) = 0.19397 0.36735
#
# Static dielectric constant tensor:
#      x y z
#    x 4.690240 0.000000 0.000000 
#    y 0.000000 5.206120 0.000000 
#    z 0.000000 0.000000 4.638960 
# 
# 
# High freq. dielectric constant tensor:
#      x y z
#    x 2.037850 0.000000 0.000000 
#    y 0.000000 2.061730 0.000000 
#    z 0.000000 0.000000 2.003320 
# 
# From -- ./inp_files/24010.got.cif
#   From: 2010.03.12/outbox.cif.g09.slc.cpg/sg57_13_cif.got.tgz:24010.got - 2010.04.16 15:48:40.
