data_PCOD8234960
_publ_section_title
;
Structure prediction by ZEFSAII (Michael W. Deem and Ramdas Pophale) SiO2 
 PCOD8234960
Probable space group: P B C M
;
_chemical_formula_sum "Si O2"
_cell_formula_units_Z 64
_cell_length_a 11.836195
_cell_length_b 14.583082
_cell_length_c 17.317273
_cell_angle_alpha 90.000000
_cell_angle_beta 90.000000
_cell_angle_gamma 90.000000
_cell_volume 2989.103360
_symmetry_space_group_name_H-M "P B C M"
_symmetry_group_IT_number 57
_symmetry_cell_setting 'orthorhombic'
loop_
_space_group_symop_operation_xyz
x,y,z
-x,-y,1/2+z
x,1/2-y,-z
-x,1/2+y,1/2-z
-x,-y,-z
x,y,1/2-z
-x,1/2+y,z
x,1/2-y,1/2+z
loop_
_atom_site_type_symbol
_atom_site_label
_atom_site_fract_x
_atom_site_fract_y
_atom_site_fract_z
Si Si1 0.734732 0.524722 0.936860
Si Si2 0.746510 0.317519 0.569821
Si Si3 0.358098 0.438999 0.596093
Si Si4 0.501978 0.265962 0.908375
Si Si5 0.880970 0.517407 0.336017
Si Si6 0.012864 0.680115 0.104739
Si Si7 0.027185 0.119657 0.568830
Si Si8 0.464464 0.072945 0.839558
O O1 0.738408 0.419716 0.963611
O O2 0.857722 0.564268 0.919613
O O3 0.659989 0.535144 0.859795
O O4 0.674388 0.577660 0.006882
O O5 0.775292 0.250000 0.500000
O O6 0.631660 0.289902 0.613101
O O7 0.854297 0.312081 0.627149
O O8 0.421140 0.346598 0.621973
O O9 0.247427 0.457023 0.645925
O O10 0.442268 0.524177 0.607065
O O11 0.466221 0.179809 0.858232
O O12 0.491846 0.250000 0.000000
O O13 0.888348 0.476781 0.250000
O O14 0.951458 0.612084 0.336849
O O15 0.926436 0.440081 0.394282
O O16 0.958344 0.781308 0.109567
O O17 0.001222 0.634039 0.020384
O O18 0.489474 0.054105 0.750000
#
# Coordination Sequence:
#
# PCOD8234960 Si02
#       8
#     8   8   8   8   8   8   8   8
#     4  12  23  44  75  99 134 184 230 288 333 418
#     4  11  21  39  69 103 131 167 230 283 338 385
#     4  12  24  45  72  96 136 177 234 276 340 409
#     4  11  24  43  71 102 133 181 233 284 334 409
#     4  12  27  44  67 100 142 183 221 282 353 413
#     4  11  23  43  70 104 134 176 229 287 334 410
#     4  11  24  43  72 100 133 177 231 284 337 402
#     4  12  28  46  66 103 142 182 229 288 354 406
#
# _framework density 21.411102
#
# number of rings (size 3 to 8) (size 9 to 14) (size 15 to 20)
#    0.000    0.500    6.250    3.375    3.500    2.000 
#    0.000    0.625    0.000    0.000    0.000    0.000 
#    0.000    0.000    0.000    0.000    0.000    0.000 
#
# Total GULP energy -793837.375461 kJ/mol
# GULP energy per Si atom -12403.708992 kJ/mol
# Density = 2.136237 g / cm^3
# Si number density = 21.411102 Si / 1000 Ang^3
#
#
#
# Elastic Constant Matrix: (Units=GPa)
#
#
# Indices 1 2 3 4 5 6 
#
# 1 144.5135 43.6712 25.7664 0.0000 0.0000 0.0000
# 2 43.6712 130.2918 15.2960 0.0000 0.0000 0.0000
# 3 25.7664 15.2960 63.8941 0.0000 0.0000 0.0000
# 4 0.0000 0.0000 0.0000 12.7379 0.0000 0.0000
# 5 0.0000 0.0000 0.0000 0.0000 14.9817 0.0000
# 6 0.0000 0.0000 0.0000 0.0000 0.0000 33.9899
#
#
#
# Elastic Compliance Matrix: (Units=1/GPa)
#
#
# Indices 1 2 3 4 5 6 
#
# 1 0.008129 -0.002407 -0.002702 0.000000 0.000000 0.000000
# 2 -0.002407 0.008610 -0.001090 0.000000 0.000000 0.000000
# 3 -0.002702 -0.001090 0.017001 0.000000 0.000000 0.000000
# 4 0.000000 0.000000 0.000000 0.078506 0.000000 0.000000
# 5 0.000000 0.000000 0.000000 0.000000 0.066748 0.000000
# 6 0.000000 0.000000 0.000000 0.000000 0.000000 0.029420
#
#
# Mechanical properties :
#
#
# Convention : Reuss Voigt Hill
#
# Bulk Modulus (GPa) = 46.85767 56.46292 51.66029
# Shear Modulus (GPa) = 21.93675 29.27296 25.60486
#
# Velocity S-wave (km/s) = 3.20433 3.70156 3.46188
# Velocity P-wave (km/s) = 5.96847 6.68557 6.33717
#
# Compressibility (1/GPa) = 0.02134122
#
# Stress axis : x y z
#
# Youngs Moduli (GPa) = 123.01591 116.14360 58.81838
#
# Poissons Ratio (x) = 0.27962 0.15892
# Poissons Ratio (y) = 0.29616 0.06413
# Poissons Ratio (z) = 0.33237 0.12664
#
# Static dielectric constant tensor:
#      x y z
#    x 4.144210 0.000000 0.000000 
#    y 0.000000 4.089530 0.000000 
#    z 0.000000 0.000000 3.473490 
# 
# 
# High freq. dielectric constant tensor:
#      x y z
#    x 1.860870 0.000000 0.000000 
#    y 0.000000 1.859120 0.000000 
#    z 0.000000 0.000000 1.799130 
# 
# From -- ./inp_files/22079.got.cif
#   From: 2010.03.12/outbox.cif.g09.slc.cpg/sg57_12_cif.got.tgz:22079.got - 2010.04.16 15:48:40.
