data_PCOD8234760
_publ_section_title
;
Structure prediction by ZEFSAII (Michael W. Deem and Ramdas Pophale) SiO2 
 PCOD8234760
Probable space group: P B C M
;
_chemical_formula_sum "Si O2"
_cell_formula_units_Z 64
_cell_length_a 10.992557
_cell_length_b 9.401097
_cell_length_c 28.701771
_cell_angle_alpha 90.000000
_cell_angle_beta 90.000000
_cell_angle_gamma 90.000000
_cell_volume 2966.101135
_symmetry_space_group_name_H-M "P B C M"
_symmetry_group_IT_number 57
_symmetry_cell_setting 'orthorhombic'
loop_
_space_group_symop_operation_xyz
x,y,z
-x,-y,1/2+z
x,1/2-y,-z
-x,1/2+y,1/2-z
-x,-y,-z
x,y,1/2-z
-x,1/2+y,z
x,1/2-y,1/2+z
loop_
_atom_site_type_symbol
_atom_site_label
_atom_site_fract_x
_atom_site_fract_y
_atom_site_fract_z
Si Si1 0.973716 0.042626 0.662210
Si Si2 0.041454 0.300919 0.601208
Si Si3 0.641531 0.803694 0.142580
Si Si4 0.594475 0.295152 0.302623
Si Si5 0.255900 0.438300 0.698759
Si Si6 0.232904 0.545142 0.303411
Si Si7 0.744471 0.836723 0.044711
Si Si8 0.891886 0.097072 0.022968
O O1 0.005643 0.197965 0.643828
O O2 0.867062 0.035622 0.700462
O O3 0.908131 0.948093 0.622038
O O4 0.094170 0.963374 0.680122
O O5 0.921662 0.355095 0.575119
O O6 0.129527 0.229008 0.563671
O O7 0.508351 0.755732 0.159545
O O8 0.740487 0.686174 0.159617
O O9 0.645975 0.824015 0.086435
O O10 0.677416 0.950464 0.166025
O O11 0.544376 0.269470 0.250000
O O12 0.629320 0.459302 0.309791
O O13 0.716441 0.203732 0.310744
O O14 0.266388 0.367152 0.750000
O O15 0.240436 0.495455 0.250000
O O16 0.771213 0.998258 0.027501
O O17 0.696246 0.750000 0.000000
O O18 0.862893 0.250000 0.000000
O O19 0.000000 0.000000 0.000000
#
# Coordination Sequence:
#
# PCOD8234760 Si02
#       8
#     8   8   8   8   8   8   8   8
#     4  12  22  36  58  97 137 168 201 258 326 398
#     4  12  20  35  56  87 131 169 207 249 319 395
#     4  12  23  41  64  91 124 169 224 276 320 380
#     4  10  23  42  66  96 127 171 226 268 309 380
#     4  11  23  39  64  96 130 173 216 259 321 389
#     4  11  22  39  63  93 132 172 210 264 326 387
#     4  12  24  40  60  92 124 168 220 278 335 390
#     4  12  20  34  60  88 125 168 212 270 330 392
#
# _framework density 21.577145999999999
#
# number of rings (size 3 to 8) (size 9 to 14) (size 15 to 20)
#    0.000    0.500    6.250    3.000    0.000    2.000 
#    0.000    3.750    0.000    3.000    0.000    0.000 
#    0.000    0.000    0.000    0.000    0.000    0.000 
#
# Total GULP energy -793123.623908 kJ/mol
# GULP energy per Si atom -12392.556624 kJ/mol
# Density = 2.152804 g / cm^3
# Si number density = 21.577146 Si / 1000 Ang^3
#
#
#
# Elastic Constant Matrix: (Units=GPa)
#
#
# Indices 1 2 3 4 5 6 
#
# 1 84.8046 15.1926 28.5030 0.0000 0.0000 0.0000
# 2 15.1926 95.6561 45.9186 0.0000 0.0000 0.0000
# 3 28.5030 45.9186 123.0133 0.0000 0.0000 0.0000
# 4 0.0000 0.0000 0.0000 35.1740 0.0000 0.0000
# 5 0.0000 0.0000 0.0000 0.0000 30.5871 0.0000
# 6 0.0000 0.0000 0.0000 0.0000 0.0000 20.2807
#
#
#
# Elastic Compliance Matrix: (Units=1/GPa)
#
#
# Indices 1 2 3 4 5 6 
#
# 1 0.012831 -0.000744 -0.002695 0.000000 0.000000 0.000000
# 2 -0.000744 0.012779 -0.004598 0.000000 0.000000 0.000000
# 3 -0.002695 -0.004598 0.010470 0.000000 0.000000 0.000000
# 4 0.000000 0.000000 0.000000 0.028430 0.000000 0.000000
# 5 0.000000 0.000000 0.000000 0.000000 0.032694 0.000000
# 6 0.000000 0.000000 0.000000 0.000000 0.000000 0.049308
#
#
# Mechanical properties :
#
#
# Convention : Reuss Voigt Hill
#
# Bulk Modulus (GPa) = 49.98507 53.63360 51.80933
# Shear Modulus (GPa) = 29.54114 31.46566 30.50340
#
# Velocity S-wave (km/s) = 3.70414 3.82289 3.76399
# Velocity P-wave (km/s) = 6.44285 6.66308 6.55389
#
# Compressibility (1/GPa) = 0.02000597
#
# Stress axis : x y z
#
# Youngs Moduli (GPa) = 77.93629 78.25042 95.51057
#
# Poissons Ratio (x) = 0.05822 0.25743
# Poissons Ratio (y) = 0.05799 0.43915
# Poissons Ratio (z) = 0.21006 0.35979
#
# Static dielectric constant tensor:
#      x y z
#    x 3.546840 0.000000 0.000000 
#    y 0.000000 3.969680 0.000000 
#    z 0.000000 0.000000 4.099210 
# 
# 
# High freq. dielectric constant tensor:
#      x y z
#    x 1.814700 0.000000 0.000000 
#    y 0.000000 1.862000 0.000000 
#    z 0.000000 0.000000 1.846630 
# 
# From -- ./inp_files/29755.got.cif
#   From: 2010.03.12/outbox.cif.g09.slc.cpg/sg57_15_cif.got.tgz:29755.got - 2010.04.16 15:48:40.
