data_PCOD8234259
_publ_section_title
;
Structure prediction by ZEFSAII (Michael W. Deem and Ramdas Pophale) SiO2 
 PCOD8234259
Probable space group: P B C M
;
_chemical_formula_sum "Si O2"
_cell_formula_units_Z 56
_cell_length_a 31.180884
_cell_length_b 5.073678
_cell_length_c 16.787372
_cell_angle_alpha 90.000000
_cell_angle_beta 90.000000
_cell_angle_gamma 90.000000
_cell_volume 2655.791883
_symmetry_space_group_name_H-M "P B C M"
_symmetry_group_IT_number 57
_symmetry_cell_setting 'orthorhombic'
loop_
_space_group_symop_operation_xyz
x,y,z
-x,-y,1/2+z
x,1/2-y,-z
-x,1/2+y,1/2-z
-x,-y,-z
x,y,1/2-z
-x,1/2+y,z
x,1/2-y,1/2+z
loop_
_atom_site_type_symbol
_atom_site_label
_atom_site_fract_x
_atom_site_fract_y
_atom_site_fract_z
Si Si1 0.608715 0.500707 0.947908
Si Si2 0.745240 0.450732 0.158516
Si Si3 0.310037 0.055966 0.658520
Si Si4 0.527492 0.031366 0.342007
Si Si5 0.835055 0.327610 0.090232
Si Si6 0.121035 0.334147 0.342520
Si Si7 0.974882 0.570386 0.655133
O O1 0.648213 0.593853 0.894355
O O2 0.569332 0.411586 0.893355
O O3 0.622582 0.250000 0.000000
O O4 0.594465 0.750000 0.000000
O O5 0.761081 0.457173 0.250000
O O6 0.725456 0.730182 0.132612
O O7 0.785324 0.393361 0.102495
O O8 0.708917 0.232915 0.145370
O O9 0.323314 0.104087 0.750000
O O10 0.541062 0.053016 0.250000
O O11 0.491547 0.246722 0.363048
O O12 0.863073 0.583596 0.108591
O O13 0.847985 0.083980 0.146373
O O14 0.843631 0.250000 0.000000
O O15 0.120379 0.255579 0.250000
O O16 0.073828 0.405820 0.375004
O O17 0.975301 0.570390 0.750000
O O18 0.995908 0.305492 0.621121
#
# Coordination Sequence:
#
# PCOD8234259 Si02
#       7
#     8   8   8   8   8   8   8
#     4  12  25  39  60  91 125 159 195 243 299 355
#     4  10  21  39  64  89 114 152 201 246 291 350
#     4  10  22  41  63  86 116 154 196 243 292 351
#     4  10  22  41  64  88 118 160 206 249 295 350
#     4  12  25  40  60  90 126 160 196 249 310 364
#     4  11  22  39  64  89 119 160 204 249 297 362
#     4   9  17  31  55  87 115 144 194 254 299 339
#
# _framework density 21.085986999999999
#
# number of rings (size 3 to 8) (size 9 to 14) (size 15 to 20)
#    0.000    1.429    0.000    5.571    0.000    6.857 
#    0.000    5.714    0.000    8.571    0.000    0.000 
#    0.000    0.000    0.000    0.000    0.000    0.000 
#
# Total GULP energy -694793.243923 kJ/mol
# GULP energy per Si atom -12407.022213 kJ/mol
# Density = 2.103799 g / cm^3
# Si number density = 21.085987 Si / 1000 Ang^3
#
#
#
# Elastic Constant Matrix: (Units=GPa)
#
#
# Indices 1 2 3 4 5 6 
#
# 1 99.0994 14.4854 51.8048 0.0000 0.0000 0.0000
# 2 14.4854 111.0001 25.0600 0.0000 0.0000 0.0000
# 3 51.8048 25.0600 58.5108 0.0000 0.0000 0.0000
# 4 0.0000 0.0000 0.0000 33.2299 0.0000 0.0000
# 5 0.0000 0.0000 0.0000 0.0000 7.2028 0.0000
# 6 0.0000 0.0000 0.0000 0.0000 0.0000 31.8301
#
#
#
# Elastic Compliance Matrix: (Units=1/GPa)
#
#
# Indices 1 2 3 4 5 6 
#
# 1 0.018997 0.001459 -0.017445 0.000000 0.000000 0.000000
# 2 0.001459 0.010085 -0.005612 0.000000 0.000000 0.000000
# 3 -0.017445 -0.005612 0.034940 0.000000 0.000000 0.000000
# 4 0.000000 0.000000 0.000000 0.030093 0.000000 0.000000
# 5 0.000000 0.000000 0.000000 0.000000 0.138836 0.000000
# 6 0.000000 0.000000 0.000000 0.000000 0.000000 0.031417
#
#
# Mechanical properties :
#
#
# Convention : Reuss Voigt Hill
#
# Bulk Modulus (GPa) = 48.01225 50.14564 49.07895
# Shear Modulus (GPa) = 15.89804 26.26990 21.08397
#
# Velocity S-wave (km/s) = 2.74882 3.53348 3.16556
# Velocity P-wave (km/s) = 5.73531 6.36243 6.05699
#
# Compressibility (1/GPa) = 0.02082802
#
# Stress axis : x y z
#
# Youngs Moduli (GPa) = 52.64033 99.15246 28.62084
#
# Poissons Ratio (x) = -0.14470 0.49928
# Poissons Ratio (y) = -0.07682 0.16061
# Poissons Ratio (z) = 0.91829 0.55641
#
# Static dielectric constant tensor:
#      x y z
#    x 3.747630 0.000000 0.000000 
#    y 0.000000 4.007550 0.000000 
#    z 0.000000 0.000000 3.645870 
# 
# 
# High freq. dielectric constant tensor:
#      x y z
#    x 1.832980 0.000000 0.000000 
#    y 0.000000 1.844980 0.000000 
#    z 0.000000 0.000000 1.810990 
# 
# From -- ./inp_files/19645.got.cif
#   From: 2010.03.12/outbox.cif.g09.slc.cpg/sg57_10_cif.got.tgz:19645.got - 2010.04.16 15:48:40.
