data_PCOD8234300
_publ_section_title
;
Structure prediction by ZEFSAII (Michael W. Deem and Ramdas Pophale) SiO2 
 PCOD8234300
Probable space group: P B C M
;
_chemical_formula_sum "Si O2"
_cell_formula_units_Z 32
_cell_length_a 10.026935
_cell_length_b 8.611694
_cell_length_c 16.162501
_cell_angle_alpha 90.000000
_cell_angle_beta 90.000000
_cell_angle_gamma 90.000000
_cell_volume 1395.614118
_symmetry_space_group_name_H-M "P B C M"
_symmetry_group_IT_number 57
_symmetry_cell_setting 'orthorhombic'
loop_
_space_group_symop_operation_xyz
x,y,z
-x,-y,1/2+z
x,1/2-y,-z
-x,1/2+y,1/2-z
-x,-y,-z
x,y,1/2-z
-x,1/2+y,z
x,1/2-y,1/2+z
loop_
_atom_site_type_symbol
_atom_site_label
_atom_site_fract_x
_atom_site_fract_y
_atom_site_fract_z
Si Si1 0.108765 0.928746 0.899273
Si Si2 0.350644 0.129694 0.842863
Si Si3 0.849136 0.409854 0.093021
Si Si4 0.565621 0.944472 0.586276
O O1 0.141978 0.758873 0.862705
O O2 0.208559 0.064053 0.871171
O O3 0.117629 0.906466 0.996794
O O4 0.961019 0.976675 0.867812
O O5 0.338771 0.196286 0.750000
O O6 0.402461 0.261131 0.907413
O O7 0.457447 0.989616 0.844324
O O8 0.701231 0.468320 0.107840
O O9 0.500000 0.000000 0.500000
#
# Coordination Sequence:
#
# PCOD8234300 Si02
#       4
#     8   8   8   8
#     4  10  21  40  67  99 135 172 222 287 340 409
#     4  12  26  44  65  99 141 182 224 287 360 418
#     4  10  21  39  68 101 129 171 232 286 333 396
#     4  12  24  41  70 100 133 181 235 287 341 420
#
# _framework density 22.928972000000002
#
# number of rings (size 3 to 8) (size 9 to 14) (size 15 to 20)
#    0.000    1.000    2.500    4.500    3.500    2.000 
#    0.000    7.500    0.000    0.000    0.000    0.000 
#    0.000    0.000    0.000    0.000    0.000    0.000 
#
# Total GULP energy -396654.977605 kJ/mol
# GULP energy per Si atom -12395.468050 kJ/mol
# Density = 2.287679 g / cm^3
# Si number density = 22.928972 Si / 1000 Ang^3
#
#
#
# Elastic Constant Matrix: (Units=GPa)
#
#
# Indices 1 2 3 4 5 6 
#
# 1 182.1593 51.6534 20.5922 0.0000 0.0000 0.0000
# 2 51.6534 127.1858 33.1817 0.0000 0.0000 0.0000
# 3 20.5922 33.1817 70.8083 0.0000 0.0000 0.0000
# 4 0.0000 0.0000 0.0000 20.3971 0.0000 0.0000
# 5 0.0000 0.0000 0.0000 0.0000 -22.8259 0.0000
# 6 0.0000 0.0000 0.0000 0.0000 0.0000 48.2427
#
#
#
# Elastic Compliance Matrix: (Units=1/GPa)
#
#
# Indices 1 2 3 4 5 6 
#
# 1 0.006236 -0.002346 -0.000714 0.000000 0.000000 0.000000
# 2 -0.002346 0.009840 -0.003929 0.000000 0.000000 0.000000
# 3 -0.000714 -0.003929 0.016171 0.000000 0.000000 0.000000
# 4 0.000000 0.000000 0.000000 0.049027 0.000000 0.000000
# 5 0.000000 0.000000 0.000000 0.000000 -0.043810 0.000000
# 6 0.000000 0.000000 0.000000 0.000000 0.000000 0.020729
#
#
# Mechanical properties :
#
#
# Convention : Reuss Voigt Hill
#
# Bulk Modulus (GPa) = 54.73709 65.66756 60.20233
# Shear Modulus (GPa) = 63.88886 27.47785 45.68336
#
# Velocity S-wave (km/s) = 5.28435 3.46553 4.46846
# Velocity P-wave (km/s) = 7.82027 6.68692 7.27570
#
# Compressibility (1/GPa) = 0.01826915
#
# Stress axis : x y z
#
# Youngs Moduli (GPa) = 160.36667 101.62169 61.83734
#
# Poissons Ratio (x) = 0.23843 0.04415
# Poissons Ratio (y) = 0.37625 0.24296
# Poissons Ratio (z) = 0.11450 0.39927
#
# Static dielectric constant tensor:
#      x y z
#    x 4.333940 0.000000 0.000000 
#    y 0.000000 4.635360 0.000000 
#    z 0.000000 0.000000 3.939440 
# 
# 
# High freq. dielectric constant tensor:
#      x y z
#    x 1.925430 0.000000 0.000000 
#    y 0.000000 1.917770 0.000000 
#    z 0.000000 0.000000 1.864940 
# 
# From -- ./inp_files/21540.got.cif
#   From: 2010.03.12/outbox.cif.g09.slc.cpg/sg57_11_cif.got.tgz:21540.got - 2010.04.16 15:48:40.
