data_PCOD8234078
_publ_section_title
;
Structure prediction by ZEFSAII (Michael W. Deem and Ramdas Pophale) SiO2 
 PCOD8234078
Probable space group: P B C M
;
_chemical_formula_sum "Si O2"
_cell_formula_units_Z 64
_cell_length_a 22.246042
_cell_length_b 9.126252
_cell_length_c 15.314663
_cell_angle_alpha 90.000000
_cell_angle_beta 90.000000
_cell_angle_gamma 90.000000
_cell_volume 3109.228601
_symmetry_space_group_name_H-M "P B C M"
_symmetry_group_IT_number 57
_symmetry_cell_setting 'orthorhombic'
loop_
_space_group_symop_operation_xyz
x,y,z
-x,-y,1/2+z
x,1/2-y,-z
-x,1/2+y,1/2-z
-x,-y,-z
x,y,1/2-z
-x,1/2+y,z
x,1/2-y,1/2+z
loop_
_atom_site_type_symbol
_atom_site_label
_atom_site_fract_x
_atom_site_fract_y
_atom_site_fract_z
Si Si1 0.282761 0.080479 0.152654
Si Si2 0.195143 0.322498 0.091629
Si Si3 0.740387 0.406979 0.521104
Si Si4 0.364541 0.954977 0.648920
Si Si5 0.934763 0.641555 0.847675
Si Si6 0.597967 0.767747 0.847239
Si Si7 0.480188 0.631390 0.060191
Si Si8 0.023820 0.869014 0.559208
O O1 0.266744 0.018594 0.250000
O O2 0.247340 0.233603 0.140735
O O3 0.354521 0.101000 0.147481
O O4 0.268491 0.970666 0.075509
O O5 0.215822 0.490222 0.077365
O O6 0.135337 0.319629 0.149028
O O7 0.178967 0.250000 0.000000
O O8 0.770073 0.250000 0.500000
O O9 0.680239 0.380048 0.579259
O O10 0.345424 0.925285 0.750000
O O11 0.433761 0.904412 0.637233
O O12 0.364548 0.125568 0.622844
O O13 0.958812 0.659159 0.750000
O O14 0.940095 0.465903 0.870443
O O15 0.971119 0.763647 0.902956
O O16 0.573549 0.742983 0.750000
O O17 0.540814 0.795926 0.905388
O O18 0.446743 0.750000 0.000000
O O19 0.500000 0.500000 0.000000
O O20 0.062270 0.750000 0.500000
O O21 0.000000 0.000000 0.500000
#
# Coordination Sequence:
#
# PCOD8234078 Si02
#       8
#     8   8   8   8   8   8   8   8
#     4  10  21  40  66  91 116 157 207 256 304 368
#     4  10  21  38  64  90 121 166 213 249 295 367
#     4  11  24  41  63  91 124 159 197 257 323 377
#     4  11  23  40  61  87 120 157 201 252 307 371
#     4  11  21  36  61  95 128 162 211 261 304 355
#     4  10  21  38  60  84 113 150 198 248 301 367
#     4  12  23  37  57  82 115 151 196 247 302 367
#     4   9  19  36  58  84 125 171 208 249 304 364
#
# _framework density 20.583884000000001
#
# number of rings (size 3 to 8) (size 9 to 14) (size 15 to 20)
#    0.000    1.500    2.500    3.375    0.000    1.500 
#    0.000    2.500    0.000    0.000    0.000    0.000 
#    0.000    0.000    0.000    0.000    0.000    0.000 
#
# Total GULP energy -792856.691976 kJ/mol
# GULP energy per Si atom -12388.385812 kJ/mol
# Density = 2.053703 g / cm^3
# Si number density = 20.583884 Si / 1000 Ang^3
#
#
#
# Elastic Constant Matrix: (Units=GPa)
#
#
# Indices 1 2 3 4 5 6 
#
# 1 73.3588 22.2304 25.1988 0.0000 0.0000 0.0000
# 2 22.2304 118.8842 38.7801 0.0000 0.0000 0.0000
# 3 25.1988 38.7801 109.0815 0.0000 0.0000 0.0000
# 4 0.0000 0.0000 0.0000 28.8405 0.0000 0.0000
# 5 0.0000 0.0000 0.0000 0.0000 26.5639 0.0000
# 6 0.0000 0.0000 0.0000 0.0000 0.0000 18.6924
#
#
#
# Elastic Compliance Matrix: (Units=1/GPa)
#
#
# Indices 1 2 3 4 5 6 
#
# 1 0.015183 -0.001917 -0.002826 0.000000 0.000000 0.000000
# 2 -0.001917 0.009757 -0.003026 0.000000 0.000000 0.000000
# 3 -0.002826 -0.003026 0.010896 0.000000 0.000000 0.000000
# 4 0.000000 0.000000 0.000000 0.034673 0.000000 0.000000
# 5 0.000000 0.000000 0.000000 0.000000 0.037645 0.000000
# 6 0.000000 0.000000 0.000000 0.000000 0.000000 0.053498
#
#
# Mechanical properties :
#
#
# Convention : Reuss Voigt Hill
#
# Bulk Modulus (GPa) = 49.26521 52.63812 50.95167
# Shear Modulus (GPa) = 27.18026 29.16037 28.17032
#
# Velocity S-wave (km/s) = 3.63776 3.76794 3.70342
# Velocity P-wave (km/s) = 6.45215 6.67516 6.56460
#
# Compressibility (1/GPa) = 0.02029830
#
# Stress axis : x y z
#
# Youngs Moduli (GPa) = 65.86168 102.48921 91.77692
#
# Poissons Ratio (x) = 0.19651 0.25935
# Poissons Ratio (y) = 0.12628 0.27771
# Poissons Ratio (z) = 0.18611 0.31012
#
# Static dielectric constant tensor:
#      x y z
#    x 3.472470 0.000000 0.000000 
#    y 0.000000 4.103080 0.000000 
#    z 0.000000 0.000000 3.935670 
# 
# 
# High freq. dielectric constant tensor:
#      x y z
#    x 1.782130 0.000000 0.000000 
#    y 0.000000 1.805720 0.000000 
#    z 0.000000 0.000000 1.818370 
# 
# From -- ./inp_files/19492.got.cif
#   From: 2010.03.12/outbox.cif.g09.slc.cpg/sg57_10_cif.got.tgz:19492.got - 2010.04.16 15:48:40.
