data_PCOD8234152
_publ_section_title
;
Structure prediction by ZEFSAII (Michael W. Deem and Ramdas Pophale) SiO2 
 PCOD8234152
Probable space group: P B C M
;
_chemical_formula_sum "Si O2"
_cell_formula_units_Z 64
_cell_length_a 9.488907
_cell_length_b 19.759938
_cell_length_c 17.391425
_cell_angle_alpha 90.000000
_cell_angle_beta 90.000000
_cell_angle_gamma 90.000000
_cell_volume 3260.895909
_symmetry_space_group_name_H-M "P B C M"
_symmetry_group_IT_number 57
_symmetry_cell_setting 'orthorhombic'
loop_
_space_group_symop_operation_xyz
x,y,z
-x,-y,1/2+z
x,1/2-y,-z
-x,1/2+y,1/2-z
-x,-y,-z
x,y,1/2-z
-x,1/2+y,z
x,1/2-y,1/2+z
loop_
_atom_site_type_symbol
_atom_site_label
_atom_site_fract_x
_atom_site_fract_y
_atom_site_fract_z
Si Si1 0.932706 0.469136 0.662212
Si Si2 0.788240 0.555190 0.429528
Si Si3 0.769876 0.823468 0.465430
Si Si4 0.444488 0.824440 0.468118
Si Si5 0.447691 0.485659 0.837609
Si Si6 0.723572 0.124410 0.836348
Si Si7 0.691962 0.448362 0.556434
Si Si8 0.046475 0.122273 0.663392
O O1 0.935790 0.442362 0.750000
O O2 0.821281 0.426596 0.611713
O O3 0.086099 0.464337 0.626297
O O4 0.886246 0.547601 0.659317
O O5 0.832575 0.621749 0.475680
O O6 0.653421 0.571772 0.374943
O O7 0.749459 0.493631 0.486845
O O8 0.791811 0.750000 0.500000
O O9 0.606939 0.840737 0.449999
O O10 0.860099 0.827256 0.387518
O O11 0.426069 0.750000 0.500000
O O12 0.358648 0.822695 0.388891
O O13 0.381510 0.880560 0.525666
O O14 0.490741 0.467644 0.750000
O O15 0.354600 0.552912 0.842213
O O16 0.584864 0.492278 0.891081
O O17 0.718256 0.152345 0.750000
O O18 0.884555 0.118454 0.865060
O O19 0.053261 0.150424 0.750000
#
# Coordination Sequence:
#
# PCOD8234152 Si02
#       8
#     8   8   8   8   8   8   8   8
#     4  11  23  38  60  95 128 158 199 254 318 368
#     4  12  21  38  65  92 120 159 207 260 306 368
#     4  11  25  42  62  90 122 165 213 252 306 373
#     4  11  24  42  62  88 123 163 209 258 308 369
#     4  11  21  36  61  92 126 158 197 257 315 365
#     4  10  21  38  62  93 123 158 203 250 311 371
#     4  12  22  38  63  95 119 158 211 259 309 367
#     4  10  21  39  62  91 125 158 200 253 309 371
#
# _framework density 19.626507
#
# number of rings (size 3 to 8) (size 9 to 14) (size 15 to 20)
#    0.000    1.000    5.000    2.250    1.750    1.000 
#    0.000    2.500    0.000    0.000    0.000    0.000 
#    0.000    0.000    0.000    0.000    0.000    0.000 
#
# Total GULP energy -793604.072341 kJ/mol
# GULP energy per Si atom -12400.063630 kJ/mol
# Density = 1.958184 g / cm^3
# Si number density = 19.626507 Si / 1000 Ang^3
#
#
#
# Elastic Constant Matrix: (Units=GPa)
#
#
# Indices 1 2 3 4 5 6 
#
# 1 113.4445 27.1824 65.8620 0.0000 0.0000 0.0000
# 2 27.1824 72.6282 35.5623 0.0000 0.0000 0.0000
# 3 65.8620 35.5623 135.1165 0.0000 0.0000 0.0000
# 4 0.0000 0.0000 0.0000 21.0342 0.0000 0.0000
# 5 0.0000 0.0000 0.0000 0.0000 45.5026 0.0000
# 6 0.0000 0.0000 0.0000 0.0000 0.0000 19.2995
#
#
#
# Elastic Compliance Matrix: (Units=1/GPa)
#
#
# Indices 1 2 3 4 5 6 
#
# 1 0.012530 -0.001950 -0.005594 0.000000 0.000000 0.000000
# 2 -0.001950 0.016109 -0.003289 0.000000 0.000000 0.000000
# 3 -0.005594 -0.003289 0.010994 0.000000 0.000000 0.000000
# 4 0.000000 0.000000 0.000000 0.047542 0.000000 0.000000
# 5 0.000000 0.000000 0.000000 0.000000 0.021977 0.000000
# 6 0.000000 0.000000 0.000000 0.000000 0.000000 0.051815
#
#
# Mechanical properties :
#
#
# Convention : Reuss Voigt Hill
#
# Bulk Modulus (GPa) = 55.66339 64.26696 59.96518
# Shear Modulus (GPa) = 26.50792 30.00608 28.25700
#
# Velocity S-wave (km/s) = 3.67906 3.91430 3.79850
# Velocity P-wave (km/s) = 6.81691 7.29692 7.06099
#
# Compressibility (1/GPa) = 0.01796513
#
# Stress axis : x y z
#
# Youngs Moduli (GPa) = 79.80751 62.07603 90.96089
#
# Poissons Ratio (x) = 0.12107 0.50888
# Poissons Ratio (y) = 0.15565 0.29919
# Poissons Ratio (z) = 0.44648 0.20418
#
# Static dielectric constant tensor:
#      x y z
#    x 3.757740 0.000000 0.000000 
#    y 0.000000 3.239370 0.000000 
#    z 0.000000 0.000000 3.945100 
# 
# 
# High freq. dielectric constant tensor:
#      x y z
#    x 1.783180 0.000000 0.000000 
#    y 0.000000 1.722470 0.000000 
#    z 0.000000 0.000000 1.781430 
# 
# From -- ./inp_files/21385.got.cif
#   From: 2010.03.12/outbox.cif.g09.slc.cpg/sg57_11_cif.got.tgz:21385.got - 2010.04.16 15:48:40.
