data_PCOD8234446
_publ_section_title
;
Structure prediction by ZEFSAII (Michael W. Deem and Ramdas Pophale) SiO2 
 PCOD8234446
Probable space group: P B C M
;
_chemical_formula_sum "Si O2"
_cell_formula_units_Z 52
_cell_length_a 13.244496
_cell_length_b 8.929721
_cell_length_c 23.519199
_cell_angle_alpha 90.000000
_cell_angle_beta 90.000000
_cell_angle_gamma 90.000000
_cell_volume 2781.607530
_symmetry_space_group_name_H-M "P B C M"
_symmetry_group_IT_number 57
_symmetry_cell_setting 'orthorhombic'
loop_
_space_group_symop_operation_xyz
x,y,z
-x,-y,1/2+z
x,1/2-y,-z
-x,1/2+y,1/2-z
-x,-y,-z
x,y,1/2-z
-x,1/2+y,z
x,1/2-y,1/2+z
loop_
_atom_site_type_symbol
_atom_site_label
_atom_site_fract_x
_atom_site_fract_y
_atom_site_fract_z
Si Si1 0.999894 0.250000 0.500000
Si Si2 0.685646 0.886798 0.962079
Si Si3 0.414829 0.686197 0.939442
Si Si4 0.446863 0.177846 0.750000
Si Si5 0.711949 0.100195 0.128380
Si Si6 0.612813 0.703192 0.629222
Si Si7 0.357915 0.644462 0.250000
Si Si8 0.137067 0.011608 0.543461
O O1 0.931865 0.130976 0.468051
O O2 0.070407 0.337112 0.454055
O O3 0.701496 0.802798 0.900953
O O4 0.600934 0.009799 0.949115
O O5 0.641096 0.750000 0.000000
O O6 0.782422 0.963297 0.991721
O O7 0.313681 0.759344 0.912190
O O8 0.503091 0.731898 0.896852
O O9 0.440740 0.750000 0.000000
O O10 0.391200 0.248942 0.804657
O O11 0.567122 0.212375 0.750000
O O12 0.432177 0.998809 0.750000
O O13 0.716246 0.147530 0.194869
O O14 0.814682 0.023337 0.104980
O O15 0.627776 0.973275 0.120690
#
# Coordination Sequence:
#
# PCOD8234446 Si02
#       8
#     4   8   8   4   8   8   4   8
#     4  10  22  36  64  82 114 134 174 230 314 370
#     4  12  22  36  54  81 119 148 188 238 286 346
#     4  12  22  31  51  80 114 156 193 228 275 325
#     4  10  22  36  52  74 112 158 218 228 270 306
#     4  11  21  38  55  80 117 150 198 233 279 337
#     4  11  22  35  51  76 114 164 198 237 266 321
#     4  10  22  38  56  78 112 166 196 246 264 320
#     4  11  20  39  56  88 110 144 176 234 298 368
#
# _framework density 18.694226
#
# number of rings (size 3 to 8) (size 9 to 14) (size 15 to 20)
#    0.000    0.923    5.385    2.308    2.154    1.846 
#    0.000    0.000    0.000    0.923    0.000    4.308 
#    0.000    0.000    0.000    0.000    0.000    0.000 
#
# Total GULP energy -644326.498853 kJ/mol
# GULP energy per Si atom -12390.894209 kJ/mol
# Density = 1.865168 g / cm^3
# Si number density = 18.694226 Si / 1000 Ang^3
#
#
#
# Elastic Constant Matrix: (Units=GPa)
#
#
# Indices 1 2 3 4 5 6 
#
# 1 69.6103 31.0532 52.2629 0.0000 0.0000 0.0000
# 2 31.0532 96.6455 50.2396 0.0000 0.0000 0.0000
# 3 52.2629 50.2396 138.5284 0.0000 0.0000 0.0000
# 4 0.0000 0.0000 0.0000 17.9532 0.0000 0.0000
# 5 0.0000 0.0000 0.0000 0.0000 18.4398 0.0000
# 6 0.0000 0.0000 0.0000 0.0000 0.0000 26.7691
#
#
#
# Elastic Compliance Matrix: (Units=1/GPa)
#
#
# Indices 1 2 3 4 5 6 
#
# 1 0.020822 -0.003212 -0.006691 0.000000 0.000000 0.000000
# 2 -0.003212 0.013247 -0.003592 0.000000 0.000000 0.000000
# 3 -0.006691 -0.003592 0.011046 0.000000 0.000000 0.000000
# 4 0.000000 0.000000 0.000000 0.055700 0.000000 0.000000
# 5 0.000000 0.000000 0.000000 0.000000 0.054231 0.000000
# 6 0.000000 0.000000 0.000000 0.000000 0.000000 0.037356
#
#
# Mechanical properties :
#
#
# Convention : Reuss Voigt Hill
#
# Bulk Modulus (GPa) = 55.17517 63.54392 59.35954
# Shear Modulus (GPa) = 22.17954 24.04765 23.11360
#
# Velocity S-wave (km/s) = 3.44821 3.59049 3.52007
# Velocity P-wave (km/s) = 6.74034 7.15918 6.95291
#
# Compressibility (1/GPa) = 0.01812410
#
# Stress axis : x y z
#
# Youngs Moduli (GPa) = 48.02635 75.49119 90.53345
#
# Poissons Ratio (x) = 0.24250 0.60572
# Poissons Ratio (y) = 0.15428 0.32521
# Poissons Ratio (z) = 0.32132 0.27118
#
# Static dielectric constant tensor:
#      x y z
#    x 3.246550 0.000000 0.000000 
#    y 0.000000 3.834320 0.000000 
#    z 0.000000 0.000000 3.645580 
# 
# 
# High freq. dielectric constant tensor:
#      x y z
#    x 1.688570 0.000000 0.000000 
#    y 0.000000 1.745370 0.000000 
#    z 0.000000 0.000000 1.717480 
# 
# From -- ./inp_files/25350.got.cif
#   From: 2010.03.12/outbox.cif.g09.slc.cpg/sg57_13_cif.got.tgz:25350.got - 2010.04.16 15:48:40.
