data_PCOD8234944
_publ_section_title
;
Structure prediction by ZEFSAII (Michael W. Deem and Ramdas Pophale) SiO2 
 PCOD8234944
Probable space group: P B C M
;
_chemical_formula_sum "Si O2"
_cell_formula_units_Z 40
_cell_length_a 13.860034
_cell_length_b 17.725771
_cell_length_c 8.338809
_cell_angle_alpha 90.000000
_cell_angle_beta 90.000000
_cell_angle_gamma 90.000000
_cell_volume 2048.676833
_symmetry_space_group_name_H-M "P B C M"
_symmetry_group_IT_number 57
_symmetry_cell_setting 'orthorhombic'
loop_
_space_group_symop_operation_xyz
x,y,z
-x,-y,1/2+z
x,1/2-y,-z
-x,1/2+y,1/2-z
-x,-y,-z
x,y,1/2-z
-x,1/2+y,z
x,1/2-y,1/2+z
loop_
_atom_site_type_symbol
_atom_site_label
_atom_site_fract_x
_atom_site_fract_y
_atom_site_fract_z
Si Si1 0.206002 0.458348 0.064615
Si Si2 0.079561 0.334022 0.936914
Si Si3 0.395446 0.519808 0.562445
Si Si4 0.691548 0.330563 0.938980
Si Si5 0.883408 0.105162 0.563011
O O1 0.188764 0.477203 0.250000
O O2 0.169618 0.374629 0.023417
O O3 0.319206 0.464983 0.025249
O O4 0.145859 0.518155 0.959376
O O5 0.100061 0.332973 0.750000
O O6 0.069586 0.250000 0.000000
O O7 0.983081 0.380224 0.973782
O O8 0.500000 0.500000 0.500000
O O9 0.387945 0.505113 0.750000
O O10 0.373426 0.606866 0.525124
O O11 0.678988 0.338266 0.750000
O O12 0.654148 0.250000 0.000000
O O13 0.803112 0.340348 0.987024
O O14 0.894605 0.123729 0.750000
#
# Coordination Sequence:
#
# PCOD8234944 Si02
#       5
#     8   8   8   8   8
#     4  11  22  39  60  85 113 148 189 234 281 335
#     4  12  24  39  56  81 115 154 193 234 279 333
#     4  11  22  40  63  88 114 148 188 233 283 338
#     4  11  21  36  57  86 118 150 186 234 286 337
#     4  11  21  36  57  84 115 152 191 233 279 333
#
# _framework density 19.524798000000001
#
# number of rings (size 3 to 8) (size 9 to 14) (size 15 to 20)
#    0.000    0.800    0.000   12.600    0.000    0.000 
#    0.000    1.000    0.000    0.000    0.000    0.000 
#    0.000    0.000    0.000    0.000    0.000    0.000 
#
# Total GULP energy -496283.037366 kJ/mol
# GULP energy per Si atom -12407.075934 kJ/mol
# Density = 1.948036 g / cm^3
# Si number density = 19.524798 Si / 1000 Ang^3
#
#
#
# Elastic Constant Matrix: (Units=GPa)
#
#
# Indices 1 2 3 4 5 6 
#
# 1 126.1311 47.6393 18.2790 0.0000 0.0000 0.0000
# 2 47.6393 53.6493 13.6730 0.0000 0.0000 0.0000
# 3 18.2790 13.6730 106.2866 0.0000 0.0000 0.0000
# 4 0.0000 0.0000 0.0000 34.2672 0.0000 0.0000
# 5 0.0000 0.0000 0.0000 0.0000 33.4981 0.0000
# 6 0.0000 0.0000 0.0000 0.0000 0.0000 20.4747
#
#
#
# Elastic Compliance Matrix: (Units=1/GPa)
#
#
# Indices 1 2 3 4 5 6 
#
# 1 0.011981 -0.010457 -0.000715 0.000000 0.000000 0.000000
# 2 -0.010457 0.028398 -0.001855 0.000000 0.000000 0.000000
# 3 -0.000715 -0.001855 0.009770 0.000000 0.000000 0.000000
# 4 0.000000 0.000000 0.000000 0.029182 0.000000 0.000000
# 5 0.000000 0.000000 0.000000 0.000000 0.029852 0.000000
# 6 0.000000 0.000000 0.000000 0.000000 0.000000 0.048841
#
#
# Mechanical properties :
#
#
# Convention : Reuss Voigt Hill
#
# Bulk Modulus (GPa) = 41.50198 49.47217 45.48707
# Shear Modulus (GPa) = 26.02660 31.41304 28.71982
#
# Velocity S-wave (km/s) = 3.65499 4.01543 3.83945
# Velocity P-wave (km/s) = 6.25413 6.84773 6.55765
#
# Compressibility (1/GPa) = 0.02409524
#
# Stress axis : x y z
#
# Youngs Moduli (GPa) = 83.46215 35.21397 102.35247
#
# Poissons Ratio (x) = 0.36823 0.07322
# Poissons Ratio (y) = 0.87276 0.18985
# Poissons Ratio (z) = 0.05970 0.06532
#
# Static dielectric constant tensor:
#      x y z
#    x 3.524330 0.000000 0.000000 
#    y 0.000000 2.951120 0.000000 
#    z 0.000000 0.000000 3.777380 
# 
# 
# High freq. dielectric constant tensor:
#      x y z
#    x 1.748830 0.000000 0.000000 
#    y 0.000000 1.759350 0.000000 
#    z 0.000000 0.000000 1.785740 
# 
# From -- ./inp_files/4285.got.cif
#   From: 2010.03.12/outbox.cif.g09.slc.cpg/sg57_3_cif.got.tgz:4285.got - 2010.04.16 15:48:40.
