data_PCOD8234489
_publ_section_title
;
Structure prediction by ZEFSAII (Michael W. Deem and Ramdas Pophale) SiO2 
 PCOD8234489
Probable space group: P B C M
;
_chemical_formula_sum "Si O2"
_cell_formula_units_Z 64
_cell_length_a 11.897451
_cell_length_b 10.747735
_cell_length_c 23.145235
_cell_angle_alpha 90.000000
_cell_angle_beta 90.000000
_cell_angle_gamma 90.000000
_cell_volume 2959.596256
_symmetry_space_group_name_H-M "P B C M"
_symmetry_group_IT_number 57
_symmetry_cell_setting 'orthorhombic'
loop_
_space_group_symop_operation_xyz
x,y,z
-x,-y,1/2+z
x,1/2-y,-z
-x,1/2+y,1/2-z
-x,-y,-z
x,y,1/2-z
-x,1/2+y,z
x,1/2-y,1/2+z
loop_
_atom_site_type_symbol
_atom_site_label
_atom_site_fract_x
_atom_site_fract_y
_atom_site_fract_z
Si Si1 0.365911 0.670865 0.874851
Si Si2 0.550735 0.963195 0.184243
Si Si3 0.455795 0.883188 0.932873
Si Si4 0.320195 0.010409 0.029633
Si Si5 0.824268 0.185805 0.314342
Si Si6 0.930077 0.542449 0.053118
Si Si7 0.011083 0.204284 0.615829
Si Si8 0.797181 0.601706 0.814319
O O1 0.442359 0.625674 0.821396
O O2 0.442342 0.736002 0.924321
O O3 0.308316 0.560652 0.909468
O O4 0.274711 0.769729 0.855425
O O5 0.551118 0.021482 0.250000
O O6 0.663957 0.882865 0.175701
O O7 0.544992 0.062418 0.132570
O O8 0.575852 0.894793 0.964037
O O9 0.350824 0.933318 0.971542
O O10 0.195819 0.069035 0.027885
O O11 0.790713 0.223547 0.250000
O O12 0.940541 0.251739 0.329102
O O13 0.836754 0.039485 0.321807
O O14 0.980354 0.675938 0.073452
O O15 0.947352 0.422247 0.095082
O O16 0.000000 0.500000 0.000000
O O17 0.137802 0.180476 0.637510
O O18 0.827935 0.649163 0.750000
#
# Coordination Sequence:
#
# PCOD8234489 Si02
#       8
#     8   8   8   8   8   8   8   8
#     4  11  21  38  66  94 131 169 216 275 339 405
#     4  10  22  38  61  94 129 165 216 270 331 399
#     4  10  22  40  66  92 126 172 214 269 335 405
#     4  10  24  43  62  95 130 169 221 274 335 403
#     4  11  22  40  68  97 133 178 227 279 341 409
#     4  12  28  45  68  99 133 175 226 287 342 397
#     4  12  25  46  67  97 134 178 227 281 343 402
#     4  10  22  42  66  96 133 177 223 277 331 401
#
# _framework density 21.624573000000002
#
# number of rings (size 3 to 8) (size 9 to 14) (size 15 to 20)
#    0.000    1.250    3.750    1.500    5.250    1.500 
#    0.000    1.250    0.000    0.000    0.000    0.000 
#    0.000    0.000    0.000    0.000    0.000    0.000 
#
# Total GULP energy -792850.706918 kJ/mol
# GULP energy per Si atom -12388.292296 kJ/mol
# Density = 2.157535 g / cm^3
# Si number density = 21.624573 Si / 1000 Ang^3
#
#
#
# Elastic Constant Matrix: (Units=GPa)
#
#
# Indices 1 2 3 4 5 6 
#
# 1 103.0430 13.7602 22.9677 0.0000 0.0000 0.0000
# 2 13.7602 52.1207 10.3331 0.0000 0.0000 0.0000
# 3 22.9677 10.3331 85.2788 0.0000 0.0000 0.0000
# 4 0.0000 0.0000 0.0000 32.8972 0.0000 0.0000
# 5 0.0000 0.0000 0.0000 0.0000 38.2420 0.0000
# 6 0.0000 0.0000 0.0000 0.0000 0.0000 21.2800
#
#
#
# Elastic Compliance Matrix: (Units=1/GPa)
#
#
# Indices 1 2 3 4 5 6 
#
# 1 0.010583 -0.002284 -0.002574 0.000000 0.000000 0.000000
# 2 -0.002284 0.020151 -0.001827 0.000000 0.000000 0.000000
# 3 -0.002574 -0.001827 0.012641 0.000000 0.000000 0.000000
# 4 0.000000 0.000000 0.000000 0.030398 0.000000 0.000000
# 5 0.000000 0.000000 0.000000 0.000000 0.026149 0.000000
# 6 0.000000 0.000000 0.000000 0.000000 0.000000 0.046992
#
#
# Mechanical properties :
#
#
# Convention : Reuss Voigt Hill
#
# Bulk Modulus (GPa) = 33.32532 37.17384 35.24958
# Shear Modulus (GPa) = 29.36248 31.37594 30.36921
#
# Velocity S-wave (km/s) = 3.68887 3.81325 3.75158
# Velocity P-wave (km/s) = 5.79552 6.05109 5.92468
#
# Compressibility (1/GPa) = 0.03000721
#
# Stress axis : x y z
#
# Youngs Moduli (GPa) = 94.48840 49.62453 79.10941
#
# Poissons Ratio (x) = 0.11333 0.20360
# Poissons Ratio (y) = 0.21580 0.14450
# Poissons Ratio (z) = 0.24318 0.09065
#
# Static dielectric constant tensor:
#      x y z
#    x 3.984610 0.000000 0.000000 
#    y 0.000000 3.004560 0.000000 
#    z 0.000000 0.000000 3.437080 
# 
# 
# High freq. dielectric constant tensor:
#      x y z
#    x 1.858750 0.000000 0.000000 
#    y 0.000000 1.833230 0.000000 
#    z 0.000000 0.000000 1.859230 
# 
# From -- ./inp_files/27299.got.cif
#   From: 2010.03.12/outbox.cif.g09.slc.cpg/sg57_14_cif.got.tgz:27299.got - 2010.04.16 15:48:40.
