data_PCOD8234471
_publ_section_title
;
Structure prediction by ZEFSAII (Michael W. Deem and Ramdas Pophale) SiO2 
 PCOD8234471
Probable space group: P B C M
;
_chemical_formula_sum "Si O2"
_cell_formula_units_Z 64
_cell_length_a 16.457590
_cell_length_b 11.061472
_cell_length_c 17.885795
_cell_angle_alpha 90.000000
_cell_angle_beta 90.000000
_cell_angle_gamma 90.000000
_cell_volume 3256.022609
_symmetry_space_group_name_H-M "P B C M"
_symmetry_group_IT_number 57
_symmetry_cell_setting 'orthorhombic'
loop_
_space_group_symop_operation_xyz
x,y,z
-x,-y,1/2+z
x,1/2-y,-z
-x,1/2+y,1/2-z
-x,-y,-z
x,y,1/2-z
-x,1/2+y,z
x,1/2-y,1/2+z
loop_
_atom_site_type_symbol
_atom_site_label
_atom_site_fract_x
_atom_site_fract_y
_atom_site_fract_z
Si Si1 0.785041 0.414950 0.332912
Si Si2 0.624079 0.480493 0.663815
Si Si3 0.626009 0.208025 0.665704
Si Si4 0.097045 0.372985 0.044537
Si Si5 0.234284 0.135962 0.662711
Si Si6 0.334293 0.126773 0.337729
Si Si7 0.468459 0.513640 0.584022
Si Si8 0.908480 0.123529 0.959613
O O1 0.819485 0.439141 0.250000
O O2 0.723528 0.302049 0.333917
O O3 0.734747 0.531084 0.361099
O O4 0.861416 0.382981 0.382533
O O5 0.624661 0.512413 0.750000
O O6 0.605373 0.343190 0.644064
O O7 0.712897 0.520947 0.634471
O O8 0.548638 0.550513 0.629377
O O9 0.594161 0.173638 0.750000
O O10 0.589437 0.127825 0.599140
O O11 0.149341 0.363740 0.119802
O O12 0.002298 0.373400 0.063873
O O13 0.119107 0.250000 0.000000
O O14 0.115813 0.501494 0.004632
O O15 0.211397 0.135549 0.750000
O O16 0.295474 0.245097 0.642895
O O17 0.356814 0.112934 0.250000
O O18 0.417194 0.103282 0.385755
O O19 0.500000 0.500000 0.500000
O O20 0.885041 0.250000 0.000000
#
# Coordination Sequence:
#
# PCOD8234471 Si02
#       8
#     8   8   8   8   8   8   8   8
#     4   9  18  36  62  87 111 151 201 239 284 347
#     4  10  22  38  57  80 111 153 192 233 293 347
#     4   9  20  39  58  78 112 151 188 234 288 346
#     4  10  22  41  60  85 126 162 193 236 302 365
#     4  10  22  38  62  91 115 149 202 252 294 347
#     4   9  19  39  62  84 115 157 200 241 293 356
#     4  11  23  37  55  85 115 145 194 243 287 343
#     4  10  22  38  60  90 122 161 195 236 298 367
#
# _framework density 19.655881999999998
#
# number of rings (size 3 to 8) (size 9 to 14) (size 15 to 20)
#    0.000    2.250    0.000    2.625    3.500    4.000 
#    0.000    0.000    0.000    4.500    0.000    0.000 
#    0.000    0.000    0.000    0.000    0.000    0.000 
#
# Total GULP energy -793000.560386 kJ/mol
# GULP energy per Si atom -12390.633756 kJ/mol
# Density = 1.961114 g / cm^3
# Si number density = 19.655882 Si / 1000 Ang^3
#
#
#
# Elastic Constant Matrix: (Units=GPa)
#
#
# Indices 1 2 3 4 5 6 
#
# 1 101.1924 41.3217 75.8336 0.0000 0.0000 0.0000
# 2 41.3217 82.6238 62.9116 0.0000 0.0000 0.0000
# 3 75.8336 62.9116 92.8313 0.0000 0.0000 0.0000
# 4 0.0000 0.0000 0.0000 22.0253 0.0000 0.0000
# 5 0.0000 0.0000 0.0000 0.0000 46.8383 0.0000
# 6 0.0000 0.0000 0.0000 0.0000 0.0000 21.8627
#
#
#
# Elastic Compliance Matrix: (Units=1/GPa)
#
#
# Indices 1 2 3 4 5 6 
#
# 1 0.027242 0.006860 -0.026903 0.000000 0.000000 0.000000
# 2 0.006860 0.026735 -0.023722 0.000000 0.000000 0.000000
# 3 -0.026903 -0.023722 0.048826 0.000000 0.000000 0.000000
# 4 0.000000 0.000000 0.000000 0.045402 0.000000 0.000000
# 5 0.000000 0.000000 0.000000 0.000000 0.021350 0.000000
# 6 0.000000 0.000000 0.000000 0.000000 0.000000 0.045740
#
#
# Mechanical properties :
#
#
# Convention : Reuss Voigt Hill
#
# Bulk Modulus (GPa) = 65.47730 70.75346 68.11538
# Shear Modulus (GPa) = 16.23818 24.58396 20.41107
#
# Velocity S-wave (km/s) = 2.87735 3.54039 3.22595
# Velocity P-wave (km/s) = 6.66506 7.26544 6.97172
#
# Compressibility (1/GPa) = 0.01527247
#
# Stress axis : x y z
#
# Youngs Moduli (GPa) = 36.70806 37.40449 20.48088
#
# Poissons Ratio (x) = -0.25661 0.55100
# Poissons Ratio (y) = -0.25184 0.48586
# Poissons Ratio (z) = 0.98757 0.88732
#
# Static dielectric constant tensor:
#      x y z
#    x 14.149660 0.000000 0.000000 
#    y 0.000000 3.721690 0.000000 
#    z 0.000000 0.000000 3.388150 
# 
# 
# High freq. dielectric constant tensor:
#      x y z
#    x 1.768410 0.000000 0.000000 
#    y 0.000000 1.774780 0.000000 
#    z 0.000000 0.000000 1.748090 
# 
# From -- ./inp_files/22654.got.cif
#   From: 2010.03.12/outbox.cif.g09.slc.cpg/sg57_12_cif.got.tgz:22654.got - 2010.04.16 15:48:40.
