data_PCOD8234481
_publ_section_title
;
Structure prediction by ZEFSAII (Michael W. Deem and Ramdas Pophale) SiO2 
 PCOD8234481
Probable space group: P B C M
;
_chemical_formula_sum "Si O2"
_cell_formula_units_Z 48
_cell_length_a 9.614075
_cell_length_b 18.161263
_cell_length_c 14.384271
_cell_angle_alpha 90.000000
_cell_angle_beta 90.000000
_cell_angle_gamma 90.000000
_cell_volume 2511.547580
_symmetry_space_group_name_H-M "P B C M"
_symmetry_group_IT_number 57
_symmetry_cell_setting 'orthorhombic'
loop_
_space_group_symop_operation_xyz
x,y,z
-x,-y,1/2+z
x,1/2-y,-z
-x,1/2+y,1/2-z
-x,-y,-z
x,y,1/2-z
-x,1/2+y,z
x,1/2-y,1/2+z
loop_
_atom_site_type_symbol
_atom_site_label
_atom_site_fract_x
_atom_site_fract_y
_atom_site_fract_z
Si Si1 0.860078 0.822757 0.053592
Si Si2 0.973129 0.375373 0.750000
Si Si3 0.530803 0.805762 0.250000
Si Si4 0.058340 0.572800 0.452699
Si Si5 0.840096 0.739271 0.750000
Si Si6 0.332409 0.826912 0.750000
Si Si7 0.627355 0.073446 0.421344
Si Si8 0.586839 0.908143 0.081320
O O1 0.897301 0.804095 0.160223
O O2 0.738533 0.882592 0.048579
O O3 0.809848 0.750000 0.000000
O O4 0.994653 0.855422 0.002270
O O5 0.107565 0.323146 0.750000
O O6 0.975128 0.426923 0.841739
O O7 0.835383 0.323962 0.750000
O O8 0.672205 0.757705 0.250000
O O9 0.394810 0.754810 0.250000
O O10 0.524107 0.857127 0.160549
O O11 0.222390 0.576664 0.469671
O O12 0.000000 0.500000 0.500000
O O13 0.388506 0.869215 0.839080
O O14 0.513807 0.097970 0.494632
O O15 0.598795 0.991628 0.382209
#
# Coordination Sequence:
#
# PCOD8234481 Si02
#       8
#     8   4   4   8   4   4   8   8
#     4  11  22  38  65  91 124 159 205 258 302 371
#     4  10  22  40  60  87 125 157 203 248 306 371
#     4  10  23  39  61  92 122 157 203 254 300 367
#     4  11  22  41  63  90 123 163 209 252 312 364
#     4  10  22  38  59  92 118 162 199 249 306 354
#     4  10  23  37  60  89 121 156 197 245 312 358
#     4  10  22  40  62  87 120 166 198 251 303 371
#     4  10  22  40  62  86 123 159 208 246 305 362
#
# _framework density 19.111723000000001
#
# number of rings (size 3 to 8) (size 9 to 14) (size 15 to 20)
#    0.000    1.667    3.333    0.500    4.667    2.000 
#    0.000    0.833    0.000    0.000    0.000    0.000 
#    0.000    0.000    0.000    0.000    0.000    0.000 
#
# Total GULP energy -595395.221939 kJ/mol
# GULP energy per Si atom -12404.067124 kJ/mol
# Density = 1.906822 g / cm^3
# Si number density = 19.111723 Si / 1000 Ang^3
#
#
#
# Elastic Constant Matrix: (Units=GPa)
#
#
# Indices 1 2 3 4 5 6 
#
# 1 71.9182 40.8859 41.9755 0.0000 0.0000 0.0000
# 2 40.8859 100.8698 52.5298 0.0000 0.0000 0.0000
# 3 41.9755 52.5298 119.7144 0.0000 0.0000 0.0000
# 4 0.0000 0.0000 0.0000 53.6716 0.0000 0.0000
# 5 0.0000 0.0000 0.0000 0.0000 39.0682 0.0000
# 6 0.0000 0.0000 0.0000 0.0000 0.0000 37.2052
#
#
#
# Elastic Compliance Matrix: (Units=1/GPa)
#
#
# Indices 1 2 3 4 5 6 
#
# 1 0.019719 -0.005693 -0.004416 0.000000 0.000000 0.000000
# 2 -0.005693 0.014494 -0.004364 0.000000 0.000000 0.000000
# 3 -0.004416 -0.004364 0.011816 0.000000 0.000000 0.000000
# 4 0.000000 0.000000 0.000000 0.018632 0.000000 0.000000
# 5 0.000000 0.000000 0.000000 0.000000 0.025596 0.000000
# 6 0.000000 0.000000 0.000000 0.000000 0.000000 0.026878
#
#
# Mechanical properties :
#
#
# Convention : Reuss Voigt Hill
#
# Bulk Modulus (GPa) = 58.53553 62.58722 60.56137
# Shear Modulus (GPa) = 32.94369 36.46307 34.70338
#
# Velocity S-wave (km/s) = 4.15630 4.37268 4.26586
# Velocity P-wave (km/s) = 7.32992 7.63629 7.48467
#
# Compressibility (1/GPa) = 0.01708364
#
# Stress axis : x y z
#
# Youngs Moduli (GPa) = 50.71372 68.99521 84.62885
#
# Poissons Ratio (x) = 0.39278 0.37371
# Poissons Ratio (y) = 0.28871 0.36929
# Poissons Ratio (z) = 0.22395 0.30107
#
# Static dielectric constant tensor:
#      x y z
#    x 3.514210 0.000000 0.000000 
#    y 0.000000 3.497550 0.000000 
#    z 0.000000 0.000000 3.425180 
# 
# 
# High freq. dielectric constant tensor:
#      x y z
#    x 1.742330 0.000000 0.000000 
#    y 0.000000 1.745940 0.000000 
#    z 0.000000 0.000000 1.754480 
# 
# From -- ./inp_files/16480.got.cif
#   From: 2010.03.12/outbox.cif.g09.slc.cpg/sg57_9_cif.got.tgz:16480.got - 2010.04.16 15:48:40.
