data_PCOD8234881
_publ_section_title
;
Structure prediction by ZEFSAII (Michael W. Deem and Ramdas Pophale) SiO2 
 PCOD8234881
Probable space group: P B C M
;
_chemical_formula_sum "Si O2"
_cell_formula_units_Z 48
_cell_length_a 8.774649
_cell_length_b 19.538176
_cell_length_c 16.624254
_cell_angle_alpha 90.000000
_cell_angle_beta 90.000000
_cell_angle_gamma 90.000000
_cell_volume 2850.072687
_symmetry_space_group_name_H-M "P B C M"
_symmetry_group_IT_number 57
_symmetry_cell_setting 'orthorhombic'
loop_
_space_group_symop_operation_xyz
x,y,z
-x,-y,1/2+z
x,1/2-y,-z
-x,1/2+y,1/2-z
-x,-y,-z
x,y,1/2-z
-x,1/2+y,z
x,1/2-y,1/2+z
loop_
_atom_site_type_symbol
_atom_site_label
_atom_site_fract_x
_atom_site_fract_y
_atom_site_fract_z
Si Si1 0.634800 0.398007 0.341034
Si Si2 0.644223 0.939515 0.077889
Si Si3 0.268119 0.053651 0.159474
Si Si4 0.446828 0.583974 0.421187
Si Si5 0.779612 0.329384 0.490581
Si Si6 0.064435 0.075259 0.011347
O O1 0.670510 0.374973 0.250000
O O2 0.449935 0.398532 0.353312
O O3 0.698761 0.473871 0.359491
O O4 0.715761 0.345513 0.401617
O O5 0.661797 0.019703 0.101554
O O6 0.542487 0.935065 0.999103
O O7 0.811494 0.909446 0.059391
O O8 0.208885 0.064275 0.250000
O O9 0.427224 0.096183 0.148690
O O10 0.139301 0.081194 0.099565
O O11 0.340577 0.649118 0.439670
O O12 0.811458 0.250000 0.500000
O O13 0.937735 0.367532 0.503816
O O14 0.000000 0.000000 0.000000
#
# Coordination Sequence:
#
# PCOD8234881 Si02
#       6
#     8   8   8   8   8   8
#     4   9  17  33  54  78 102 128 174 229 266 300
#     4   8  14  27  51  73  91 124 168 211 258 294
#     4   9  17  31  54  80 101 130 175 227 268 296
#     4   8  14  29  49  70  93 123 168 216 248 299
#     4  11  21  33  51  77 106 145 179 205 260 331
#     4  11  17  31  52  75 109 142 171 212 262 315
#
# _framework density 16.841674000000001
#
# number of rings (size 3 to 8) (size 9 to 14) (size 15 to 20)
#    0.000    2.667    3.333    2.000    0.000    0.000 
#    0.000   11.667    0.000    0.000    0.000    0.000 
#    0.000    0.000    0.000    0.000    0.000    0.000 
#
# Total GULP energy -594763.734205 kJ/mol
# GULP energy per Si atom -12390.911129 kJ/mol
# Density = 1.680334 g / cm^3
# Si number density = 16.841674 Si / 1000 Ang^3
#
#
#
# Elastic Constant Matrix: (Units=GPa)
#
#
# Indices 1 2 3 4 5 6 
#
# 1 112.9550 58.1922 43.6072 0.0000 0.0000 0.0000
# 2 58.1922 99.3272 34.5347 0.0000 0.0000 0.0000
# 3 43.6072 34.5347 89.6840 0.0000 0.0000 0.0000
# 4 0.0000 0.0000 0.0000 14.2549 0.0000 0.0000
# 5 0.0000 0.0000 0.0000 0.0000 20.8808 0.0000
# 6 0.0000 0.0000 0.0000 0.0000 0.0000 20.0402
#
#
#
# Elastic Compliance Matrix: (Units=1/GPa)
#
#
# Indices 1 2 3 4 5 6 
#
# 1 0.013922 -0.006700 -0.004189 0.000000 0.000000 0.000000
# 2 -0.006700 0.014848 -0.002460 0.000000 0.000000 0.000000
# 3 -0.004189 -0.002460 0.014135 0.000000 0.000000 0.000000
# 4 0.000000 0.000000 0.000000 0.070152 0.000000 0.000000
# 5 0.000000 0.000000 0.000000 0.000000 0.047891 0.000000
# 6 0.000000 0.000000 0.000000 0.000000 0.000000 0.049900
#
#
# Mechanical properties :
#
#
# Convention : Reuss Voigt Hill
#
# Bulk Modulus (GPa) = 61.70401 63.84827 62.77614
# Shear Modulus (GPa) = 20.58060 22.07733 21.32896
#
# Velocity S-wave (km/s) = 3.49951 3.62453 3.56257
# Velocity P-wave (km/s) = 7.28327 7.45047 7.36734
#
# Compressibility (1/GPa) = 0.01620640
#
# Stress axis : x y z
#
# Youngs Moduli (GPa) = 71.82845 67.34824 70.74861
#
# Poissons Ratio (x) = 0.45122 0.29640
# Poissons Ratio (y) = 0.48124 0.17404
# Poissons Ratio (z) = 0.30092 0.16567
#
# Static dielectric constant tensor:
#      x y z
#    x 3.428810 0.000000 0.000000 
#    y 0.000000 2.891440 0.000000 
#    z 0.000000 0.000000 3.378370 
# 
# 
# High freq. dielectric constant tensor:
#      x y z
#    x 1.653270 0.000000 0.000000 
#    y 0.000000 1.603690 0.000000 
#    z 0.000000 0.000000 1.635980 
# 
# From -- ./inp_files/21296.got.cif
#   From: 2010.03.12/outbox.cif.g09.slc.cpg/sg57_11_cif.got.tgz:21296.got - 2010.04.16 15:48:40.
