data_PCOD8234630
_publ_section_title
;
Structure prediction by ZEFSAII (Michael W. Deem and Ramdas Pophale) SiO2 
 PCOD8234630
Probable space group: P B C M
;
_chemical_formula_sum "Si O2"
_cell_formula_units_Z 48
_cell_length_a 13.472509
_cell_length_b 10.010398
_cell_length_c 17.407366
_cell_angle_alpha 90.000000
_cell_angle_beta 90.000000
_cell_angle_gamma 90.000000
_cell_volume 2347.647499
_symmetry_space_group_name_H-M "P B C M"
_symmetry_group_IT_number 57
_symmetry_cell_setting 'orthorhombic'
loop_
_space_group_symop_operation_xyz
x,y,z
-x,-y,1/2+z
x,1/2-y,-z
-x,1/2+y,1/2-z
-x,-y,-z
x,y,1/2-z
-x,1/2+y,z
x,1/2-y,1/2+z
loop_
_atom_site_type_symbol
_atom_site_label
_atom_site_fract_x
_atom_site_fract_y
_atom_site_fract_z
Si Si1 0.350077 0.750001 0.659499
Si Si2 0.085544 0.098914 0.161989
Si Si3 0.288319 0.023890 0.409798
Si Si4 0.579667 0.750000 0.659486
Si Si5 0.288320 0.476110 0.409799
Si Si6 0.914455 0.901085 0.338011
O O1 0.335704 0.750001 0.750000
O O2 0.295464 0.622616 0.625031
O O3 0.464989 0.750002 0.636169
O O4 0.295462 0.877384 0.625030
O O5 0.114551 0.065487 0.250000
O O6 0.181073 0.083588 0.108822
O O7 0.045487 0.250000 0.154708
O O8 0.999999 1.000000 0.132266
O O9 0.373070 0.116548 0.374244
O O10 0.304361 0.019011 0.500000
O O11 0.596313 0.749998 0.750000
O O12 0.626928 0.616546 0.625755
O O13 0.181075 0.416409 0.391177
O O14 0.885448 0.934511 0.250000
#
# Coordination Sequence:
#
# PCOD8234630 Si02
#       6
#     8   8   8   8   8   8
#     4  11  25  43  66  93 126 171 221 264 308 375
#     4  10  22  41  66  94 125 166 214 260 310 374
#     4  12  25  41  64  97 134 168 206 263 327 378
#     4  11  23  43  68  93 124 171 221 262 310 375
#     4  12  25  41  64  97 134 168 206 263 327 378
#     4  10  22  41  66  94 125 166 214 260 310 374
#
# _framework density 20.446000999999999
#
# number of rings (size 3 to 8) (size 9 to 14) (size 15 to 20)
#    0.000    1.000    1.667    5.000    2.333    7.333 
#    0.000    0.000    0.000    0.000    0.000    0.000 
#    0.000    0.000    0.000    0.000    0.000    0.000 
#
# Total GULP energy -595587.471312 kJ/mol
# GULP energy per Si atom -12408.072319 kJ/mol
# Density = 2.039947 g / cm^3
# Si number density = 20.446001 Si / 1000 Ang^3
#
#
#
# Elastic Constant Matrix: (Units=GPa)
#
#
# Indices 1 2 3 4 5 6 
#
# 1 80.4670 29.9663 32.2330 0.0000 0.0000 0.0000
# 2 29.9663 142.3791 25.9642 0.0000 0.0000 0.0000
# 3 32.2330 25.9642 81.9281 0.0000 0.0000 0.0000
# 4 0.0000 0.0000 0.0000 47.5776 0.0000 0.0000
# 5 0.0000 0.0000 0.0000 0.0000 -0.8737 0.0000
# 6 0.0000 0.0000 0.0000 0.0000 0.0000 44.3253
#
#
#
# Elastic Compliance Matrix: (Units=1/GPa)
#
#
# Indices 1 2 3 4 5 6 
#
# 1 0.015414 -0.002269 -0.005345 0.000000 0.000000 0.000000
# 2 -0.002269 0.007788 -0.001575 0.000000 0.000000 0.000000
# 3 -0.005345 -0.001575 0.014808 0.000000 0.000000 0.000000
# 4 0.000000 0.000000 0.000000 0.021018 0.000000 0.000000
# 5 0.000000 0.000000 0.000000 0.000000 -1.144545 0.000000
# 6 0.000000 0.000000 0.000000 0.000000 0.000000 0.022560
#
#
# Mechanical properties :
#
#
# Convention : Reuss Voigt Hill
#
# Bulk Modulus (GPa) = 50.94124 53.45569 52.19846
# Shear Modulus (GPa) = -4.81680 32.64655 13.91487
#
# Velocity S-wave (km/s) = -1.53655 4.00023 2.61160
# Velocity P-wave (km/s) = 4.67131 6.89474 5.88891
#
# Compressibility (1/GPa) = 0.01963046
#
# Stress axis : x y z
#
# Youngs Moduli (GPa) = 64.87756 128.39567 67.53112
#
# Poissons Ratio (x) = 0.29138 0.36095
# Poissons Ratio (y) = 0.14723 0.10639
# Poissons Ratio (z) = 0.34677 0.20228
#
# Static dielectric constant tensor:
#      x y z
#    x 3.699600 0.000000 0.000000 
#    y 0.000000 3.941640 0.000000 
#    z 0.000000 0.000000 3.711570 
# 
# 
# High freq. dielectric constant tensor:
#      x y z
#    x 1.801180 0.000000 0.000000 
#    y 0.000000 1.820870 0.000000 
#    z 0.000000 0.000000 1.800150 
# 
# From -- ./inp_files/22406.got.cif
#   From: 2010.03.12/outbox.cif.g09.slc.cpg/sg57_12_cif.got.tgz:22406.got - 2010.04.16 15:48:40.
