data_PCOD8234228
_publ_section_title
;
Structure prediction by ZEFSAII (Michael W. Deem and Ramdas Pophale) SiO2 
 PCOD8234228
Probable space group: P B C M
;
_chemical_formula_sum "Si O2"
_cell_formula_units_Z 48
_cell_length_a 14.667764
_cell_length_b 19.207371
_cell_length_c 8.625520
_cell_angle_alpha 90.000000
_cell_angle_beta 90.000000
_cell_angle_gamma 90.000000
_cell_volume 2430.060719
_symmetry_space_group_name_H-M "P B C M"
_symmetry_group_IT_number 57
_symmetry_cell_setting 'orthorhombic'
loop_
_space_group_symop_operation_xyz
x,y,z
-x,-y,1/2+z
x,1/2-y,-z
-x,1/2+y,1/2-z
-x,-y,-z
x,y,1/2-z
-x,1/2+y,z
x,1/2-y,1/2+z
loop_
_atom_site_type_symbol
_atom_site_label
_atom_site_fract_x
_atom_site_fract_y
_atom_site_fract_z
Si Si1 0.075742 0.323838 0.570480
Si Si2 0.229066 0.089492 0.569751
Si Si3 0.606167 0.673817 0.068193
Si Si4 0.863268 0.175843 0.430184
Si Si5 0.743363 0.443092 0.428921
Si Si6 0.466077 0.928138 0.070507
O O1 0.104580 0.250000 0.500000
O O2 0.102905 0.324073 0.750000
O O3 0.129954 0.383673 0.480729
O O4 0.969725 0.339123 0.545208
O O5 0.245529 0.103677 0.750000
O O6 0.306365 0.128060 0.472588
O O7 0.232728 0.007788 0.537357
O O8 0.597927 0.680198 0.250000
O O9 0.617309 0.750000 0.000000
O O10 0.514968 0.637601 0.006304
O O11 0.836028 0.250000 0.500000
O O12 0.836132 0.173261 0.250000
O O13 0.809651 0.119114 0.527400
O O14 0.757587 0.464168 0.250000
O O15 0.640644 0.418360 0.459592
O O16 0.491445 0.929357 0.250000
O O17 0.500000 0.000000 0.000000
#
# Coordination Sequence:
#
# PCOD8234228 Si02
#       6
#     8   8   8   8   8   8
#     4  10  21  39  62  89 123 162 206 253 308 366
#     4  12  24  39  62  91 125 163 205 252 309 372
#     4  12  25  42  64  92 126 163 207 258 308 367
#     4  10  22  41  65  91 122 162 206 256 308 364
#     4  11  24  41  64  92 124 162 205 253 308 367
#     4  11  23  41  65  91 122 163 205 252 309 367
#
# _framework density 19.752593000000001
#
# number of rings (size 3 to 8) (size 9 to 14) (size 15 to 20)
#    0.000    1.000    1.667    5.500    0.000    5.333 
#    0.000    0.000    0.000    0.000    0.000    0.000 
#    0.000    0.000    0.000    0.000    0.000    0.000 
#
# Total GULP energy -595571.322289 kJ/mol
# GULP energy per Si atom -12407.735881 kJ/mol
# Density = 1.970764 g / cm^3
# Si number density = 19.752593 Si / 1000 Ang^3
#
#
#
# Elastic Constant Matrix: (Units=GPa)
#
#
# Indices 1 2 3 4 5 6 
#
# 1 85.0424 50.7430 42.6638 0.0000 0.0000 0.0000
# 2 50.7430 115.1844 32.8913 0.0000 0.0000 0.0000
# 3 42.6638 32.8913 119.0633 0.0000 0.0000 0.0000
# 4 0.0000 0.0000 0.0000 40.9960 0.0000 0.0000
# 5 0.0000 0.0000 0.0000 0.0000 25.9737 0.0000
# 6 0.0000 0.0000 0.0000 0.0000 0.0000 28.4565
#
#
#
# Elastic Compliance Matrix: (Units=1/GPa)
#
#
# Indices 1 2 3 4 5 6 
#
# 1 0.018034 -0.006622 -0.004633 0.000000 0.000000 0.000000
# 2 -0.006622 0.011857 -0.000903 0.000000 0.000000 0.000000
# 3 -0.004633 -0.000903 0.010308 0.000000 0.000000 0.000000
# 4 0.000000 0.000000 0.000000 0.024393 0.000000 0.000000
# 5 0.000000 0.000000 0.000000 0.000000 0.038500 0.000000
# 6 0.000000 0.000000 0.000000 0.000000 0.000000 0.035141
#
#
# Mechanical properties :
#
#
# Convention : Reuss Voigt Hill
#
# Bulk Modulus (GPa) = 62.95432 63.54291 63.24861
# Shear Modulus (GPa) = 29.78976 31.95137 30.87056
#
# Velocity S-wave (km/s) = 3.88770 4.02628 3.95759
# Velocity P-wave (km/s) = 7.21754 7.33851 7.27828
#
# Compressibility (1/GPa) = 0.01588453
#
# Stress axis : x y z
#
# Youngs Moduli (GPa) = 55.45046 84.34112 97.00881
#
# Poissons Ratio (x) = 0.55849 0.44943
# Poissons Ratio (y) = 0.36718 0.08756
# Poissons Ratio (z) = 0.25690 0.07613
#
# Static dielectric constant tensor:
#      x y z
#    x 3.745660 0.000000 0.000000 
#    y 0.000000 4.160620 0.000000 
#    z 0.000000 0.000000 3.856820 
# 
# 
# High freq. dielectric constant tensor:
#      x y z
#    x 1.778250 0.000000 0.000000 
#    y 0.000000 1.775510 0.000000 
#    z 0.000000 0.000000 1.790640 
# 
# From -- ./inp_files/4653.got.cif
#   From: 2010.03.12/outbox.cif.g09.slc.cpg/sg57_3_cif.got.tgz:4653.got - 2010.04.16 15:48:40.
