data_PCOD8234376
_publ_section_title
;
Structure prediction by ZEFSAII (Michael W. Deem and Ramdas Pophale) SiO2 
 PCOD8234376
Probable space group: P B C M
;
_chemical_formula_sum "Si O2"
_cell_formula_units_Z 48
_cell_length_a 19.253860
_cell_length_b 8.932879
_cell_length_c 12.939312
_cell_angle_alpha 90.000000
_cell_angle_beta 90.000000
_cell_angle_gamma 90.000000
_cell_volume 2225.463347
_symmetry_space_group_name_H-M "P B C M"
_symmetry_group_IT_number 57
_symmetry_cell_setting 'orthorhombic'
loop_
_space_group_symop_operation_xyz
x,y,z
-x,-y,1/2+z
x,1/2-y,-z
-x,1/2+y,1/2-z
-x,-y,-z
x,y,1/2-z
-x,1/2+y,z
x,1/2-y,1/2+z
loop_
_atom_site_type_symbol
_atom_site_label
_atom_site_fract_x
_atom_site_fract_y
_atom_site_fract_z
Si Si1 0.326084 0.750000 0.000000
Si Si2 0.440408 0.871145 0.628671
Si Si3 0.774392 0.984534 0.462661
Si Si4 0.987602 0.750000 0.000000
Si Si5 0.575483 0.795445 0.128409
Si Si6 0.275043 0.211762 0.135280
Si Si7 0.921349 0.483457 0.876206
O O1 0.376498 0.738235 0.099332
O O2 0.277223 0.608017 0.994503
O O3 0.445573 0.875407 0.750000
O O4 0.512014 0.802277 0.584632
O O5 0.428375 0.036615 0.581554
O O6 0.779331 0.875593 0.562615
O O7 0.744353 0.888614 0.366746
O O8 0.845884 0.055346 0.422767
O O9 0.942439 0.644045 0.924504
O O10 0.030981 0.850469 0.919554
O O11 0.574187 0.812264 0.250000
O O12 0.645099 0.704909 0.095324
O O13 0.266506 0.147847 0.250000
O O14 0.923110 0.487311 0.750000
#
# Coordination Sequence:
#
# PCOD8234376 Si02
#       7
#     4   8   8   4   8   8   8
#     4  12  25  38  56  87 124 164 208 264 326 383
#     4  10  22  38  57  82 116 159 213 274 337 397
#     4  11  24  39  61  93 127 167 218 253 311 405
#     4  10  23  44  74 113 138 170 230 262 306 403
#     4   9  19  37  59  82 112 158 215 274 336 394
#     4  10  21  41  62  83 120 169 218 274 326 381
#     4  11  23  44  72 103 144 181 213 270 326 374
#
# _framework density 21.568539999999999
#
# number of rings (size 3 to 8) (size 9 to 14) (size 15 to 20)
#    0.000    1.667    1.667    2.500    2.333    3.333 
#    0.000    5.833    0.000    0.000    0.000    0.000 
#    0.000    0.000    0.000    0.000    0.000    0.000 
#
# Total GULP energy -594735.165275 kJ/mol
# GULP energy per Si atom -12390.315943 kJ/mol
# Density = 2.151945 g / cm^3
# Si number density = 21.568540 Si / 1000 Ang^3
#
#
#
# Elastic Constant Matrix: (Units=GPa)
#
#
# Indices 1 2 3 4 5 6 
#
# 1 87.8093 10.2544 36.7930 0.0000 0.0000 0.0000
# 2 10.2544 61.3995 41.0724 0.0000 0.0000 0.0000
# 3 36.7930 41.0724 131.8787 0.0000 0.0000 0.0000
# 4 0.0000 0.0000 0.0000 29.1385 0.0000 0.0000
# 5 0.0000 0.0000 0.0000 0.0000 65.1179 0.0000
# 6 0.0000 0.0000 0.0000 0.0000 0.0000 59.9961
#
#
#
# Elastic Compliance Matrix: (Units=1/GPa)
#
#
# Indices 1 2 3 4 5 6 
#
# 1 0.012901 0.000320 -0.003699 0.000000 0.000000 0.000000
# 2 0.000320 0.020581 -0.006499 0.000000 0.000000 0.000000
# 3 -0.003699 -0.006499 0.010639 0.000000 0.000000 0.000000
# 4 0.000000 0.000000 0.000000 0.034319 0.000000 0.000000
# 5 0.000000 0.000000 0.000000 0.000000 0.015357 0.000000
# 6 0.000000 0.000000 0.000000 0.000000 0.000000 0.016668
#
#
# Mechanical properties :
#
#
# Convention : Reuss Voigt Hill
#
# Bulk Modulus (GPa) = 41.04373 50.81410 45.92891
# Shear Modulus (GPa) = 36.14261 43.71503 39.92882
#
# Velocity S-wave (km/s) = 4.09798 4.50688 4.30729
# Velocity P-wave (km/s) = 6.43910 7.11991 6.78805
#
# Compressibility (1/GPa) = 0.02436426
#
# Stress axis : x y z
#
# Youngs Moduli (GPa) = 77.51458 48.58921 93.99686
#
# Poissons Ratio (x) = -0.01553 0.34767
# Poissons Ratio (y) = -0.02478 0.61087
# Poissons Ratio (z) = 0.28671 0.31577
#
# Static dielectric constant tensor:
#      x y z
#    x 3.985290 0.000000 0.000000 
#    y 0.000000 4.208480 0.000000 
#    z 0.000000 0.000000 3.859710 
# 
# 
# High freq. dielectric constant tensor:
#      x y z
#    x 1.844530 0.000000 0.000000 
#    y 0.000000 1.847980 0.000000 
#    z 0.000000 0.000000 1.856250 
# 
# From -- ./inp_files/19024.got.cif
#   From: 2010.03.12/outbox.cif.g09.slc.cpg/sg57_10_cif.got.tgz:19024.got - 2010.04.16 15:48:40.
