data_PCOD8234482
_publ_section_title
;
Structure prediction by ZEFSAII (Michael W. Deem and Ramdas Pophale) SiO2 
 PCOD8234482
Probable space group: P B C M
;
_chemical_formula_sum "Si O2"
_cell_formula_units_Z 48
_cell_length_a 13.474368
_cell_length_b 19.632623
_cell_length_c 9.882413
_cell_angle_alpha 90.000000
_cell_angle_beta 90.000000
_cell_angle_gamma 90.000000
_cell_volume 2614.265737
_symmetry_space_group_name_H-M "P B C M"
_symmetry_group_IT_number 57
_symmetry_cell_setting 'orthorhombic'
loop_
_space_group_symop_operation_xyz
x,y,z
-x,-y,1/2+z
x,1/2-y,-z
-x,1/2+y,1/2-z
-x,-y,-z
x,y,1/2-z
-x,1/2+y,z
x,1/2-y,1/2+z
loop_
_atom_site_type_symbol
_atom_site_label
_atom_site_fract_x
_atom_site_fract_y
_atom_site_fract_z
Si Si1 0.064168 0.547050 0.903285
Si Si2 0.722099 0.004413 0.514670
Si Si3 0.756627 0.641921 0.594470
Si Si4 0.369923 0.940287 0.750000
Si Si5 0.480494 0.328912 0.750000
Si Si6 0.600392 0.750000 0.500000
Si Si7 0.583575 0.974956 0.750000
Si Si8 0.027386 0.190161 0.905948
O O1 0.032999 0.528920 0.750000
O O2 0.180745 0.537561 0.921531
O O3 0.040521 0.625164 0.934964
O O4 0.000000 0.500000 0.000000
O O5 0.696323 0.046153 0.380725
O O6 0.741497 0.925229 0.492160
O O7 0.631064 0.010136 0.618714
O O8 0.760875 0.619637 0.750000
O O9 0.667486 0.693672 0.571414
O O10 0.859692 0.675520 0.549752
O O11 0.408658 0.861796 0.750000
O O12 0.465513 0.991411 0.750000
O O13 0.467954 0.283653 0.884578
O O14 0.401405 0.392122 0.750000
O O15 0.022082 0.213200 0.750000
O O16 0.985193 0.250000 0.000000
#
# Coordination Sequence:
#
# PCOD8234482 Si02
#       8
#     8   8   8   4   4   4   4   8
#     4  11  24  39  63  96 132 165 208 261 313 376
#     4  12  21  40  64  92 129 159 206 261 319 370
#     4  11  20  32  57  92 122 161 194 249 315 373
#     4  10  24  41  64  89 120 164 210 257 318 389
#     4  10  24  37  59  89 119 158 205 254 323 379
#     4  12  20  36  58  88 128 158 202 262 312 382
#     4  10  22  38  59  94 121 156 209 259 317 374
#     4  10  22  39  56  85 127 162 205 246 304 374
#
# _framework density 18.360793999999999
#
# number of rings (size 3 to 8) (size 9 to 14) (size 15 to 20)
#    0.500    0.667    6.667    0.500    1.167    0.667 
#    1.500    0.833    1.833    0.000    0.000    0.000 
#    0.000    0.000    0.000    0.000    0.000    0.000 
#
# Total GULP energy -595282.911778 kJ/mol
# GULP energy per Si atom -12401.727329 kJ/mol
# Density = 1.831900 g / cm^3
# Si number density = 18.360794 Si / 1000 Ang^3
#
#
#
# Elastic Constant Matrix: (Units=GPa)
#
#
# Indices 1 2 3 4 5 6 
#
# 1 50.9160 34.2519 24.5664 0.0000 0.0000 0.0000
# 2 34.2519 94.6914 43.7353 0.0000 0.0000 0.0000
# 3 24.5664 43.7353 96.2531 0.0000 0.0000 0.0000
# 4 0.0000 0.0000 0.0000 26.1585 0.0000 0.0000
# 5 0.0000 0.0000 0.0000 0.0000 32.8116 0.0000
# 6 0.0000 0.0000 0.0000 0.0000 0.0000 27.8902
#
#
#
# Elastic Compliance Matrix: (Units=1/GPa)
#
#
# Indices 1 2 3 4 5 6 
#
# 1 0.026652 -0.008225 -0.003065 0.000000 0.000000 0.000000
# 2 -0.008225 0.015904 -0.005127 0.000000 0.000000 0.000000
# 3 -0.003065 -0.005127 0.013501 0.000000 0.000000 0.000000
# 4 0.000000 0.000000 0.000000 0.038229 0.000000 0.000000
# 5 0.000000 0.000000 0.000000 0.000000 0.030477 0.000000
# 6 0.000000 0.000000 0.000000 0.000000 0.000000 0.035855
#
#
# Mechanical properties :
#
#
# Convention : Reuss Voigt Hill
#
# Bulk Modulus (GPa) = 43.06112 49.66309 46.36211
# Shear Modulus (GPa) = 24.85176 26.65917 25.75546
#
# Velocity S-wave (km/s) = 3.68302 3.81460 3.74938
# Velocity P-wave (km/s) = 6.44902 6.81973 6.63696
#
# Compressibility (1/GPa) = 0.02322280
#
# Stress axis : x y z
#
# Youngs Moduli (GPa) = 37.52049 62.87785 74.06733
#
# Poissons Ratio (x) = 0.51717 0.22702
# Poissons Ratio (y) = 0.30860 0.37975
# Poissons Ratio (z) = 0.11500 0.32238
#
# Static dielectric constant tensor:
#      x y z
#    x 3.273400 0.000000 0.000000 
#    y 0.000000 3.192290 0.000000 
#    z 0.000000 0.000000 3.817910 
# 
# 
# High freq. dielectric constant tensor:
#      x y z
#    x 1.699670 0.000000 0.000000 
#    y 0.000000 1.702690 0.000000 
#    z 0.000000 0.000000 1.725430 
# 
# From -- ./inp_files/4967.got.cif
#   From: 2010.03.12/outbox.cif.g09.slc.cpg/sg57_3_cif.got.tgz:4967.got - 2010.04.16 15:48:40.
