data_PCOD8234904
_publ_section_title
;
Structure prediction by ZEFSAII (Michael W. Deem and Ramdas Pophale) SiO2 
 PCOD8234904
Probable space group: P B C M
;
_chemical_formula_sum "Si O2"
_cell_formula_units_Z 40
_cell_length_a 11.073854
_cell_length_b 19.393881
_cell_length_c 10.140163
_cell_angle_alpha 90.000000
_cell_angle_beta 90.000000
_cell_angle_gamma 90.000000
_cell_volume 2177.752175
_symmetry_space_group_name_H-M "P B C M"
_symmetry_group_IT_number 57
_symmetry_cell_setting 'orthorhombic'
loop_
_space_group_symop_operation_xyz
x,y,z
-x,-y,1/2+z
x,1/2-y,-z
-x,1/2+y,1/2-z
-x,-y,-z
x,y,1/2-z
-x,1/2+y,z
x,1/2-y,1/2+z
loop_
_atom_site_type_symbol
_atom_site_label
_atom_site_fract_x
_atom_site_fract_y
_atom_site_fract_z
Si Si1 0.328063 0.446587 0.487024
Si Si2 0.901767 0.393330 0.250000
Si Si3 0.573254 0.406451 0.593640
Si Si4 0.078437 0.906332 0.750000
Si Si5 0.177892 0.046258 0.250000
Si Si6 0.202138 0.830450 0.511505
Si Si7 0.836238 0.934570 0.250000
O O1 0.449916 0.402510 0.509424
O O2 0.357943 0.523211 0.439517
O O3 0.259371 0.445375 0.623525
O O4 0.242643 0.413035 0.376961
O O5 0.885466 0.473779 0.250000
O O6 0.835842 0.362091 0.125781
O O7 0.047057 0.384320 0.250000
O O8 0.548257 0.401877 0.750000
O O9 0.656948 0.343746 0.544617
O O10 0.121468 0.865642 0.622442
O O11 0.933438 0.900616 0.750000
O O12 0.130757 0.984092 0.750000
O O13 0.177910 0.750000 0.500000
#
# Coordination Sequence:
#
# PCOD8234904 Si02
#       7
#     8   4   8   4   4   8   4
#     4  11  20  34  58  89 119 149 184 240 300 351
#     4  11  23  35  57  95 115 146 202 236 293 347
#     4  11  21  36  57  86 122 152 190 234 296 343
#     4  11  21  39  57  85 121 158 190 234 311 339
#     4  11  20  34  60  88 119 150 189 249 294 354
#     4  12  23  39  59  82 120 156 199 237 279 355
#     4  11  20  38  60  86 127 144 181 259 298 346
#
# _framework density 18.367563000000001
#
# number of rings (size 3 to 8) (size 9 to 14) (size 15 to 20)
#    0.000    0.800    7.000    1.800    0.000    4.000 
#    0.000    0.000    0.000    7.200    0.000    0.000 
#    0.000    0.000    0.000    0.000    0.000    0.000 
#
# Total GULP energy -495970.659171 kJ/mol
# GULP energy per Si atom -12399.266479 kJ/mol
# Density = 1.832576 g / cm^3
# Si number density = 18.367563 Si / 1000 Ang^3
#
#
#
# Elastic Constant Matrix: (Units=GPa)
#
#
# Indices 1 2 3 4 5 6 
#
# 1 98.3058 8.9164 31.8929 0.0000 0.0000 0.0000
# 2 8.9164 48.8077 12.5898 0.0000 0.0000 0.0000
# 3 31.8929 12.5898 139.0281 0.0000 0.0000 0.0000
# 4 0.0000 0.0000 0.0000 56.5242 0.0000 0.0000
# 5 0.0000 0.0000 0.0000 0.0000 48.3906 0.0000
# 6 0.0000 0.0000 0.0000 0.0000 0.0000 20.4867
#
#
#
# Elastic Compliance Matrix: (Units=1/GPa)
#
#
# Indices 1 2 3 4 5 6 
#
# 1 0.011083 -0.001402 -0.002416 0.000000 0.000000 0.000000
# 2 -0.001402 0.021156 -0.001594 0.000000 0.000000 0.000000
# 3 -0.002416 -0.001594 0.007891 0.000000 0.000000 0.000000
# 4 0.000000 0.000000 0.000000 0.017692 0.000000 0.000000
# 5 0.000000 0.000000 0.000000 0.000000 0.020665 0.000000
# 6 0.000000 0.000000 0.000000 0.000000 0.000000 0.048812
#
#
# Mechanical properties :
#
#
# Convention : Reuss Voigt Hill
#
# Bulk Modulus (GPa) = 34.12106 43.65999 38.89052
# Shear Modulus (GPa) = 33.80864 40.59646 37.20255
#
# Velocity S-wave (km/s) = 4.29496 4.70640 4.50538
# Velocity P-wave (km/s) = 6.57364 7.30448 6.94867
#
# Compressibility (1/GPa) = 0.02930742
#
# Stress axis : x y z
#
# Youngs Moduli (GPa) = 90.22716 47.26826 126.72219
#
# Poissons Ratio (x) = 0.06625 0.30610
# Poissons Ratio (y) = 0.12647 0.20203
# Poissons Ratio (z) = 0.21795 0.07536
#
# Static dielectric constant tensor:
#      x y z
#    x 3.799610 0.000000 0.000000 
#    y 0.000000 3.491430 0.000000 
#    z 0.000000 0.000000 3.479250 
# 
# 
# High freq. dielectric constant tensor:
#      x y z
#    x 1.733080 0.000000 0.000000 
#    y 0.000000 1.664760 0.000000 
#    z 0.000000 0.000000 1.735740 
# 
# From -- ./inp_files/2743.got.cif
#   From: 2010.03.12/outbox.cif.g09.slc.cpg/sg57_2_cif.got.tgz:2743.got - 2010.04.16 15:48:40.
