data_PCOD8234898
_publ_section_title
;
Structure prediction by ZEFSAII (Michael W. Deem and Ramdas Pophale) SiO2 
 PCOD8234898
Probable space group: P B C M
;
_chemical_formula_sum "Si O2"
_cell_formula_units_Z 64
_cell_length_a 10.115901
_cell_length_b 21.074896
_cell_length_c 17.506008
_cell_angle_alpha 90.000000
_cell_angle_beta 90.000000
_cell_angle_gamma 90.000000
_cell_volume 3732.133182
_symmetry_space_group_name_H-M "P B C M"
_symmetry_group_IT_number 57
_symmetry_cell_setting 'orthorhombic'
loop_
_space_group_symop_operation_xyz
x,y,z
-x,-y,1/2+z
x,1/2-y,-z
-x,1/2+y,1/2-z
-x,-y,-z
x,y,1/2-z
-x,1/2+y,z
x,1/2-y,1/2+z
loop_
_atom_site_type_symbol
_atom_site_label
_atom_site_fract_x
_atom_site_fract_y
_atom_site_fract_z
Si Si1 0.077928 0.091354 0.663914
Si Si2 0.722486 0.701575 0.836989
Si Si3 0.234168 0.532941 0.162805
Si Si4 0.400924 0.557548 0.014879
Si Si5 0.431512 0.321125 0.478428
Si Si6 0.002361 0.078831 0.090242
Si Si7 0.829767 0.802157 0.941005
Si Si8 0.862589 0.457826 0.437245
O O1 0.033033 0.079477 0.750000
O O2 0.149736 0.157648 0.652472
O O3 0.942630 0.092045 0.615214
O O4 0.182526 0.037114 0.639331
O O5 0.673228 0.704381 0.750000
O O6 0.597753 0.677269 0.887210
O O7 0.772861 0.770529 0.863984
O O8 0.290497 0.535087 0.250000
O O9 0.346618 0.552698 0.101841
O O10 0.104589 0.579130 0.159152
O O11 0.500000 0.500000 0.000000
O O12 0.465588 0.626594 0.005414
O O13 0.292525 0.555602 0.946928
O O14 0.481108 0.250000 0.500000
O O15 0.291862 0.337665 0.518336
O O16 0.054643 0.149402 0.079190
O O17 0.121606 0.028247 0.100435
O O18 0.920347 0.049231 0.021142
O O19 0.887543 0.750000 0.000000
#
# Coordination Sequence:
#
# PCOD8234898 Si02
#       8
#     8   8   8   8   8   8   8   8
#     4   9  16  30  50  72  98 121 148 196 253 297
#     4   9  17  30  51  73  93 123 162 202 243 288
#     4   9  19  33  50  72  97 124 154 196 250 297
#     4  11  20  32  52  73  94 128 173 204 227 278
#     4   9  19  34  48  68  99 131 165 201 238 283
#     4   9  16  29  49  71  94 120 149 195 248 294
#     4   9  17  29  48  71  95 122 159 200 239 281
#     4   9  17  29  47  70  95 122 156 193 241 290
#
# _framework density 17.14837
#
# number of rings (size 3 to 8) (size 9 to 14) (size 15 to 20)
#    0.000    3.000    0.000    3.750    0.000    0.500 
#    0.000    8.750    0.000    1.500    0.000    0.000 
#    0.000    0.000    0.000    0.000    0.000    0.000 
#
# Total GULP energy -792990.048990 kJ/mol
# GULP energy per Si atom -12390.469515 kJ/mol
# Density = 1.710934 g / cm^3
# Si number density = 17.148370 Si / 1000 Ang^3
#
#
#
# Elastic Constant Matrix: (Units=GPa)
#
#
# Indices 1 2 3 4 5 6 
#
# 1 75.5677 42.7574 41.8060 0.0000 0.0000 0.0000
# 2 42.7574 73.2847 32.5066 0.0000 0.0000 0.0000
# 3 41.8060 32.5066 109.5930 0.0000 0.0000 0.0000
# 4 0.0000 0.0000 0.0000 19.1156 0.0000 0.0000
# 5 0.0000 0.0000 0.0000 0.0000 27.0871 0.0000
# 6 0.0000 0.0000 0.0000 0.0000 0.0000 28.0795
#
#
#
# Elastic Compliance Matrix: (Units=1/GPa)
#
#
# Indices 1 2 3 4 5 6 
#
# 1 0.022153 -0.010567 -0.005316 0.000000 0.000000 0.000000
# 2 -0.010567 0.020753 -0.002125 0.000000 0.000000 0.000000
# 3 -0.005316 -0.002125 0.011783 0.000000 0.000000 0.000000
# 4 0.000000 0.000000 0.000000 0.052313 0.000000 0.000000
# 5 0.000000 0.000000 0.000000 0.000000 0.036918 0.000000
# 6 0.000000 0.000000 0.000000 0.000000 0.000000 0.035613
#
#
# Mechanical properties :
#
#
# Convention : Reuss Voigt Hill
#
# Bulk Modulus (GPa) = 53.55295 54.73173 54.14234
# Shear Modulus (GPa) = 22.54546 24.28148 23.41347
#
# Velocity S-wave (km/s) = 3.62985 3.76701 3.69907
# Velocity P-wave (km/s) = 6.99033 7.13487 7.06297
#
# Compressibility (1/GPa) = 0.01867311
#
# Stress axis : x y z
#
# Youngs Moduli (GPa) = 45.13996 48.18561 84.86866
#
# Poissons Ratio (x) = 0.50918 0.45120
# Poissons Ratio (y) = 0.47699 0.18032
# Poissons Ratio (z) = 0.23998 0.10238
#
# Static dielectric constant tensor:
#      x y z
#    x 3.061110 0.000000 0.000000 
#    y 0.000000 3.124720 0.000000 
#    z 0.000000 0.000000 3.351020 
# 
# 
# High freq. dielectric constant tensor:
#      x y z
#    x 1.636980 0.000000 0.000000 
#    y 0.000000 1.656230 0.000000 
#    z 0.000000 0.000000 1.661030 
# 
# From -- ./inp_files/21406.got.cif
#   From: 2010.03.12/outbox.cif.g09.slc.cpg/sg57_11_cif.got.tgz:21406.got - 2010.04.16 15:48:40.
