data_PCOD8234687
_publ_section_title
;
Structure prediction by ZEFSAII (Michael W. Deem and Ramdas Pophale) SiO2 
 PCOD8234687
Probable space group: P B C M
;
_chemical_formula_sum "Si O2"
_cell_formula_units_Z 64
_cell_length_a 8.569960
_cell_length_b 12.112213
_cell_length_c 28.322955
_cell_angle_alpha 90.000000
_cell_angle_beta 90.000000
_cell_angle_gamma 90.000000
_cell_volume 2939.956176
_symmetry_space_group_name_H-M "P B C M"
_symmetry_group_IT_number 57
_symmetry_cell_setting 'orthorhombic'
loop_
_space_group_symop_operation_xyz
x,y,z
-x,-y,1/2+z
x,1/2-y,-z
-x,1/2+y,1/2-z
-x,-y,-z
x,y,1/2-z
-x,1/2+y,z
x,1/2-y,1/2+z
loop_
_atom_site_type_symbol
_atom_site_label
_atom_site_fract_x
_atom_site_fract_y
_atom_site_fract_z
Si Si1 0.159672 0.643759 0.027829
Si Si2 0.288291 0.974227 0.057563
Si Si3 0.492282 0.325851 0.544775
Si Si4 0.948067 0.754573 0.197224
Si Si5 0.040566 0.083988 0.385905
Si Si6 0.295678 0.790414 0.802381
Si Si7 0.772359 0.965006 0.162747
Si Si8 0.500914 0.327642 0.119988
O O1 0.324571 0.652980 0.054803
O O2 0.021945 0.637079 0.065875
O O3 0.109231 0.750000 0.000000
O O4 0.173783 0.551806 0.986431
O O5 0.378813 0.869989 0.079626
O O6 0.411798 0.058296 0.035768
O O7 0.197776 0.020470 0.102575
O O8 0.464547 0.250000 0.500000
O O9 0.413882 0.269970 0.591301
O O10 0.916149 0.704657 0.250000
O O11 0.908880 0.668040 0.155717
O O12 0.133159 0.776170 0.192234
O O13 0.844856 0.866277 0.194383
O O14 0.908804 0.995019 0.373203
O O15 0.363640 0.776313 0.750000
O O16 0.417223 0.729795 0.835806
O O17 0.272950 0.922381 0.810089
O O18 0.617522 0.922478 0.136237
#
# Coordination Sequence:
#
# PCOD8234687 Si02
#       8
#     8   8   8   8   8   8   8   8
#     4  11  23  41  65  90 133 177 215 274 327 394
#     4  12  24  41  63  94 132 172 223 269 333 388
#     4  11  23  40  63  91 125 175 223 267 325 396
#     4  10  22  44  69  94 127 169 215 269 332 395
#     4  11  25  41  64  98 131 170 224 273 325 397
#     4  10  23  43  67  96 130 167 215 267 323 394
#     4  11  24  40  70  94 134 171 218 265 338 386
#     4  12  23  42  65  94 131 171 217 273 329 387
#
# _framework density 21.769031999999999
#
# number of rings (size 3 to 8) (size 9 to 14) (size 15 to 20)
#    0.000    1.000    2.500    5.625    3.500    2.000 
#    0.000    0.625    0.000    0.000    0.000    0.000 
#    0.000    0.000    0.000    0.000    0.000    0.000 
#
# Total GULP energy -793101.332327 kJ/mol
# GULP energy per Si atom -12392.208318 kJ/mol
# Density = 2.171948 g / cm^3
# Si number density = 21.769032 Si / 1000 Ang^3
#
#
#
# Elastic Constant Matrix: (Units=GPa)
#
#
# Indices 1 2 3 4 5 6 
#
# 1 49.3612 30.9939 29.3957 0.0000 0.0000 0.0000
# 2 30.9939 92.5705 37.0892 0.0000 0.0000 0.0000
# 3 29.3957 37.0892 116.3444 0.0000 0.0000 0.0000
# 4 0.0000 0.0000 0.0000 28.0951 0.0000 0.0000
# 5 0.0000 0.0000 0.0000 0.0000 60.0707 0.0000
# 6 0.0000 0.0000 0.0000 0.0000 0.0000 37.9368
#
#
#
# Elastic Compliance Matrix: (Units=1/GPa)
#
#
# Indices 1 2 3 4 5 6 
#
# 1 0.027667 -0.007409 -0.004629 0.000000 0.000000 0.000000
# 2 -0.007409 0.014368 -0.002709 0.000000 0.000000 0.000000
# 3 -0.004629 -0.002709 0.010628 0.000000 0.000000 0.000000
# 4 0.000000 0.000000 0.000000 0.035593 0.000000 0.000000
# 5 0.000000 0.000000 0.000000 0.000000 0.016647 0.000000
# 6 0.000000 0.000000 0.000000 0.000000 0.000000 0.026360
#
#
# Mechanical properties :
#
#
# Convention : Reuss Voigt Hill
#
# Bulk Modulus (GPa) = 43.15604 50.35932 46.75768
# Shear Modulus (GPa) = 29.67716 35.94034 32.80875
#
# Velocity S-wave (km/s) = 3.69626 4.06764 3.88639
# Velocity P-wave (km/s) = 6.17122 6.72641 6.45479
#
# Compressibility (1/GPa) = 0.02317173
#
# Stress axis : x y z
#
# Youngs Moduli (GPa) = 36.14375 69.59729 94.09039
#
# Poissons Ratio (x) = 0.51564 0.43550
# Poissons Ratio (y) = 0.26779 0.25485
# Poissons Ratio (z) = 0.16729 0.18851
#
# Static dielectric constant tensor:
#      x y z
#    x 3.782430 0.000000 0.000000 
#    y 0.000000 3.998650 0.000000 
#    z 0.000000 0.000000 4.043660 
# 
# 
# High freq. dielectric constant tensor:
#      x y z
#    x 1.844190 0.000000 0.000000 
#    y 0.000000 1.861280 0.000000 
#    z 0.000000 0.000000 1.869430 
# 
# From -- ./inp_files/29602.got.cif
#   From: 2010.03.12/outbox.cif.g09.slc.cpg/sg57_15_cif.got.tgz:29602.got - 2010.04.16 15:48:40.
