data_PCOD8234424
_publ_section_title
;
Structure prediction by ZEFSAII (Michael W. Deem and Ramdas Pophale) SiO2 
 PCOD8234424
Probable space group: P B C M
;
_chemical_formula_sum "Si O2"
_cell_formula_units_Z 60
_cell_length_a 5.254001
_cell_length_b 17.492865
_cell_length_c 29.797601
_cell_angle_alpha 90.000000
_cell_angle_beta 90.000000
_cell_angle_gamma 90.000000
_cell_volume 2738.623914
_symmetry_space_group_name_H-M "P B C M"
_symmetry_group_IT_number 57
_symmetry_cell_setting 'orthorhombic'
loop_
_space_group_symop_operation_xyz
x,y,z
-x,-y,1/2+z
x,1/2-y,-z
-x,1/2+y,1/2-z
-x,-y,-z
x,y,1/2-z
-x,1/2+y,z
x,1/2-y,1/2+z
loop_
_atom_site_type_symbol
_atom_site_label
_atom_site_fract_x
_atom_site_fract_y
_atom_site_fract_z
Si Si1 0.642312 0.604311 0.026996
Si Si2 0.191420 0.750725 0.095548
Si Si3 0.688783 0.838942 0.382274
Si Si4 0.347213 0.750000 0.500000
Si Si5 0.951684 0.601207 0.108821
Si Si6 0.865493 0.968638 0.800830
Si Si7 0.760880 0.978770 0.055764
Si Si8 0.637732 0.565367 0.700148
O O1 0.444723 0.541871 0.044031
O O2 0.763554 0.639467 0.072224
O O3 0.517438 0.673770 0.999988
O O4 0.840184 0.563084 0.991595
O O5 0.474647 0.776992 0.107376
O O6 0.175529 0.663639 0.114175
O O7 0.971718 0.805084 0.114378
O O8 0.158783 0.751136 0.042022
O O9 0.642566 0.913894 0.412329
O O10 0.655629 0.860966 0.330604
O O11 0.018551 0.520017 0.084653
O O12 0.828325 0.591418 0.158344
O O13 0.862116 0.932547 0.750000
O O14 0.639528 0.028681 0.805310
O O15 0.140641 0.004879 0.811210
O O16 0.678510 0.596541 0.750000
#
# Coordination Sequence:
#
# PCOD8234424 Si02
#       8
#     8   8   8   4   8   8   8   8
#     4  11  25  43  65 100 135 181 233 282 344 399
#     4  12  29  42  67  94 141 184 226 267 357 396
#     4  12  25  45  67 101 133 180 223 285 331 414
#     4  12  24  48  62  94 140 186 228 282 342 418
#     4  12  25  42  68  98 139 183 229 287 344 418
#     4  10  22  41  72 105 134 171 225 287 343 402
#     4  11  24  40  67  97 132 176 232 286 329 399
#     4  10  21  42  72 104 133 171 223 285 345 397
#
# _framework density 21.908812000000001
#
# number of rings (size 3 to 8) (size 9 to 14) (size 15 to 20)
#    0.000    0.800    4.000    2.800    3.733    0.533 
#    0.000    1.333    0.000    0.000    0.000    0.000 
#    0.000    0.000    0.000    0.000    0.000    0.000 
#
# Total GULP energy -743697.325498 kJ/mol
# GULP energy per Si atom -12394.955425 kJ/mol
# Density = 2.185895 g / cm^3
# Si number density = 21.908812 Si / 1000 Ang^3
#
#
#
# Elastic Constant Matrix: (Units=GPa)
#
#
# Indices 1 2 3 4 5 6 
#
# 1 64.1928 14.6030 13.4703 0.0000 0.0000 0.0000
# 2 14.6030 93.9004 41.3768 0.0000 0.0000 0.0000
# 3 13.4703 41.3768 153.1119 0.0000 0.0000 0.0000
# 4 0.0000 0.0000 0.0000 32.7308 0.0000 0.0000
# 5 0.0000 0.0000 0.0000 0.0000 35.2606 0.0000
# 6 0.0000 0.0000 0.0000 0.0000 0.0000 39.1309
#
#
#
# Elastic Compliance Matrix: (Units=1/GPa)
#
#
# Indices 1 2 3 4 5 6 
#
# 1 0.016246 -0.002153 -0.000847 0.000000 0.000000 0.000000
# 2 -0.002153 0.012375 -0.003155 0.000000 0.000000 0.000000
# 3 -0.000847 -0.003155 0.007458 0.000000 0.000000 0.000000
# 4 0.000000 0.000000 0.000000 0.030552 0.000000 0.000000
# 5 0.000000 0.000000 0.000000 0.000000 0.028360 0.000000
# 6 0.000000 0.000000 0.000000 0.000000 0.000000 0.025555
#
#
# Mechanical properties :
#
#
# Convention : Reuss Voigt Hill
#
# Bulk Modulus (GPa) = 42.07306 50.01172 46.04239
# Shear Modulus (GPa) = 35.51662 37.54146 36.52904
#
# Velocity S-wave (km/s) = 4.03067 4.14397 4.08772
# Velocity P-wave (km/s) = 6.39587 6.76561 6.58334
#
# Compressibility (1/GPa) = 0.02376818
#
# Stress axis : x y z
#
# Youngs Moduli (GPa) = 61.55480 80.81130 134.08000
#
# Poissons Ratio (x) = 0.17399 0.11362
# Poissons Ratio (y) = 0.13253 0.42298
# Poissons Ratio (z) = 0.05216 0.25493
#
# Static dielectric constant tensor:
#      x y z
#    x 3.832890 0.000000 0.000000 
#    y 0.000000 3.959160 0.000000 
#    z 0.000000 0.000000 4.438140 
# 
# 
# High freq. dielectric constant tensor:
#      x y z
#    x 1.858740 0.000000 0.000000 
#    y 0.000000 1.853040 0.000000 
#    z 0.000000 0.000000 1.874170 
# 
# From -- ./inp_files/29250.got.cif
#   From: 2010.03.12/outbox.cif.g09.slc.cpg/sg57_15_cif.got.tgz:29250.got - 2010.04.16 15:48:40.
