data_PCOD8234389
_publ_section_title
;
Structure prediction by ZEFSAII (Michael W. Deem and Ramdas Pophale) SiO2 
 PCOD8234389
Probable space group: P B C M
;
_chemical_formula_sum "Si O2"
_cell_formula_units_Z 48
_cell_length_a 9.685731
_cell_length_b 29.186982
_cell_length_c 8.740827
_cell_angle_alpha 90.000000
_cell_angle_beta 90.000000
_cell_angle_gamma 90.000000
_cell_volume 2471.007811
_symmetry_space_group_name_H-M "P B C M"
_symmetry_group_IT_number 57
_symmetry_cell_setting 'orthorhombic'
loop_
_space_group_symop_operation_xyz
x,y,z
-x,-y,1/2+z
x,1/2-y,-z
-x,1/2+y,1/2-z
-x,-y,-z
x,y,1/2-z
-x,1/2+y,z
x,1/2-y,1/2+z
loop_
_atom_site_type_symbol
_atom_site_label
_atom_site_fract_x
_atom_site_fract_y
_atom_site_fract_z
Si Si1 0.967996 0.624283 0.069135
Si Si2 0.464988 0.798301 0.429831
Si Si3 0.271468 0.881001 0.068551
Si Si4 0.892406 0.533037 0.922873
Si Si5 0.623363 0.473320 0.576551
Si Si6 0.220657 0.298457 0.431016
O O1 0.975614 0.626428 0.250000
O O2 0.122324 0.623710 0.005623
O O3 0.884207 0.579551 0.018189
O O4 0.885380 0.666860 0.005057
O O5 0.417005 0.750000 0.500000
O O6 0.453994 0.792840 0.250000
O O7 0.365543 0.838687 0.489126
O O8 0.621942 0.810692 0.477862
O O9 0.256868 0.880913 0.250000
O O10 0.342869 0.927969 0.018259
O O11 0.939974 0.544044 0.750000
O O12 0.746311 0.509180 0.925560
O O13 0.000000 0.500000 0.000000
O O14 0.500000 0.500000 0.500000
O O15 0.587079 0.459074 0.750000
O O16 0.178915 0.250000 0.500000
O O17 0.201319 0.298310 0.250000
#
# Coordination Sequence:
#
# PCOD8234389 Si02
#       6
#     8   8   8   8   8   8
#     4  12  25  40  61  92 124 163 207 251 306 367
#     4   9  21  40  64  91 120 156 198 246 303 361
#     4  11  23  41  63  90 124 162 205 255 307 362
#     4  11  23  41  64  89 122 162 205 251 303 362
#     4  11  25  42  62  91 124 161 205 252 305 366
#     4  10  21  41  65  92 123 157 200 252 305 365
#
# _framework density 19.425274000000002
#
# number of rings (size 3 to 8) (size 9 to 14) (size 15 to 20)
#    0.000    1.333    1.667    3.500    2.333    4.667 
#    0.000    1.667    0.000    0.000    0.000    0.000 
#    0.000    0.000    0.000    0.000    0.000    0.000 
#
# Total GULP energy -595368.394516 kJ/mol
# GULP energy per Si atom -12403.508219 kJ/mol
# Density = 1.938106 g / cm^3
# Si number density = 19.425274 Si / 1000 Ang^3
#
#
#
# Elastic Constant Matrix: (Units=GPa)
#
#
# Indices 1 2 3 4 5 6 
#
# 1 73.5286 56.7002 33.6991 0.0000 0.0000 0.0000
# 2 56.7002 153.4111 51.9312 0.0000 0.0000 0.0000
# 3 33.6991 51.9312 107.7071 0.0000 0.0000 0.0000
# 4 0.0000 0.0000 0.0000 40.6301 0.0000 0.0000
# 5 0.0000 0.0000 0.0000 0.0000 26.0292 0.0000
# 6 0.0000 0.0000 0.0000 0.0000 0.0000 43.6447
#
#
#
# Elastic Compliance Matrix: (Units=1/GPa)
#
#
# Indices 1 2 3 4 5 6 
#
# 1 0.019905 -0.006272 -0.003204 0.000000 0.000000 0.000000
# 2 -0.006272 0.009766 -0.002746 0.000000 0.000000 0.000000
# 3 -0.003204 -0.002746 0.011611 0.000000 0.000000 0.000000
# 4 0.000000 0.000000 0.000000 0.024612 0.000000 0.000000
# 5 0.000000 0.000000 0.000000 0.000000 0.038418 0.000000
# 6 0.000000 0.000000 0.000000 0.000000 0.000000 0.022912
#
#
# Mechanical properties :
#
#
# Convention : Reuss Voigt Hill
#
# Bulk Modulus (GPa) = 59.39054 68.81198 64.10126
# Shear Modulus (GPa) = 31.78981 34.88190 33.33585
#
# Velocity S-wave (km/s) = 4.04978 4.24216 4.14709
# Velocity P-wave (km/s) = 7.24623 7.71333 7.48342
#
# Compressibility (1/GPa) = 0.01683770
#
# Stress axis : x y z
#
# Youngs Moduli (GPa) = 50.23789 102.39205 86.12561
#
# Poissons Ratio (x) = 0.64225 0.27591
# Poissons Ratio (y) = 0.31512 0.23653
# Poissons Ratio (z) = 0.16094 0.28121
#
# Static dielectric constant tensor:
#      x y z
#    x 3.668930 0.000000 0.000000 
#    y 0.000000 2.520740 0.000000 
#    z 0.000000 0.000000 3.798690 
# 
# 
# High freq. dielectric constant tensor:
#      x y z
#    x 1.763860 0.000000 0.000000 
#    y 0.000000 1.770210 0.000000 
#    z 0.000000 0.000000 1.771470 
# 
# From -- ./inp_files/1995.got.cif
#   From: 2010.03.12/outbox.cif.g09.slc.cpg/sg57_1_cif.got.tgz:1995.got - 2010.04.16 15:48:40.
