data_PCOD8234055
_publ_section_title
;
Structure prediction by ZEFSAII (Michael W. Deem and Ramdas Pophale) SiO2 
 PCOD8234055
Probable space group: P B C M
;
_chemical_formula_sum "Si O2"
_cell_formula_units_Z 52
_cell_length_a 13.213885
_cell_length_b 12.954312
_cell_length_c 14.503470
_cell_angle_alpha 90.000000
_cell_angle_beta 90.000000
_cell_angle_gamma 90.000000
_cell_volume 2482.657424
_symmetry_space_group_name_H-M "P B C M"
_symmetry_group_IT_number 57
_symmetry_cell_setting 'orthorhombic'
loop_
_space_group_symop_operation_xyz
x,y,z
-x,-y,1/2+z
x,1/2-y,-z
-x,1/2+y,1/2-z
-x,-y,-z
x,y,1/2-z
-x,1/2+y,z
x,1/2-y,1/2+z
loop_
_atom_site_type_symbol
_atom_site_label
_atom_site_fract_x
_atom_site_fract_y
_atom_site_fract_z
Si Si1 0.105052 0.511152 0.051719
Si Si2 0.335664 0.663424 0.750000
Si Si3 0.455720 0.081572 0.750000
Si Si4 0.039312 0.792385 0.854205
Si Si5 0.830610 0.701386 0.642570
Si Si6 0.608635 0.745380 0.894503
Si Si7 0.788835 0.334517 0.065781
Si Si8 0.480131 0.646940 0.250000
O O1 0.081510 0.592273 0.133339
O O2 0.148307 0.405478 0.091016
O O3 0.193483 0.556768 0.985584
O O4 0.000000 0.500000 0.000000
O O5 0.422643 0.577675 0.750000
O O6 0.270594 0.646314 0.659104
O O7 0.386021 0.775625 0.750000
O O8 0.416510 0.137186 0.656971
O O9 0.423593 0.962674 0.750000
O O10 0.058335 0.758771 0.750000
O O11 0.099319 0.710614 0.915833
O O12 0.920328 0.782593 0.878718
O O13 0.819622 0.675794 0.750000
O O14 0.729804 0.758352 0.606772
O O15 0.550883 0.836693 0.840041
O O16 0.570014 0.750000 0.000000
O O17 0.731650 0.250000 0.000000
#
# Coordination Sequence:
#
# PCOD8234055 Si02
#       8
#     8   4   4   8   8   8   8   4
#     4  11  23  36  57  92 132 166 219 263 308 377
#     4  10  22  42  66  88 132 166 206 284 324 378
#     4  10  24  46  67  99 129 162 219 283 338 406
#     4  10  21  38  59  84 126 176 213 257 311 372
#     4  11  22  41  66  89 133 175 217 268 324 384
#     4  10  23  43  70 100 130 172 220 270 344 410
#     4  10  21  38  59  91 124 165 219 250 317 378
#     4  10  24  48  69  93 133 160 219 287 336 402
#
# _framework density 20.945298000000001
#
# number of rings (size 3 to 8) (size 9 to 14) (size 15 to 20)
#    0.000    1.846    3.846    0.462    2.154    6.769 
#    1.385    0.000    0.000    0.000    0.000    0.000 
#    0.000    0.000    0.000    0.000    0.000    0.000 
#
# Total GULP energy -644674.457722 kJ/mol
# GULP energy per Si atom -12397.585725 kJ/mol
# Density = 2.089763 g / cm^3
# Si number density = 20.945298 Si / 1000 Ang^3
#
#
#
# Elastic Constant Matrix: (Units=GPa)
#
#
# Indices 1 2 3 4 5 6 
#
# 1 81.9141 5.0833 33.7943 0.0000 0.0000 0.0000
# 2 5.0833 74.4176 20.6894 0.0000 0.0000 0.0000
# 3 33.7943 20.6894 138.7133 0.0000 0.0000 0.0000
# 4 0.0000 0.0000 0.0000 22.1995 0.0000 0.0000
# 5 0.0000 0.0000 0.0000 0.0000 18.5514 0.0000
# 6 0.0000 0.0000 0.0000 0.0000 0.0000 13.8255
#
#
#
# Elastic Compliance Matrix: (Units=1/GPa)
#
#
# Indices 1 2 3 4 5 6 
#
# 1 0.013572 -0.000008 -0.003305 0.000000 0.000000 0.000000
# 2 -0.000008 0.014019 -0.002089 0.000000 0.000000 0.000000
# 3 -0.003305 -0.002089 0.008326 0.000000 0.000000 0.000000
# 4 0.000000 0.000000 0.000000 0.045046 0.000000 0.000000
# 5 0.000000 0.000000 0.000000 0.000000 0.053904 0.000000
# 6 0.000000 0.000000 0.000000 0.000000 0.000000 0.072330
#
#
# Mechanical properties :
#
#
# Convention : Reuss Voigt Hill
#
# Bulk Modulus (GPa) = 39.82137 46.01990 42.92064
# Shear Modulus (GPa) = 22.08742 26.61380 24.35061
#
# Velocity S-wave (km/s) = 3.25087 3.56846 3.41336
# Velocity P-wave (km/s) = 5.75711 6.24482 6.00591
#
# Compressibility (1/GPa) = 0.02511214
#
# Stress axis : x y z
#
# Youngs Moduli (GPa) = 73.68090 71.33167 120.10645
#
# Poissons Ratio (x) = 0.00058 0.39699
# Poissons Ratio (y) = 0.00060 0.25090
# Poissons Ratio (z) = 0.24354 0.14901
#
# Static dielectric constant tensor:
#      x y z
#    x 3.885130 0.000000 0.000000 
#    y 0.000000 3.776270 0.000000 
#    z 0.000000 0.000000 7.139800 
# 
# 
# High freq. dielectric constant tensor:
#      x y z
#    x 1.819620 0.000000 0.000000 
#    y 0.000000 1.803310 0.000000 
#    z 0.000000 0.000000 1.835610 
# 
# From -- ./inp_files/17779.got.cif
#   From: 2010.03.12/outbox.cif.g09.slc.cpg/sg57_9_cif.got.tgz:17779.got - 2010.04.16 15:48:40.
