data_PCOD8234214
_publ_section_title
;
Structure prediction by ZEFSAII (Michael W. Deem and Ramdas Pophale) SiO2 
 PCOD8234214
Probable space group: P B C M
;
_chemical_formula_sum "Si O2"
_cell_formula_units_Z 64
_cell_length_a 8.766803
_cell_length_b 21.023095
_cell_length_c 17.456206
_cell_angle_alpha 90.000000
_cell_angle_beta 90.000000
_cell_angle_gamma 90.000000
_cell_volume 3217.271848
_symmetry_space_group_name_H-M "P B C M"
_symmetry_group_IT_number 57
_symmetry_cell_setting 'orthorhombic'
loop_
_space_group_symop_operation_xyz
x,y,z
-x,-y,1/2+z
x,1/2-y,-z
-x,1/2+y,1/2-z
-x,-y,-z
x,y,1/2-z
-x,1/2+y,z
x,1/2-y,1/2+z
loop_
_atom_site_type_symbol
_atom_site_label
_atom_site_fract_x
_atom_site_fract_y
_atom_site_fract_z
Si Si1 0.378295 0.351786 0.469973
Si Si2 0.121173 0.014787 0.338562
Si Si3 0.117789 0.908352 0.567849
Si Si4 0.904109 0.130301 0.664214
Si Si5 0.414824 0.816402 0.161180
Si Si6 0.059774 0.185725 0.968567
Si Si7 0.350947 0.799196 0.566361
Si Si8 0.677876 0.986845 0.983947
O O1 0.446754 0.347021 0.385205
O O2 0.239694 0.302866 0.478619
O O3 0.502525 0.337482 0.535251
O O4 0.295956 0.419333 0.477363
O O5 0.168347 0.030527 0.250000
O O6 0.982720 0.061661 0.363548
O O7 0.054830 0.943662 0.343503
O O8 0.270660 0.018981 0.394088
O O9 0.226848 0.850564 0.594706
O O10 0.215759 0.961763 0.525025
O O11 0.999682 0.878271 0.508674
O O12 0.915410 0.155200 0.750000
O O13 0.732180 0.142914 0.634533
O O14 0.020370 0.176177 0.620273
O O15 0.452090 0.823777 0.250000
O O16 0.394952 0.741873 0.140745
O O17 0.979785 0.250000 0.000000
O O18 0.294495 0.750000 0.500000
O O19 0.500000 0.000000 0.000000
#
# Coordination Sequence:
#
# PCOD8234214 Si02
#       8
#     8   8   8   8   8   8   8   8
#     4  11  22  39  61  92 125 159 213 265 311 379
#     4  11  24  42  63  95 135 168 204 268 331 376
#     4  12  22  39  65  94 125 167 215 263 312 385
#     4  10  21  39  61  89 122 162 208 260 320 376
#     4  10  21  40  64  88 124 167 209 264 316 370
#     4  12  22  37  63  93 122 162 212 260 317 384
#     4  10  21  39  62  92 123 164 216 261 303 378
#     4  12  22  41  70  93 122 168 220 262 317 385
#
# _framework density 19.892631000000002
#
# number of rings (size 3 to 8) (size 9 to 14) (size 15 to 20)
#    0.000    1.000    3.750    5.625    0.000    1.000 
#    0.000    2.500    0.000    0.000    0.000    0.000 
#    0.000    0.000    0.000    0.000    0.000    0.000 
#
# Total GULP energy -793198.567568 kJ/mol
# GULP energy per Si atom -12393.727618 kJ/mol
# Density = 1.984735 g / cm^3
# Si number density = 19.892631 Si / 1000 Ang^3
#
#
#
# Elastic Constant Matrix: (Units=GPa)
#
#
# Indices 1 2 3 4 5 6 
#
# 1 120.8036 43.3558 50.8579 0.0000 0.0000 0.0000
# 2 43.3558 122.2173 49.5504 0.0000 0.0000 0.0000
# 3 50.8579 49.5504 98.0947 0.0000 0.0000 0.0000
# 4 0.0000 0.0000 0.0000 26.4105 0.0000 0.0000
# 5 0.0000 0.0000 0.0000 0.0000 29.5152 0.0000
# 6 0.0000 0.0000 0.0000 0.0000 0.0000 29.6477
#
#
#
# Elastic Compliance Matrix: (Units=1/GPa)
#
#
# Indices 1 2 3 4 5 6 
#
# 1 0.010962 -0.001993 -0.004677 0.000000 0.000000 0.000000
# 2 -0.001993 0.010652 -0.004347 0.000000 0.000000 0.000000
# 3 -0.004677 -0.004347 0.014815 0.000000 0.000000 0.000000
# 4 0.000000 0.000000 0.000000 0.037864 0.000000 0.000000
# 5 0.000000 0.000000 0.000000 0.000000 0.033881 0.000000
# 6 0.000000 0.000000 0.000000 0.000000 0.000000 0.033729
#
#
# Mechanical properties :
#
#
# Convention : Reuss Voigt Hill
#
# Bulk Modulus (GPa) = 69.46860 69.84932 69.65896
# Shear Modulus (GPa) = 29.63243 30.27145 29.95194
#
# Velocity S-wave (km/s) = 3.86374 3.90518 3.88452
# Velocity P-wave (km/s) = 7.40961 7.45140 7.43053
#
# Compressibility (1/GPa) = 0.01439499
#
# Stress axis : x y z
#
# Youngs Moduli (GPa) = 91.22477 93.88322 67.49952
#
# Poissons Ratio (x) = 0.18707 0.31568
# Poissons Ratio (y) = 0.18177 0.29344
# Poissons Ratio (z) = 0.42664 0.40814
#
# Static dielectric constant tensor:
#      x y z
#    x 3.719800 0.000000 0.000000 
#    y 0.000000 3.850460 0.000000 
#    z 0.000000 0.000000 3.597060 
# 
# 
# High freq. dielectric constant tensor:
#      x y z
#    x 1.781780 0.000000 0.000000 
#    y 0.000000 1.791280 0.000000 
#    z 0.000000 0.000000 1.755460 
# 
# From -- ./inp_files/21460.got.cif
#   From: 2010.03.12/outbox.cif.g09.slc.cpg/sg57_11_cif.got.tgz:21460.got - 2010.04.16 15:48:40.
