data_PCOD8234617
_publ_section_title
;
Structure prediction by ZEFSAII (Michael W. Deem and Ramdas Pophale) SiO2 
 PCOD8234617
Probable space group: P B C M
;
_chemical_formula_sum "Si O2"
_cell_formula_units_Z 64
_cell_length_a 8.033412
_cell_length_b 24.452630
_cell_length_c 15.328563
_cell_angle_alpha 90.000000
_cell_angle_beta 90.000000
_cell_angle_gamma 90.000000
_cell_volume 3011.113045
_symmetry_space_group_name_H-M "P B C M"
_symmetry_group_IT_number 57
_symmetry_cell_setting 'orthorhombic'
loop_
_space_group_symop_operation_xyz
x,y,z
-x,-y,1/2+z
x,1/2-y,-z
-x,1/2+y,1/2-z
-x,-y,-z
x,y,1/2-z
-x,1/2+y,z
x,1/2-y,1/2+z
loop_
_atom_site_type_symbol
_atom_site_label
_atom_site_fract_x
_atom_site_fract_y
_atom_site_fract_z
Si Si1 0.370339 0.890446 0.650296
Si Si2 0.996634 0.885846 0.848675
Si Si3 0.959150 0.240731 0.350528
Si Si4 0.680475 0.582881 0.849189
Si Si5 0.408989 0.770999 0.592159
Si Si6 0.591074 0.995133 0.651750
Si Si7 0.711468 0.705400 0.848237
Si Si8 0.844711 0.536414 0.017491
O O1 0.392326 0.871589 0.750000
O O2 0.181172 0.909108 0.634219
O O3 0.416447 0.836921 0.594341
O O4 0.479208 0.942721 0.626158
O O5 0.937703 0.900237 0.750000
O O6 0.992240 0.821742 0.863836
O O7 0.874254 0.911897 0.919261
O O8 0.934108 0.254941 0.250000
O O9 0.777346 0.252771 0.391908
O O10 0.114589 0.274136 0.394555
O O11 0.756471 0.578601 0.750000
O O12 0.504985 0.552303 0.849235
O O13 0.655826 0.645412 0.880698
O O14 0.794023 0.554232 0.920924
O O15 0.471133 0.750000 0.500000
O O16 0.554212 0.746427 0.652708
O O17 0.666140 0.986959 0.750000
O O18 0.719084 0.001445 0.572534
O O19 0.771062 0.700572 0.750000
O O20 0.000000 0.500000 0.000000
#
# Coordination Sequence:
#
# PCOD8234617 Si02
#       8
#     8   8   8   8   8   8   8   8
#     4   9  19  38  64  89 122 162 205 267 321 368
#     4   9  19  37  62  93 126 157 203 268 328 371
#     4   9  20  41  64  89 124 165 213 268 320 379
#     4  10  24  45  62  86 126 173 213 254 310 380
#     4  11  23  35  59  98 130 164 205 262 323 385
#     4  10  22  42  68  91 118 163 218 266 314 377
#     4  10  22  41  64  86 122 174 216 256 313 381
#     4  12  25  39  62  96 124 162 202 262 321 377
#
# _framework density 21.254598999999999
#
# number of rings (size 3 to 8) (size 9 to 14) (size 15 to 20)
#    0.000    2.000    0.000    3.375    3.500    4.500 
#    4.500    0.000    0.000    0.000    0.000    0.000 
#    0.000    0.000    0.000    0.000    0.000    0.000 
#
# Total GULP energy -793051.220747 kJ/mol
# GULP energy per Si atom -12391.425324 kJ/mol
# Density = 2.120622 g / cm^3
# Si number density = 21.254599 Si / 1000 Ang^3
#
#
#
# Elastic Constant Matrix: (Units=GPa)
#
#
# Indices 1 2 3 4 5 6 
#
# 1 115.9240 46.8804 26.8941 0.0000 0.0000 0.0000
# 2 46.8804 77.3700 19.0838 0.0000 0.0000 0.0000
# 3 26.8941 19.0838 94.5404 0.0000 0.0000 0.0000
# 4 0.0000 0.0000 0.0000 17.2918 0.0000 0.0000
# 5 0.0000 0.0000 0.0000 0.0000 29.3495 0.0000
# 6 0.0000 0.0000 0.0000 0.0000 0.0000 28.5561
#
#
#
# Elastic Compliance Matrix: (Units=1/GPa)
#
#
# Indices 1 2 3 4 5 6 
#
# 1 0.011778 -0.006641 -0.002010 0.000000 0.000000 0.000000
# 2 -0.006641 0.017347 -0.001612 0.000000 0.000000 0.000000
# 3 -0.002010 -0.001612 0.011475 0.000000 0.000000 0.000000
# 4 0.000000 0.000000 0.000000 0.057831 0.000000 0.000000
# 5 0.000000 0.000000 0.000000 0.000000 0.034072 0.000000
# 6 0.000000 0.000000 0.000000 0.000000 0.000000 0.035019
#
#
# Mechanical properties :
#
#
# Convention : Reuss Voigt Hill
#
# Bulk Modulus (GPa) = 49.81869 52.61679 51.21774
# Shear Modulus (GPa) = 25.67537 28.03789 26.85663
#
# Velocity S-wave (km/s) = 3.47939 3.63594 3.55853
# Velocity P-wave (km/s) = 6.29535 6.51429 6.40576
#
# Compressibility (1/GPa) = 0.02007279
#
# Stress axis : x y z
#
# Youngs Moduli (GPa) = 84.90163 57.64830 87.14776
#
# Poissons Ratio (x) = 0.38284 0.17517
# Poissons Ratio (y) = 0.56383 0.14051
# Poissons Ratio (z) = 0.17066 0.09295
#
# Static dielectric constant tensor:
#      x y z
#    x 3.913450 0.000000 0.000000 
#    y 0.000000 3.989710 0.000000 
#    z 0.000000 0.000000 4.073430 
# 
# 
# High freq. dielectric constant tensor:
#      x y z
#    x 1.830020 0.000000 0.000000 
#    y 0.000000 1.831050 0.000000 
#    z 0.000000 0.000000 1.833350 
# 
# From -- ./inp_files/16957.got.cif
#   From: 2010.03.12/outbox.cif.g09.slc.cpg/sg57_9_cif.got.tgz:16957.got - 2010.04.16 15:48:40.
