data_PCOD8234170
_publ_section_title
;
Structure prediction by ZEFSAII (Michael W. Deem and Ramdas Pophale) SiO2 
 PCOD8234170
Probable space group: P B C M
;
_chemical_formula_sum "Si O2"
_cell_formula_units_Z 48
_cell_length_a 29.023045
_cell_length_b 8.604521
_cell_length_c 9.084209
_cell_angle_alpha 90.000000
_cell_angle_beta 90.000000
_cell_angle_gamma 90.000000
_cell_volume 2268.594065
_symmetry_space_group_name_H-M "P B C M"
_symmetry_group_IT_number 57
_symmetry_cell_setting 'orthorhombic'
loop_
_space_group_symop_operation_xyz
x,y,z
-x,-y,1/2+z
x,1/2-y,-z
-x,1/2+y,1/2-z
-x,-y,-z
x,y,1/2-z
-x,1/2+y,z
x,1/2-y,1/2+z
loop_
_atom_site_type_symbol
_atom_site_label
_atom_site_fract_x
_atom_site_fract_y
_atom_site_fract_z
Si Si1 0.267428 0.585465 0.079546
Si Si2 0.190271 0.400874 0.914837
Si Si3 0.543419 0.080718 0.927933
Si Si4 0.937053 0.574360 0.750000
Si Si5 0.100644 0.567283 0.524013
Si Si6 0.369282 0.913380 0.578825
Si Si7 0.965875 0.567627 0.250000
O O1 0.254144 0.610494 0.250000
O O2 0.318757 0.508922 0.066963
O O3 0.263384 0.750000 0.000000
O O4 0.233234 0.466109 0.004404
O O5 0.206529 0.358443 0.750000
O O6 0.148751 0.524546 0.899409
O O7 0.172015 0.250000 0.000000
O O8 0.540567 0.081519 0.750000
O O9 0.545397 0.250000 0.000000
O O10 0.590403 0.995317 0.987091
O O11 0.500000 0.000000 0.000000
O O12 0.902383 0.537400 0.619547
O O13 0.954357 0.750360 0.750000
O O14 0.979371 0.453055 0.750000
O O15 0.099361 0.750000 0.500000
O O16 0.055136 0.519311 0.611208
O O17 0.363064 0.750000 0.500000
O O18 0.384169 0.894082 0.750000
#
# Coordination Sequence:
#
# PCOD8234170 Si02
#       7
#     8   8   8   4   8   8   4
#     4  10  21  38  64  94 126 162 208 260 314 376
#     4  12  26  44  66  92 128 166 211 263 326 393
#     4  11  21  35  56  84 119 161 208 261 319 382
#     4  12  26  42  74  94 136 174 210 272 311 394
#     4  12  26  44  68  98 129 169 217 266 319 384
#     4   9  17  32  55  85 118 157 204 257 312 375
#     4  12  24  48  64 102 132 172 220 256 331 370
#
# _framework density 21.158479
#
# number of rings (size 3 to 8) (size 9 to 14) (size 15 to 20)
#    0.000    1.000    0.833    8.000    2.333    2.000 
#    0.000    0.833    0.000    4.000    0.000    0.000 
#    0.000    0.000    0.000    0.000    0.000    0.000 
#
# Total GULP energy -594922.245075 kJ/mol
# GULP energy per Si atom -12394.213439 kJ/mol
# Density = 2.111032 g / cm^3
# Si number density = 21.158479 Si / 1000 Ang^3
#
#
#
# Elastic Constant Matrix: (Units=GPa)
#
#
# Indices 1 2 3 4 5 6 
#
# 1 122.1524 25.9671 46.7908 0.0000 0.0000 0.0000
# 2 25.9671 101.0853 32.1106 0.0000 0.0000 0.0000
# 3 46.7908 32.1106 181.4896 0.0000 0.0000 0.0000
# 4 0.0000 0.0000 0.0000 30.3085 0.0000 0.0000
# 5 0.0000 0.0000 0.0000 0.0000 39.4599 0.0000
# 6 0.0000 0.0000 0.0000 0.0000 0.0000 35.0557
#
#
#
# Elastic Compliance Matrix: (Units=1/GPa)
#
#
# Indices 1 2 3 4 5 6 
#
# 1 0.009362 -0.001736 -0.002107 0.000000 0.000000 0.000000
# 2 -0.001736 0.010804 -0.001464 0.000000 0.000000 0.000000
# 3 -0.002107 -0.001464 0.006312 0.000000 0.000000 0.000000
# 4 0.000000 0.000000 0.000000 0.032994 0.000000 0.000000
# 5 0.000000 0.000000 0.000000 0.000000 0.025342 0.000000
# 6 0.000000 0.000000 0.000000 0.000000 0.000000 0.028526
#
#
# Mechanical properties :
#
#
# Convention : Reuss Voigt Hill
#
# Bulk Modulus (GPa) = 63.03087 68.27382 65.65235
# Shear Modulus (GPa) = 38.68719 40.95540 39.82130
#
# Velocity S-wave (km/s) = 4.28068 4.40437 4.34297
# Velocity P-wave (km/s) = 7.36796 7.62906 7.49965
#
# Compressibility (1/GPa) = 0.01586524
#
# Stress axis : x y z
#
# Youngs Moduli (GPa) = 106.80940 92.56192 158.42588
#
# Poissons Ratio (x) = 0.16067 0.33375
# Poissons Ratio (y) = 0.18541 0.23192
# Poissons Ratio (z) = 0.22501 0.13550
#
# Static dielectric constant tensor:
#      x y z
#    x 4.772930 0.000000 0.000000 
#    y 0.000000 3.536780 0.000000 
#    z 0.000000 0.000000 4.175220 
# 
# 
# High freq. dielectric constant tensor:
#      x y z
#    x 1.850940 0.000000 0.000000 
#    y 0.000000 1.799320 0.000000 
#    z 0.000000 0.000000 1.853340 
# 
# From -- ./inp_files/10152.got.cif
#   From: 2010.03.12/outbox.cif.g09.slc.cpg/sg57_6_cif.got.tgz:10152.got - 2010.04.16 15:48:40.
