data_PCOD8234766
_publ_section_title
;
Structure prediction by ZEFSAII (Michael W. Deem and Ramdas Pophale) SiO2 
 PCOD8234766
Probable space group: P B C M
;
_chemical_formula_sum "Si O2"
_cell_formula_units_Z 56
_cell_length_a 5.314066
_cell_length_b 29.630420
_cell_length_c 14.889907
_cell_angle_alpha 90.000000
_cell_angle_beta 90.000000
_cell_angle_gamma 90.000000
_cell_volume 2344.535088
_symmetry_space_group_name_H-M "P B C M"
_symmetry_group_IT_number 57
_symmetry_cell_setting 'orthorhombic'
loop_
_space_group_symop_operation_xyz
x,y,z
-x,-y,1/2+z
x,1/2-y,-z
-x,1/2+y,1/2-z
-x,-y,-z
x,y,1/2-z
-x,1/2+y,z
x,1/2-y,1/2+z
loop_
_atom_site_type_symbol
_atom_site_label
_atom_site_fract_x
_atom_site_fract_y
_atom_site_fract_z
Si Si1 0.386638 0.504718 0.646880
Si Si2 0.021986 0.619187 0.008583
Si Si3 0.887816 0.945993 0.142329
Si Si4 0.661856 0.417879 0.651463
Si Si5 0.198040 0.707809 0.561100
Si Si6 0.330063 0.336965 0.651064
Si Si7 0.320857 0.233645 0.851278
O O1 0.386904 0.517022 0.750000
O O2 0.117705 0.521440 0.610349
O O3 0.426143 0.451126 0.629570
O O4 0.629436 0.531219 0.607222
O O5 0.145789 0.579119 0.068476
O O6 0.809288 0.640160 0.069677
O O7 0.916853 0.600273 0.913959
O O8 0.218290 0.659612 0.988170
O O9 0.889568 0.936015 0.250000
O O10 0.777238 0.433065 0.750000
O O11 0.585825 0.365494 0.660464
O O12 0.271741 0.750000 0.500000
O O13 0.419000 0.706330 0.635401
O O14 0.911904 0.713612 0.593834
O O15 0.192955 0.338970 0.750000
O O16 0.379451 0.285567 0.623328
O O17 0.234321 0.228841 0.750000
#
# Coordination Sequence:
#
# PCOD8234766 Si02
#       7
#     8   8   8   8   8   8   8
#     4   9  21  44  68  94 134 180 224 279 335 397
#     4  12  26  40  70  98 138 176 225 282 343 401
#     4  10  24  44  66  95 136 183 227 276 331 396
#     4  10  23  42  69 100 134 174 223 279 347 410
#     4  12  25  44  69  98 138 174 226 278 347 408
#     4  10  23  43  67 100 134 172 223 283 345 405
#     4  11  25  46  70  96 132 180 230 283 340 410
#
# _framework density 23.885331000000001
#
# number of rings (size 3 to 8) (size 9 to 14) (size 15 to 20)
#    0.000    1.429    1.429    2.143    6.000    2.286 
#    0.000    1.429    0.000    0.000    0.000    0.000 
#    0.000    0.000    0.000    0.000    0.000    0.000 
#
# Total GULP energy -693917.879692 kJ/mol
# GULP energy per Si atom -12391.390709 kJ/mol
# Density = 2.383097 g / cm^3
# Si number density = 23.885331 Si / 1000 Ang^3
#
#
#
# Elastic Constant Matrix: (Units=GPa)
#
#
# Indices 1 2 3 4 5 6 
#
# 1 99.5726 14.1378 24.9905 0.0000 0.0000 0.0000
# 2 14.1378 80.3045 35.0326 0.0000 0.0000 0.0000
# 3 24.9905 35.0326 86.6305 0.0000 0.0000 0.0000
# 4 0.0000 0.0000 0.0000 24.5983 0.0000 0.0000
# 5 0.0000 0.0000 0.0000 0.0000 24.2187 0.0000
# 6 0.0000 0.0000 0.0000 0.0000 0.0000 25.1762
#
#
#
# Elastic Compliance Matrix: (Units=1/GPa)
#
#
# Indices 1 2 3 4 5 6 
#
# 1 0.010856 -0.000662 -0.002864 0.000000 0.000000 0.000000
# 2 -0.000662 0.015160 -0.005940 0.000000 0.000000 0.000000
# 3 -0.002864 -0.005940 0.014771 0.000000 0.000000 0.000000
# 4 0.000000 0.000000 0.000000 0.040653 0.000000 0.000000
# 5 0.000000 0.000000 0.000000 0.000000 0.041290 0.000000
# 6 0.000000 0.000000 0.000000 0.000000 0.000000 0.039720
#
#
# Mechanical properties :
#
#
# Convention : Reuss Voigt Hill
#
# Bulk Modulus (GPa) = 45.75316 46.09215 45.92265
# Shear Modulus (GPa) = 26.50161 27.62174 27.06168
#
# Velocity S-wave (km/s) = 3.33458 3.40432 3.36963
# Velocity P-wave (km/s) = 5.83291 5.89845 5.86577
#
# Compressibility (1/GPa) = 0.02185641
#
# Stress axis : x y z
#
# Youngs Moduli (GPa) = 92.11771 65.96169 67.69814
#
# Poissons Ratio (x) = 0.04365 0.19388
# Poissons Ratio (y) = 0.06096 0.40211
# Poissons Ratio (z) = 0.26382 0.39180
#
# Static dielectric constant tensor:
#      x y z
#    x 4.184650 0.000000 0.000000 
#    y 0.000000 4.801920 0.000000 
#    z 0.000000 0.000000 4.561460 
# 
# 
# High freq. dielectric constant tensor:
#      x y z
#    x 1.937070 0.000000 0.000000 
#    y 0.000000 1.942530 0.000000 
#    z 0.000000 0.000000 1.953100 
# 
# From -- ./inp_files/15239.got.cif
#   From: 2010.03.12/outbox.cif.g09.slc.cpg/sg57_8_cif.got.tgz:15239.got - 2010.04.16 15:48:40.
