data_PCOD8234209
_publ_section_title
;
Structure prediction by ZEFSAII (Michael W. Deem and Ramdas Pophale) SiO2 
 PCOD8234209
Probable space group: P B C M
;
_chemical_formula_sum "Si O2"
_cell_formula_units_Z 48
_cell_length_a 11.715274
_cell_length_b 13.549962
_cell_length_c 14.057890
_cell_angle_alpha 90.000000
_cell_angle_beta 90.000000
_cell_angle_gamma 90.000000
_cell_volume 2231.570792
_symmetry_space_group_name_H-M "P B C M"
_symmetry_group_IT_number 57
_symmetry_cell_setting 'orthorhombic'
loop_
_space_group_symop_operation_xyz
x,y,z
-x,-y,1/2+z
x,1/2-y,-z
-x,1/2+y,1/2-z
-x,-y,-z
x,y,1/2-z
-x,1/2+y,z
x,1/2-y,1/2+z
loop_
_atom_site_type_symbol
_atom_site_label
_atom_site_fract_x
_atom_site_fract_y
_atom_site_fract_z
Si Si1 0.319397 0.083947 0.858345
Si Si2 0.773372 0.287221 0.860777
Si Si3 0.678540 0.806611 0.859228
Si Si4 0.114374 0.615128 0.974319
Si Si5 0.451178 0.897442 0.860790
Si Si6 0.137124 0.103523 0.009370
O O1 0.293319 0.053532 0.750000
O O2 0.367986 0.194651 0.866572
O O3 0.407260 0.002785 0.901897
O O4 0.200325 0.080704 0.911774
O O5 0.806283 0.293098 0.750000
O O6 0.838689 0.373133 0.918081
O O7 0.638723 0.308110 0.877550
O O8 0.810150 0.180913 0.902320
O O9 0.708168 0.832746 0.750000
O O10 0.575589 0.871632 0.904554
O O11 0.792199 0.823088 0.921847
O O12 0.983232 0.651711 0.979970
O O13 0.119946 0.502312 0.938386
O O14 0.474722 0.908717 0.750000
#
# Coordination Sequence:
#
# PCOD8234209 Si02
#       6
#     8   8   8   8   8   8
#     4  10  21  39  61  88 121 163 206 250 310 369
#     4  10  21  41  65  89 120 161 205 253 307 362
#     4  10  23  39  61  93 126 163 208 256 311 371
#     4  10  24  40  61  91 125 164 211 254 299 374
#     4   9  19  40  64  89 123 161 208 259 307 372
#     4  11  23  42  59  88 130 162 204 261 309 361
#
# _framework density 21.509513999999999
#
# number of rings (size 3 to 8) (size 9 to 14) (size 15 to 20)
#    0.000    2.000    1.667    0.500    4.667    4.000 
#    6.000    6.667    0.000    0.000    0.000    0.000 
#    0.000    0.000    0.000    0.000    0.000    0.000 
#
# Total GULP energy -594911.536813 kJ/mol
# GULP energy per Si atom -12393.990350 kJ/mol
# Density = 2.146056 g / cm^3
# Si number density = 21.509514 Si / 1000 Ang^3
#
#
#
# Elastic Constant Matrix: (Units=GPa)
#
#
# Indices 1 2 3 4 5 6 
#
# 1 110.6614 18.3911 29.8673 0.0000 0.0000 0.0000
# 2 18.3911 99.8035 19.5300 0.0000 0.0000 0.0000
# 3 29.8673 19.5300 80.4092 0.0000 0.0000 0.0000
# 4 0.0000 0.0000 0.0000 28.3132 0.0000 0.0000
# 5 0.0000 0.0000 0.0000 0.0000 24.7187 0.0000
# 6 0.0000 0.0000 0.0000 0.0000 0.0000 28.3092
#
#
#
# Elastic Compliance Matrix: (Units=1/GPa)
#
#
# Indices 1 2 3 4 5 6 
#
# 1 0.010177 -0.001192 -0.003490 0.000000 0.000000 0.000000
# 2 -0.001192 0.010659 -0.002146 0.000000 0.000000 0.000000
# 3 -0.003490 -0.002146 0.014254 0.000000 0.000000 0.000000
# 4 0.000000 0.000000 0.000000 0.035319 0.000000 0.000000
# 5 0.000000 0.000000 0.000000 0.000000 0.040455 0.000000
# 6 0.000000 0.000000 0.000000 0.000000 0.000000 0.035324
#
#
# Mechanical properties :
#
#
# Convention : Reuss Voigt Hill
#
# Bulk Modulus (GPa) = 46.65802 47.38342 47.02072
# Shear Modulus (GPa) = 29.94175 31.14059 30.54117
#
# Velocity S-wave (km/s) = 3.73503 3.80907 3.77223
# Velocity P-wave (km/s) = 6.35134 6.43601 6.39382
#
# Compressibility (1/GPa) = 0.02143254
#
# Stress axis : x y z
#
# Youngs Moduli (GPa) = 98.26268 93.81431 70.15498
#
# Poissons Ratio (x) = 0.11185 0.24488
# Poissons Ratio (y) = 0.11716 0.15056
# Poissons Ratio (z) = 0.34299 0.20134
#
# Static dielectric constant tensor:
#      x y z
#    x 3.890440 0.000000 0.000000 
#    y 0.000000 4.112350 0.000000 
#    z 0.000000 0.000000 3.728050 
# 
# 
# High freq. dielectric constant tensor:
#      x y z
#    x 1.840080 0.000000 0.000000 
#    y 0.000000 1.857320 0.000000 
#    z 0.000000 0.000000 1.829120 
# 
# From -- ./inp_files/17597.got.cif
#   From: 2010.03.12/outbox.cif.g09.slc.cpg/sg57_9_cif.got.tgz:17597.got - 2010.04.16 15:48:40.
